
*** ChampSim Multicore Out-of-Order Simulator ***

Warmup Instructions: 50000000
Simulation Instructions: 200000000
Number of CPUs: 4
LLC sets: 8192
LLC ways: 16
Off-chip DRAM Size: 4096 MB Channels: 1 Width: 64-bit Data Rate: 6400 MT/s
CPU 0 runs ./traces/cs/cloud9_phase3_core0.trace.xz
.xz
CPU 1 runs ./traces/cs/cloud9_phase3_core1.trace.xz
.xz
CPU 2 runs ./traces/cs/cloud9_phase3_core2.trace.xz
.xz
CPU 3 runs ./traces/cs/cloud9_phase3_core3.trace.xz
.xz
BTB has LRU replacement policy
ITLB has LRU replacement policy
DTLB has LRU replacement policy
STLB has LRU replacement policy
L1I has LRU replacement policy
History Sets: 8
History Ways: 16
BERTI Size: 16
BERTI Stride Size: 8
L1D has LRU replacement policy
Initialize SRRIP state for L2C
Initialize DRRIP state for LLC
BTB has LRU replacement policy
ITLB has LRU replacement policy
DTLB has LRU replacement policy
STLB has LRU replacement policy
L1I has LRU replacement policy
History Sets: 8
History Ways: 16
BERTI Size: 16
BERTI Stride Size: 8
L1D has LRU replacement policy
Initialize SRRIP state for L2C
Initialize DRRIP state for LLC
BTB has LRU replacement policy
ITLB has LRU replacement policy
DTLB has LRU replacement policy
STLB has LRU replacement policy
L1I has LRU replacement policy
History Sets: 8
History Ways: 16
BERTI Size: 16
BERTI Stride Size: 8
L1D has LRU replacement policy
Initialize SRRIP state for L2C
Initialize DRRIP state for LLC
BTB has LRU replacement policy
ITLB has LRU replacement policy
DTLB has LRU replacement policy
STLB has LRU replacement policy
L1I has LRU replacement policy
History Sets: 8
History Ways: 16
BERTI Size: 16
BERTI Stride Size: 8
L1D has LRU replacement policy
Initialize SRRIP state for L2C
Initialize DRRIP state for LLC
UNIQUE_ASID[0] = €
UNIQUE_ASID[1] = 
Heartbeat CPU 3 instructions: 10000000 cycles: 3367096 heartbeat IPC: 2.96992 cumulative IPC: 2.96992 (Simulation time: 0 hr 1 min 58 sec) 
Heartbeat CPU 0 instructions: 10000003 cycles: 3451060 heartbeat IPC: 2.89766 cumulative IPC: 2.89766 (Simulation time: 0 hr 2 min 0 sec) 
Heartbeat CPU 1 instructions: 10000000 cycles: 3859969 heartbeat IPC: 2.59069 cumulative IPC: 2.59069 (Simulation time: 0 hr 2 min 12 sec) 
Heartbeat CPU 2 instructions: 10000001 cycles: 3880041 heartbeat IPC: 2.57729 cumulative IPC: 2.57729 (Simulation time: 0 hr 2 min 12 sec) 
Heartbeat CPU 3 instructions: 20000000 cycles: 6735550 heartbeat IPC: 2.96872 cumulative IPC: 2.96932 (Simulation time: 0 hr 3 min 37 sec) 
Heartbeat CPU 0 instructions: 20000001 cycles: 6763414 heartbeat IPC: 3.019 cumulative IPC: 2.95709 (Simulation time: 0 hr 3 min 38 sec) 
Heartbeat CPU 1 instructions: 20000003 cycles: 7706370 heartbeat IPC: 2.59983 cumulative IPC: 2.59526 (Simulation time: 0 hr 4 min 3 sec) 
Heartbeat CPU 2 instructions: 20000003 cycles: 7749983 heartbeat IPC: 2.58402 cumulative IPC: 2.58065 (Simulation time: 0 hr 4 min 4 sec) 
Heartbeat CPU 3 instructions: 30000001 cycles: 10078815 heartbeat IPC: 2.99109 cumulative IPC: 2.97654 (Simulation time: 0 hr 5 min 24 sec) 
Heartbeat CPU 0 instructions: 30000002 cycles: 10258329 heartbeat IPC: 2.8613 cumulative IPC: 2.92445 (Simulation time: 0 hr 5 min 31 sec) 
Heartbeat CPU 2 instructions: 30000000 cycles: 11641694 heartbeat IPC: 2.56956 cumulative IPC: 2.57694 (Simulation time: 0 hr 6 min 29 sec) 
Heartbeat CPU 1 instructions: 30000003 cycles: 11669903 heartbeat IPC: 2.523 cumulative IPC: 2.57072 (Simulation time: 0 hr 6 min 30 sec) 
Heartbeat CPU 3 instructions: 40000003 cycles: 13435533 heartbeat IPC: 2.9791 cumulative IPC: 2.97718 (Simulation time: 0 hr 7 min 37 sec) 
Heartbeat CPU 0 instructions: 40000000 cycles: 13537394 heartbeat IPC: 3.04965 cumulative IPC: 2.95478 (Simulation time: 0 hr 7 min 41 sec) 
Heartbeat CPU 1 instructions: 40000002 cycles: 15516870 heartbeat IPC: 2.59945 cumulative IPC: 2.57784 (Simulation time: 0 hr 8 min 59 sec) 
Heartbeat CPU 2 instructions: 40000000 cycles: 15566938 heartbeat IPC: 2.54761 cumulative IPC: 2.56955 (Simulation time: 0 hr 9 min 1 sec) 
Heartbeat CPU 3 instructions: 50000003 cycles: 16775387 heartbeat IPC: 2.99414 cumulative IPC: 2.98056 (Simulation time: 0 hr 9 min 42 sec) 
Heartbeat CPU 0 instructions: 50000000 cycles: 16957682 heartbeat IPC: 2.92373 cumulative IPC: 2.94852 (Simulation time: 0 hr 9 min 49 sec) 
Heartbeat CPU 1 instructions: 50000003 cycles: 19360966 heartbeat IPC: 2.60139 cumulative IPC: 2.58252 (Simulation time: 0 hr 11 min 24 sec) 
Heartbeat CPU 2 instructions: 50000001 cycles: 19410750 heartbeat IPC: 2.60158 cumulative IPC: 2.57589 (Simulation time: 0 hr 11 min 25 sec) 

Warmup complete CPU 0 instructions: 56719453 cycles: 19410750 (Simulation time: 0 hr 11 min 25 sec) 
Warmup complete CPU 1 instructions: 50129445 cycles: 19410750 (Simulation time: 0 hr 11 min 25 sec) 
Warmup complete CPU 2 instructions: 50000001 cycles: 19410750 (Simulation time: 0 hr 11 min 25 sec) 
Warmup complete CPU 3 instructions: 57594220 cycles: 19410749 (Simulation time: 0 hr 11 min 25 sec) 

Heartbeat CPU 3 instructions: 60000003 cycles: 22851127 heartbeat IPC: 1.64589 cumulative IPC: 0.699279 (Simulation time: 0 hr 12 min 12 sec) 
Heartbeat CPU 0 instructions: 60000002 cycles: 26572068 heartbeat IPC: 1.04011 cumulative IPC: 0.458093 (Simulation time: 0 hr 13 min 11 sec) 
Heartbeat CPU 1 instructions: 60000003 cycles: 36137356 heartbeat IPC: 0.596076 cumulative IPC: 0.590111 (Simulation time: 0 hr 15 min 28 sec) 
Heartbeat CPU 2 instructions: 60000000 cycles: 37119482 heartbeat IPC: 0.564693 cumulative IPC: 0.564693 (Simulation time: 0 hr 15 min 41 sec) 
Heartbeat CPU 3 instructions: 70000002 cycles: 37226988 heartbeat IPC: 0.69561 cumulative IPC: 0.696319 (Simulation time: 0 hr 15 min 42 sec) 
Heartbeat CPU 0 instructions: 70000002 cycles: 47152003 heartbeat IPC: 0.48591 cumulative IPC: 0.478729 (Simulation time: 0 hr 17 min 34 sec) 
Heartbeat CPU 3 instructions: 80000000 cycles: 51626783 heartbeat IPC: 0.694454 cumulative IPC: 0.695485 (Simulation time: 0 hr 18 min 18 sec) 
Heartbeat CPU 1 instructions: 70000000 cycles: 53330821 heartbeat IPC: 0.581616 cumulative IPC: 0.585805 (Simulation time: 0 hr 18 min 38 sec) 
Heartbeat CPU 2 instructions: 70000002 cycles: 54387020 heartbeat IPC: 0.579121 cumulative IPC: 0.571816 (Simulation time: 0 hr 18 min 49 sec) 
Heartbeat CPU 3 instructions: 90000001 cycles: 66143839 heartbeat IPC: 0.688845 cumulative IPC: 0.693423 (Simulation time: 0 hr 21 min 23 sec) 
Heartbeat CPU 0 instructions: 80000003 cycles: 69203659 heartbeat IPC: 0.453481 cumulative IPC: 0.467548 (Simulation time: 0 hr 22 min 14 sec) 
Heartbeat CPU 2 instructions: 80000001 cycles: 70548460 heartbeat IPC: 0.618757 cumulative IPC: 0.586651 (Simulation time: 0 hr 22 min 32 sec) 
Heartbeat CPU 1 instructions: 80000000 cycles: 70605782 heartbeat IPC: 0.578873 cumulative IPC: 0.583466 (Simulation time: 0 hr 22 min 33 sec) 
Heartbeat CPU 3 instructions: 100000001 cycles: 80312001 heartbeat IPC: 0.705808 cumulative IPC: 0.696304 (Simulation time: 0 hr 24 min 52 sec) 
Heartbeat CPU 0 instructions: 90000001 cycles: 82460536 heartbeat IPC: 0.754325 cumulative IPC: 0.527846 (Simulation time: 0 hr 25 min 26 sec) 
Heartbeat CPU 2 instructions: 90000002 cycles: 85524566 heartbeat IPC: 0.66773 cumulative IPC: 0.605017 (Simulation time: 0 hr 26 min 7 sec) 
Heartbeat CPU 1 instructions: 90000002 cycles: 87376679 heartbeat IPC: 0.596271 cumulative IPC: 0.586626 (Simulation time: 0 hr 26 min 29 sec) 
Heartbeat CPU 3 instructions: 110000000 cycles: 94367910 heartbeat IPC: 0.711444 cumulative IPC: 0.699143 (Simulation time: 0 hr 28 min 29 sec) 
Heartbeat CPU 0 instructions: 100000000 cycles: 95345798 heartbeat IPC: 0.77608 cumulative IPC: 0.569968 (Simulation time: 0 hr 28 min 48 sec) 
Heartbeat CPU 2 instructions: 100000003 cycles: 101033394 heartbeat IPC: 0.644794 cumulative IPC: 0.612575 (Simulation time: 0 hr 30 min 6 sec) 
Heartbeat CPU 1 instructions: 100000002 cycles: 104202798 heartbeat IPC: 0.594314 cumulative IPC: 0.588151 (Simulation time: 0 hr 30 min 55 sec) 
Heartbeat CPU 3 instructions: 120000000 cycles: 108399717 heartbeat IPC: 0.712667 cumulative IPC: 0.701275 (Simulation time: 0 hr 31 min 50 sec) 
Heartbeat CPU 2 instructions: 110000000 cycles: 118114346 heartbeat IPC: 0.585447 cumulative IPC: 0.607881 (Simulation time: 0 hr 34 min 11 sec) 
Heartbeat CPU 0 instructions: 110000000 cycles: 120650210 heartbeat IPC: 0.395188 cumulative IPC: 0.526282 (Simulation time: 0 hr 34 min 50 sec) 
Heartbeat CPU 1 instructions: 110000000 cycles: 121322737 heartbeat IPC: 0.584114 cumulative IPC: 0.587473 (Simulation time: 0 hr 35 min 1 sec) 
Heartbeat CPU 3 instructions: 130000000 cycles: 122619784 heartbeat IPC: 0.703232 cumulative IPC: 0.701545 (Simulation time: 0 hr 35 min 22 sec) 
Heartbeat CPU 2 instructions: 120000001 cycles: 135928791 heartbeat IPC: 0.561342 cumulative IPC: 0.600765 (Simulation time: 0 hr 39 min 5 sec) 
Heartbeat CPU 3 instructions: 140000002 cycles: 136796325 heartbeat IPC: 0.705391 cumulative IPC: 0.702009 (Simulation time: 0 hr 39 min 20 sec) 
Heartbeat CPU 0 instructions: 120000000 cycles: 138626842 heartbeat IPC: 0.556278 cumulative IPC: 0.530805 (Simulation time: 0 hr 39 min 50 sec) 
Heartbeat CPU 1 instructions: 120000001 cycles: 138843676 heartbeat IPC: 0.570746 cumulative IPC: 0.585019 (Simulation time: 0 hr 39 min 52 sec) 
Heartbeat CPU 3 instructions: 150000002 cycles: 151054940 heartbeat IPC: 0.70133 cumulative IPC: 0.701936 (Simulation time: 0 hr 42 min 59 sec) 
Heartbeat CPU 2 instructions: 130000002 cycles: 154000923 heartbeat IPC: 0.553338 cumulative IPC: 0.594397 (Simulation time: 0 hr 43 min 40 sec) 
Heartbeat CPU 1 instructions: 130000001 cycles: 155810737 heartbeat IPC: 0.589377 cumulative IPC: 0.585561 (Simulation time: 0 hr 44 min 8 sec) 
Heartbeat CPU 0 instructions: 130000002 cycles: 163050025 heartbeat IPC: 0.409447 cumulative IPC: 0.510171 (Simulation time: 0 hr 45 min 32 sec) 
Heartbeat CPU 3 instructions: 160000003 cycles: 165482396 heartbeat IPC: 0.693123 cumulative IPC: 0.701065 (Simulation time: 0 hr 45 min 59 sec) 
Heartbeat CPU 2 instructions: 140000002 cycles: 171111322 heartbeat IPC: 0.58444 cumulative IPC: 0.593274 (Simulation time: 0 hr 47 min 2 sec) 
Heartbeat CPU 1 instructions: 140000001 cycles: 173014980 heartbeat IPC: 0.581252 cumulative IPC: 0.585079 (Simulation time: 0 hr 47 min 24 sec) 
Heartbeat CPU 3 instructions: 170000001 cycles: 179791633 heartbeat IPC: 0.698849 cumulative IPC: 0.700868 (Simulation time: 0 hr 48 min 38 sec) 
Heartbeat CPU 0 instructions: 140000003 cycles: 183830861 heartbeat IPC: 0.481213 cumulative IPC: 0.506511 (Simulation time: 0 hr 49 min 36 sec) 
Heartbeat CPU 2 instructions: 150000003 cycles: 188438304 heartbeat IPC: 0.577135 cumulative IPC: 0.59162 (Simulation time: 0 hr 50 min 49 sec) 
Heartbeat CPU 1 instructions: 150000000 cycles: 190373369 heartbeat IPC: 0.57609 cumulative IPC: 0.584166 (Simulation time: 0 hr 51 min 20 sec) 
Heartbeat CPU 3 instructions: 180000003 cycles: 194164178 heartbeat IPC: 0.695771 cumulative IPC: 0.700449 (Simulation time: 0 hr 52 min 22 sec) 
Heartbeat CPU 2 instructions: 160000000 cycles: 206089112 heartbeat IPC: 0.566546 cumulative IPC: 0.589249 (Simulation time: 0 hr 55 min 31 sec) 
Heartbeat CPU 1 instructions: 160000000 cycles: 207249825 heartbeat IPC: 0.592541 cumulative IPC: 0.584918 (Simulation time: 0 hr 55 min 50 sec) 
Heartbeat CPU 0 instructions: 150000003 cycles: 207767497 heartbeat IPC: 0.41777 cumulative IPC: 0.495233 (Simulation time: 0 hr 55 min 58 sec) 
Heartbeat CPU 3 instructions: 190000003 cycles: 208685293 heartbeat IPC: 0.688652 cumulative IPC: 0.699544 (Simulation time: 0 hr 56 min 13 sec) 
Heartbeat CPU 3 instructions: 200000000 cycles: 222967411 heartbeat IPC: 0.700176 cumulative IPC: 0.699588 (Simulation time: 0 hr 59 min 32 sec) 
Heartbeat CPU 2 instructions: 170000000 cycles: 223296612 heartbeat IPC: 0.581142 cumulative IPC: 0.588565 (Simulation time: 0 hr 59 min 38 sec) 
Heartbeat CPU 1 instructions: 170000000 cycles: 224281985 heartbeat IPC: 0.587125 cumulative IPC: 0.585102 (Simulation time: 0 hr 59 min 55 sec) 
Heartbeat CPU 0 instructions: 160000002 cycles: 231166558 heartbeat IPC: 0.427368 cumulative IPC: 0.487734 (Simulation time: 1 hr 1 min 28 sec) 
Heartbeat CPU 3 instructions: 210000002 cycles: 237144103 heartbeat IPC: 0.705383 cumulative IPC: 0.699965 (Simulation time: 1 hr 2 min 42 sec) 
Heartbeat CPU 2 instructions: 180000002 cycles: 239266958 heartbeat IPC: 0.626161 cumulative IPC: 0.591296 (Simulation time: 1 hr 3 min 7 sec) 
Heartbeat CPU 1 instructions: 180000000 cycles: 241518878 heartbeat IPC: 0.580151 cumulative IPC: 0.584718 (Simulation time: 1 hr 3 min 44 sec) 
Heartbeat CPU 3 instructions: 220000000 cycles: 251182447 heartbeat IPC: 0.712335 cumulative IPC: 0.700714 (Simulation time: 1 hr 6 min 35 sec) 
Heartbeat CPU 0 instructions: 170000000 cycles: 251408172 heartbeat IPC: 0.494032 cumulative IPC: 0.488284 (Simulation time: 1 hr 6 min 39 sec) 
Heartbeat CPU 2 instructions: 190000003 cycles: 254332542 heartbeat IPC: 0.663765 cumulative IPC: 0.595943 (Simulation time: 1 hr 7 min 24 sec) 
Heartbeat CPU 1 instructions: 190000003 cycles: 258358822 heartbeat IPC: 0.593826 cumulative IPC: 0.58536 (Simulation time: 1 hr 8 min 24 sec) 
Heartbeat CPU 3 instructions: 230000002 cycles: 265372853 heartbeat IPC: 0.704702 cumulative IPC: 0.700944 (Simulation time: 1 hr 10 min 18 sec) 
Heartbeat CPU 2 instructions: 200000000 cycles: 270194267 heartbeat IPC: 0.630448 cumulative IPC: 0.598125 (Simulation time: 1 hr 11 min 26 sec) 
Heartbeat CPU 0 instructions: 180000003 cycles: 273280317 heartbeat IPC: 0.457203 cumulative IPC: 0.485606 (Simulation time: 1 hr 12 min 9 sec) 
Heartbeat CPU 1 instructions: 200000000 cycles: 275338219 heartbeat IPC: 0.588949 cumulative IPC: 0.585598 (Simulation time: 1 hr 12 min 38 sec) 
Heartbeat CPU 3 instructions: 240000000 cycles: 279320689 heartbeat IPC: 0.716957 cumulative IPC: 0.701804 (Simulation time: 1 hr 13 min 32 sec) 
Heartbeat CPU 0 instructions: 190000003 cycles: 286647270 heartbeat IPC: 0.748114 cumulative IPC: 0.498736 (Simulation time: 1 hr 15 min 27 sec) 
Heartbeat CPU 2 instructions: 210000002 cycles: 287270438 heartbeat IPC: 0.585612 cumulative IPC: 0.597328 (Simulation time: 1 hr 15 min 38 sec) 
Heartbeat CPU 1 instructions: 210000000 cycles: 292168126 heartbeat IPC: 0.59418 cumulative IPC: 0.586127 (Simulation time: 1 hr 17 min 2 sec) 
Heartbeat CPU 3 instructions: 250000000 cycles: 293277822 heartbeat IPC: 0.71648 cumulative IPC: 0.702552 (Simulation time: 1 hr 17 min 22 sec) 
Heartbeat CPU 0 instructions: 200000002 cycles: 299470339 heartbeat IPC: 0.779844 cumulative IPC: 0.511607 (Simulation time: 1 hr 18 min 50 sec) 
Finished CPU 3 instructions: 200000003 cycles: 284710514 cumulative IPC: 0.702468 (Simulation time: 1 hr 20 min 8 sec) 
Heartbeat CPU 2 instructions: 220000000 cycles: 304625156 heartbeat IPC: 0.576212 cumulative IPC: 0.596043 (Simulation time: 1 hr 20 min 16 sec) 
Heartbeat CPU 3 instructions: 260000002 cycles: 307533768 heartbeat IPC: 0.701462 cumulative IPC: 0.702498 (Simulation time: 1 hr 21 min 1 sec) 
Heartbeat CPU 1 instructions: 220000000 cycles: 309265230 heartbeat IPC: 0.584894 cumulative IPC: 0.586055 (Simulation time: 1 hr 21 min 29 sec) 
Heartbeat CPU 3 instructions: 270000000 cycles: 321854012 heartbeat IPC: 0.698312 cumulative IPC: 0.7023 (Simulation time: 1 hr 24 min 47 sec) 
Heartbeat CPU 2 instructions: 230000003 cycles: 322521005 heartbeat IPC: 0.558789 cumulative IPC: 0.593843 (Simulation time: 1 hr 24 min 56 sec) 
Heartbeat CPU 0 instructions: 210000003 cycles: 324804070 heartbeat IPC: 0.394731 cumulative IPC: 0.501912 (Simulation time: 1 hr 25 min 28 sec) 
Heartbeat CPU 1 instructions: 230000000 cycles: 326189280 heartbeat IPC: 0.590875 cumulative IPC: 0.586321 (Simulation time: 1 hr 25 min 49 sec) 
Heartbeat CPU 3 instructions: 280000002 cycles: 336232901 heartbeat IPC: 0.695464 cumulative IPC: 0.701989 (Simulation time: 1 hr 28 min 43 sec) 
Heartbeat CPU 2 instructions: 240000001 cycles: 339603399 heartbeat IPC: 0.585398 cumulative IPC: 0.593393 (Simulation time: 1 hr 29 min 28 sec) 
Heartbeat CPU 0 instructions: 220000000 cycles: 342650501 heartbeat IPC: 0.560336 cumulative IPC: 0.505138 (Simulation time: 1 hr 30 min 13 sec) 
Heartbeat CPU 1 instructions: 240000000 cycles: 343373081 heartbeat IPC: 0.581943 cumulative IPC: 0.586088 (Simulation time: 1 hr 30 min 21 sec) 
Heartbeat CPU 3 instructions: 290000000 cycles: 350786134 heartbeat IPC: 0.687132 cumulative IPC: 0.701337 (Simulation time: 1 hr 32 min 6 sec) 
Heartbeat CPU 2 instructions: 250000000 cycles: 357019230 heartbeat IPC: 0.57419 cumulative IPC: 0.592402 (Simulation time: 1 hr 33 min 16 sec) 
Finished CPU 2 instructions: 200000003 cycles: 337608481 cumulative IPC: 0.592402 (Simulation time: 1 hr 33 min 16 sec) 
Heartbeat CPU 1 instructions: 250000001 cycles: 360787690 heartbeat IPC: 0.574231 cumulative IPC: 0.585483 (Simulation time: 1 hr 34 min 11 sec) 
Finished CPU 1 instructions: 200000001 cycles: 341581026 cumulative IPC: 0.585513 (Simulation time: 1 hr 34 min 15 sec) 
Heartbeat CPU 3 instructions: 300000003 cycles: 365140719 heartbeat IPC: 0.696642 cumulative IPC: 0.701142 (Simulation time: 1 hr 35 min 23 sec) 
Heartbeat CPU 0 instructions: 230000002 cycles: 367020684 heartbeat IPC: 0.410338 cumulative IPC: 0.498491 (Simulation time: 1 hr 35 min 58 sec) 
Heartbeat CPU 2 instructions: 260000003 cycles: 374720482 heartbeat IPC: 0.564932 cumulative IPC: 0.591034 (Simulation time: 1 hr 37 min 59 sec) 
Heartbeat CPU 1 instructions: 260000001 cycles: 377671691 heartbeat IPC: 0.592277 cumulative IPC: 0.585804 (Simulation time: 1 hr 38 min 40 sec) 
Heartbeat CPU 3 instructions: 310000001 cycles: 379323385 heartbeat IPC: 0.705086 cumulative IPC: 0.701297 (Simulation time: 1 hr 39 min 3 sec) 
Heartbeat CPU 0 instructions: 240000001 cycles: 387815414 heartbeat IPC: 0.480891 cumulative IPC: 0.497498 (Simulation time: 1 hr 41 min 3 sec) 
Heartbeat CPU 2 instructions: 270000003 cycles: 391943460 heartbeat IPC: 0.58062 cumulative IPC: 0.590552 (Simulation time: 1 hr 42 min 1 sec) 
Heartbeat CPU 3 instructions: 320000000 cycles: 393400823 heartbeat IPC: 0.710356 cumulative IPC: 0.701638 (Simulation time: 1 hr 42 min 22 sec) 
Heartbeat CPU 1 instructions: 270000000 cycles: 394737245 heartbeat IPC: 0.585976 cumulative IPC: 0.585811 (Simulation time: 1 hr 42 min 42 sec) 
Heartbeat CPU 3 instructions: 330000000 cycles: 407589145 heartbeat IPC: 0.704805 cumulative IPC: 0.701754 (Simulation time: 1 hr 45 min 34 sec) 
Heartbeat CPU 2 instructions: 280000003 cycles: 407888784 heartbeat IPC: 0.627143 cumulative IPC: 0.592054 (Simulation time: 1 hr 45 min 39 sec) 
Heartbeat CPU 0 instructions: 250000002 cycles: 411595344 heartbeat IPC: 0.420523 cumulative IPC: 0.492831 (Simulation time: 1 hr 46 min 42 sec) 
Heartbeat CPU 1 instructions: 280000003 cycles: 411970128 heartbeat IPC: 0.580286 cumulative IPC: 0.585569 (Simulation time: 1 hr 46 min 47 sec) 
Heartbeat CPU 3 instructions: 340000003 cycles: 421581325 heartbeat IPC: 0.714685 cumulative IPC: 0.702204 (Simulation time: 1 hr 49 min 7 sec) 
Heartbeat CPU 2 instructions: 290000000 cycles: 422947381 heartbeat IPC: 0.664072 cumulative IPC: 0.594742 (Simulation time: 1 hr 49 min 30 sec) 
Finished CPU 0 instructions: 200000000 cycles: 408143183 cumulative IPC: 0.490024 (Simulation time: 1 hr 50 min 44 sec) 

ChampSim completed all CPUs

Total Simulation Statistics (not including warmup)

CPU 0 cumulative IPC: 0.490024 instructions: 200000000 cycles: 408143183
ITLB TOTAL     ACCESS:   36696661  HIT:   28741194  MISS:    7955467  HIT %:     78.321  MISS %:     21.679   MPKI: 39.7773
ITLB LOAD      ACCESS:          0  HIT:          0  MISS:          0  HIT %:       -nan  MISS %:       -nan   MPKI: 0
ITLB RFO       ACCESS:          0  HIT:          0  MISS:          0  HIT %:       -nan  MISS %:       -nan   MPKI: 0
ITLB PREFETCH  ACCESS:          0  HIT:          0  MISS:          0  HIT %:       -nan  MISS %:       -nan   MPKI: 0
ITLB WRITEBACK ACCESS:          0  HIT:          0  MISS:          0  HIT %:       -nan  MISS %:       -nan   MPKI: 0
DTLB TOTAL     ACCESS:   26615538  HIT:   15051002  MISS:   11564536  HIT %:    56.5497  MISS %:    43.4503   MPKI: 57.8227
DTLB LOAD      ACCESS:          0  HIT:          0  MISS:          0  HIT %:       -nan  MISS %:       -nan   MPKI: 0
DTLB RFO       ACCESS:          0  HIT:          0  MISS:          0  HIT %:       -nan  MISS %:       -nan   MPKI: 0
DTLB PREFETCH  ACCESS:          0  HIT:          0  MISS:          0  HIT %:       -nan  MISS %:       -nan   MPKI: 0
DTLB WRITEBACK ACCESS:          0  HIT:          0  MISS:          0  HIT %:       -nan  MISS %:       -nan   MPKI: 0
STLB TOTAL     ACCESS:   22857446  HIT:    8182173  MISS:   14675273  HIT %:    35.7965  MISS %:    64.2035   MPKI: 73.3764
STLB LOAD      ACCESS:          0  HIT:          0  MISS:          0  HIT %:       -nan  MISS %:       -nan   MPKI: 0
STLB RFO       ACCESS:          0  HIT:          0  MISS:          0  HIT %:       -nan  MISS %:       -nan   MPKI: 0
STLB PREFETCH  ACCESS:          0  HIT:          0  MISS:          0  HIT %:       -nan  MISS %:       -nan   MPKI: 0
STLB WRITEBACK ACCESS:          0  HIT:          0  MISS:          0  HIT %:       -nan  MISS %:       -nan   MPKI: 0
L1D TOTAL     ACCESS:   37690831  HIT:   35153311  MISS:    2537520  HIT %:    93.2675  MISS %:    6.73246   MPKI: 12.6876
L1D LOAD      ACCESS:   19586878  HIT:   17701382  MISS:    1885496  HIT %:    90.3737  MISS %:    9.62632   MPKI: 9.42748
L1D RFO       ACCESS:   13037004  HIT:   12591961  MISS:     445043  HIT %:    96.5863  MISS %:    3.41369   MPKI: 2.22521
L1D PREFETCH  ACCESS:    5066949  HIT:    4859968  MISS:     206981  HIT %:    95.9151  MISS %:    4.08492   MPKI: 1.0349
L1D WRITEBACK ACCESS:          0  HIT:          0  MISS:          0  HIT %:       -nan  MISS %:       -nan   MPKI: 0
L1I TOTAL     ACCESS:   44860211  HIT:   44780365  MISS:      79846  HIT %:     99.822  MISS %:   0.177988   MPKI: 0.39923
L1I LOAD      ACCESS:   44860211  HIT:   44780365  MISS:      79846  HIT %:     99.822  MISS %:   0.177988   MPKI: 0.39923
L1I RFO       ACCESS:          0  HIT:          0  MISS:          0  HIT %:       -nan  MISS %:       -nan   MPKI: 0
L1I PREFETCH  ACCESS:          0  HIT:          0  MISS:          0  HIT %:       -nan  MISS %:       -nan   MPKI: 0
L1I WRITEBACK ACCESS:          0  HIT:          0  MISS:          0  HIT %:       -nan  MISS %:       -nan   MPKI: 0
L2C TOTAL     ACCESS:   23613916  HIT:   21663823  MISS:    1950093  HIT %:    91.7418  MISS %:    8.25824   MPKI: 9.75047
L2C LOAD      ACCESS:    1963131  HIT:     775376  MISS:    1187755  HIT %:    39.4969  MISS %:    60.5031   MPKI: 5.93877
L2C RFO       ACCESS:     444964  HIT:     327862  MISS:     117102  HIT %:    73.6828  MISS %:    26.3172   MPKI: 0.58551
L2C PREFETCH  ACCESS:    3854052  HIT:    3402419  MISS:     451633  HIT %:    88.2816  MISS %:    11.7184   MPKI: 2.25816
L2C WRITEBACK ACCESS:    1647927  HIT:    1546268  MISS:     101659  HIT %:    93.8311  MISS %:     6.1689   MPKI: 0.508295
PSCL5 TOTAL     ACCESS:   14789666  HIT:   14789666  MISS:          0  HIT %:        100  MISS %:          0   MPKI: 0
PSCL5 LOAD      ACCESS:          0  HIT:          0  MISS:          0  HIT %:       -nan  MISS %:       -nan   MPKI: 0
PSCL5 RFO       ACCESS:          0  HIT:          0  MISS:          0  HIT %:       -nan  MISS %:       -nan   MPKI: 0
PSCL5 PREFETCH  ACCESS:          0  HIT:          0  MISS:          0  HIT %:       -nan  MISS %:       -nan   MPKI: 0
PSCL5 WRITEBACK ACCESS:          0  HIT:          0  MISS:          0  HIT %:       -nan  MISS %:       -nan   MPKI: 0
PSCL4 TOTAL     ACCESS:   10150951  HIT:   10150951  MISS:          0  HIT %:        100  MISS %:          0   MPKI: 0
PSCL4 LOAD      ACCESS:          0  HIT:          0  MISS:          0  HIT %:       -nan  MISS %:       -nan   MPKI: 0
PSCL4 RFO       ACCESS:          0  HIT:          0  MISS:          0  HIT %:       -nan  MISS %:       -nan   MPKI: 0
PSCL4 PREFETCH  ACCESS:          0  HIT:          0  MISS:          0  HIT %:       -nan  MISS %:       -nan   MPKI: 0
PSCL4 WRITEBACK ACCESS:          0  HIT:          0  MISS:          0  HIT %:       -nan  MISS %:       -nan   MPKI: 0
PSCL3 TOTAL     ACCESS:   14785627  HIT:   14785004  MISS:        623  HIT %:    99.9958  MISS %: 0.00421355   MPKI: 0.003115
PSCL3 LOAD      ACCESS:          0  HIT:          0  MISS:          0  HIT %:       -nan  MISS %:       -nan   MPKI: 0
PSCL3 RFO       ACCESS:          0  HIT:          0  MISS:          0  HIT %:       -nan  MISS %:       -nan   MPKI: 0
PSCL3 PREFETCH  ACCESS:          0  HIT:          0  MISS:          0  HIT %:       -nan  MISS %:       -nan   MPKI: 0
PSCL3 WRITEBACK ACCESS:          0  HIT:          0  MISS:          0  HIT %:       -nan  MISS %:       -nan   MPKI: 0
PSCL2 TOTAL     ACCESS:   14786374  HIT:   13876102  MISS:     910272  HIT %:    93.8438  MISS %:    6.15615   MPKI: 4.55136
PSCL2 LOAD      ACCESS:          0  HIT:          0  MISS:          0  HIT %:       -nan  MISS %:       -nan   MPKI: 0
PSCL2 RFO       ACCESS:          0  HIT:          0  MISS:          0  HIT %:       -nan  MISS %:       -nan   MPKI: 0
PSCL2 PREFETCH  ACCESS:          0  HIT:          0  MISS:          0  HIT %:       -nan  MISS %:       -nan   MPKI: 0
PSCL2 WRITEBACK ACCESS:          0  HIT:          0  MISS:          0  HIT %:       -nan  MISS %:       -nan   MPKI: 0
LLC TOTAL     ACCESS:    2937318  HIT:    1710378  MISS:    1226940  HIT %:    58.2292  MISS %:    41.7708   MPKI: 6.1347
LLC LOAD      ACCESS:    1184818  HIT:     368976  MISS:     815842  HIT %:     31.142  MISS %:     68.858   MPKI: 4.07921
LLC RFO       ACCESS:     116169  HIT:      63581  MISS:      52588  HIT %:    54.7315  MISS %:    45.2685   MPKI: 0.26294
LLC PREFETCH  ACCESS:     455498  HIT:     125137  MISS:     330361  HIT %:    27.4726  MISS %:    72.5274   MPKI: 1.6518
LLC WRITEBACK ACCESS:    1088889  HIT:    1070084  MISS:      18805  HIT %:     98.273  MISS %:    1.72699   MPKI: 0.094025

RAW hits: 3562368
Loads Generated: 34270886
Loads sent to L1D: 30708516
Stores Generated: 14503185
Stores sent to L1D: 14503185

CPU 1 cumulative IPC: 0.585826 instructions: 239100805 cycles: 408143183
ITLB TOTAL     ACCESS:   48858817  HIT:   37113791  MISS:   11745026  HIT %:    75.9613  MISS %:    24.0387   MPKI: 49.1216
ITLB LOAD      ACCESS:          0  HIT:          0  MISS:          0  HIT %:       -nan  MISS %:       -nan   MPKI: 0
ITLB RFO       ACCESS:          0  HIT:          0  MISS:          0  HIT %:       -nan  MISS %:       -nan   MPKI: 0
ITLB PREFETCH  ACCESS:          0  HIT:          0  MISS:          0  HIT %:       -nan  MISS %:       -nan   MPKI: 0
ITLB WRITEBACK ACCESS:          0  HIT:          0  MISS:          0  HIT %:       -nan  MISS %:       -nan   MPKI: 0
DTLB TOTAL     ACCESS:   34488006  HIT:   20659157  MISS:   13828849  HIT %:    59.9024  MISS %:    40.0976   MPKI: 57.8369
DTLB LOAD      ACCESS:          0  HIT:          0  MISS:          0  HIT %:       -nan  MISS %:       -nan   MPKI: 0
DTLB RFO       ACCESS:          0  HIT:          0  MISS:          0  HIT %:       -nan  MISS %:       -nan   MPKI: 0
DTLB PREFETCH  ACCESS:          0  HIT:          0  MISS:          0  HIT %:       -nan  MISS %:       -nan   MPKI: 0
DTLB WRITEBACK ACCESS:          0  HIT:          0  MISS:          0  HIT %:       -nan  MISS %:       -nan   MPKI: 0
STLB TOTAL     ACCESS:   35042763  HIT:   11523431  MISS:   23519332  HIT %:    32.8839  MISS %:    67.1161   MPKI: 98.3658
STLB LOAD      ACCESS:          0  HIT:          0  MISS:          0  HIT %:       -nan  MISS %:       -nan   MPKI: 0
STLB RFO       ACCESS:          0  HIT:          0  MISS:          0  HIT %:       -nan  MISS %:       -nan   MPKI: 0
STLB PREFETCH  ACCESS:          0  HIT:          0  MISS:          0  HIT %:       -nan  MISS %:       -nan   MPKI: 0
STLB WRITEBACK ACCESS:          0  HIT:          0  MISS:          0  HIT %:       -nan  MISS %:       -nan   MPKI: 0
L1D TOTAL     ACCESS:   64239150  HIT:   62367627  MISS:    1871523  HIT %:    97.0866  MISS %:    2.91337   MPKI: 7.82734
L1D LOAD      ACCESS:   24436986  HIT:   23433788  MISS:    1003198  HIT %:    95.8948  MISS %:    4.10524   MPKI: 4.19571
L1D RFO       ACCESS:   15495930  HIT:   15415489  MISS:      80441  HIT %:    99.4809  MISS %:   0.519111   MPKI: 0.336431
L1D PREFETCH  ACCESS:   24306234  HIT:   23518350  MISS:     787884  HIT %:    96.7585  MISS %:    3.24149   MPKI: 3.2952
L1D WRITEBACK ACCESS:          0  HIT:          0  MISS:          0  HIT %:       -nan  MISS %:       -nan   MPKI: 0
L1I TOTAL     ACCESS:   58435373  HIT:   58417952  MISS:      17421  HIT %:    99.9702  MISS %:  0.0298124   MPKI: 0.0728605
L1I LOAD      ACCESS:   58435373  HIT:   58417952  MISS:      17421  HIT %:    99.9702  MISS %:  0.0298124   MPKI: 0.0728605
L1I RFO       ACCESS:          0  HIT:          0  MISS:          0  HIT %:       -nan  MISS %:       -nan   MPKI: 0
L1I PREFETCH  ACCESS:          0  HIT:          0  MISS:          0  HIT %:       -nan  MISS %:       -nan   MPKI: 0
L1I WRITEBACK ACCESS:          0  HIT:          0  MISS:          0  HIT %:       -nan  MISS %:       -nan   MPKI: 0
L2C TOTAL     ACCESS:   35006204  HIT:   33366429  MISS:    1639775  HIT %:    95.3158  MISS %:    4.68424   MPKI: 6.85809
L2C LOAD      ACCESS:    1020115  HIT:     489709  MISS:     530406  HIT %:    48.0053  MISS %:    51.9947   MPKI: 2.21834
L2C RFO       ACCESS:      80438  HIT:      18923  MISS:      61515  HIT %:     23.525  MISS %:     76.475   MPKI: 0.257276
L2C PREFETCH  ACCESS:    8980192  HIT:    8008500  MISS:     971692  HIT %:    89.1796  MISS %:    10.8204   MPKI: 4.06394
L2C WRITEBACK ACCESS:    1081261  HIT:    1024073  MISS:      57188  HIT %:     94.711  MISS %:    5.28901   MPKI: 0.239179
PSCL5 TOTAL     ACCESS:   23754390  HIT:   23754390  MISS:          0  HIT %:        100  MISS %:          0   MPKI: 0
PSCL5 LOAD      ACCESS:          0  HIT:          0  MISS:          0  HIT %:       -nan  MISS %:       -nan   MPKI: 0
PSCL5 RFO       ACCESS:          0  HIT:          0  MISS:          0  HIT %:       -nan  MISS %:       -nan   MPKI: 0
PSCL5 PREFETCH  ACCESS:          0  HIT:          0  MISS:          0  HIT %:       -nan  MISS %:       -nan   MPKI: 0
PSCL5 WRITEBACK ACCESS:          0  HIT:          0  MISS:          0  HIT %:       -nan  MISS %:       -nan   MPKI: 0
PSCL4 TOTAL     ACCESS:   23754390  HIT:   23754390  MISS:          0  HIT %:        100  MISS %:          0   MPKI: 0
PSCL4 LOAD      ACCESS:          0  HIT:          0  MISS:          0  HIT %:       -nan  MISS %:       -nan   MPKI: 0
PSCL4 RFO       ACCESS:          0  HIT:          0  MISS:          0  HIT %:       -nan  MISS %:       -nan   MPKI: 0
PSCL4 PREFETCH  ACCESS:          0  HIT:          0  MISS:          0  HIT %:       -nan  MISS %:       -nan   MPKI: 0
PSCL4 WRITEBACK ACCESS:          0  HIT:          0  MISS:          0  HIT %:       -nan  MISS %:       -nan   MPKI: 0
PSCL3 TOTAL     ACCESS:   23753962  HIT:   23753902  MISS:         60  HIT %:    99.9997  MISS %: 0.000252589   MPKI: 0.00025094
PSCL3 LOAD      ACCESS:          0  HIT:          0  MISS:          0  HIT %:       -nan  MISS %:       -nan   MPKI: 0
PSCL3 RFO       ACCESS:          0  HIT:          0  MISS:          0  HIT %:       -nan  MISS %:       -nan   MPKI: 0
PSCL3 PREFETCH  ACCESS:          0  HIT:          0  MISS:          0  HIT %:       -nan  MISS %:       -nan   MPKI: 0
PSCL3 WRITEBACK ACCESS:          0  HIT:          0  MISS:          0  HIT %:       -nan  MISS %:       -nan   MPKI: 0
PSCL2 TOTAL     ACCESS:   23754334  HIT:   23664627  MISS:      89707  HIT %:    99.6224  MISS %:   0.377645   MPKI: 0.375185
PSCL2 LOAD      ACCESS:          0  HIT:          0  MISS:          0  HIT %:       -nan  MISS %:       -nan   MPKI: 0
PSCL2 RFO       ACCESS:          0  HIT:          0  MISS:          0  HIT %:       -nan  MISS %:       -nan   MPKI: 0
PSCL2 PREFETCH  ACCESS:          0  HIT:          0  MISS:          0  HIT %:       -nan  MISS %:       -nan   MPKI: 0
PSCL2 WRITEBACK ACCESS:          0  HIT:          0  MISS:          0  HIT %:       -nan  MISS %:       -nan   MPKI: 0
LLC TOTAL     ACCESS:    2372752  HIT:    1666391  MISS:     706361  HIT %:    70.2303  MISS %:    29.7697   MPKI: 2.95424
LLC LOAD      ACCESS:     528728  HIT:     334996  MISS:     193732  HIT %:    63.3589  MISS %:    36.6411   MPKI: 0.810252
LLC RFO       ACCESS:      61446  HIT:      30478  MISS:      30968  HIT %:    49.6013  MISS %:    50.3987   MPKI: 0.129519
LLC PREFETCH  ACCESS:     973437  HIT:     505795  MISS:     467642  HIT %:    51.9597  MISS %:    48.0403   MPKI: 1.95584
LLC WRITEBACK ACCESS:     790167  HIT:     778759  MISS:      11408  HIT %:    98.5563  MISS %:    1.44375   MPKI: 0.0477121

RAW hits: 8539595
Loads Generated: 44680118
Loads sent to L1D: 36140523
Stores Generated: 17977940
Stores sent to L1D: 17977944

CPU 2 cumulative IPC: 0.592525 instructions: 241835008 cycles: 408143183
ITLB TOTAL     ACCESS:   47786187  HIT:   36454183  MISS:   11332004  HIT %:     76.286  MISS %:     23.714   MPKI: 46.8584
ITLB LOAD      ACCESS:          0  HIT:          0  MISS:          0  HIT %:       -nan  MISS %:       -nan   MPKI: 0
ITLB RFO       ACCESS:          0  HIT:          0  MISS:          0  HIT %:       -nan  MISS %:       -nan   MPKI: 0
ITLB PREFETCH  ACCESS:          0  HIT:          0  MISS:          0  HIT %:       -nan  MISS %:       -nan   MPKI: 0
ITLB WRITEBACK ACCESS:          0  HIT:          0  MISS:          0  HIT %:       -nan  MISS %:       -nan   MPKI: 0
DTLB TOTAL     ACCESS:   33463012  HIT:   20132330  MISS:   13330682  HIT %:    60.1629  MISS %:    39.8371   MPKI: 55.123
DTLB LOAD      ACCESS:          0  HIT:          0  MISS:          0  HIT %:       -nan  MISS %:       -nan   MPKI: 0
DTLB RFO       ACCESS:          0  HIT:          0  MISS:          0  HIT %:       -nan  MISS %:       -nan   MPKI: 0
DTLB PREFETCH  ACCESS:          0  HIT:          0  MISS:          0  HIT %:       -nan  MISS %:       -nan   MPKI: 0
DTLB WRITEBACK ACCESS:          0  HIT:          0  MISS:          0  HIT %:       -nan  MISS %:       -nan   MPKI: 0
STLB TOTAL     ACCESS:   32557473  HIT:   10607826  MISS:   21949647  HIT %:    32.5818  MISS %:    67.4182   MPKI: 90.7629
STLB LOAD      ACCESS:          0  HIT:          0  MISS:          0  HIT %:       -nan  MISS %:       -nan   MPKI: 0
STLB RFO       ACCESS:          0  HIT:          0  MISS:          0  HIT %:       -nan  MISS %:       -nan   MPKI: 0
STLB PREFETCH  ACCESS:          0  HIT:          0  MISS:          0  HIT %:       -nan  MISS %:       -nan   MPKI: 0
STLB WRITEBACK ACCESS:          0  HIT:          0  MISS:          0  HIT %:       -nan  MISS %:       -nan   MPKI: 0
L1D TOTAL     ACCESS:   58397487  HIT:   56720646  MISS:    1676841  HIT %:    97.1286  MISS %:    2.87143   MPKI: 6.93382
L1D LOAD      ACCESS:   24038236  HIT:   23027313  MISS:    1010923  HIT %:    95.7945  MISS %:    4.20548   MPKI: 4.18022
L1D RFO       ACCESS:   15421929  HIT:   15337146  MISS:      84783  HIT %:    99.4502  MISS %:   0.549756   MPKI: 0.350582
L1D PREFETCH  ACCESS:   18937322  HIT:   18356187  MISS:     581135  HIT %:    96.9313  MISS %:    3.06873   MPKI: 2.40302
L1D WRITEBACK ACCESS:          0  HIT:          0  MISS:          0  HIT %:       -nan  MISS %:       -nan   MPKI: 0
L1I TOTAL     ACCESS:   57516702  HIT:   57432573  MISS:      84129  HIT %:    99.8537  MISS %:   0.146269   MPKI: 0.347878
L1I LOAD      ACCESS:   57516702  HIT:   57432573  MISS:      84129  HIT %:    99.8537  MISS %:   0.146269   MPKI: 0.347878
L1I RFO       ACCESS:          0  HIT:          0  MISS:          0  HIT %:       -nan  MISS %:       -nan   MPKI: 0
L1I PREFETCH  ACCESS:          0  HIT:          0  MISS:          0  HIT %:       -nan  MISS %:       -nan   MPKI: 0
L1I WRITEBACK ACCESS:          0  HIT:          0  MISS:          0  HIT %:       -nan  MISS %:       -nan   MPKI: 0
L2C TOTAL     ACCESS:   32306482  HIT:   30839664  MISS:    1466818  HIT %:    95.4597  MISS %:    4.54032   MPKI: 6.06537
L2C LOAD      ACCESS:    1094406  HIT:     544399  MISS:     550007  HIT %:    49.7438  MISS %:    50.2562   MPKI: 2.27431
L2C RFO       ACCESS:      84777  HIT:      32189  MISS:      52588  HIT %:     37.969  MISS %:     62.031   MPKI: 0.217454
L2C PREFETCH  ACCESS:    7635348  HIT:    6847145  MISS:     788203  HIT %:    89.6769  MISS %:    10.3231   MPKI: 3.25926
L2C WRITEBACK ACCESS:     964403  HIT:     910338  MISS:      54065  HIT %:    94.3939  MISS %:    5.60606   MPKI: 0.223562
PSCL5 TOTAL     ACCESS:   22340923  HIT:   22340923  MISS:          0  HIT %:        100  MISS %:          0   MPKI: 0
PSCL5 LOAD      ACCESS:          0  HIT:          0  MISS:          0  HIT %:       -nan  MISS %:       -nan   MPKI: 0
PSCL5 RFO       ACCESS:          0  HIT:          0  MISS:          0  HIT %:       -nan  MISS %:       -nan   MPKI: 0
PSCL5 PREFETCH  ACCESS:          0  HIT:          0  MISS:          0  HIT %:       -nan  MISS %:       -nan   MPKI: 0
PSCL5 WRITEBACK ACCESS:          0  HIT:          0  MISS:          0  HIT %:       -nan  MISS %:       -nan   MPKI: 0
PSCL4 TOTAL     ACCESS:   22340923  HIT:   22340923  MISS:          0  HIT %:        100  MISS %:          0   MPKI: 0
PSCL4 LOAD      ACCESS:          0  HIT:          0  MISS:          0  HIT %:       -nan  MISS %:       -nan   MPKI: 0
PSCL4 RFO       ACCESS:          0  HIT:          0  MISS:          0  HIT %:       -nan  MISS %:       -nan   MPKI: 0
PSCL4 PREFETCH  ACCESS:          0  HIT:          0  MISS:          0  HIT %:       -nan  MISS %:       -nan   MPKI: 0
PSCL4 WRITEBACK ACCESS:          0  HIT:          0  MISS:          0  HIT %:       -nan  MISS %:       -nan   MPKI: 0
PSCL3 TOTAL     ACCESS:   22335024  HIT:   22334949  MISS:         75  HIT %:    99.9997  MISS %: 0.000335795   MPKI: 0.000310129
PSCL3 LOAD      ACCESS:          0  HIT:          0  MISS:          0  HIT %:       -nan  MISS %:       -nan   MPKI: 0
PSCL3 RFO       ACCESS:          0  HIT:          0  MISS:          0  HIT %:       -nan  MISS %:       -nan   MPKI: 0
PSCL3 PREFETCH  ACCESS:          0  HIT:          0  MISS:          0  HIT %:       -nan  MISS %:       -nan   MPKI: 0
PSCL3 WRITEBACK ACCESS:          0  HIT:          0  MISS:          0  HIT %:       -nan  MISS %:       -nan   MPKI: 0
PSCL2 TOTAL     ACCESS:   22340646  HIT:   22154212  MISS:     186434  HIT %:    99.1655  MISS %:   0.834506   MPKI: 0.770914
PSCL2 LOAD      ACCESS:          0  HIT:          0  MISS:          0  HIT %:       -nan  MISS %:       -nan   MPKI: 0
PSCL2 RFO       ACCESS:          0  HIT:          0  MISS:          0  HIT %:       -nan  MISS %:       -nan   MPKI: 0
PSCL2 PREFETCH  ACCESS:          0  HIT:          0  MISS:          0  HIT %:       -nan  MISS %:       -nan   MPKI: 0
PSCL2 WRITEBACK ACCESS:          0  HIT:          0  MISS:          0  HIT %:       -nan  MISS %:       -nan   MPKI: 0
LLC TOTAL     ACCESS:    2114156  HIT:    1409545  MISS:     704611  HIT %:    66.6718  MISS %:    33.3282   MPKI: 2.9136
LLC LOAD      ACCESS:     548494  HIT:     312548  MISS:     235946  HIT %:    56.9829  MISS %:    43.0171   MPKI: 0.975649
LLC RFO       ACCESS:      52412  HIT:      22113  MISS:      30299  HIT %:    42.1907  MISS %:    57.8093   MPKI: 0.125288
LLC PREFETCH  ACCESS:     789887  HIT:     372442  MISS:     417445  HIT %:    47.1513  MISS %:    52.8487   MPKI: 1.72616
LLC WRITEBACK ACCESS:     701408  HIT:     685500  MISS:      15908  HIT %:     97.732  MISS %:    2.26801   MPKI: 0.0657804

RAW hits: 7299874
Loads Generated: 43362566
Loads sent to L1D: 36062691
Stores Generated: 17507833
Stores sent to L1D: 17507833

CPU 3 cumulative IPC: 0.702439 instructions: 286695737 cycles: 408143184
ITLB TOTAL     ACCESS:   54082959  HIT:   41436429  MISS:   12646530  HIT %:    76.6164  MISS %:    23.3836   MPKI: 44.1113
ITLB LOAD      ACCESS:          0  HIT:          0  MISS:          0  HIT %:       -nan  MISS %:       -nan   MPKI: 0
ITLB RFO       ACCESS:          0  HIT:          0  MISS:          0  HIT %:       -nan  MISS %:       -nan   MPKI: 0
ITLB PREFETCH  ACCESS:          0  HIT:          0  MISS:          0  HIT %:       -nan  MISS %:       -nan   MPKI: 0
ITLB WRITEBACK ACCESS:          0  HIT:          0  MISS:          0  HIT %:       -nan  MISS %:       -nan   MPKI: 0
DTLB TOTAL     ACCESS:   34669345  HIT:   20014538  MISS:   14654807  HIT %:    57.7298  MISS %:    42.2702   MPKI: 51.1162
DTLB LOAD      ACCESS:          0  HIT:          0  MISS:          0  HIT %:       -nan  MISS %:       -nan   MPKI: 0
DTLB RFO       ACCESS:          0  HIT:          0  MISS:          0  HIT %:       -nan  MISS %:       -nan   MPKI: 0
DTLB PREFETCH  ACCESS:          0  HIT:          0  MISS:          0  HIT %:       -nan  MISS %:       -nan   MPKI: 0
DTLB WRITEBACK ACCESS:          0  HIT:          0  MISS:          0  HIT %:       -nan  MISS %:       -nan   MPKI: 0
STLB TOTAL     ACCESS:   33472997  HIT:   10991844  MISS:   22481153  HIT %:    32.8379  MISS %:    67.1621   MPKI: 78.4147
STLB LOAD      ACCESS:          0  HIT:          0  MISS:          0  HIT %:       -nan  MISS %:       -nan   MPKI: 0
STLB RFO       ACCESS:          0  HIT:          0  MISS:          0  HIT %:       -nan  MISS %:       -nan   MPKI: 0
STLB PREFETCH  ACCESS:          0  HIT:          0  MISS:          0  HIT %:       -nan  MISS %:       -nan   MPKI: 0
STLB WRITEBACK ACCESS:          0  HIT:          0  MISS:          0  HIT %:       -nan  MISS %:       -nan   MPKI: 0
L1D TOTAL     ACCESS:   52070520  HIT:   51319477  MISS:     751043  HIT %:    98.5576  MISS %:    1.44236   MPKI: 2.61965
L1D LOAD      ACCESS:   26012184  HIT:   25518709  MISS:     493475  HIT %:    98.1029  MISS %:    1.89709   MPKI: 1.72125
L1D RFO       ACCESS:   15990672  HIT:   15989816  MISS:        856  HIT %:    99.9946  MISS %: 0.00535312   MPKI: 0.00298574
L1D PREFETCH  ACCESS:   10067664  HIT:    9810952  MISS:     256712  HIT %:    97.4501  MISS %:    2.54987   MPKI: 0.895416
L1D WRITEBACK ACCESS:          0  HIT:          0  MISS:          0  HIT %:       -nan  MISS %:       -nan   MPKI: 0
L1I TOTAL     ACCESS:   65683506  HIT:   65679815  MISS:       3691  HIT %:    99.9944  MISS %: 0.00561937   MPKI: 0.0128743
L1I LOAD      ACCESS:   65683506  HIT:   65679815  MISS:       3691  HIT %:    99.9944  MISS %: 0.00561937   MPKI: 0.0128743
L1I RFO       ACCESS:          0  HIT:          0  MISS:          0  HIT %:       -nan  MISS %:       -nan   MPKI: 0
L1I PREFETCH  ACCESS:          0  HIT:          0  MISS:          0  HIT %:       -nan  MISS %:       -nan   MPKI: 0
L1I WRITEBACK ACCESS:          0  HIT:          0  MISS:          0  HIT %:       -nan  MISS %:       -nan   MPKI: 0
L2C TOTAL     ACCESS:   31692161  HIT:   30831919  MISS:     860242  HIT %:    97.2856  MISS %:    2.71437   MPKI: 3.00054
L2C LOAD      ACCESS:     497076  HIT:     191072  MISS:     306004  HIT %:    38.4392  MISS %:    61.5608   MPKI: 1.06735
L2C RFO       ACCESS:        856  HIT:        149  MISS:        707  HIT %:    17.4065  MISS %:    82.5935   MPKI: 0.00246603
L2C PREFETCH  ACCESS:    8053703  HIT:    7559299  MISS:     494404  HIT %:    93.8612  MISS %:    6.13884   MPKI: 1.72449
L2C WRITEBACK ACCESS:     281355  HIT:     259208  MISS:      22147  HIT %:    92.1284  MISS %:    7.87155   MPKI: 0.0772491
PSCL5 TOTAL     ACCESS:   22789645  HIT:   22789645  MISS:          0  HIT %:        100  MISS %:          0   MPKI: 0
PSCL5 LOAD      ACCESS:          0  HIT:          0  MISS:          0  HIT %:       -nan  MISS %:       -nan   MPKI: 0
PSCL5 RFO       ACCESS:          0  HIT:          0  MISS:          0  HIT %:       -nan  MISS %:       -nan   MPKI: 0
PSCL5 PREFETCH  ACCESS:          0  HIT:          0  MISS:          0  HIT %:       -nan  MISS %:       -nan   MPKI: 0
PSCL5 WRITEBACK ACCESS:          0  HIT:          0  MISS:          0  HIT %:       -nan  MISS %:       -nan   MPKI: 0
PSCL4 TOTAL     ACCESS:   22789645  HIT:   22789645  MISS:          0  HIT %:        100  MISS %:          0   MPKI: 0
PSCL4 LOAD      ACCESS:          0  HIT:          0  MISS:          0  HIT %:       -nan  MISS %:       -nan   MPKI: 0
PSCL4 RFO       ACCESS:          0  HIT:          0  MISS:          0  HIT %:       -nan  MISS %:       -nan   MPKI: 0
PSCL4 PREFETCH  ACCESS:          0  HIT:          0  MISS:          0  HIT %:       -nan  MISS %:       -nan   MPKI: 0
PSCL4 WRITEBACK ACCESS:          0  HIT:          0  MISS:          0  HIT %:       -nan  MISS %:       -nan   MPKI: 0
PSCL3 TOTAL     ACCESS:   22789112  HIT:   22788992  MISS:        120  HIT %:    99.9995  MISS %: 0.000526567   MPKI: 0.000418562
PSCL3 LOAD      ACCESS:          0  HIT:          0  MISS:          0  HIT %:       -nan  MISS %:       -nan   MPKI: 0
PSCL3 RFO       ACCESS:          0  HIT:          0  MISS:          0  HIT %:       -nan  MISS %:       -nan   MPKI: 0
PSCL3 PREFETCH  ACCESS:          0  HIT:          0  MISS:          0  HIT %:       -nan  MISS %:       -nan   MPKI: 0
PSCL3 WRITEBACK ACCESS:          0  HIT:          0  MISS:          0  HIT %:       -nan  MISS %:       -nan   MPKI: 0
PSCL2 TOTAL     ACCESS:   22789636  HIT:   22720237  MISS:      69399  HIT %:    99.6955  MISS %:    0.30452   MPKI: 0.242065
PSCL2 LOAD      ACCESS:          0  HIT:          0  MISS:          0  HIT %:       -nan  MISS %:       -nan   MPKI: 0
PSCL2 RFO       ACCESS:          0  HIT:          0  MISS:          0  HIT %:       -nan  MISS %:       -nan   MPKI: 0
PSCL2 PREFETCH  ACCESS:          0  HIT:          0  MISS:          0  HIT %:       -nan  MISS %:       -nan   MPKI: 0
PSCL2 WRITEBACK ACCESS:          0  HIT:          0  MISS:          0  HIT %:       -nan  MISS %:       -nan   MPKI: 0
LLC TOTAL     ACCESS:    1107801  HIT:     448176  MISS:     659625  HIT %:    40.4564  MISS %:    59.5436   MPKI: 2.30078
LLC LOAD      ACCESS:     305074  HIT:      81572  MISS:     223502  HIT %:    26.7384  MISS %:    73.2616   MPKI: 0.779579
LLC RFO       ACCESS:        703  HIT:        123  MISS:        580  HIT %:    17.4964  MISS %:    82.5036   MPKI: 0.00202305
LLC PREFETCH  ACCESS:     495338  HIT:      95723  MISS:     399615  HIT %:    19.3248  MISS %:    80.6752   MPKI: 1.39386
LLC WRITEBACK ACCESS:     269706  HIT:     239355  MISS:      30351  HIT %:    88.7466  MISS %:    11.2534   MPKI: 0.105865

RAW hits: 9724249
Loads Generated: 48940566
Loads sent to L1D: 39216315
Stores Generated: 17354826
Stores sent to L1D: 17354828

Region of Interest Statistics

CPU 0 cumulative IPC: 0.490024 instructions: 200000000 cycles: 408143183
ITLB TOTAL     ACCESS:   36696661  HIT:   28741194  MISS:    7955467  HIT %:     78.321  MISS %:     21.679   MPKI: 39.7773
ITLB LOAD TRANSLATION ACCESS:   36696661  HIT:   28741194  MISS:    7955467  HIT %:     78.321  MISS %:     21.679   MPKI: 39.7773
ITLB PREFETCH  REQUESTED:          0  ISSUED:          0  USEFUL:          0  USELESS:          0
ITLB USEFUL LOAD PREFETCHES:          0 PREFETCH ISSUED TO LOWER LEVEL:          0  ACCURACY: -nan
ITLB TIMELY PREFETCHES:          0 LATE PREFETCHES: 0 DROPPED PREFETCHES: 0
ITLB PREFETCHES SAME FILL-ORIGIN LEVEL: 0 DIFFERENT FILL-ORIGIN LEVEL: 0
ITLB AVERAGE MISS LATENCY: 34.73 cycles
ITLB RQ	ACCESS:   44882961	FORWARD:          0	MERGED:    5878137	TO_CACHE:   39004824

DTLB TOTAL     ACCESS:   26615538  HIT:   15051002  MISS:   11564536  HIT %:    56.5497  MISS %:    43.4503   MPKI: 57.8227
DTLB LOAD TRANSLATION ACCESS:   26615538  HIT:   15051002  MISS:   11564536  HIT %:    56.5497  MISS %:    43.4503   MPKI: 57.8227
DTLB PREFETCH  REQUESTED:          0  ISSUED:          0  USEFUL:          0  USELESS:          0
DTLB USEFUL LOAD PREFETCHES:          0 PREFETCH ISSUED TO LOWER LEVEL:          0  ACCURACY: -nan
DTLB TIMELY PREFETCHES:          0 LATE PREFETCHES: 0 DROPPED PREFETCHES: 0
DTLB PREFETCHES SAME FILL-ORIGIN LEVEL: 0 DIFFERENT FILL-ORIGIN LEVEL: 0
DTLB AVERAGE MISS LATENCY: 32.0423 cycles
DTLB RQ	ACCESS:   33688550	FORWARD:          0	MERGED:    5886870	TO_CACHE:   27801680

STLB TOTAL     ACCESS:   22857446  HIT:    8182173  MISS:   14675273  HIT %:    35.7965  MISS %:    64.2035   MPKI: 73.3764
STLB LOAD TRANSLATION ACCESS:   19520003  HIT:    5049584  MISS:   14470419  HIT %:    25.8688  MISS %:    74.1312   MPKI: 72.3521
STLB TRANSLATION FROM L1D PREFETCHER ACCESS:    3337443  HIT:    3132589  MISS:     204854  HIT %:    93.8619  MISS %:    6.13805   MPKI: 1.02427
STLB PREFETCH  REQUESTED:          0  ISSUED:          0  USEFUL:     140603  USELESS:      64250
STLB USEFUL LOAD PREFETCHES:     140603 PREFETCH ISSUED TO LOWER LEVEL:          0  ACCURACY: inf
STLB TIMELY PREFETCHES:     140603 LATE PREFETCHES: 0 DROPPED PREFETCHES: 114392
STLB PREFETCHES SAME FILL-ORIGIN LEVEL: 0 DIFFERENT FILL-ORIGIN LEVEL: 0
STLB AVERAGE MISS LATENCY: 32.5161 cycles
STLB RQ	ACCESS:   28675444	FORWARD:          0	MERGED:    5690646	TO_CACHE:   22984798

STLB Hit, L1D data hit: 0
STLB Hit, L2C data hit: 0
STLB Hit, LLC data hit: 0
STLB Hit, LLC data miss: 0
STLB STLB hints to L2: 0
L1D TOTAL     ACCESS:   37690831  HIT:   35153311  MISS:    2537520  HIT %:    93.2675  MISS %:    6.73246   MPKI: 12.6876
L1D LOAD      ACCESS:   19586878  HIT:   17701382  MISS:    1885496  HIT %:    90.3737  MISS %:    9.62632   MPKI: 9.42748
L1D RFO       ACCESS:   13037004  HIT:   12591961  MISS:     445043  HIT %:    96.5863  MISS %:    3.41369   MPKI: 2.22521
L1D PREFETCH  ACCESS:    5066949  HIT:    4859968  MISS:     206981  HIT %:    95.9151  MISS %:    4.08492   MPKI: 1.0349
L1D PREFETCH  REQUESTED:   22553280  ISSUED:   21421253  USEFUL:     186548  USELESS:      20433
L1D USEFUL LOAD PREFETCHES:     186548 PREFETCH ISSUED TO LOWER LEVEL:    3991368  ACCURACY: 4.67379
L1D TIMELY PREFETCHES:     186548 LATE PREFETCHES: 2204 DROPPED PREFETCHES: 139714
L1D PREFETCHES SAME FILL-ORIGIN LEVEL: 209245 DIFFERENT FILL-ORIGIN LEVEL: 3782123
L1D AVERAGE MISS LATENCY: 93.7004 cycles
L1D RQ	ACCESS:   30708516	FORWARD:          0	MERGED:   10767603	TO_CACHE:   19788675
L1D WQ	ACCESS:   14503185	FORWARD:     153763	MERGED:     603310	TO_CACHE:   13899875
L1D PQ	ACCESS:   12265815	FORWARD:          0	MERGED:    3108852	TO_CACHE:    9155438

L1D UNIQUE REGIONS ACCESSED: 0
L1D REGIONS CONFLICTS: 0
L1D Cross Page Prefetch Requests: 2636353
L1D Same Page Prefetch Requests: 13502796
L1D ROI Sum of L1D PQ occupancy: 143643267
L1D PREFETCHES PUSHED FROM L2C: 0
L1I TOTAL     ACCESS:   44860211  HIT:   44780365  MISS:      79846  HIT %:     99.822  MISS %:   0.177988   MPKI: 0.39923
L1I LOAD      ACCESS:   44860211  HIT:   44780365  MISS:      79846  HIT %:     99.822  MISS %:   0.177988   MPKI: 0.39923
L1I PREFETCH  REQUESTED:          0  ISSUED:          0  USEFUL:          0  USELESS:          0
L1I USEFUL LOAD PREFETCHES:          0 PREFETCH ISSUED TO LOWER LEVEL:          0  ACCURACY: -nan
L1I TIMELY PREFETCHES:          0 LATE PREFETCHES: 0 DROPPED PREFETCHES: 0
L1I PREFETCHES SAME FILL-ORIGIN LEVEL: 0 DIFFERENT FILL-ORIGIN LEVEL: 0
L1I AVERAGE MISS LATENCY: 39.1654 cycles
L1I RQ	ACCESS:   82788925	FORWARD:          0	MERGED:   37905964	TO_CACHE:   44882961

BTB BRANCH_DIRECT_JUMP	ACCESS:          0  HIT:          0  MISS:          0
BTB BRANCH_INDIRECT	ACCESS:          0  HIT:          0  MISS:          0
BTB BRANCH_CONDITIONAL	ACCESS:          0  HIT:          0  MISS:          0
BTB BRANCH_DIRECT_CALL	ACCESS:          0  HIT:          0  MISS:          0
BTB BRANCH_INDIRECT_CALL	ACCESS:          0  HIT:          0  MISS:          0
BTB BRANCH_RETURN	ACCESS:          0  HIT:          0  MISS:          0
BTB BRANCH_OTHER ACCESS:          0  HIT:          0  MISS:          0

L2C TOTAL     ACCESS:   23613916  HIT:   21663823  MISS:    1950093  HIT %:    91.7418  MISS %:    8.25824   MPKI: 9.75047
L2C LOAD      ACCESS:    1963131  HIT:     775376  MISS:    1187755  HIT %:    39.4969  MISS %:    60.5031   MPKI: 5.93877
L2C DATA LOAD MPKI: 5.88681
L2C INSTRUCTION LOAD MPKI: 0.051965
L2C RFO       ACCESS:     444964  HIT:     327862  MISS:     117102  HIT %:    73.6828  MISS %:    26.3172   MPKI: 0.58551
L2C PREFETCH  ACCESS:    3854052  HIT:    3402419  MISS:     451633  HIT %:    88.2816  MISS %:    11.7184   MPKI: 2.25816
L2C DATA PREFETCH MPKI: 2.25816
L2C INSTRUCTION PREFETCH MPKI: 0
L2C WRITEBACK ACCESS:    1647927  HIT:    1546268  MISS:     101659  HIT %:    93.8311  MISS %:     6.1689   MPKI: 0.508295
L2C LOAD TRANSLATION ACCESS:   15379904  HIT:   15289814  MISS:      90090  HIT %:    99.4142  MISS %:   0.585764   MPKI: 0.45045
L2C TRANSLATION FROM L1D PREFETCHER ACCESS:     323938  HIT:     322084  MISS:       1854  HIT %:    99.4277  MISS %:   0.572332   MPKI: 0.00927
L2C PREFETCH  REQUESTED:          0  ISSUED:          0  USEFUL:     142772  USELESS:     310765
L2C USEFUL LOAD PREFETCHES:     142772 PREFETCH ISSUED TO LOWER LEVEL:     455499  ACCURACY: 31.3441
L2C TIMELY PREFETCHES:     142772 LATE PREFETCHES: 3866 DROPPED PREFETCHES: 0
L2C PREFETCHES SAME FILL-ORIGIN LEVEL: 409973 DIFFERENT FILL-ORIGIN LEVEL: 0
L2C AVERAGE MISS LATENCY: 144.335 cycles
L2C RQ	ACCESS:   18111968	FORWARD:          0	MERGED:          0	TO_CACHE:   18111939
L2C WQ	ACCESS:    1647927	FORWARD:         32	MERGED:          0	TO_CACHE:    1647927
L2C PQ	ACCESS:    3991015	FORWARD:          0	MERGED:       5031	TO_CACHE:    3985981

L2C Instructions Evicting Data 9520
L2C Translations Evicting Data 87679
L2C Data Evicting Data 1654402
L2C Instructions Evicting Instructions 463
L2C Translations Evicting Instructions 531
L2C Data Evicting Instructions 8854
L2C Instructions Evicting Translations 410
L2C Translations Evicting Translations 3734
L2C Data Evicting Translations 82838
L2C Dense regions hint from L2: 0
PSCL5 TOTAL     ACCESS:   14789666  HIT:   14789666  MISS:          0  HIT %:        100  MISS %:          0   MPKI: 0
PSCL5 LOAD TRANSLATION ACCESS:   14470420  HIT:   14470420  MISS:          0  HIT %:        100  MISS %:          0   MPKI: 0
PSCL5 TRANSLATION FROM L1D PREFETCHER ACCESS:     319246  HIT:     319246  MISS:          0  HIT %:        100  MISS %:          0   MPKI: 0
PSCL5 PREFETCH  REQUESTED:          0  ISSUED:          0  USEFUL:          0  USELESS:          0
PSCL5 USEFUL LOAD PREFETCHES:          0 PREFETCH ISSUED TO LOWER LEVEL:          0  ACCURACY: -nan
PSCL5 TIMELY PREFETCHES:          0 LATE PREFETCHES: 0 DROPPED PREFETCHES: 0
PSCL5 PREFETCHES SAME FILL-ORIGIN LEVEL: 0 DIFFERENT FILL-ORIGIN LEVEL: 0

PSCL4 TOTAL     ACCESS:   10150951  HIT:   10150951  MISS:          0  HIT %:        100  MISS %:          0   MPKI: 0
PSCL4 LOAD TRANSLATION ACCESS:    9847698  HIT:    9847698  MISS:          0  HIT %:        100  MISS %:          0   MPKI: 0
PSCL4 TRANSLATION FROM L1D PREFETCHER ACCESS:     303253  HIT:     303253  MISS:          0  HIT %:        100  MISS %:          0   MPKI: 0
PSCL4 PREFETCH  REQUESTED:          0  ISSUED:          0  USEFUL:          0  USELESS:          0
PSCL4 USEFUL LOAD PREFETCHES:          0 PREFETCH ISSUED TO LOWER LEVEL:          0  ACCURACY: -nan
PSCL4 TIMELY PREFETCHES:          0 LATE PREFETCHES: 0 DROPPED PREFETCHES: 0
PSCL4 PREFETCHES SAME FILL-ORIGIN LEVEL: 0 DIFFERENT FILL-ORIGIN LEVEL: 0

PSCL3 TOTAL     ACCESS:   14785627  HIT:   14785004  MISS:        623  HIT %:    99.9958  MISS %: 0.00421355   MPKI: 0.003115
PSCL3 LOAD TRANSLATION ACCESS:   14469295  HIT:   14468672  MISS:        623  HIT %:    99.9957  MISS %: 0.00430567   MPKI: 0.003115
PSCL3 TRANSLATION FROM L1D PREFETCHER ACCESS:     316332  HIT:     316332  MISS:          0  HIT %:        100  MISS %:          0   MPKI: 0
PSCL3 PREFETCH  REQUESTED:          0  ISSUED:          0  USEFUL:          0  USELESS:          0
PSCL3 USEFUL LOAD PREFETCHES:          0 PREFETCH ISSUED TO LOWER LEVEL:          0  ACCURACY: -nan
PSCL3 TIMELY PREFETCHES:          0 LATE PREFETCHES: 0 DROPPED PREFETCHES: 0
PSCL3 PREFETCHES SAME FILL-ORIGIN LEVEL: 0 DIFFERENT FILL-ORIGIN LEVEL: 0

PSCL2 TOTAL     ACCESS:   14786374  HIT:   13876102  MISS:     910272  HIT %:    93.8438  MISS %:    6.15615   MPKI: 4.55136
PSCL2 LOAD TRANSLATION ACCESS:   14471813  HIT:   13561541  MISS:     910272  HIT %:      93.71  MISS %:    6.28997   MPKI: 4.55136
PSCL2 TRANSLATION FROM L1D PREFETCHER ACCESS:     314561  HIT:     314561  MISS:          0  HIT %:        100  MISS %:          0   MPKI: 0
PSCL2 PREFETCH  REQUESTED:          0  ISSUED:          0  USEFUL:          0  USELESS:          0
PSCL2 USEFUL LOAD PREFETCHES:          0 PREFETCH ISSUED TO LOWER LEVEL:          0  ACCURACY: -nan
PSCL2 TIMELY PREFETCHES:          0 LATE PREFETCHES: 0 DROPPED PREFETCHES: 0
PSCL2 PREFETCHES SAME FILL-ORIGIN LEVEL: 0 DIFFERENT FILL-ORIGIN LEVEL: 0

LLC TOTAL     ACCESS:    2937318  HIT:    1710378  MISS:    1226940  HIT %:    58.2292  MISS %:    41.7708   MPKI: 6.1347
LLC LOAD      ACCESS:    1184818  HIT:     368976  MISS:     815842  HIT %:     31.142  MISS %:     68.858   MPKI: 4.07921
LLC RFO       ACCESS:     116169  HIT:      63581  MISS:      52588  HIT %:    54.7315  MISS %:    45.2685   MPKI: 0.26294
LLC PREFETCH  ACCESS:     455498  HIT:     125137  MISS:     330361  HIT %:    27.4726  MISS %:    72.5274   MPKI: 1.6518
LLC WRITEBACK ACCESS:    1088889  HIT:    1070084  MISS:      18805  HIT %:     98.273  MISS %:    1.72699   MPKI: 0.094025
LLC LOAD TRANSLATION ACCESS:      90090  HIT:      81681  MISS:       8409  HIT %:     90.666  MISS %:      9.334   MPKI: 0.042045
LLC TRANSLATION FROM L1D PREFETCHER ACCESS:       1854  HIT:        919  MISS:        935  HIT %:    49.5685  MISS %:    50.4315   MPKI: 0.004675
LLC PREFETCH  REQUESTED:          0  ISSUED:          0  USEFUL:     124833  USELESS:    1497579
LLC USEFUL LOAD PREFETCHES:     124833 PREFETCH ISSUED TO LOWER LEVEL:    1615063  ACCURACY: 7.7293
LLC TIMELY PREFETCHES:     124833 LATE PREFETCHES: 0 DROPPED PREFETCHES: 0
LLC PREFETCHES SAME FILL-ORIGIN LEVEL: 0 DIFFERENT FILL-ORIGIN LEVEL: 0
LLC AVERAGE MISS LATENCY: 507.92 cycles
LLC RQ	ACCESS:    2967703	FORWARD:          0	MERGED:          0	TO_CACHE:    2967699
LLC WQ	ACCESS:    2850169	FORWARD:         12	MERGED:          0	TO_CACHE:    2850169
LLC PQ	ACCESS:    2714168	FORWARD:          0	MERGED:          0	TO_CACHE:    2714160

LLC Dense regions hint to LLC: 0

RAW hits: 3562368
Loads Generated: 34270886
Loads sent to L1D: 30708516
Stores Generated: 14503185
Stores sent to L1D: 14503185
Major fault: 0 Minor fault: 10087
Allocated PAGES: 17338

CPU 1 cumulative IPC: 0.585513 instructions: 200000001 cycles: 341581026
ITLB TOTAL     ACCESS:   40807081  HIT:   30989232  MISS:    9817849  HIT %:    75.9408  MISS %:    24.0592   MPKI: 49.0892
ITLB LOAD TRANSLATION ACCESS:   40807081  HIT:   30989232  MISS:    9817849  HIT %:    75.9408  MISS %:    24.0592   MPKI: 49.0892
ITLB PREFETCH  REQUESTED:          0  ISSUED:          0  USEFUL:          0  USELESS:          0
ITLB USEFUL LOAD PREFETCHES:          0 PREFETCH ISSUED TO LOWER LEVEL:          0  ACCURACY: -nan
ITLB TIMELY PREFETCHES:          0 LATE PREFETCHES: 0 DROPPED PREFETCHES: 0
ITLB PREFETCHES SAME FILL-ORIGIN LEVEL: 0 DIFFERENT FILL-ORIGIN LEVEL: 0
ITLB AVERAGE MISS LATENCY: 44.2122 cycles
ITLB RQ	ACCESS:   58440380	FORWARD:          0	MERGED:    5199424	TO_CACHE:   53240956

DTLB TOTAL     ACCESS:   28853651  HIT:   17264225  MISS:   11589426  HIT %:    59.8338  MISS %:    40.1662   MPKI: 57.9471
DTLB LOAD TRANSLATION ACCESS:   28853651  HIT:   17264225  MISS:   11589426  HIT %:    59.8338  MISS %:    40.1662   MPKI: 57.9471
DTLB PREFETCH  REQUESTED:          0  ISSUED:          0  USEFUL:          0  USELESS:          0
DTLB USEFUL LOAD PREFETCHES:          0 PREFETCH ISSUED TO LOWER LEVEL:          0  ACCURACY: -nan
DTLB TIMELY PREFETCHES:          0 LATE PREFETCHES: 0 DROPPED PREFETCHES: 0
DTLB PREFETCHES SAME FILL-ORIGIN LEVEL: 0 DIFFERENT FILL-ORIGIN LEVEL: 0
DTLB AVERAGE MISS LATENCY: 42.6092 cycles
DTLB RQ	ACCESS:   40341716	FORWARD:          0	MERGED:    4323327	TO_CACHE:   36018389

STLB TOTAL     ACCESS:   29299299  HIT:    9633725  MISS:   19665574  HIT %:    32.8804  MISS %:    67.1196   MPKI: 98.3279
STLB LOAD TRANSLATION ACCESS:   21407275  HIT:    4469862  MISS:   16937413  HIT %:    20.8801  MISS %:    79.1199   MPKI: 84.6871
STLB TRANSLATION FROM L1D PREFETCHER ACCESS:    7892024  HIT:    5163863  MISS:    2728161  HIT %:    65.4314  MISS %:    34.5686   MPKI: 13.6408
STLB PREFETCH  REQUESTED:          0  ISSUED:          0  USEFUL:    1270609  USELESS:    2006071
STLB USEFUL LOAD PREFETCHES:    1270609 PREFETCH ISSUED TO LOWER LEVEL:          0  ACCURACY: inf
STLB TIMELY PREFETCHES:    1270609 LATE PREFETCHES: 0 DROPPED PREFETCHES: 235057
STLB PREFETCHES SAME FILL-ORIGIN LEVEL: 0 DIFFERENT FILL-ORIGIN LEVEL: 0
STLB AVERAGE MISS LATENCY: 42.6761 cycles
STLB RQ	ACCESS:   58520931	FORWARD:          0	MERGED:   23121564	TO_CACHE:   35399367

STLB Hit, L1D data hit: 0
STLB Hit, L2C data hit: 0
STLB Hit, LLC data hit: 0
STLB Hit, LLC data miss: 0
STLB STLB hints to L2: 0
L1D TOTAL     ACCESS:   53691278  HIT:   52127194  MISS:    1564084  HIT %:    97.0869  MISS %:    2.91311   MPKI: 7.82042
L1D LOAD      ACCESS:   20450318  HIT:   19605612  MISS:     844706  HIT %:    95.8695  MISS %:    4.13053   MPKI: 4.22353
L1D RFO       ACCESS:   12973612  HIT:   12906958  MISS:      66654  HIT %:    99.4862  MISS %:   0.513766   MPKI: 0.33327
L1D PREFETCH  ACCESS:   20267348  HIT:   19614624  MISS:     652724  HIT %:    96.7794  MISS %:    3.22057   MPKI: 3.26362
L1D PREFETCH  REQUESTED:   78929277  ISSUED:   76736283  USEFUL:     712274  USELESS:      75641
L1D USEFUL LOAD PREFETCHES:     712274 PREFETCH ISSUED TO LOWER LEVEL:    9082847  ACCURACY: 7.84197
L1D TIMELY PREFETCHES:     712274 LATE PREFETCHES: 498 DROPPED PREFETCHES: 320188
L1D PREFETCHES SAME FILL-ORIGIN LEVEL: 788385 DIFFERENT FILL-ORIGIN LEVEL: 8294462
L1D AVERAGE MISS LATENCY: 62.5771 cycles
L1D RQ	ACCESS:   36140523	FORWARD:          0	MERGED:   10850379	TO_CACHE:   24491034
L1D WQ	ACCESS:   17977944	FORWARD:     802278	MERGED:    2127262	TO_CACHE:   15850682
L1D PQ	ACCESS:   43789229	FORWARD:          0	MERGED:   10839007	TO_CACHE:   32947054

L1D UNIQUE REGIONS ACCESSED: 0
L1D REGIONS CONFLICTS: 0
L1D Cross Page Prefetch Requests: 13530603
L1D Same Page Prefetch Requests: 41991858
L1D ROI Sum of L1D PQ occupancy: 954091502
L1D PREFETCHES PUSHED FROM L2C: 0
L1I TOTAL     ACCESS:   48819691  HIT:   48804445  MISS:      15246  HIT %:    99.9688  MISS %:  0.0312292   MPKI: 0.07623
L1I LOAD      ACCESS:   48819691  HIT:   48804445  MISS:      15246  HIT %:    99.9688  MISS %:  0.0312292   MPKI: 0.07623
L1I PREFETCH  REQUESTED:          0  ISSUED:          0  USEFUL:          0  USELESS:          0
L1I USEFUL LOAD PREFETCHES:          0 PREFETCH ISSUED TO LOWER LEVEL:          0  ACCURACY: -nan
L1I TIMELY PREFETCHES:          0 LATE PREFETCHES: 0 DROPPED PREFETCHES: 0
L1I PREFETCHES SAME FILL-ORIGIN LEVEL: 0 DIFFERENT FILL-ORIGIN LEVEL: 0
L1I AVERAGE MISS LATENCY: 94.3025 cycles
L1I RQ	ACCESS:  113597777	FORWARD:          0	MERGED:   55157397	TO_CACHE:   58440380

BTB BRANCH_DIRECT_JUMP	ACCESS:          0  HIT:          0  MISS:          0
BTB BRANCH_INDIRECT	ACCESS:          0  HIT:          0  MISS:          0
BTB BRANCH_CONDITIONAL	ACCESS:          0  HIT:          0  MISS:          0
BTB BRANCH_DIRECT_CALL	ACCESS:          0  HIT:          0  MISS:          0
BTB BRANCH_INDIRECT_CALL	ACCESS:          0  HIT:          0  MISS:          0
BTB BRANCH_RETURN	ACCESS:          0  HIT:          0  MISS:          0
BTB BRANCH_OTHER ACCESS:          0  HIT:          0  MISS:          0

L2C TOTAL     ACCESS:   29257953  HIT:   27883013  MISS:    1374940  HIT %:    95.3006  MISS %:    4.69937   MPKI: 6.8747
L2C LOAD      ACCESS:     859496  HIT:     409944  MISS:     449552  HIT %:    47.6959  MISS %:    52.3041   MPKI: 2.24776
L2C DATA LOAD MPKI: 2.2211
L2C INSTRUCTION LOAD MPKI: 0.026655
L2C RFO       ACCESS:      66652  HIT:      16038  MISS:      50614  HIT %:    24.0623  MISS %:    75.9377   MPKI: 0.25307
L2C PREFETCH  ACCESS:    7487646  HIT:    6676844  MISS:     810802  HIT %:    89.1715  MISS %:    10.8285   MPKI: 4.05401
L2C DATA PREFETCH MPKI: 4.05401
L2C INSTRUCTION PREFETCH MPKI: 0
L2C WRITEBACK ACCESS:     905663  HIT:     857616  MISS:      48047  HIT %:    94.6948  MISS %:    5.30517   MPKI: 0.240235
L2C LOAD TRANSLATION ACCESS:   17014852  HIT:   17000766  MISS:      14086  HIT %:    99.9172  MISS %:  0.0827865   MPKI: 0.07043
L2C TRANSLATION FROM L1D PREFETCHER ACCESS:    2923644  HIT:    2921805  MISS:       1839  HIT %:    99.9371  MISS %:   0.062901   MPKI: 0.009195
L2C PREFETCH  REQUESTED:          0  ISSUED:          0  USEFUL:     209252  USELESS:     764086
L2C USEFUL LOAD PREFETCHES:     209252 PREFETCH ISSUED TO LOWER LEVEL:     973439  ACCURACY: 21.4962
L2C TIMELY PREFETCHES:     209252 LATE PREFETCHES: 1747 DROPPED PREFETCHES: 0
L2C PREFETCHES SAME FILL-ORIGIN LEVEL: 856689 DIFFERENT FILL-ORIGIN LEVEL: 0
L2C AVERAGE MISS LATENCY: 133.551 cycles
L2C RQ	ACCESS:   24944758	FORWARD:          0	MERGED:          0	TO_CACHE:   24944752
L2C WQ	ACCESS:    1081261	FORWARD:         32	MERGED:          0	TO_CACHE:    1081261
L2C PQ	ACCESS:    9082847	FORWARD:          0	MERGED:       2081	TO_CACHE:    9080740

L2C Instructions Evicting Data 5888
L2C Translations Evicting Data 18793
L2C Data Evicting Data 1533564
L2C Instructions Evicting Instructions 159
L2C Translations Evicting Instructions 66
L2C Data Evicting Instructions 5799
L2C Instructions Evicting Translations 43
L2C Translations Evicting Translations 115
L2C Data Evicting Translations 18157
L2C Dense regions hint from L2: 0
PSCL5 TOTAL     ACCESS:   19860164  HIT:   19860164  MISS:          0  HIT %:        100  MISS %:          0   MPKI: 0
PSCL5 LOAD TRANSLATION ACCESS:   16937414  HIT:   16937414  MISS:          0  HIT %:        100  MISS %:          0   MPKI: 0
PSCL5 TRANSLATION FROM L1D PREFETCHER ACCESS:    2922750  HIT:    2922750  MISS:          0  HIT %:        100  MISS %:          0   MPKI: 0
PSCL5 PREFETCH  REQUESTED:          0  ISSUED:          0  USEFUL:          0  USELESS:          0
PSCL5 USEFUL LOAD PREFETCHES:          0 PREFETCH ISSUED TO LOWER LEVEL:          0  ACCURACY: -nan
PSCL5 TIMELY PREFETCHES:          0 LATE PREFETCHES: 0 DROPPED PREFETCHES: 0
PSCL5 PREFETCHES SAME FILL-ORIGIN LEVEL: 0 DIFFERENT FILL-ORIGIN LEVEL: 0

PSCL4 TOTAL     ACCESS:   19860164  HIT:   19860164  MISS:          0  HIT %:        100  MISS %:          0   MPKI: 0
PSCL4 LOAD TRANSLATION ACCESS:   16937414  HIT:   16937414  MISS:          0  HIT %:        100  MISS %:          0   MPKI: 0
PSCL4 TRANSLATION FROM L1D PREFETCHER ACCESS:    2922750  HIT:    2922750  MISS:          0  HIT %:        100  MISS %:          0   MPKI: 0
PSCL4 PREFETCH  REQUESTED:          0  ISSUED:          0  USEFUL:          0  USELESS:          0
PSCL4 USEFUL LOAD PREFETCHES:          0 PREFETCH ISSUED TO LOWER LEVEL:          0  ACCURACY: -nan
PSCL4 TIMELY PREFETCHES:          0 LATE PREFETCHES: 0 DROPPED PREFETCHES: 0
PSCL4 PREFETCHES SAME FILL-ORIGIN LEVEL: 0 DIFFERENT FILL-ORIGIN LEVEL: 0

PSCL3 TOTAL     ACCESS:   19859960  HIT:   19859910  MISS:         50  HIT %:    99.9997  MISS %: 0.000251763   MPKI: 0.00025
PSCL3 LOAD TRANSLATION ACCESS:   16937264  HIT:   16937214  MISS:         50  HIT %:    99.9997  MISS %: 0.000295207   MPKI: 0.00025
PSCL3 TRANSLATION FROM L1D PREFETCHER ACCESS:    2922696  HIT:    2922696  MISS:          0  HIT %:        100  MISS %:          0   MPKI: 0
PSCL3 PREFETCH  REQUESTED:          0  ISSUED:          0  USEFUL:          0  USELESS:          0
PSCL3 USEFUL LOAD PREFETCHES:          0 PREFETCH ISSUED TO LOWER LEVEL:          0  ACCURACY: -nan
PSCL3 TIMELY PREFETCHES:          0 LATE PREFETCHES: 0 DROPPED PREFETCHES: 0
PSCL3 PREFETCHES SAME FILL-ORIGIN LEVEL: 0 DIFFERENT FILL-ORIGIN LEVEL: 0

PSCL2 TOTAL     ACCESS:   19860111  HIT:   19781871  MISS:      78240  HIT %:     99.606  MISS %:   0.393956   MPKI: 0.3912
PSCL2 LOAD TRANSLATION ACCESS:   16938251  HIT:   16860011  MISS:      78240  HIT %:    99.5381  MISS %:   0.461913   MPKI: 0.3912
PSCL2 TRANSLATION FROM L1D PREFETCHER ACCESS:    2921860  HIT:    2921860  MISS:          0  HIT %:        100  MISS %:          0   MPKI: 0
PSCL2 PREFETCH  REQUESTED:          0  ISSUED:          0  USEFUL:          0  USELESS:          0
PSCL2 USEFUL LOAD PREFETCHES:          0 PREFETCH ISSUED TO LOWER LEVEL:          0  ACCURACY: -nan
PSCL2 TIMELY PREFETCHES:          0 LATE PREFETCHES: 0 DROPPED PREFETCHES: 0
PSCL2 PREFETCHES SAME FILL-ORIGIN LEVEL: 0 DIFFERENT FILL-ORIGIN LEVEL: 0

LLC TOTAL     ACCESS:    1991404  HIT:    1402993  MISS:     588411  HIT %:    70.4525  MISS %:    29.5475   MPKI: 2.94205
LLC LOAD      ACCESS:     448078  HIT:     283737  MISS:     164341  HIT %:    63.3231  MISS %:    36.6769   MPKI: 0.821705
LLC RFO       ACCESS:      50556  HIT:      25529  MISS:      25027  HIT %:    50.4965  MISS %:    49.5035   MPKI: 0.125135
LLC PREFETCH  ACCESS:     812332  HIT:     424984  MISS:     387348  HIT %:    52.3165  MISS %:    47.6835   MPKI: 1.93674
LLC WRITEBACK ACCESS:     664513  HIT:     655001  MISS:       9512  HIT %:    98.5686  MISS %:    1.43142   MPKI: 0.04756
LLC LOAD TRANSLATION ACCESS:      14086  HIT:      12172  MISS:       1914  HIT %:     86.412  MISS %:     13.588   MPKI: 0.00957
LLC TRANSLATION FROM L1D PREFETCHER ACCESS:       1839  HIT:       1570  MISS:        269  HIT %:    85.3725  MISS %:    14.6275   MPKI: 0.001345
LLC PREFETCH  REQUESTED:          0  ISSUED:          0  USEFUL:     124833  USELESS:    1497579
LLC USEFUL LOAD PREFETCHES:     124833 PREFETCH ISSUED TO LOWER LEVEL:    1615063  ACCURACY: 7.7293
LLC TIMELY PREFETCHES:     124833 LATE PREFETCHES: 0 DROPPED PREFETCHES: 0
LLC PREFETCHES SAME FILL-ORIGIN LEVEL: 0 DIFFERENT FILL-ORIGIN LEVEL: 0
LLC AVERAGE MISS LATENCY: 1059.1 cycles
LLC RQ	ACCESS:    2967703	FORWARD:          0	MERGED:          0	TO_CACHE:    2967699
LLC WQ	ACCESS:    2850169	FORWARD:         12	MERGED:          0	TO_CACHE:    2850169
LLC PQ	ACCESS:    2714168	FORWARD:          0	MERGED:          0	TO_CACHE:    2714160

LLC Dense regions hint to LLC: 0

RAW hits: 7103997
Loads Generated: 37347475
Loads sent to L1D: 30243478
Stores Generated: 15031255
Stores sent to L1D: 15031258
Major fault: 0 Minor fault: 1694
Allocated PAGES: 17338

CPU 2 cumulative IPC: 0.592402 instructions: 200000003 cycles: 337608481
ITLB TOTAL     ACCESS:   39626986  HIT:   30222519  MISS:    9404467  HIT %:    76.2675  MISS %:    23.7325   MPKI: 47.0223
ITLB LOAD TRANSLATION ACCESS:   39626986  HIT:   30222519  MISS:    9404467  HIT %:    76.2675  MISS %:    23.7325   MPKI: 47.0223
ITLB PREFETCH  REQUESTED:          0  ISSUED:          0  USEFUL:          0  USELESS:          0
ITLB USEFUL LOAD PREFETCHES:          0 PREFETCH ISSUED TO LOWER LEVEL:          0  ACCURACY: -nan
ITLB TIMELY PREFETCHES:          0 LATE PREFETCHES: 0 DROPPED PREFETCHES: 0
ITLB PREFETCHES SAME FILL-ORIGIN LEVEL: 0 DIFFERENT FILL-ORIGIN LEVEL: 0
ITLB AVERAGE MISS LATENCY: 43.796 cycles
ITLB RQ	ACCESS:   57539137	FORWARD:          0	MERGED:    5578659	TO_CACHE:   51960478

DTLB TOTAL     ACCESS:   27756552  HIT:   16725335  MISS:   11031217  HIT %:    60.2573  MISS %:    39.7427   MPKI: 55.1561
DTLB LOAD TRANSLATION ACCESS:   27756552  HIT:   16725335  MISS:   11031217  HIT %:    60.2573  MISS %:    39.7427   MPKI: 55.1561
DTLB PREFETCH  REQUESTED:          0  ISSUED:          0  USEFUL:          0  USELESS:          0
DTLB USEFUL LOAD PREFETCHES:          0 PREFETCH ISSUED TO LOWER LEVEL:          0  ACCURACY: -nan
DTLB TIMELY PREFETCHES:          0 LATE PREFETCHES: 0 DROPPED PREFETCHES: 0
DTLB PREFETCHES SAME FILL-ORIGIN LEVEL: 0 DIFFERENT FILL-ORIGIN LEVEL: 0
DTLB AVERAGE MISS LATENCY: 41.8952 cycles
DTLB RQ	ACCESS:   39823246	FORWARD:          0	MERGED:    4901279	TO_CACHE:   34921967

STLB TOTAL     ACCESS:   27095724  HIT:    8849274  MISS:   18246450  HIT %:    32.6593  MISS %:    67.3407   MPKI: 91.2322
STLB LOAD TRANSLATION ACCESS:   20435684  HIT:    4315228  MISS:   16120456  HIT %:    21.1161  MISS %:    78.8839   MPKI: 80.6023
STLB TRANSLATION FROM L1D PREFETCHER ACCESS:    6660040  HIT:    4534046  MISS:    2125994  HIT %:    68.0784  MISS %:    31.9216   MPKI: 10.63
STLB PREFETCH  REQUESTED:          0  ISSUED:          0  USEFUL:     887056  USELESS:    1601295
STLB USEFUL LOAD PREFETCHES:     887056 PREFETCH ISSUED TO LOWER LEVEL:          0  ACCURACY: inf
STLB TIMELY PREFETCHES:     887056 LATE PREFETCHES: 0 DROPPED PREFETCHES: 391276
STLB PREFETCHES SAME FILL-ORIGIN LEVEL: 0 DIFFERENT FILL-ORIGIN LEVEL: 0
STLB AVERAGE MISS LATENCY: 41.6566 cycles
STLB RQ	ACCESS:   51600623	FORWARD:          0	MERGED:   18544136	TO_CACHE:   33056487

STLB Hit, L1D data hit: 0
STLB Hit, L2C data hit: 0
STLB Hit, LLC data hit: 0
STLB Hit, LLC data miss: 0
STLB STLB hints to L2: 0
L1D TOTAL     ACCESS:   48842310  HIT:   47444128  MISS:    1398182  HIT %:    97.1374  MISS %:    2.86265   MPKI: 6.99091
L1D LOAD      ACCESS:   19916023  HIT:   19086108  MISS:     829915  HIT %:    95.8329  MISS %:    4.16707   MPKI: 4.14957
L1D RFO       ACCESS:   12770204  HIT:   12700228  MISS:      69976  HIT %:     99.452  MISS %:   0.547963   MPKI: 0.34988
L1D PREFETCH  ACCESS:   16156083  HIT:   15657792  MISS:     498291  HIT %:    96.9158  MISS %:    3.08423   MPKI: 2.49145
L1D PREFETCH  REQUESTED:   64153985  ISSUED:   62669263  USEFUL:     524315  USELESS:      56946
L1D USEFUL LOAD PREFETCHES:     524315 PREFETCH ISSUED TO LOWER LEVEL:    7744642  ACCURACY: 6.77004
L1D TIMELY PREFETCHES:     524315 LATE PREFETCHES: 644 DROPPED PREFETCHES: 813569
L1D PREFETCHES SAME FILL-ORIGIN LEVEL: 581784 DIFFERENT FILL-ORIGIN LEVEL: 7162858
L1D AVERAGE MISS LATENCY: 71.7004 cycles
L1D RQ	ACCESS:   36062691	FORWARD:          0	MERGED:   11428722	TO_CACHE:   24107924
L1D WQ	ACCESS:   17507833	FORWARD:     528470	MERGED:    1792511	TO_CACHE:   15715322
L1D PQ	ACCESS:   35731326	FORWARD:          0	MERGED:    8790964	TO_CACHE:   26937937

L1D UNIQUE REGIONS ACCESSED: 0
L1D REGIONS CONFLICTS: 0
L1D Cross Page Prefetch Requests: 11473251
L1D Same Page Prefetch Requests: 36457857
L1D ROI Sum of L1D PQ occupancy: 756734476
L1D PREFETCHES PUSHED FROM L2C: 0
L1I TOTAL     ACCESS:   47670570  HIT:   47605348  MISS:      65222  HIT %:    99.8632  MISS %:   0.136818   MPKI: 0.32611
L1I LOAD      ACCESS:   47670570  HIT:   47605348  MISS:      65222  HIT %:    99.8632  MISS %:   0.136818   MPKI: 0.32611
L1I PREFETCH  REQUESTED:          0  ISSUED:          0  USEFUL:          0  USELESS:          0
L1I USEFUL LOAD PREFETCHES:          0 PREFETCH ISSUED TO LOWER LEVEL:          0  ACCURACY: -nan
L1I TIMELY PREFETCHES:          0 LATE PREFETCHES: 0 DROPPED PREFETCHES: 0
L1I PREFETCHES SAME FILL-ORIGIN LEVEL: 0 DIFFERENT FILL-ORIGIN LEVEL: 0
L1I AVERAGE MISS LATENCY: 43.155 cycles
L1I RQ	ACCESS:  111255336	FORWARD:          0	MERGED:   53716199	TO_CACHE:   57539137

BTB BRANCH_DIRECT_JUMP	ACCESS:          0  HIT:          0  MISS:          0
BTB BRANCH_INDIRECT	ACCESS:          0  HIT:          0  MISS:          0
BTB BRANCH_CONDITIONAL	ACCESS:          0  HIT:          0  MISS:          0
BTB BRANCH_DIRECT_CALL	ACCESS:          0  HIT:          0  MISS:          0
BTB BRANCH_INDIRECT_CALL	ACCESS:          0  HIT:          0  MISS:          0
BTB BRANCH_RETURN	ACCESS:          0  HIT:          0  MISS:          0
BTB BRANCH_OTHER ACCESS:          0  HIT:          0  MISS:          0

L2C TOTAL     ACCESS:   26872528  HIT:   25647210  MISS:    1225318  HIT %:    95.4403  MISS %:    4.55974   MPKI: 6.12659
L2C LOAD      ACCESS:     894594  HIT:     445033  MISS:     449561  HIT %:    49.7469  MISS %:    50.2531   MPKI: 2.2478
L2C DATA LOAD MPKI: 2.20388
L2C INSTRUCTION LOAD MPKI: 0.04392
L2C RFO       ACCESS:      69970  HIT:      25263  MISS:      44707  HIT %:    36.1055  MISS %:    63.8945   MPKI: 0.223535
L2C PREFETCH  ACCESS:    6377446  HIT:    5708459  MISS:     668987  HIT %:    89.5101  MISS %:    10.4899   MPKI: 3.34493
L2C DATA PREFETCH MPKI: 3.34493
L2C INSTRUCTION PREFETCH MPKI: 0
L2C WRITEBACK ACCESS:     802945  HIT:     758729  MISS:      44216  HIT %:    94.4933  MISS %:    5.50673   MPKI: 0.22108
L2C LOAD TRANSLATION ACCESS:   16264347  HIT:   16248507  MISS:      15840  HIT %:    99.9026  MISS %:  0.0973909   MPKI: 0.0792
L2C TRANSLATION FROM L1D PREFETCHER ACCESS:    2463226  HIT:    2461219  MISS:       2007  HIT %:    99.9185  MISS %:  0.0814785   MPKI: 0.010035
L2C PREFETCH  REQUESTED:          0  ISSUED:          0  USEFUL:     171982  USELESS:     622100
L2C USEFUL LOAD PREFETCHES:     171982 PREFETCH ISSUED TO LOWER LEVEL:     789892  ACCURACY: 21.7728
L2C TIMELY PREFETCHES:     171982 LATE PREFETCHES: 1689 DROPPED PREFETCHES: 0
L2C PREFETCHES SAME FILL-ORIGIN LEVEL: 698121 DIFFERENT FILL-ORIGIN LEVEL: 0
L2C AVERAGE MISS LATENCY: 145.895 cycles
L2C RQ	ACCESS:   23706735	FORWARD:          0	MERGED:          0	TO_CACHE:   23706732
L2C WQ	ACCESS:     964403	FORWARD:         28	MERGED:          0	TO_CACHE:     964403
L2C PQ	ACCESS:    7744639	FORWARD:          0	MERGED:       2686	TO_CACHE:    7741928

L2C Instructions Evicting Data 10147
L2C Translations Evicting Data 21296
L2C Data Evicting Data 1350209
L2C Instructions Evicting Instructions 326
L2C Translations Evicting Instructions 223
L2C Data Evicting Instructions 9677
L2C Instructions Evicting Translations 183
L2C Translations Evicting Translations 436
L2C Data Evicting Translations 20251
L2C Dense regions hint from L2: 0
PSCL5 TOTAL     ACCESS:   18580493  HIT:   18580493  MISS:          0  HIT %:        100  MISS %:          0   MPKI: 0
PSCL5 LOAD TRANSLATION ACCESS:   16120456  HIT:   16120456  MISS:          0  HIT %:        100  MISS %:          0   MPKI: 0
PSCL5 TRANSLATION FROM L1D PREFETCHER ACCESS:    2460037  HIT:    2460037  MISS:          0  HIT %:        100  MISS %:          0   MPKI: 0
PSCL5 PREFETCH  REQUESTED:          0  ISSUED:          0  USEFUL:          0  USELESS:          0
PSCL5 USEFUL LOAD PREFETCHES:          0 PREFETCH ISSUED TO LOWER LEVEL:          0  ACCURACY: -nan
PSCL5 TIMELY PREFETCHES:          0 LATE PREFETCHES: 0 DROPPED PREFETCHES: 0
PSCL5 PREFETCHES SAME FILL-ORIGIN LEVEL: 0 DIFFERENT FILL-ORIGIN LEVEL: 0

PSCL4 TOTAL     ACCESS:   18580493  HIT:   18580493  MISS:          0  HIT %:        100  MISS %:          0   MPKI: 0
PSCL4 LOAD TRANSLATION ACCESS:   16120456  HIT:   16120456  MISS:          0  HIT %:        100  MISS %:          0   MPKI: 0
PSCL4 TRANSLATION FROM L1D PREFETCHER ACCESS:    2460037  HIT:    2460037  MISS:          0  HIT %:        100  MISS %:          0   MPKI: 0
PSCL4 PREFETCH  REQUESTED:          0  ISSUED:          0  USEFUL:          0  USELESS:          0
PSCL4 USEFUL LOAD PREFETCHES:          0 PREFETCH ISSUED TO LOWER LEVEL:          0  ACCURACY: -nan
PSCL4 TIMELY PREFETCHES:          0 LATE PREFETCHES: 0 DROPPED PREFETCHES: 0
PSCL4 PREFETCHES SAME FILL-ORIGIN LEVEL: 0 DIFFERENT FILL-ORIGIN LEVEL: 0

PSCL3 TOTAL     ACCESS:   18574932  HIT:   18574867  MISS:         65  HIT %:    99.9997  MISS %: 0.000349934   MPKI: 0.000325
PSCL3 LOAD TRANSLATION ACCESS:   16115015  HIT:   16114950  MISS:         65  HIT %:    99.9996  MISS %: 0.000403351   MPKI: 0.000325
PSCL3 TRANSLATION FROM L1D PREFETCHER ACCESS:    2459917  HIT:    2459917  MISS:          0  HIT %:        100  MISS %:          0   MPKI: 0
PSCL3 PREFETCH  REQUESTED:          0  ISSUED:          0  USEFUL:          0  USELESS:          0
PSCL3 USEFUL LOAD PREFETCHES:          0 PREFETCH ISSUED TO LOWER LEVEL:          0  ACCURACY: -nan
PSCL3 TIMELY PREFETCHES:          0 LATE PREFETCHES: 0 DROPPED PREFETCHES: 0
PSCL3 PREFETCHES SAME FILL-ORIGIN LEVEL: 0 DIFFERENT FILL-ORIGIN LEVEL: 0

PSCL2 TOTAL     ACCESS:   18580305  HIT:   18433382  MISS:     146923  HIT %:    99.2093  MISS %:   0.790746   MPKI: 0.734615
PSCL2 LOAD TRANSLATION ACCESS:   16123536  HIT:   15976613  MISS:     146923  HIT %:    99.0888  MISS %:   0.911233   MPKI: 0.734615
PSCL2 TRANSLATION FROM L1D PREFETCHER ACCESS:    2456769  HIT:    2456769  MISS:          0  HIT %:        100  MISS %:          0   MPKI: 0
PSCL2 PREFETCH  REQUESTED:          0  ISSUED:          0  USEFUL:          0  USELESS:          0
PSCL2 USEFUL LOAD PREFETCHES:          0 PREFETCH ISSUED TO LOWER LEVEL:          0  ACCURACY: -nan
PSCL2 TIMELY PREFETCHES:          0 LATE PREFETCHES: 0 DROPPED PREFETCHES: 0
PSCL2 PREFETCHES SAME FILL-ORIGIN LEVEL: 0 DIFFERENT FILL-ORIGIN LEVEL: 0

LLC TOTAL     ACCESS:    1766044  HIT:    1179954  MISS:     586090  HIT %:    66.8134  MISS %:    33.1866   MPKI: 2.93045
LLC LOAD      ACCESS:     448312  HIT:     259226  MISS:     189086  HIT %:    57.8227  MISS %:    42.1773   MPKI: 0.94543
LLC RFO       ACCESS:      44572  HIT:      19194  MISS:      25378  HIT %:    43.0629  MISS %:    56.9371   MPKI: 0.12689
LLC PREFETCH  ACCESS:     670367  HIT:     315666  MISS:     354701  HIT %:    47.0885  MISS %:    52.9115   MPKI: 1.7735
LLC WRITEBACK ACCESS:     584946  HIT:     572008  MISS:      12938  HIT %:    97.7882  MISS %:    2.21183   MPKI: 0.06469
LLC LOAD TRANSLATION ACCESS:      15840  HIT:      12389  MISS:       3451  HIT %:    78.2134  MISS %:    21.7866   MPKI: 0.017255
LLC TRANSLATION FROM L1D PREFETCHER ACCESS:       2007  HIT:       1471  MISS:        536  HIT %:    73.2935  MISS %:    26.7065   MPKI: 0.00268
LLC PREFETCH  REQUESTED:          0  ISSUED:          0  USEFUL:     124833  USELESS:    1497579
LLC USEFUL LOAD PREFETCHES:     124833 PREFETCH ISSUED TO LOWER LEVEL:    1615063  ACCURACY: 7.7293
LLC TIMELY PREFETCHES:     124833 LATE PREFETCHES: 0 DROPPED PREFETCHES: 0
LLC PREFETCHES SAME FILL-ORIGIN LEVEL: 0 DIFFERENT FILL-ORIGIN LEVEL: 0
LLC AVERAGE MISS LATENCY: 1063.3 cycles
LLC RQ	ACCESS:    2967703	FORWARD:          0	MERGED:          0	TO_CACHE:    2967699
LLC WQ	ACCESS:    2850169	FORWARD:         12	MERGED:          0	TO_CACHE:    2850169
LLC PQ	ACCESS:    2714168	FORWARD:          0	MERGED:          0	TO_CACHE:    2714160

LLC Dense regions hint to LLC: 0

RAW hits: 6128205
Loads Generated: 35988498
Loads sent to L1D: 29860283
Stores Generated: 14532987
Stores sent to L1D: 14532987
Major fault: 0 Minor fault: 2379
Allocated PAGES: 17338

CPU 3 cumulative IPC: 0.702468 instructions: 200000003 cycles: 284710514
ITLB TOTAL     ACCESS:   37726026  HIT:   28903610  MISS:    8822416  HIT %:    76.6145  MISS %:    23.3855   MPKI: 44.1121
ITLB LOAD TRANSLATION ACCESS:   37726026  HIT:   28903610  MISS:    8822416  HIT %:    76.6145  MISS %:    23.3855   MPKI: 44.1121
ITLB PREFETCH  REQUESTED:          0  ISSUED:          0  USEFUL:          0  USELESS:          0
ITLB USEFUL LOAD PREFETCHES:          0 PREFETCH ISSUED TO LOWER LEVEL:          0  ACCURACY: -nan
ITLB TIMELY PREFETCHES:          0 LATE PREFETCHES: 0 DROPPED PREFETCHES: 0
ITLB PREFETCHES SAME FILL-ORIGIN LEVEL: 0 DIFFERENT FILL-ORIGIN LEVEL: 0
ITLB AVERAGE MISS LATENCY: 48.5783 cycles
ITLB RQ	ACCESS:   65684717	FORWARD:          0	MERGED:    8057773	TO_CACHE:   57626944

DTLB TOTAL     ACCESS:   24194047  HIT:   13973606  MISS:   10220441  HIT %:    57.7564  MISS %:    42.2436   MPKI: 51.1022
DTLB LOAD TRANSLATION ACCESS:   24194047  HIT:   13973606  MISS:   10220441  HIT %:    57.7564  MISS %:    42.2436   MPKI: 51.1022
DTLB PREFETCH  REQUESTED:          0  ISSUED:          0  USEFUL:          0  USELESS:          0
DTLB USEFUL LOAD PREFETCHES:          0 PREFETCH ISSUED TO LOWER LEVEL:          0  ACCURACY: -nan
DTLB TIMELY PREFETCHES:          0 LATE PREFETCHES: 0 DROPPED PREFETCHES: 0
DTLB PREFETCHES SAME FILL-ORIGIN LEVEL: 0 DIFFERENT FILL-ORIGIN LEVEL: 0
DTLB AVERAGE MISS LATENCY: 46.4171 cycles
DTLB RQ	ACCESS:   42041427	FORWARD:          0	MERGED:    5428615	TO_CACHE:   36612812

STLB TOTAL     ACCESS:   23350497  HIT:    7666181  MISS:   15684316  HIT %:    32.8309  MISS %:    67.1691   MPKI: 78.4216
STLB LOAD TRANSLATION ACCESS:   19042856  HIT:    4330550  MISS:   14712306  HIT %:    22.7411  MISS %:    77.2589   MPKI: 73.5615
STLB TRANSLATION FROM L1D PREFETCHER ACCESS:    4307641  HIT:    3335631  MISS:     972010  HIT %:    77.4352  MISS %:    22.5648   MPKI: 4.86005
STLB PREFETCH  REQUESTED:          0  ISSUED:          0  USEFUL:     799387  USELESS:     591874
STLB USEFUL LOAD PREFETCHES:     799387 PREFETCH ISSUED TO LOWER LEVEL:          0  ACCURACY: inf
STLB TIMELY PREFETCHES:     799387 LATE PREFETCHES: 0 DROPPED PREFETCHES: 308491
STLB PREFETCHES SAME FILL-ORIGIN LEVEL: 0 DIFFERENT FILL-ORIGIN LEVEL: 0
STLB AVERAGE MISS LATENCY: 44.9816 cycles
STLB RQ	ACCESS:   46075692	FORWARD:          0	MERGED:   12214819	TO_CACHE:   33860873

STLB Hit, L1D data hit: 0
STLB Hit, L2C data hit: 0
STLB Hit, LLC data hit: 0
STLB Hit, LLC data miss: 0
STLB STLB hints to L2: 0
L1D TOTAL     ACCESS:   36305234  HIT:   35780923  MISS:     524311  HIT %:    98.5558  MISS %:    1.44417   MPKI: 2.62155
L1D LOAD      ACCESS:   18151281  HIT:   17805482  MISS:     345799  HIT %:    98.0949  MISS %:    1.90509   MPKI: 1.72899
L1D RFO       ACCESS:   11155560  HIT:   11154906  MISS:        654  HIT %:    99.9941  MISS %: 0.00586255   MPKI: 0.00327
L1D PREFETCH  ACCESS:    6998393  HIT:    6820535  MISS:     177858  HIT %:    97.4586  MISS %:    2.54141   MPKI: 0.88929
L1D PREFETCH  REQUESTED:   43763271  ISSUED:   42792661  USEFUL:     239673  USELESS:      17064
L1D USEFUL LOAD PREFETCHES:     239673 PREFETCH ISSUED TO LOWER LEVEL:    8316297  ACCURACY: 2.88197
L1D TIMELY PREFETCHES:     239673 LATE PREFETCHES: 90 DROPPED PREFETCHES: 613324
L1D PREFETCHES SAME FILL-ORIGIN LEVEL: 256802 DIFFERENT FILL-ORIGIN LEVEL: 8059495
L1D AVERAGE MISS LATENCY: 126.693 cycles
L1D RQ	ACCESS:   39216315	FORWARD:          0	MERGED:   12650570	TO_CACHE:   26049117
L1D WQ	ACCESS:   17354828	FORWARD:     516709	MERGED:    1362518	TO_CACHE:   15992310
L1D PQ	ACCESS:   24018308	FORWARD:          0	MERGED:    5243874	TO_CACHE:   18774353

L1D UNIQUE REGIONS ACCESSED: 0
L1D REGIONS CONFLICTS: 0
L1D Cross Page Prefetch Requests: 8251702
L1D Same Page Prefetch Requests: 22462904
L1D ROI Sum of L1D PQ occupancy: 472192363
L1D PREFETCHES PUSHED FROM L2C: 0
L1I TOTAL     ACCESS:   45818182  HIT:   45815258  MISS:       2924  HIT %:    99.9936  MISS %: 0.00638175   MPKI: 0.01462
L1I LOAD      ACCESS:   45818182  HIT:   45815258  MISS:       2924  HIT %:    99.9936  MISS %: 0.00638175   MPKI: 0.01462
L1I PREFETCH  REQUESTED:          0  ISSUED:          0  USEFUL:          0  USELESS:          0
L1I USEFUL LOAD PREFETCHES:          0 PREFETCH ISSUED TO LOWER LEVEL:          0  ACCURACY: -nan
L1I TIMELY PREFETCHES:          0 LATE PREFETCHES: 0 DROPPED PREFETCHES: 0
L1I PREFETCHES SAME FILL-ORIGIN LEVEL: 0 DIFFERENT FILL-ORIGIN LEVEL: 0
L1I AVERAGE MISS LATENCY: 319.069 cycles
L1I RQ	ACCESS:  129449374	FORWARD:          0	MERGED:   63764657	TO_CACHE:   65684717

BTB BRANCH_DIRECT_JUMP	ACCESS:          0  HIT:          0  MISS:          0
BTB BRANCH_INDIRECT	ACCESS:          0  HIT:          0  MISS:          0
BTB BRANCH_CONDITIONAL	ACCESS:          0  HIT:          0  MISS:          0
BTB BRANCH_DIRECT_CALL	ACCESS:          0  HIT:          0  MISS:          0
BTB BRANCH_INDIRECT_CALL	ACCESS:          0  HIT:          0  MISS:          0
BTB BRANCH_RETURN	ACCESS:          0  HIT:          0  MISS:          0
BTB BRANCH_OTHER ACCESS:          0  HIT:          0  MISS:          0

L2C TOTAL     ACCESS:   22098948  HIT:   21498199  MISS:     600749  HIT %:    97.2815  MISS %:    2.71845   MPKI: 3.00374
L2C LOAD      ACCESS:     348661  HIT:     134428  MISS:     214233  HIT %:    38.5555  MISS %:    61.4445   MPKI: 1.07116
L2C DATA LOAD MPKI: 1.05689
L2C INSTRUCTION LOAD MPKI: 0.014275
L2C RFO       ACCESS:        654  HIT:        104  MISS:        550  HIT %:    15.9021  MISS %:    84.0979   MPKI: 0.00275
L2C PREFETCH  ACCESS:    5607067  HIT:    5262371  MISS:     344696  HIT %:    93.8525  MISS %:    6.14753   MPKI: 1.72348
L2C DATA PREFETCH MPKI: 1.72348
L2C INSTRUCTION PREFETCH MPKI: 0
L2C WRITEBACK ACCESS:     196410  HIT:     180942  MISS:      15468  HIT %:    92.1246  MISS %:    7.87536   MPKI: 0.07734
L2C LOAD TRANSLATION ACCESS:   14760752  HIT:   14735390  MISS:      25362  HIT %:    99.8282  MISS %:   0.171821   MPKI: 0.12681
L2C TRANSLATION FROM L1D PREFETCHER ACCESS:    1185404  HIT:    1184964  MISS:        440  HIT %:    99.9629  MISS %:  0.0371181   MPKI: 0.0022
L2C PREFETCH  REQUESTED:          0  ISSUED:          0  USEFUL:     137334  USELESS:     358072
L2C USEFUL LOAD PREFETCHES:     137334 PREFETCH ISSUED TO LOWER LEVEL:     495338  ACCURACY: 27.7253
L2C TIMELY PREFETCHES:     137334 LATE PREFETCHES: 934 DROPPED PREFETCHES: 0
L2C PREFETCHES SAME FILL-ORIGIN LEVEL: 465912 DIFFERENT FILL-ORIGIN LEVEL: 0
L2C AVERAGE MISS LATENCY: 248.235 cycles
L2C RQ	ACCESS:   23357104	FORWARD:          0	MERGED:          0	TO_CACHE:   23357104
L2C WQ	ACCESS:     281355	FORWARD:          8	MERGED:          0	TO_CACHE:     281355
L2C PQ	ACCESS:    8316292	FORWARD:          0	MERGED:       3107	TO_CACHE:    8313177

L2C Instructions Evicting Data 3387
L2C Translations Evicting Data 35616
L2C Data Evicting Data 759553
L2C Instructions Evicting Instructions 90
L2C Translations Evicting Instructions 142
L2C Data Evicting Instructions 3329
L2C Instructions Evicting Translations 144
L2C Translations Evicting Translations 1222
L2C Data Evicting Translations 34611
L2C Dense regions hint from L2: 0
PSCL5 TOTAL     ACCESS:   15897546  HIT:   15897546  MISS:          0  HIT %:        100  MISS %:          0   MPKI: 0
PSCL5 LOAD TRANSLATION ACCESS:   14712306  HIT:   14712306  MISS:          0  HIT %:        100  MISS %:          0   MPKI: 0
PSCL5 TRANSLATION FROM L1D PREFETCHER ACCESS:    1185240  HIT:    1185240  MISS:          0  HIT %:        100  MISS %:          0   MPKI: 0
PSCL5 PREFETCH  REQUESTED:          0  ISSUED:          0  USEFUL:          0  USELESS:          0
PSCL5 USEFUL LOAD PREFETCHES:          0 PREFETCH ISSUED TO LOWER LEVEL:          0  ACCURACY: -nan
PSCL5 TIMELY PREFETCHES:          0 LATE PREFETCHES: 0 DROPPED PREFETCHES: 0
PSCL5 PREFETCHES SAME FILL-ORIGIN LEVEL: 0 DIFFERENT FILL-ORIGIN LEVEL: 0

PSCL4 TOTAL     ACCESS:   15897546  HIT:   15897546  MISS:          0  HIT %:        100  MISS %:          0   MPKI: 0
PSCL4 LOAD TRANSLATION ACCESS:   14712306  HIT:   14712306  MISS:          0  HIT %:        100  MISS %:          0   MPKI: 0
PSCL4 TRANSLATION FROM L1D PREFETCHER ACCESS:    1185240  HIT:    1185240  MISS:          0  HIT %:        100  MISS %:          0   MPKI: 0
PSCL4 PREFETCH  REQUESTED:          0  ISSUED:          0  USEFUL:          0  USELESS:          0
PSCL4 USEFUL LOAD PREFETCHES:          0 PREFETCH ISSUED TO LOWER LEVEL:          0  ACCURACY: -nan
PSCL4 TIMELY PREFETCHES:          0 LATE PREFETCHES: 0 DROPPED PREFETCHES: 0
PSCL4 PREFETCHES SAME FILL-ORIGIN LEVEL: 0 DIFFERENT FILL-ORIGIN LEVEL: 0

PSCL3 TOTAL     ACCESS:   15897115  HIT:   15897025  MISS:         90  HIT %:    99.9994  MISS %: 0.00056614   MPKI: 0.00045
PSCL3 LOAD TRANSLATION ACCESS:   14711875  HIT:   14711785  MISS:         90  HIT %:    99.9994  MISS %: 0.000611751   MPKI: 0.00045
PSCL3 TRANSLATION FROM L1D PREFETCHER ACCESS:    1185240  HIT:    1185240  MISS:          0  HIT %:        100  MISS %:          0   MPKI: 0
PSCL3 PREFETCH  REQUESTED:          0  ISSUED:          0  USEFUL:          0  USELESS:          0
PSCL3 USEFUL LOAD PREFETCHES:          0 PREFETCH ISSUED TO LOWER LEVEL:          0  ACCURACY: -nan
PSCL3 TIMELY PREFETCHES:          0 LATE PREFETCHES: 0 DROPPED PREFETCHES: 0
PSCL3 PREFETCHES SAME FILL-ORIGIN LEVEL: 0 DIFFERENT FILL-ORIGIN LEVEL: 0

PSCL2 TOTAL     ACCESS:   15897543  HIT:   15849024  MISS:      48519  HIT %:    99.6948  MISS %:   0.305198   MPKI: 0.242595
PSCL2 LOAD TRANSLATION ACCESS:   14712467  HIT:   14663948  MISS:      48519  HIT %:    99.6702  MISS %:   0.329782   MPKI: 0.242595
PSCL2 TRANSLATION FROM L1D PREFETCHER ACCESS:    1185076  HIT:    1185076  MISS:          0  HIT %:        100  MISS %:          0   MPKI: 0
PSCL2 PREFETCH  REQUESTED:          0  ISSUED:          0  USEFUL:          0  USELESS:          0
PSCL2 USEFUL LOAD PREFETCHES:          0 PREFETCH ISSUED TO LOWER LEVEL:          0  ACCURACY: -nan
PSCL2 TIMELY PREFETCHES:          0 LATE PREFETCHES: 0 DROPPED PREFETCHES: 0
PSCL2 PREFETCHES SAME FILL-ORIGIN LEVEL: 0 DIFFERENT FILL-ORIGIN LEVEL: 0

LLC TOTAL     ACCESS:     773537  HIT:     316186  MISS:     457351  HIT %:    40.8754  MISS %:    59.1246   MPKI: 2.28675
LLC LOAD      ACCESS:     213584  HIT:      58017  MISS:     155567  HIT %:    27.1636  MISS %:    72.8364   MPKI: 0.777835
LLC RFO       ACCESS:        546  HIT:        110  MISS:        436  HIT %:    20.1465  MISS %:    79.8535   MPKI: 0.00218
LLC PREFETCH  ACCESS:     345349  HIT:      67792  MISS:     277557  HIT %:      19.63  MISS %:      80.37   MPKI: 1.38778
LLC WRITEBACK ACCESS:     188256  HIT:     168404  MISS:      19852  HIT %:    89.4548  MISS %:    10.5452   MPKI: 0.09926
LLC LOAD TRANSLATION ACCESS:      25362  HIT:      21537  MISS:       3825  HIT %:    84.9184  MISS %:    15.0816   MPKI: 0.019125
LLC TRANSLATION FROM L1D PREFETCHER ACCESS:        440  HIT:        326  MISS:        114  HIT %:    74.0909  MISS %:    25.9091   MPKI: 0.00057
LLC PREFETCH  REQUESTED:          0  ISSUED:          0  USEFUL:     124833  USELESS:    1497579
LLC USEFUL LOAD PREFETCHES:     124833 PREFETCH ISSUED TO LOWER LEVEL:    1615063  ACCURACY: 7.7293
LLC TIMELY PREFETCHES:     124833 LATE PREFETCHES: 0 DROPPED PREFETCHES: 0
LLC PREFETCHES SAME FILL-ORIGIN LEVEL: 0 DIFFERENT FILL-ORIGIN LEVEL: 0
LLC AVERAGE MISS LATENCY: 1362.6 cycles
LLC RQ	ACCESS:    2967703	FORWARD:          0	MERGED:          0	TO_CACHE:    2967699
LLC WQ	ACCESS:    2850169	FORWARD:         12	MERGED:          0	TO_CACHE:    2850169
LLC PQ	ACCESS:    2714168	FORWARD:          0	MERGED:          0	TO_CACHE:    2714160

LLC Dense regions hint to LLC: 0

RAW hits: 6780738
Loads Generated: 34141421
Loads sent to L1D: 27360683
Stores Generated: 12107253
Stores sent to L1D: 12107255
Major fault: 0 Minor fault: 3178
Allocated PAGES: 17338

DRAM Statistics
 CHANNEL 0
 RQ ROW_BUFFER_HIT:     124333  ROW_BUFFER_MISS:    3096383
 DBUS_CONGESTED:        358
 WQ ROW_BUFFER_HIT:     421976  ROW_BUFFER_MISS:    1350192  FULL:          0

 AVG_CONGESTED_CYCLE: 4
 All warmup complete: 5
Channel 0 Bank busy for read cycles: 0
Channel 0 Bank busy for write cycles: 0
Channel 0
Rank 0
0banks busy for read cycles: 50663564
0banks busy for write cycles: 171259
1banks busy for read cycles: 127619965
1banks busy for write cycles: 23579126
2banks busy for read cycles: 67388479
2banks busy for write cycles: 17869945
3banks busy for read cycles: 30909997
3banks busy for write cycles: 14912193
4banks busy for read cycles: 13703277
4banks busy for write cycles: 12932519
5banks busy for read cycles: 6084177
5banks busy for write cycles: 11344858
6banks busy for read cycles: 2720145
6banks busy for write cycles: 9799938
7banks busy for read cycles: 1280222
7banks busy for write cycles: 8550582
8banks busy for read cycles: 764486
8banks busy for write cycles: 7848452

CPU 0 Branch Prediction Accuracy: 99.16% MPKI: 1.62754 Average ROB Occupancy at Mispredict: 152.902
Branch types
NOT_BRANCH: 0 0%
BRANCH_DIRECT_JUMP: 0 0%
BRANCH_INDIRECT: 0 0%
BRANCH_CONDITIONAL: 0 0%
BRANCH_DIRECT_CALL: 0 0%
BRANCH_INDIRECT_CALL: 0 0%
BRANCH_RETURN: 0 0%
BRANCH_OTHER: 0 0%


CPU 1 Branch Prediction Accuracy: 99.801% MPKI: 0.455645 Average ROB Occupancy at Mispredict: 136.424
Branch types
NOT_BRANCH: 0 0%
BRANCH_DIRECT_JUMP: 0 0%
BRANCH_INDIRECT: 0 0%
BRANCH_CONDITIONAL: 0 0%
BRANCH_DIRECT_CALL: 0 0%
BRANCH_INDIRECT_CALL: 0 0%
BRANCH_RETURN: 0 0%
BRANCH_OTHER: 0 0%


CPU 2 Branch Prediction Accuracy: 99.6684% MPKI: 0.739802 Average ROB Occupancy at Mispredict: 124.114
Branch types
NOT_BRANCH: 0 0%
BRANCH_DIRECT_JUMP: 0 0%
BRANCH_INDIRECT: 0 0%
BRANCH_CONDITIONAL: 0 0%
BRANCH_DIRECT_CALL: 0 0%
BRANCH_INDIRECT_CALL: 0 0%
BRANCH_RETURN: 0 0%
BRANCH_OTHER: 0 0%


CPU 3 Branch Prediction Accuracy: 99.8053% MPKI: 0.413776 Average ROB Occupancy at Mispredict: 110.28
Branch types
NOT_BRANCH: 0 0%
BRANCH_DIRECT_JUMP: 0 0%
BRANCH_INDIRECT: 0 0%
BRANCH_CONDITIONAL: 0 0%
BRANCH_DIRECT_CALL: 0 0%
BRANCH_INDIRECT_CALL: 0 0%
BRANCH_RETURN: 0 0%
BRANCH_OTHER: 0 0%

DRAM PAGES: 1048576
Allocated PAGES: 17338
