
*** ChampSim Multicore Out-of-Order Simulator ***

Warmup Instructions: 50000000
Simulation Instructions: 200000000
Number of CPUs: 4
LLC sets: 8192
LLC ways: 16
Off-chip DRAM Size: 4096 MB Channels: 1 Width: 64-bit Data Rate: 6400 MT/s
CPU 0 runs ./traces/ligra/ligra_Radii.com-lj.ungraph.gcc_6.3.0_O3.drop_18000M.length_250M.champsimtrace.xz
.xz
CPU 1 runs ./traces/spec/459.GemsFDTD-1320B.champsimtrace.xz
.xz
CPU 2 runs ./traces/spec/483.xalancbmk-127B.champsimtrace.xz
.xz
CPU 3 runs ./traces/ligra/ligra_Triangle.com-lj.ungraph.gcc_6.3.0_O3.drop_750M.length_250M.champsimtrace.xz
.xz
BTB has LRU replacement policy
ITLB has LRU replacement policy
DTLB has LRU replacement policy
STLB has LRU replacement policy
L1I has LRU replacement policy
History Sets: 8
History Ways: 16
BERTI Size: 16
BERTI Stride Size: 8
L1D has LRU replacement policy
Initialize SRRIP state for L2C
Initialize DRRIP state for LLC
BTB has LRU replacement policy
ITLB has LRU replacement policy
DTLB has LRU replacement policy
STLB has LRU replacement policy
L1I has LRU replacement policy
History Sets: 8
History Ways: 16
BERTI Size: 16
BERTI Stride Size: 8
L1D has LRU replacement policy
Initialize SRRIP state for L2C
Initialize DRRIP state for LLC
BTB has LRU replacement policy
ITLB has LRU replacement policy
DTLB has LRU replacement policy
STLB has LRU replacement policy
L1I has LRU replacement policy
History Sets: 8
History Ways: 16
BERTI Size: 16
BERTI Stride Size: 8
L1D has LRU replacement policy
Initialize SRRIP state for L2C
Initialize DRRIP state for LLC
BTB has LRU replacement policy
ITLB has LRU replacement policy
DTLB has LRU replacement policy
STLB has LRU replacement policy
L1I has LRU replacement policy
History Sets: 8
History Ways: 16
BERTI Size: 16
BERTI Stride Size: 8
L1D has LRU replacement policy
Initialize SRRIP state for L2C
Initialize DRRIP state for LLC
Heartbeat CPU 2 instructions: 10000000 cycles: 2920008 heartbeat IPC: 3.42465 cumulative IPC: 3.42465 (Simulation time: 0 hr 2 min 31 sec) 
Heartbeat CPU 0 instructions: 10000001 cycles: 3318663 heartbeat IPC: 3.01326 cumulative IPC: 3.01326 (Simulation time: 0 hr 2 min 57 sec) 
Heartbeat CPU 3 instructions: 10000000 cycles: 3333349 heartbeat IPC: 2.99999 cumulative IPC: 2.99999 (Simulation time: 0 hr 2 min 57 sec) 
Heartbeat CPU 1 instructions: 10000003 cycles: 4565022 heartbeat IPC: 2.19057 cumulative IPC: 2.19057 (Simulation time: 0 hr 4 min 10 sec) 
Heartbeat CPU 2 instructions: 20000003 cycles: 5837908 heartbeat IPC: 3.42712 cumulative IPC: 3.42589 (Simulation time: 0 hr 5 min 22 sec) 
Heartbeat CPU 0 instructions: 20000000 cycles: 6642154 heartbeat IPC: 3.00888 cumulative IPC: 3.01107 (Simulation time: 0 hr 6 min 6 sec) 
Heartbeat CPU 3 instructions: 20000000 cycles: 6666682 heartbeat IPC: 3 cumulative IPC: 2.99999 (Simulation time: 0 hr 6 min 8 sec) 
Heartbeat CPU 2 instructions: 30000003 cycles: 8813034 heartbeat IPC: 3.3612 cumulative IPC: 3.40405 (Simulation time: 0 hr 8 min 9 sec) 
Heartbeat CPU 1 instructions: 20000002 cycles: 9031477 heartbeat IPC: 2.23891 cumulative IPC: 2.21448 (Simulation time: 0 hr 8 min 22 sec) 
Heartbeat CPU 0 instructions: 30000001 cycles: 9960974 heartbeat IPC: 3.01312 cumulative IPC: 3.01175 (Simulation time: 0 hr 9 min 13 sec) 
Heartbeat CPU 3 instructions: 30000001 cycles: 10000015 heartbeat IPC: 3 cumulative IPC: 3 (Simulation time: 0 hr 9 min 16 sec) 
Heartbeat CPU 2 instructions: 40000001 cycles: 11741951 heartbeat IPC: 3.41423 cumulative IPC: 3.40659 (Simulation time: 0 hr 10 min 59 sec) 
Heartbeat CPU 0 instructions: 40000002 cycles: 13281936 heartbeat IPC: 3.01118 cumulative IPC: 3.01161 (Simulation time: 0 hr 12 min 17 sec) 
Heartbeat CPU 3 instructions: 40000001 cycles: 13333348 heartbeat IPC: 3 cumulative IPC: 3 (Simulation time: 0 hr 12 min 20 sec) 
Heartbeat CPU 1 instructions: 30000001 cycles: 13476495 heartbeat IPC: 2.24971 cumulative IPC: 2.2261 (Simulation time: 0 hr 12 min 26 sec) 
Heartbeat CPU 2 instructions: 50000001 cycles: 14714364 heartbeat IPC: 3.36427 cumulative IPC: 3.39804 (Simulation time: 0 hr 13 min 29 sec) 
Heartbeat CPU 0 instructions: 50000002 cycles: 16600066 heartbeat IPC: 3.01375 cumulative IPC: 3.01204 (Simulation time: 0 hr 15 min 1 sec) 
Heartbeat CPU 3 instructions: 50000000 cycles: 16666681 heartbeat IPC: 3 cumulative IPC: 3 (Simulation time: 0 hr 15 min 4 sec) 
Heartbeat CPU 2 instructions: 60000000 cycles: 17927550 heartbeat IPC: 3.11218 cumulative IPC: 0.557801 (Simulation time: 0 hr 16 min 6 sec) 
Heartbeat CPU 1 instructions: 40000000 cycles: 17948802 heartbeat IPC: 2.23598 cumulative IPC: 2.22856 (Simulation time: 0 hr 16 min 7 sec) 
Heartbeat CPU 0 instructions: 60000001 cycles: 19965536 heartbeat IPC: 2.97135 cumulative IPC: 0.500863 (Simulation time: 0 hr 17 min 41 sec) 
Heartbeat CPU 3 instructions: 60000002 cycles: 20056773 heartbeat IPC: 2.94977 cumulative IPC: 0.498585 (Simulation time: 0 hr 17 min 45 sec) 
Heartbeat CPU 2 instructions: 70000001 cycles: 21167331 heartbeat IPC: 3.08663 cumulative IPC: 0.944852 (Simulation time: 0 hr 18 min 40 sec) 
Heartbeat CPU 1 instructions: 50000001 cycles: 22361825 heartbeat IPC: 2.26602 cumulative IPC: 2.23595 (Simulation time: 0 hr 19 min 36 sec) 

Warmup complete CPU 0 instructions: 67095227 cycles: 22361825 (Simulation time: 0 hr 19 min 36 sec) 
Warmup complete CPU 1 instructions: 50000001 cycles: 22361825 (Simulation time: 0 hr 19 min 36 sec) 
Warmup complete CPU 2 instructions: 73754176 cycles: 22361824 (Simulation time: 0 hr 19 min 36 sec) 
Warmup complete CPU 3 instructions: 66802883 cycles: 22361824 (Simulation time: 0 hr 19 min 36 sec) 

Heartbeat CPU 0 instructions: 70000003 cycles: 25077209 heartbeat IPC: 1.95631 cumulative IPC: 1.06975 (Simulation time: 0 hr 20 min 17 sec) 
Heartbeat CPU 3 instructions: 70000002 cycles: 25101481 heartbeat IPC: 1.98228 cumulative IPC: 1.16698 (Simulation time: 0 hr 20 min 17 sec) 
Heartbeat CPU 3 instructions: 80000003 cycles: 33711821 heartbeat IPC: 1.16139 cumulative IPC: 1.16274 (Simulation time: 0 hr 22 min 45 sec) 
Heartbeat CPU 0 instructions: 80000000 cycles: 34187200 heartbeat IPC: 1.0977 cumulative IPC: 1.09128 (Simulation time: 0 hr 22 min 55 sec) 
Heartbeat CPU 3 instructions: 90000000 cycles: 42353309 heartbeat IPC: 1.15721 cumulative IPC: 1.16035 (Simulation time: 0 hr 25 min 18 sec) 
Heartbeat CPU 0 instructions: 90000001 cycles: 43320290 heartbeat IPC: 1.09492 cumulative IPC: 1.09287 (Simulation time: 0 hr 25 min 33 sec) 
Heartbeat CPU 2 instructions: 80000001 cycles: 49823328 heartbeat IPC: 0.348967 cumulative IPC: 0.227439 (Simulation time: 0 hr 27 min 21 sec) 
Heartbeat CPU 3 instructions: 100000003 cycles: 50995622 heartbeat IPC: 1.1571 cumulative IPC: 1.15937 (Simulation time: 0 hr 27 min 41 sec) 
Heartbeat CPU 0 instructions: 100000001 cycles: 52572422 heartbeat IPC: 1.08083 cumulative IPC: 1.08918 (Simulation time: 0 hr 28 min 8 sec) 
Heartbeat CPU 1 instructions: 60000001 cycles: 55756296 heartbeat IPC: 0.299451 cumulative IPC: 0.299451 (Simulation time: 0 hr 29 min 6 sec) 
Heartbeat CPU 3 instructions: 110000000 cycles: 59627121 heartbeat IPC: 1.15855 cumulative IPC: 1.15918 (Simulation time: 0 hr 30 min 11 sec) 
Heartbeat CPU 0 instructions: 110000000 cycles: 61720259 heartbeat IPC: 1.09315 cumulative IPC: 1.0901 (Simulation time: 0 hr 30 min 51 sec) 
Heartbeat CPU 3 instructions: 120000000 cycles: 68281084 heartbeat IPC: 1.15554 cumulative IPC: 1.15849 (Simulation time: 0 hr 32 min 46 sec) 
Heartbeat CPU 0 instructions: 120000001 cycles: 70925152 heartbeat IPC: 1.08638 cumulative IPC: 1.0894 (Simulation time: 0 hr 33 min 34 sec) 
Heartbeat CPU 3 instructions: 130000002 cycles: 76950405 heartbeat IPC: 1.15349 cumulative IPC: 1.1577 (Simulation time: 0 hr 35 min 11 sec) 
Heartbeat CPU 0 instructions: 130000000 cycles: 80104256 heartbeat IPC: 1.08943 cumulative IPC: 1.0894 (Simulation time: 0 hr 36 min 5 sec) 
Heartbeat CPU 1 instructions: 70000002 cycles: 84696276 heartbeat IPC: 0.345543 cumulative IPC: 0.32085 (Simulation time: 0 hr 37 min 41 sec) 
Heartbeat CPU 3 instructions: 140000000 cycles: 85589938 heartbeat IPC: 1.15747 cumulative IPC: 1.15767 (Simulation time: 0 hr 38 min 1 sec) 
Heartbeat CPU 0 instructions: 140000000 cycles: 89017707 heartbeat IPC: 1.1219 cumulative IPC: 1.09375 (Simulation time: 0 hr 39 min 15 sec) 
Heartbeat CPU 3 instructions: 150000000 cycles: 94189075 heartbeat IPC: 1.16291 cumulative IPC: 1.15829 (Simulation time: 0 hr 41 min 2 sec) 
Heartbeat CPU 1 instructions: 80000001 cycles: 97428030 heartbeat IPC: 0.785438 cumulative IPC: 0.399647 (Simulation time: 0 hr 42 min 1 sec) 
Heartbeat CPU 0 instructions: 150000000 cycles: 97974716 heartbeat IPC: 1.11644 cumulative IPC: 1.09644 (Simulation time: 0 hr 42 min 14 sec) 
Heartbeat CPU 2 instructions: 90000000 cycles: 101767782 heartbeat IPC: 0.192513 cumulative IPC: 0.204592 (Simulation time: 0 hr 43 min 34 sec) 
Heartbeat CPU 3 instructions: 160000002 cycles: 102826526 heartbeat IPC: 1.15775 cumulative IPC: 1.15824 (Simulation time: 0 hr 44 min 0 sec) 
Heartbeat CPU 0 instructions: 160000000 cycles: 106699260 heartbeat IPC: 1.14619 cumulative IPC: 1.10158 (Simulation time: 0 hr 45 min 28 sec) 
Heartbeat CPU 1 instructions: 90000002 cycles: 109578403 heartbeat IPC: 0.82302 cumulative IPC: 0.458628 (Simulation time: 0 hr 46 min 32 sec) 
Heartbeat CPU 3 instructions: 170000001 cycles: 111476565 heartbeat IPC: 1.15606 cumulative IPC: 1.15803 (Simulation time: 0 hr 47 min 18 sec) 
Heartbeat CPU 0 instructions: 170000000 cycles: 115920430 heartbeat IPC: 1.08446 cumulative IPC: 1.0999 (Simulation time: 0 hr 49 min 6 sec) 
Heartbeat CPU 1 instructions: 100000000 cycles: 118027509 heartbeat IPC: 1.18356 cumulative IPC: 0.522653 (Simulation time: 0 hr 49 min 58 sec) 
Heartbeat CPU 3 instructions: 180000000 cycles: 120162297 heartbeat IPC: 1.15131 cumulative IPC: 1.15743 (Simulation time: 0 hr 50 min 52 sec) 
Heartbeat CPU 0 instructions: 180000002 cycles: 124910074 heartbeat IPC: 1.11239 cumulative IPC: 1.10099 (Simulation time: 0 hr 52 min 45 sec) 
Heartbeat CPU 1 instructions: 110000000 cycles: 125903110 heartbeat IPC: 1.26974 cumulative IPC: 0.579479 (Simulation time: 0 hr 53 min 8 sec) 
Heartbeat CPU 3 instructions: 190000000 cycles: 128815981 heartbeat IPC: 1.15558 cumulative IPC: 1.15728 (Simulation time: 0 hr 54 min 12 sec) 
Heartbeat CPU 1 instructions: 120000000 cycles: 133490109 heartbeat IPC: 1.31804 cumulative IPC: 0.629903 (Simulation time: 0 hr 55 min 55 sec) 
Heartbeat CPU 0 instructions: 190000001 cycles: 134276987 heartbeat IPC: 1.06759 cumulative IPC: 1.0982 (Simulation time: 0 hr 56 min 11 sec) 
Heartbeat CPU 3 instructions: 200000003 cycles: 137486284 heartbeat IPC: 1.15336 cumulative IPC: 1.15698 (Simulation time: 0 hr 57 min 14 sec) 
Heartbeat CPU 1 instructions: 130000000 cycles: 143647414 heartbeat IPC: 0.984513 cumulative IPC: 0.6596 (Simulation time: 0 hr 58 min 54 sec) 
Heartbeat CPU 3 instructions: 210000001 cycles: 146345907 heartbeat IPC: 1.12872 cumulative IPC: 1.15496 (Simulation time: 0 hr 59 min 39 sec) 
Heartbeat CPU 0 instructions: 200000000 cycles: 147631965 heartbeat IPC: 0.748784 cumulative IPC: 1.06095 (Simulation time: 1 hr 0 min 3 sec) 
Heartbeat CPU 1 instructions: 140000001 cycles: 154341573 heartbeat IPC: 0.93509 cumulative IPC: 0.681923 (Simulation time: 1 hr 1 min 59 sec) 
Heartbeat CPU 3 instructions: 220000000 cycles: 155218528 heartbeat IPC: 1.12706 cumulative IPC: 1.1531 (Simulation time: 1 hr 2 min 18 sec) 
Heartbeat CPU 0 instructions: 210000001 cycles: 161154283 heartbeat IPC: 0.739518 cumulative IPC: 1.02963 (Simulation time: 1 hr 3 min 57 sec) 
Heartbeat CPU 2 instructions: 100000001 cycles: 162173788 heartbeat IPC: 0.165546 cumulative IPC: 0.187722 (Simulation time: 1 hr 4 min 19 sec) 
Heartbeat CPU 3 instructions: 230000000 cycles: 164095117 heartbeat IPC: 1.12656 cumulative IPC: 1.15144 (Simulation time: 1 hr 4 min 56 sec) 
Heartbeat CPU 1 instructions: 150000002 cycles: 165111390 heartbeat IPC: 0.928521 cumulative IPC: 0.700528 (Simulation time: 1 hr 5 min 13 sec) 
Heartbeat CPU 3 instructions: 240000000 cycles: 173032265 heartbeat IPC: 1.11893 cumulative IPC: 1.14951 (Simulation time: 1 hr 7 min 34 sec) 
Heartbeat CPU 0 instructions: 220000000 cycles: 174064905 heartbeat IPC: 0.774556 cumulative IPC: 1.00792 (Simulation time: 1 hr 7 min 49 sec) 
Heartbeat CPU 1 instructions: 160000003 cycles: 176946604 heartbeat IPC: 0.844936 cumulative IPC: 0.711584 (Simulation time: 1 hr 8 min 38 sec) 
*** Reached end of trace for Core: 3 Repeating trace: ./traces/ligra/ligra_Triangle.com-lj.ungraph.gcc_6.3.0_O3.drop_750M.length_250M.champsimtrace.xz
Heartbeat CPU 3 instructions: 250000000 cycles: 181967999 heartbeat IPC: 1.1191 cumulative IPC: 1.14781 (Simulation time: 1 hr 10 min 7 sec) 
Heartbeat CPU 0 instructions: 230000000 cycles: 187760739 heartbeat IPC: 0.730149 cumulative IPC: 0.98492 (Simulation time: 1 hr 11 min 40 sec) 
Heartbeat CPU 1 instructions: 170000000 cycles: 188320567 heartbeat IPC: 0.879201 cumulative IPC: 0.723071 (Simulation time: 1 hr 11 min 50 sec) 
Heartbeat CPU 3 instructions: 260000000 cycles: 190627585 heartbeat IPC: 1.15479 cumulative IPC: 1.14817 (Simulation time: 1 hr 12 min 24 sec) 
Finished CPU 3 instructions: 200000000 cycles: 174151475 cumulative IPC: 1.14843 (Simulation time: 1 hr 14 min 7 sec) 
Heartbeat CPU 3 instructions: 270000001 cycles: 199326192 heartbeat IPC: 1.14961 cumulative IPC: 1.14824 (Simulation time: 1 hr 14 min 56 sec) 
Heartbeat CPU 1 instructions: 180000000 cycles: 200109323 heartbeat IPC: 0.848266 cumulative IPC: 0.731375 (Simulation time: 1 hr 15 min 9 sec) 
Heartbeat CPU 0 instructions: 240000000 cycles: 201429707 heartbeat IPC: 0.731584 cumulative IPC: 0.965582 (Simulation time: 1 hr 15 min 35 sec) 
Heartbeat CPU 3 instructions: 280000001 cycles: 208030688 heartbeat IPC: 1.14883 cumulative IPC: 1.14827 (Simulation time: 1 hr 17 min 26 sec) 
Heartbeat CPU 1 instructions: 190000002 cycles: 211377745 heartbeat IPC: 0.887436 cumulative IPC: 0.740678 (Simulation time: 1 hr 18 min 26 sec) 
*** Reached end of trace for Core: 0 Repeating trace: ./traces/ligra/ligra_Radii.com-lj.ungraph.gcc_6.3.0_O3.drop_18000M.length_250M.champsimtrace.xz
Heartbeat CPU 0 instructions: 250000001 cycles: 214869641 heartbeat IPC: 0.744051 cumulative IPC: 0.950116 (Simulation time: 1 hr 19 min 30 sec) 
Heartbeat CPU 3 instructions: 290000002 cycles: 216747258 heartbeat IPC: 1.14724 cumulative IPC: 1.14822 (Simulation time: 1 hr 20 min 3 sec) 
Heartbeat CPU 1 instructions: 200000000 cycles: 224709113 heartbeat IPC: 0.75011 cumulative IPC: 0.7413 (Simulation time: 1 hr 22 min 16 sec) 
Heartbeat CPU 3 instructions: 300000001 cycles: 225529496 heartbeat IPC: 1.13866 cumulative IPC: 1.14781 (Simulation time: 1 hr 22 min 29 sec) 
Heartbeat CPU 0 instructions: 260000000 cycles: 231434549 heartbeat IPC: 0.603686 cumulative IPC: 0.922668 (Simulation time: 1 hr 24 min 16 sec) 
Heartbeat CPU 3 instructions: 310000000 cycles: 234211104 heartbeat IPC: 1.15186 cumulative IPC: 1.14797 (Simulation time: 1 hr 25 min 5 sec) 
Heartbeat CPU 1 instructions: 210000000 cycles: 237106587 heartbeat IPC: 0.806616 cumulative IPC: 0.745071 (Simulation time: 1 hr 25 min 53 sec) 
Finished CPU 0 instructions: 200000002 cycles: 219638527 cumulative IPC: 0.910587 (Simulation time: 1 hr 27 min 14 sec) 
Heartbeat CPU 3 instructions: 320000000 cycles: 242926828 heartbeat IPC: 1.14735 cumulative IPC: 1.14795 (Simulation time: 1 hr 27 min 26 sec) 
Heartbeat CPU 0 instructions: 270000003 cycles: 246674527 heartbeat IPC: 0.656169 cumulative IPC: 0.904562 (Simulation time: 1 hr 28 min 28 sec) 
Heartbeat CPU 1 instructions: 220000000 cycles: 249671431 heartbeat IPC: 0.795871 cumulative IPC: 0.747879 (Simulation time: 1 hr 29 min 10 sec) 
Heartbeat CPU 3 instructions: 330000000 cycles: 251743707 heartbeat IPC: 1.13419 cumulative IPC: 1.14742 (Simulation time: 1 hr 29 min 49 sec) 
Heartbeat CPU 3 instructions: 340000001 cycles: 260579625 heartbeat IPC: 1.13174 cumulative IPC: 1.14684 (Simulation time: 1 hr 32 min 1 sec) 
Heartbeat CPU 1 instructions: 230000003 cycles: 262228812 heartbeat IPC: 0.796345 cumulative IPC: 0.750416 (Simulation time: 1 hr 32 min 30 sec) 
Heartbeat CPU 0 instructions: 280000001 cycles: 262443047 heartbeat IPC: 0.634175 cumulative IPC: 0.886803 (Simulation time: 1 hr 32 min 35 sec) 
Heartbeat CPU 3 instructions: 350000000 cycles: 269318714 heartbeat IPC: 1.14428 cumulative IPC: 1.14675 (Simulation time: 1 hr 34 min 29 sec) 
Heartbeat CPU 1 instructions: 240000001 cycles: 274482601 heartbeat IPC: 0.816074 cumulative IPC: 0.753607 (Simulation time: 1 hr 36 min 5 sec) 
Heartbeat CPU 0 instructions: 290000002 cycles: 276981774 heartbeat IPC: 0.687818 cumulative IPC: 0.875441 (Simulation time: 1 hr 36 min 45 sec) 
Heartbeat CPU 3 instructions: 360000003 cycles: 278127726 heartbeat IPC: 1.1352 cumulative IPC: 1.14635 (Simulation time: 1 hr 37 min 3 sec) 
Heartbeat CPU 3 instructions: 370000000 cycles: 286918159 heartbeat IPC: 1.1376 cumulative IPC: 1.14606 (Simulation time: 1 hr 39 min 22 sec) 
Heartbeat CPU 1 instructions: 250000001 cycles: 287442877 heartbeat IPC: 0.771589 cumulative IPC: 0.754486 (Simulation time: 1 hr 39 min 30 sec) 
Finished CPU 1 instructions: 200000000 cycles: 265081052 cumulative IPC: 0.754486 (Simulation time: 1 hr 39 min 30 sec) 
Heartbeat CPU 0 instructions: 300000003 cycles: 293862328 heartbeat IPC: 0.592398 cumulative IPC: 0.857843 (Simulation time: 1 hr 41 min 9 sec) 
Heartbeat CPU 3 instructions: 380000000 cycles: 295723246 heartbeat IPC: 1.13571 cumulative IPC: 1.14573 (Simulation time: 1 hr 41 min 46 sec) 
Heartbeat CPU 1 instructions: 260000002 cycles: 300352298 heartbeat IPC: 0.774628 cumulative IPC: 0.755422 (Simulation time: 1 hr 43 min 4 sec) 
Heartbeat CPU 3 instructions: 390000001 cycles: 304550820 heartbeat IPC: 1.13281 cumulative IPC: 1.14532 (Simulation time: 1 hr 44 min 17 sec) 
Heartbeat CPU 2 instructions: 110000000 cycles: 308334211 heartbeat IPC: 0.068418 cumulative IPC: 0.126746 (Simulation time: 1 hr 45 min 25 sec) 
Heartbeat CPU 0 instructions: 310000000 cycles: 308769327 heartbeat IPC: 0.670826 cumulative IPC: 0.848109 (Simulation time: 1 hr 45 min 33 sec) 
Heartbeat CPU 1 instructions: 270000003 cycles: 313074277 heartbeat IPC: 0.786041 cumulative IPC: 0.756762 (Simulation time: 1 hr 46 min 41 sec) 
Heartbeat CPU 3 instructions: 400000001 cycles: 313269290 heartbeat IPC: 1.14699 cumulative IPC: 1.14537 (Simulation time: 1 hr 46 min 45 sec) 
Heartbeat CPU 3 instructions: 410000003 cycles: 322090233 heartbeat IPC: 1.13367 cumulative IPC: 1.14503 (Simulation time: 1 hr 49 min 10 sec) 
Heartbeat CPU 0 instructions: 320000001 cycles: 325347833 heartbeat IPC: 0.603191 cumulative IPC: 0.834708 (Simulation time: 1 hr 50 min 5 sec) 
Heartbeat CPU 1 instructions: 280000000 cycles: 326104673 heartbeat IPC: 0.767436 cumulative IPC: 0.757219 (Simulation time: 1 hr 50 min 19 sec) 
Heartbeat CPU 3 instructions: 420000002 cycles: 330907018 heartbeat IPC: 1.1342 cumulative IPC: 1.14472 (Simulation time: 1 hr 51 min 38 sec) 
Heartbeat CPU 1 instructions: 290000002 cycles: 338903570 heartbeat IPC: 0.781317 cumulative IPC: 0.758194 (Simulation time: 1 hr 53 min 49 sec) 
Heartbeat CPU 3 instructions: 430000001 cycles: 339787319 heartbeat IPC: 1.12609 cumulative IPC: 1.1442 (Simulation time: 1 hr 54 min 2 sec) 
Heartbeat CPU 0 instructions: 330000000 cycles: 341770688 heartbeat IPC: 0.608907 cumulative IPC: 0.823098 (Simulation time: 1 hr 54 min 37 sec) 
Heartbeat CPU 3 instructions: 440000000 cycles: 348575385 heartbeat IPC: 1.13791 cumulative IPC: 1.14403 (Simulation time: 1 hr 56 min 30 sec) 
Heartbeat CPU 1 instructions: 300000003 cycles: 351789921 heartbeat IPC: 0.776015 cumulative IPC: 0.758891 (Simulation time: 1 hr 57 min 21 sec) 
Heartbeat CPU 0 instructions: 340000000 cycles: 357152538 heartbeat IPC: 0.650117 cumulative IPC: 0.81515 (Simulation time: 1 hr 58 min 51 sec) 
Heartbeat CPU 3 instructions: 450000000 cycles: 357317790 heartbeat IPC: 1.14385 cumulative IPC: 1.14402 (Simulation time: 1 hr 58 min 54 sec) 
Heartbeat CPU 1 instructions: 310000000 cycles: 364593390 heartbeat IPC: 0.781038 cumulative IPC: 0.759719 (Simulation time: 2 hr 0 min 55 sec) 
Heartbeat CPU 3 instructions: 460000000 cycles: 366144022 heartbeat IPC: 1.13299 cumulative IPC: 1.14374 (Simulation time: 2 hr 1 min 25 sec) 
Heartbeat CPU 0 instructions: 350000003 cycles: 372619947 heartbeat IPC: 0.646521 cumulative IPC: 0.807704 (Simulation time: 2 hr 3 min 16 sec) 
Heartbeat CPU 3 instructions: 470000001 cycles: 374967558 heartbeat IPC: 1.13333 cumulative IPC: 1.14348 (Simulation time: 2 hr 3 min 57 sec) 
Heartbeat CPU 1 instructions: 320000001 cycles: 376870244 heartbeat IPC: 0.814541 cumulative IPC: 0.761618 (Simulation time: 2 hr 4 min 35 sec) 
Heartbeat CPU 3 instructions: 480000001 cycles: 383800581 heartbeat IPC: 1.13212 cumulative IPC: 1.1432 (Simulation time: 2 hr 6 min 30 sec) 
Heartbeat CPU 0 instructions: 360000003 cycles: 388373078 heartbeat IPC: 0.634794 cumulative IPC: 0.800262 (Simulation time: 2 hr 7 min 47 sec) 
Heartbeat CPU 1 instructions: 330000000 cycles: 389891485 heartbeat IPC: 0.767976 cumulative IPC: 0.761843 (Simulation time: 2 hr 8 min 13 sec) 
Heartbeat CPU 3 instructions: 490000000 cycles: 392575421 heartbeat IPC: 1.13962 cumulative IPC: 1.14312 (Simulation time: 2 hr 8 min 58 sec) 
*** Reached end of trace for Core: 3 Repeating trace: ./traces/ligra/ligra_Triangle.com-lj.ungraph.gcc_6.3.0_O3.drop_750M.length_250M.champsimtrace.xz
Heartbeat CPU 3 instructions: 500000001 cycles: 401336070 heartbeat IPC: 1.14147 cumulative IPC: 1.14308 (Simulation time: 2 hr 11 min 35 sec) 
Heartbeat CPU 1 instructions: 340000003 cycles: 401803593 heartbeat IPC: 0.839482 cumulative IPC: 0.764281 (Simulation time: 2 hr 11 min 42 sec) 
Heartbeat CPU 0 instructions: 370000002 cycles: 403726306 heartbeat IPC: 0.651329 cumulative IPC: 0.794266 (Simulation time: 2 hr 12 min 15 sec) 
Heartbeat CPU 3 instructions: 510000002 cycles: 410054086 heartbeat IPC: 1.14705 cumulative IPC: 1.14317 (Simulation time: 2 hr 14 min 7 sec) 
Heartbeat CPU 1 instructions: 350000000 cycles: 414195768 heartbeat IPC: 0.806961 cumulative IPC: 0.76563 (Simulation time: 2 hr 15 min 17 sec) 
Heartbeat CPU 0 instructions: 380000003 cycles: 418362227 heartbeat IPC: 0.683251 cumulative IPC: 0.790163 (Simulation time: 2 hr 16 min 31 sec) 
Heartbeat CPU 3 instructions: 520000002 cycles: 418737763 heartbeat IPC: 1.15159 cumulative IPC: 1.14335 (Simulation time: 2 hr 16 min 39 sec) 
Heartbeat CPU 1 instructions: 360000001 cycles: 426469643 heartbeat IPC: 0.814739 cumulative IPC: 0.767122 (Simulation time: 2 hr 18 min 48 sec) 
Heartbeat CPU 3 instructions: 530000002 cycles: 427464961 heartbeat IPC: 1.14584 cumulative IPC: 1.14341 (Simulation time: 2 hr 19 min 10 sec) 
Heartbeat CPU 0 instructions: 390000001 cycles: 432888438 heartbeat IPC: 0.688411 cumulative IPC: 0.786562 (Simulation time: 2 hr 20 min 51 sec) 
Heartbeat CPU 3 instructions: 540000000 cycles: 436183965 heartbeat IPC: 1.14692 cumulative IPC: 1.14348 (Simulation time: 2 hr 21 min 43 sec) 
Heartbeat CPU 1 instructions: 370000002 cycles: 438167135 heartbeat IPC: 0.854884 cumulative IPC: 0.769591 (Simulation time: 2 hr 22 min 24 sec) 
Heartbeat CPU 3 instructions: 550000000 cycles: 444848146 heartbeat IPC: 1.15418 cumulative IPC: 1.1437 (Simulation time: 2 hr 24 min 28 sec) 
Heartbeat CPU 0 instructions: 400000003 cycles: 448777938 heartbeat IPC: 0.629347 cumulative IPC: 0.780704 (Simulation time: 2 hr 25 min 34 sec) 
Heartbeat CPU 1 instructions: 380000000 cycles: 450583847 heartbeat IPC: 0.805366 cumulative IPC: 0.770628 (Simulation time: 2 hr 26 min 10 sec) 
Heartbeat CPU 3 instructions: 560000001 cycles: 453535935 heartbeat IPC: 1.15104 cumulative IPC: 1.14385 (Simulation time: 2 hr 26 min 59 sec) 
Heartbeat CPU 2 instructions: 120000000 cycles: 459611347 heartbeat IPC: 0.0661038 cumulative IPC: 0.105765 (Simulation time: 2 hr 28 min 31 sec) 
Heartbeat CPU 3 instructions: 570000001 cycles: 462308723 heartbeat IPC: 1.13989 cumulative IPC: 1.14377 (Simulation time: 2 hr 29 min 25 sec) 
Heartbeat CPU 1 instructions: 390000002 cycles: 462653029 heartbeat IPC: 0.828557 cumulative IPC: 0.772216 (Simulation time: 2 hr 29 min 32 sec) 
Heartbeat CPU 0 instructions: 410000003 cycles: 463266938 heartbeat IPC: 0.690179 cumulative IPC: 0.777729 (Simulation time: 2 hr 29 min 41 sec) 
Heartbeat CPU 3 instructions: 580000000 cycles: 471047561 heartbeat IPC: 1.14432 cumulative IPC: 1.14378 (Simulation time: 2 hr 31 min 53 sec) 
Heartbeat CPU 1 instructions: 400000002 cycles: 475261828 heartbeat IPC: 0.793097 cumulative IPC: 0.772798 (Simulation time: 2 hr 33 min 9 sec) 
Heartbeat CPU 0 instructions: 420000001 cycles: 478268344 heartbeat IPC: 0.666604 cumulative IPC: 0.774073 (Simulation time: 2 hr 34 min 1 sec) 
Heartbeat CPU 3 instructions: 590000002 cycles: 479851440 heartbeat IPC: 1.13586 cumulative IPC: 1.14363 (Simulation time: 2 hr 34 min 31 sec) 
Heartbeat CPU 1 instructions: 410000000 cycles: 487674098 heartbeat IPC: 0.805654 cumulative IPC: 0.773674 (Simulation time: 2 hr 36 min 48 sec) 
Heartbeat CPU 3 instructions: 600000000 cycles: 488626513 heartbeat IPC: 1.13959 cumulative IPC: 1.14355 (Simulation time: 2 hr 37 min 7 sec) 
Heartbeat CPU 0 instructions: 430000000 cycles: 492189264 heartbeat IPC: 0.718343 cumulative IPC: 0.772421 (Simulation time: 2 hr 38 min 6 sec) 
Heartbeat CPU 3 instructions: 610000000 cycles: 497402566 heartbeat IPC: 1.13946 cumulative IPC: 1.14347 (Simulation time: 2 hr 39 min 32 sec) 
Heartbeat CPU 1 instructions: 420000000 cycles: 499974069 heartbeat IPC: 0.81301 cumulative IPC: 0.774687 (Simulation time: 2 hr 40 min 15 sec) 
Heartbeat CPU 3 instructions: 620000000 cycles: 506273272 heartbeat IPC: 1.12731 cumulative IPC: 1.14318 (Simulation time: 2 hr 41 min 54 sec) 
Heartbeat CPU 0 instructions: 440000000 cycles: 508557260 heartbeat IPC: 0.610948 cumulative IPC: 0.766985 (Simulation time: 2 hr 42 min 25 sec) 
Heartbeat CPU 1 instructions: 430000001 cycles: 512967970 heartbeat IPC: 0.769592 cumulative IPC: 0.774552 (Simulation time: 2 hr 43 min 38 sec) 
Heartbeat CPU 3 instructions: 630000001 cycles: 515012352 heartbeat IPC: 1.14429 cumulative IPC: 1.1432 (Simulation time: 2 hr 44 min 9 sec) 
Heartbeat CPU 0 instructions: 450000000 cycles: 523253443 heartbeat IPC: 0.680449 cumulative IPC: 0.764446 (Simulation time: 2 hr 46 min 28 sec) 
Heartbeat CPU 3 instructions: 640000002 cycles: 523745700 heartbeat IPC: 1.14504 cumulative IPC: 1.14323 (Simulation time: 2 hr 46 min 36 sec) 
Heartbeat CPU 1 instructions: 440000000 cycles: 525117617 heartbeat IPC: 0.823069 cumulative IPC: 0.775725 (Simulation time: 2 hr 46 min 57 sec) 
Heartbeat CPU 3 instructions: 650000002 cycles: 532475328 heartbeat IPC: 1.14552 cumulative IPC: 1.14327 (Simulation time: 2 hr 48 min 59 sec) 
Heartbeat CPU 1 instructions: 450000003 cycles: 537552388 heartbeat IPC: 0.804197 cumulative IPC: 0.776412 (Simulation time: 2 hr 50 min 18 sec) 
Heartbeat CPU 0 instructions: 460000000 cycles: 538118118 heartbeat IPC: 0.672736 cumulative IPC: 0.761803 (Simulation time: 2 hr 50 min 26 sec) 
Heartbeat CPU 3 instructions: 660000000 cycles: 541225392 heartbeat IPC: 1.14285 cumulative IPC: 1.14326 (Simulation time: 2 hr 51 min 23 sec) 
Heartbeat CPU 1 instructions: 460000001 cycles: 548875213 heartbeat IPC: 0.883172 cumulative IPC: 0.778708 (Simulation time: 2 hr 53 min 35 sec) 
Heartbeat CPU 3 instructions: 670000000 cycles: 550020229 heartbeat IPC: 1.13703 cumulative IPC: 1.14316 (Simulation time: 2 hr 53 min 55 sec) 
Heartbeat CPU 0 instructions: 470000001 cycles: 551188917 heartbeat IPC: 0.765064 cumulative IPC: 0.761884 (Simulation time: 2 hr 54 min 17 sec) 
Heartbeat CPU 3 instructions: 680000000 cycles: 558799196 heartbeat IPC: 1.13909 cumulative IPC: 1.14309 (Simulation time: 2 hr 56 min 27 sec) 
Heartbeat CPU 1 instructions: 470000002 cycles: 561218962 heartbeat IPC: 0.810127 cumulative IPC: 0.779427 (Simulation time: 2 hr 57 min 6 sec) 
Heartbeat CPU 0 instructions: 480000002 cycles: 565045984 heartbeat IPC: 0.721654 cumulative IPC: 0.760857 (Simulation time: 2 hr 58 min 18 sec) 
Heartbeat CPU 3 instructions: 690000000 cycles: 567562548 heartbeat IPC: 1.14112 cumulative IPC: 1.14306 (Simulation time: 2 hr 58 min 58 sec) 
Heartbeat CPU 1 instructions: 480000000 cycles: 572747518 heartbeat IPC: 0.867411 cumulative IPC: 0.78127 (Simulation time: 3 hr 0 min 18 sec) 
Heartbeat CPU 3 instructions: 700000001 cycles: 576323310 heartbeat IPC: 1.14145 cumulative IPC: 1.14303 (Simulation time: 3 hr 1 min 13 sec) 
Heartbeat CPU 0 instructions: 490000002 cycles: 579067348 heartbeat IPC: 0.713197 cumulative IPC: 0.759656 (Simulation time: 3 hr 1 min 55 sec) 
Heartbeat CPU 3 instructions: 710000000 cycles: 585074946 heartbeat IPC: 1.14264 cumulative IPC: 1.14303 (Simulation time: 3 hr 3 min 34 sec) 
Heartbeat CPU 1 instructions: 490000000 cycles: 585198077 heartbeat IPC: 0.803177 cumulative IPC: 0.781755 (Simulation time: 3 hr 3 min 36 sec) 
*** Reached end of trace for Core: 0 Repeating trace: ./traces/ligra/ligra_Radii.com-lj.ungraph.gcc_6.3.0_O3.drop_18000M.length_250M.champsimtrace.xz
Heartbeat CPU 0 instructions: 500000001 cycles: 592913588 heartbeat IPC: 0.722218 cumulative IPC: 0.758748 (Simulation time: 3 hr 5 min 46 sec) 
Heartbeat CPU 3 instructions: 720000002 cycles: 593901259 heartbeat IPC: 1.13298 cumulative IPC: 1.14287 (Simulation time: 3 hr 6 min 4 sec) 
Heartbeat CPU 1 instructions: 500000001 cycles: 598289921 heartbeat IPC: 0.763834 cumulative IPC: 0.781348 (Simulation time: 3 hr 7 min 7 sec) 
Heartbeat CPU 3 instructions: 730000001 cycles: 602847991 heartbeat IPC: 1.11773 cumulative IPC: 1.14249 (Simulation time: 3 hr 8 min 18 sec) 
Heartbeat CPU 2 instructions: 130000001 cycles: 605240630 heartbeat IPC: 0.0686675 cumulative IPC: 0.0964966 (Simulation time: 3 hr 8 min 54 sec) 
Heartbeat CPU 0 instructions: 510000003 cycles: 610193374 heartbeat IPC: 0.578711 cumulative IPC: 0.753455 (Simulation time: 3 hr 10 min 13 sec) 
Heartbeat CPU 1 instructions: 510000002 cycles: 610465450 heartbeat IPC: 0.82132 cumulative IPC: 0.782175 (Simulation time: 3 hr 10 min 17 sec) 
Heartbeat CPU 3 instructions: 740000001 cycles: 611594926 heartbeat IPC: 1.14326 cumulative IPC: 1.1425 (Simulation time: 3 hr 10 min 35 sec) 
*** Reached end of trace for Core: 3 Repeating trace: ./traces/ligra/ligra_Triangle.com-lj.ungraph.gcc_6.3.0_O3.drop_750M.length_250M.champsimtrace.xz
Heartbeat CPU 3 instructions: 750000002 cycles: 620345679 heartbeat IPC: 1.14276 cumulative IPC: 1.1425 (Simulation time: 3 hr 13 min 11 sec) 
Heartbeat CPU 1 instructions: 520000003 cycles: 622210861 heartbeat IPC: 0.851396 cumulative IPC: 0.78353 (Simulation time: 3 hr 13 min 47 sec) 
Heartbeat CPU 0 instructions: 520000001 cycles: 624637919 heartbeat IPC: 0.692303 cumulative IPC: 0.751989 (Simulation time: 3 hr 14 min 30 sec) 
Heartbeat CPU 3 instructions: 760000000 cycles: 629046402 heartbeat IPC: 1.14933 cumulative IPC: 1.1426 (Simulation time: 3 hr 15 min 47 sec) 
Heartbeat CPU 1 instructions: 530000000 cycles: 633999922 heartbeat IPC: 0.848244 cumulative IPC: 0.784778 (Simulation time: 3 hr 17 min 11 sec) 
Heartbeat CPU 3 instructions: 770000000 cycles: 637718205 heartbeat IPC: 1.15316 cumulative IPC: 1.14275 (Simulation time: 3 hr 18 min 17 sec) 
Heartbeat CPU 0 instructions: 530000000 cycles: 638625540 heartbeat IPC: 0.714918 cumulative IPC: 0.751147 (Simulation time: 3 hr 18 min 38 sec) 
Heartbeat CPU 3 instructions: 780000001 cycles: 646220475 heartbeat IPC: 1.17616 cumulative IPC: 1.1432 (Simulation time: 3 hr 21 min 32 sec) 
Heartbeat CPU 0 instructions: 540000000 cycles: 648060891 heartbeat IPC: 1.05984 cumulative IPC: 0.755802 (Simulation time: 3 hr 22 min 10 sec) 
Heartbeat CPU 1 instructions: 540000003 cycles: 649361570 heartbeat IPC: 0.650972 cumulative IPC: 0.7815 (Simulation time: 3 hr 22 min 39 sec) 
Heartbeat CPU 3 instructions: 790000001 cycles: 654749709 heartbeat IPC: 1.17244 cumulative IPC: 1.1436 (Simulation time: 3 hr 24 min 36 sec) 
Heartbeat CPU 0 instructions: 550000000 cycles: 659563145 heartbeat IPC: 0.869395 cumulative IPC: 0.757853 (Simulation time: 3 hr 26 min 11 sec) 
Heartbeat CPU 1 instructions: 550000000 cycles: 660694638 heartbeat IPC: 0.882373 cumulative IPC: 0.78329 (Simulation time: 3 hr 26 min 38 sec) 
Heartbeat CPU 3 instructions: 800000000 cycles: 663286719 heartbeat IPC: 1.17137 cumulative IPC: 1.14397 (Simulation time: 3 hr 27 min 32 sec) 
Heartbeat CPU 0 instructions: 560000003 cycles: 670319137 heartbeat IPC: 0.929715 cumulative IPC: 0.760706 (Simulation time: 3 hr 29 min 52 sec) 
Heartbeat CPU 3 instructions: 810000002 cycles: 671840653 heartbeat IPC: 1.16905 cumulative IPC: 1.1443 (Simulation time: 3 hr 30 min 20 sec) 
Heartbeat CPU 1 instructions: 560000003 cycles: 672033011 heartbeat IPC: 0.881961 cumulative IPC: 0.785012 (Simulation time: 3 hr 30 min 23 sec) 
Heartbeat CPU 3 instructions: 820000000 cycles: 680413397 heartbeat IPC: 1.16649 cumulative IPC: 1.14459 (Simulation time: 3 hr 33 min 15 sec) 
Heartbeat CPU 0 instructions: 570000002 cycles: 681572390 heartbeat IPC: 0.888632 cumulative IPC: 0.762889 (Simulation time: 3 hr 33 min 36 sec) 
Heartbeat CPU 1 instructions: 570000003 cycles: 683499725 heartbeat IPC: 0.872089 cumulative IPC: 0.786523 (Simulation time: 3 hr 34 min 14 sec) 
Heartbeat CPU 2 instructions: 140000001 cycles: 683749745 heartbeat IPC: 0.127374 cumulative IPC: 0.100162 (Simulation time: 3 hr 34 min 21 sec) 
Heartbeat CPU 3 instructions: 830000001 cycles: 689040568 heartbeat IPC: 1.15913 cumulative IPC: 1.14477 (Simulation time: 3 hr 36 min 18 sec) 
Heartbeat CPU 0 instructions: 580000001 cycles: 693350967 heartbeat IPC: 0.848999 cumulative IPC: 0.764401 (Simulation time: 3 hr 37 min 42 sec) 
Heartbeat CPU 1 instructions: 580000003 cycles: 694849823 heartbeat IPC: 0.88105 cumulative IPC: 0.788118 (Simulation time: 3 hr 38 min 19 sec) 
Heartbeat CPU 3 instructions: 840000000 cycles: 697661371 heartbeat IPC: 1.15998 cumulative IPC: 1.14497 (Simulation time: 3 hr 39 min 22 sec) 
Heartbeat CPU 0 instructions: 590000001 cycles: 703991625 heartbeat IPC: 0.939792 cumulative IPC: 0.767139 (Simulation time: 3 hr 41 min 42 sec) 
Heartbeat CPU 3 instructions: 850000000 cycles: 706271552 heartbeat IPC: 1.16142 cumulative IPC: 1.14518 (Simulation time: 3 hr 42 min 33 sec) 
Heartbeat CPU 1 instructions: 590000000 cycles: 706434650 heartbeat IPC: 0.863198 cumulative IPC: 0.78939 (Simulation time: 3 hr 42 min 37 sec) 
Heartbeat CPU 3 instructions: 860000001 cycles: 714893918 heartbeat IPC: 1.15977 cumulative IPC: 1.14536 (Simulation time: 3 hr 45 min 45 sec) 
Heartbeat CPU 0 instructions: 600000001 cycles: 715619696 heartbeat IPC: 0.859988 cumulative IPC: 0.768696 (Simulation time: 3 hr 46 min 1 sec) 
Heartbeat CPU 1 instructions: 600000003 cycles: 717881948 heartbeat IPC: 0.873569 cumulative IPC: 0.790775 (Simulation time: 3 hr 46 min 55 sec) 
Heartbeat CPU 3 instructions: 870000001 cycles: 723560053 heartbeat IPC: 1.15392 cumulative IPC: 1.14546 (Simulation time: 3 hr 48 min 58 sec) 
Heartbeat CPU 0 instructions: 610000000 cycles: 726866779 heartbeat IPC: 0.889119 cumulative IPC: 0.770619 (Simulation time: 3 hr 50 min 9 sec) 
Heartbeat CPU 1 instructions: 610000003 cycles: 729298843 heartbeat IPC: 0.875895 cumulative IPC: 0.79215 (Simulation time: 3 hr 51 min 4 sec) 
Heartbeat CPU 3 instructions: 880000000 cycles: 732215817 heartbeat IPC: 1.1553 cumulative IPC: 1.14558 (Simulation time: 3 hr 52 min 8 sec) 
Heartbeat CPU 0 instructions: 620000001 cycles: 737883597 heartbeat IPC: 0.907703 cumulative IPC: 0.77273 (Simulation time: 3 hr 54 min 23 sec) 
Heartbeat CPU 1 instructions: 620000000 cycles: 740765795 heartbeat IPC: 0.872071 cumulative IPC: 0.793425 (Simulation time: 3 hr 55 min 21 sec) 
Heartbeat CPU 3 instructions: 890000003 cycles: 740865165 heartbeat IPC: 1.15616 cumulative IPC: 1.14571 (Simulation time: 3 hr 55 min 23 sec) 
Heartbeat CPU 0 instructions: 630000003 cycles: 749117055 heartbeat IPC: 0.890198 cumulative IPC: 0.774545 (Simulation time: 3 hr 58 min 32 sec) 
Heartbeat CPU 3 instructions: 900000000 cycles: 749463342 heartbeat IPC: 1.16304 cumulative IPC: 1.14592 (Simulation time: 3 hr 58 min 40 sec) 
Heartbeat CPU 1 instructions: 630000001 cycles: 752225356 heartbeat IPC: 0.872634 cumulative IPC: 0.794669 (Simulation time: 3 hr 59 min 44 sec) 
Heartbeat CPU 2 instructions: 150000001 cycles: 758077295 heartbeat IPC: 0.13454 cumulative IPC: 0.103635 (Simulation time: 4 hr 2 min 5 sec) 
Heartbeat CPU 3 instructions: 910000001 cycles: 758089987 heartbeat IPC: 1.1592 cumulative IPC: 1.14607 (Simulation time: 4 hr 2 min 5 sec) 
Heartbeat CPU 0 instructions: 640000002 cycles: 760038913 heartbeat IPC: 0.915595 cumulative IPC: 0.776634 (Simulation time: 4 hr 2 min 45 sec) 
Heartbeat CPU 1 instructions: 640000001 cycles: 763694461 heartbeat IPC: 0.871908 cumulative IPC: 0.795864 (Simulation time: 4 hr 4 min 6 sec) 
Heartbeat CPU 3 instructions: 920000001 cycles: 766754612 heartbeat IPC: 1.15412 cumulative IPC: 1.14617 (Simulation time: 4 hr 5 min 16 sec) 
Heartbeat CPU 0 instructions: 650000000 cycles: 771866061 heartbeat IPC: 0.845512 cumulative IPC: 0.77772 (Simulation time: 4 hr 7 min 1 sec) 
Heartbeat CPU 1 instructions: 650000000 cycles: 775056366 heartbeat IPC: 0.880134 cumulative IPC: 0.797136 (Simulation time: 4 hr 8 min 16 sec) 
Heartbeat CPU 3 instructions: 930000000 cycles: 775434308 heartbeat IPC: 1.15211 cumulative IPC: 1.14623 (Simulation time: 4 hr 8 min 24 sec) 
Heartbeat CPU 0 instructions: 660000000 cycles: 782190770 heartbeat IPC: 0.96855 cumulative IPC: 0.780313 (Simulation time: 4 hr 11 min 5 sec) 
Heartbeat CPU 3 instructions: 940000003 cycles: 784061863 heartbeat IPC: 1.15908 cumulative IPC: 1.14638 (Simulation time: 4 hr 11 min 47 sec) 
Heartbeat CPU 1 instructions: 660000000 cycles: 786435778 heartbeat IPC: 0.87878 cumulative IPC: 0.798352 (Simulation time: 4 hr 12 min 39 sec) 
Heartbeat CPU 3 instructions: 950000002 cycles: 792686257 heartbeat IPC: 1.1595 cumulative IPC: 1.14653 (Simulation time: 4 hr 15 min 2 sec) 
Heartbeat CPU 0 instructions: 670000003 cycles: 793100869 heartbeat IPC: 0.916582 cumulative IPC: 0.782242 (Simulation time: 4 hr 15 min 11 sec) 
Heartbeat CPU 1 instructions: 670000000 cycles: 798840826 heartbeat IPC: 0.806123 cumulative IPC: 0.798476 (Simulation time: 4 hr 17 min 21 sec) 
Heartbeat CPU 3 instructions: 960000001 cycles: 801214171 heartbeat IPC: 1.17262 cumulative IPC: 1.14681 (Simulation time: 4 hr 18 min 21 sec) 
Heartbeat CPU 0 instructions: 680000001 cycles: 802577490 heartbeat IPC: 1.05523 cumulative IPC: 0.785558 (Simulation time: 4 hr 18 min 51 sec) 
Heartbeat CPU 3 instructions: 970000003 cycles: 809854597 heartbeat IPC: 1.15735 cumulative IPC: 1.14693 (Simulation time: 4 hr 21 min 24 sec) 
Heartbeat CPU 0 instructions: 690000000 cycles: 814910128 heartbeat IPC: 0.810856 cumulative IPC: 0.785952 (Simulation time: 4 hr 22 min 28 sec) 
Heartbeat CPU 3 instructions: 980000000 cycles: 818561164 heartbeat IPC: 1.14856 cumulative IPC: 1.14695 (Simulation time: 4 hr 23 min 31 sec) 
Heartbeat CPU 0 instructions: 700000000 cycles: 826539413 heartbeat IPC: 0.859898 cumulative IPC: 0.787021 (Simulation time: 4 hr 25 min 32 sec) 
Heartbeat CPU 3 instructions: 990000000 cycles: 827197786 heartbeat IPC: 1.15786 cumulative IPC: 1.14706 (Simulation time: 4 hr 25 min 44 sec) 
Heartbeat CPU 1 instructions: 680000000 cycles: 829535468 heartbeat IPC: 0.32579 cumulative IPC: 0.780501 (Simulation time: 4 hr 26 min 25 sec) 
Heartbeat CPU 2 instructions: 160000001 cycles: 830668579 heartbeat IPC: 0.137758 cumulative IPC: 0.106699 (Simulation time: 4 hr 26 min 49 sec) 
*** Reached end of trace for Core: 3 Repeating trace: ./traces/ligra/ligra_Triangle.com-lj.ungraph.gcc_6.3.0_O3.drop_750M.length_250M.champsimtrace.xz
Heartbeat CPU 3 instructions: 1000000000 cycles: 835833678 heartbeat IPC: 1.15796 cumulative IPC: 1.14718 (Simulation time: 4 hr 28 min 59 sec) 
Heartbeat CPU 0 instructions: 710000001 cycles: 838082426 heartbeat IPC: 0.866325 cumulative IPC: 0.788143 (Simulation time: 4 hr 29 min 50 sec) 
Heartbeat CPU 1 instructions: 690000001 cycles: 840259592 heartbeat IPC: 0.932477 cumulative IPC: 0.782494 (Simulation time: 4 hr 30 min 46 sec) 
Heartbeat CPU 3 instructions: 1010000001 cycles: 844420374 heartbeat IPC: 1.16459 cumulative IPC: 1.14736 (Simulation time: 4 hr 32 min 22 sec) 
Heartbeat CPU 0 instructions: 720000003 cycles: 848369353 heartbeat IPC: 0.972108 cumulative IPC: 0.790434 (Simulation time: 4 hr 34 min 4 sec) 
Heartbeat CPU 1 instructions: 700000000 cycles: 850988231 heartbeat IPC: 0.932085 cumulative IPC: 0.784431 (Simulation time: 4 hr 35 min 3 sec) 
Heartbeat CPU 3 instructions: 1020000001 cycles: 852999415 heartbeat IPC: 1.16563 cumulative IPC: 1.14755 (Simulation time: 4 hr 35 min 53 sec) 
Heartbeat CPU 0 instructions: 730000000 cycles: 859345907 heartbeat IPC: 0.911032 cumulative IPC: 0.792016 (Simulation time: 4 hr 38 min 32 sec) 
Heartbeat CPU 3 instructions: 1030000000 cycles: 861596400 heartbeat IPC: 1.1632 cumulative IPC: 1.14771 (Simulation time: 4 hr 39 min 29 sec) 
Heartbeat CPU 1 instructions: 710000001 cycles: 861695504 heartbeat IPC: 0.933945 cumulative IPC: 0.786338 (Simulation time: 4 hr 39 min 32 sec) 
Heartbeat CPU 0 instructions: 740000000 cycles: 870160747 heartbeat IPC: 0.924655 cumulative IPC: 0.793708 (Simulation time: 4 hr 42 min 54 sec) 
Heartbeat CPU 3 instructions: 1040000002 cycles: 870213911 heartbeat IPC: 1.16043 cumulative IPC: 1.14784 (Simulation time: 4 hr 42 min 55 sec) 
Heartbeat CPU 1 instructions: 720000001 cycles: 872418982 heartbeat IPC: 0.932533 cumulative IPC: 0.788182 (Simulation time: 4 hr 43 min 54 sec) 
Heartbeat CPU 3 instructions: 1050000001 cycles: 878785300 heartbeat IPC: 1.16667 cumulative IPC: 1.14803 (Simulation time: 4 hr 46 min 30 sec) 
*** Reached end of trace for Core: 0 Repeating trace: ./traces/ligra/ligra_Radii.com-lj.ungraph.gcc_6.3.0_O3.drop_18000M.length_250M.champsimtrace.xz
Heartbeat CPU 0 instructions: 750000003 cycles: 881013250 heartbeat IPC: 0.921447 cumulative IPC: 0.795322 (Simulation time: 4 hr 47 min 22 sec) 
Heartbeat CPU 1 instructions: 730000000 cycles: 883251283 heartbeat IPC: 0.923165 cumulative IPC: 0.789881 (Simulation time: 4 hr 48 min 14 sec) 
Heartbeat CPU 3 instructions: 1060000000 cycles: 887490664 heartbeat IPC: 1.14872 cumulative IPC: 1.14803 (Simulation time: 4 hr 49 min 43 sec) 
Heartbeat CPU 0 instructions: 760000000 cycles: 893731108 heartbeat IPC: 0.786296 cumulative IPC: 0.795191 (Simulation time: 4 hr 52 min 16 sec) 
Heartbeat CPU 1 instructions: 740000001 cycles: 894057915 heartbeat IPC: 0.925358 cumulative IPC: 0.79156 (Simulation time: 4 hr 52 min 24 sec) 
Heartbeat CPU 3 instructions: 1070000001 cycles: 896061410 heartbeat IPC: 1.16676 cumulative IPC: 1.14822 (Simulation time: 4 hr 53 min 11 sec) 
Heartbeat CPU 3 instructions: 1080000000 cycles: 904670389 heartbeat IPC: 1.16158 cumulative IPC: 1.14835 (Simulation time: 4 hr 56 min 30 sec) 
Heartbeat CPU 1 instructions: 750000000 cycles: 904870810 heartbeat IPC: 0.924822 cumulative IPC: 0.793193 (Simulation time: 4 hr 56 min 34 sec) 
Heartbeat CPU 0 instructions: 770000000 cycles: 905552315 heartbeat IPC: 0.845937 cumulative IPC: 0.79587 (Simulation time: 4 hr 56 min 51 sec) 
Heartbeat CPU 2 instructions: 170000000 cycles: 906870823 heartbeat IPC: 0.13123 cumulative IPC: 0.108813 (Simulation time: 4 hr 57 min 20 sec) 
Heartbeat CPU 3 instructions: 1090000001 cycles: 913325975 heartbeat IPC: 1.15532 cumulative IPC: 1.14842 (Simulation time: 4 hr 59 min 40 sec) 
Heartbeat CPU 1 instructions: 760000002 cycles: 915632376 heartbeat IPC: 0.929233 cumulative IPC: 0.794832 (Simulation time: 5 hr 0 min 32 sec) 
Heartbeat CPU 0 instructions: 780000000 cycles: 916998032 heartbeat IPC: 0.873689 cumulative IPC: 0.796866 (Simulation time: 5 hr 1 min 6 sec) 
Heartbeat CPU 3 instructions: 1100000000 cycles: 921959742 heartbeat IPC: 1.15824 cumulative IPC: 1.14851 (Simulation time: 5 hr 3 min 5 sec) 
Heartbeat CPU 1 instructions: 770000000 cycles: 926273933 heartbeat IPC: 0.939712 cumulative IPC: 0.796538 (Simulation time: 5 hr 4 min 48 sec) 
Heartbeat CPU 0 instructions: 790000002 cycles: 928011594 heartbeat IPC: 0.907972 cumulative IPC: 0.798217 (Simulation time: 5 hr 5 min 25 sec) 
Heartbeat CPU 3 instructions: 1110000002 cycles: 930580532 heartbeat IPC: 1.15999 cumulative IPC: 1.14862 (Simulation time: 5 hr 6 min 19 sec) 
Heartbeat CPU 1 instructions: 780000000 cycles: 937138013 heartbeat IPC: 0.920465 cumulative IPC: 0.798009 (Simulation time: 5 hr 8 min 56 sec) 
Heartbeat CPU 3 instructions: 1120000002 cycles: 939218770 heartbeat IPC: 1.15764 cumulative IPC: 1.1487 (Simulation time: 5 hr 9 min 41 sec) 
Heartbeat CPU 0 instructions: 800000000 cycles: 939689521 heartbeat IPC: 0.856316 cumulative IPC: 0.798956 (Simulation time: 5 hr 9 min 53 sec) 
Heartbeat CPU 3 instructions: 1130000003 cycles: 947890512 heartbeat IPC: 1.15317 cumulative IPC: 1.14875 (Simulation time: 5 hr 13 min 5 sec) 
Heartbeat CPU 1 instructions: 790000003 cycles: 947921890 heartbeat IPC: 0.927311 cumulative IPC: 0.799516 (Simulation time: 5 hr 13 min 6 sec) 
Heartbeat CPU 0 instructions: 810000001 cycles: 950451290 heartbeat IPC: 0.929215 cumulative IPC: 0.800467 (Simulation time: 5 hr 14 min 8 sec) 
Heartbeat CPU 3 instructions: 1140000000 cycles: 956563734 heartbeat IPC: 1.15297 cumulative IPC: 1.14878 (Simulation time: 5 hr 16 min 30 sec) 
Heartbeat CPU 1 instructions: 800000001 cycles: 958592304 heartbeat IPC: 0.937171 cumulative IPC: 0.801085 (Simulation time: 5 hr 17 min 19 sec) 
Heartbeat CPU 0 instructions: 820000003 cycles: 962475838 heartbeat IPC: 0.831632 cumulative IPC: 0.800865 (Simulation time: 5 hr 18 min 41 sec) 
Heartbeat CPU 3 instructions: 1150000003 cycles: 965213389 heartbeat IPC: 1.15612 cumulative IPC: 1.14885 (Simulation time: 5 hr 19 min 43 sec) 
Heartbeat CPU 1 instructions: 810000003 cycles: 969248909 heartbeat IPC: 0.938385 cumulative IPC: 0.80263 (Simulation time: 5 hr 21 min 24 sec) 
Heartbeat CPU 3 instructions: 1160000000 cycles: 973850207 heartbeat IPC: 1.15783 cumulative IPC: 1.14893 (Simulation time: 5 hr 23 min 7 sec) 
Heartbeat CPU 0 instructions: 830000003 cycles: 974324031 heartbeat IPC: 0.844011 cumulative IPC: 0.801402 (Simulation time: 5 hr 23 min 18 sec) 
Heartbeat CPU 1 instructions: 820000003 cycles: 979899294 heartbeat IPC: 0.938933 cumulative IPC: 0.804146 (Simulation time: 5 hr 25 min 32 sec) 
Heartbeat CPU 2 instructions: 180000001 cycles: 982486471 heartbeat IPC: 0.132248 cumulative IPC: 0.110658 (Simulation time: 5 hr 26 min 33 sec) 
Heartbeat CPU 3 instructions: 1170000002 cycles: 982486978 heartbeat IPC: 1.15784 cumulative IPC: 1.14901 (Simulation time: 5 hr 26 min 33 sec) 
Heartbeat CPU 0 instructions: 840000000 cycles: 984943592 heartbeat IPC: 0.941658 cumulative IPC: 0.80295 (Simulation time: 5 hr 27 min 36 sec) 
Heartbeat CPU 1 instructions: 830000002 cycles: 991019251 heartbeat IPC: 0.899284 cumulative IPC: 0.805238 (Simulation time: 5 hr 30 min 12 sec) 
Heartbeat CPU 3 instructions: 1180000001 cycles: 991055680 heartbeat IPC: 1.16704 cumulative IPC: 1.14917 (Simulation time: 5 hr 30 min 13 sec) 
Heartbeat CPU 0 instructions: 850000000 cycles: 994473932 heartbeat IPC: 1.04928 cumulative IPC: 0.805365 (Simulation time: 5 hr 31 min 39 sec) 
Heartbeat CPU 3 instructions: 1190000000 cycles: 999642678 heartbeat IPC: 1.16455 cumulative IPC: 1.14931 (Simulation time: 5 hr 33 min 47 sec) 
Heartbeat CPU 1 instructions: 840000000 cycles: 1002309477 heartbeat IPC: 0.885722 cumulative IPC: 0.806166 (Simulation time: 5 hr 34 min 51 sec) 
Heartbeat CPU 0 instructions: 860000002 cycles: 1003975648 heartbeat IPC: 1.05244 cumulative IPC: 0.807756 (Simulation time: 5 hr 35 min 31 sec) 
Heartbeat CPU 3 instructions: 1200000003 cycles: 1008192779 heartbeat IPC: 1.16958 cumulative IPC: 1.14948 (Simulation time: 5 hr 37 min 22 sec) 
Heartbeat CPU 0 instructions: 870000000 cycles: 1013503346 heartbeat IPC: 1.04957 cumulative IPC: 0.810081 (Simulation time: 5 hr 39 min 42 sec) 
Heartbeat CPU 1 instructions: 850000001 cycles: 1013519599 heartbeat IPC: 0.892051 cumulative IPC: 0.807137 (Simulation time: 5 hr 39 min 42 sec) 
Heartbeat CPU 3 instructions: 1210000000 cycles: 1016729583 heartbeat IPC: 1.1714 cumulative IPC: 1.14967 (Simulation time: 5 hr 41 min 2 sec) 
Heartbeat CPU 0 instructions: 880000000 cycles: 1023309477 heartbeat IPC: 1.01977 cumulative IPC: 0.812135 (Simulation time: 5 hr 43 min 29 sec) 
Heartbeat CPU 1 instructions: 860000000 cycles: 1024750315 heartbeat IPC: 0.890415 cumulative IPC: 0.80807 (Simulation time: 5 hr 44 min 7 sec) 
Heartbeat CPU 3 instructions: 1220000000 cycles: 1025312459 heartbeat IPC: 1.16511 cumulative IPC: 1.1498 (Simulation time: 5 hr 44 min 22 sec) 
Heartbeat CPU 0 instructions: 890000000 cycles: 1033033528 heartbeat IPC: 1.02838 cumulative IPC: 0.814216 (Simulation time: 5 hr 47 min 34 sec) 
Heartbeat CPU 3 instructions: 1230000001 cycles: 1033918435 heartbeat IPC: 1.16198 cumulative IPC: 1.14991 (Simulation time: 5 hr 47 min 56 sec) 
Heartbeat CPU 1 instructions: 870000000 cycles: 1036030557 heartbeat IPC: 0.886506 cumulative IPC: 0.808943 (Simulation time: 5 hr 48 min 50 sec) 
Heartbeat CPU 3 instructions: 1240000002 cycles: 1042491563 heartbeat IPC: 1.16644 cumulative IPC: 1.15005 (Simulation time: 5 hr 51 min 31 sec) 
Heartbeat CPU 0 instructions: 900000001 cycles: 1042942308 heartbeat IPC: 1.00921 cumulative IPC: 0.816109 (Simulation time: 5 hr 51 min 41 sec) 
Heartbeat CPU 1 instructions: 880000000 cycles: 1047270679 heartbeat IPC: 0.88967 cumulative IPC: 0.809828 (Simulation time: 5 hr 53 min 24 sec) 
*** Reached end of trace for Core: 3 Repeating trace: ./traces/ligra/ligra_Triangle.com-lj.ungraph.gcc_6.3.0_O3.drop_750M.length_250M.champsimtrace.xz
Heartbeat CPU 3 instructions: 1250000001 cycles: 1051059838 heartbeat IPC: 1.1671 cumulative IPC: 1.15019 (Simulation time: 5 hr 54 min 54 sec) 
Heartbeat CPU 0 instructions: 910000001 cycles: 1052100490 heartbeat IPC: 1.09192 cumulative IPC: 0.818562 (Simulation time: 5 hr 55 min 21 sec) 
Heartbeat CPU 2 instructions: 190000001 cycles: 1056257554 heartbeat IPC: 0.135554 cumulative IPC: 0.112435 (Simulation time: 5 hr 56 min 59 sec) 
Heartbeat CPU 1 instructions: 890000001 cycles: 1058498584 heartbeat IPC: 0.890638 cumulative IPC: 0.810704 (Simulation time: 5 hr 57 min 58 sec) 
Heartbeat CPU 3 instructions: 1260000002 cycles: 1059563076 heartbeat IPC: 1.17602 cumulative IPC: 1.1504 (Simulation time: 5 hr 58 min 23 sec) 
Heartbeat CPU 0 instructions: 920000003 cycles: 1061827155 heartbeat IPC: 1.0281 cumulative IPC: 0.820523 (Simulation time: 5 hr 59 min 16 sec) 
Heartbeat CPU 3 instructions: 1270000002 cycles: 1068096154 heartbeat IPC: 1.17191 cumulative IPC: 1.15058 (Simulation time: 6 hr 1 min 51 sec) 
Heartbeat CPU 1 instructions: 900000000 cycles: 1069748215 heartbeat IPC: 0.888918 cumulative IPC: 0.811544 (Simulation time: 6 hr 2 min 37 sec) 
Heartbeat CPU 0 instructions: 930000000 cycles: 1071366822 heartbeat IPC: 1.04825 cumulative IPC: 0.822594 (Simulation time: 6 hr 3 min 18 sec) 
Heartbeat CPU 3 instructions: 1280000000 cycles: 1076619529 heartbeat IPC: 1.17324 cumulative IPC: 1.15076 (Simulation time: 6 hr 5 min 36 sec) 
Heartbeat CPU 1 instructions: 910000000 cycles: 1081037012 heartbeat IPC: 0.885834 cumulative IPC: 0.812336 (Simulation time: 6 hr 7 min 14 sec) 
Heartbeat CPU 0 instructions: 940000002 cycles: 1081637266 heartbeat IPC: 0.973668 cumulative IPC: 0.824058 (Simulation time: 6 hr 7 min 28 sec) 
Heartbeat CPU 3 instructions: 1290000000 cycles: 1085153366 heartbeat IPC: 1.17181 cumulative IPC: 1.15093 (Simulation time: 6 hr 9 min 3 sec) 
Heartbeat CPU 0 instructions: 950000000 cycles: 1090950434 heartbeat IPC: 1.07375 cumulative IPC: 0.826235 (Simulation time: 6 hr 11 min 32 sec) 
Heartbeat CPU 1 instructions: 920000002 cycles: 1092288468 heartbeat IPC: 0.888774 cumulative IPC: 0.81314 (Simulation time: 6 hr 12 min 7 sec) 
Heartbeat CPU 3 instructions: 1300000002 cycles: 1093667400 heartbeat IPC: 1.17453 cumulative IPC: 1.15112 (Simulation time: 6 hr 12 min 41 sec) 
Heartbeat CPU 0 instructions: 960000000 cycles: 1100808906 heartbeat IPC: 1.01436 cumulative IPC: 0.827954 (Simulation time: 6 hr 15 min 33 sec) 
Heartbeat CPU 3 instructions: 1310000001 cycles: 1102192723 heartbeat IPC: 1.17298 cumulative IPC: 1.15129 (Simulation time: 6 hr 16 min 11 sec) 
Heartbeat CPU 1 instructions: 930000002 cycles: 1103533927 heartbeat IPC: 0.889248 cumulative IPC: 0.813931 (Simulation time: 6 hr 16 min 46 sec) 
Heartbeat CPU 0 instructions: 970000001 cycles: 1110114260 heartbeat IPC: 1.07465 cumulative IPC: 0.830065 (Simulation time: 6 hr 19 min 33 sec) 
Heartbeat CPU 3 instructions: 1320000000 cycles: 1110720767 heartbeat IPC: 1.1726 cumulative IPC: 1.15146 (Simulation time: 6 hr 19 min 48 sec) 
Heartbeat CPU 1 instructions: 940000001 cycles: 1114779781 heartbeat IPC: 0.889216 cumulative IPC: 0.814707 (Simulation time: 6 hr 21 min 30 sec) 
Heartbeat CPU 3 instructions: 1330000001 cycles: 1119247763 heartbeat IPC: 1.17275 cumulative IPC: 1.15162 (Simulation time: 6 hr 23 min 20 sec) 
Heartbeat CPU 0 instructions: 980000002 cycles: 1119574607 heartbeat IPC: 1.05704 cumulative IPC: 0.832022 (Simulation time: 6 hr 23 min 27 sec) 
Heartbeat CPU 2 instructions: 200000000 cycles: 1122308588 heartbeat IPC: 0.151398 cumulative IPC: 0.114774 (Simulation time: 6 hr 24 min 22 sec) 
Heartbeat CPU 1 instructions: 950000002 cycles: 1125354827 heartbeat IPC: 0.945622 cumulative IPC: 0.815962 (Simulation time: 6 hr 25 min 42 sec) 
Heartbeat CPU 3 instructions: 1340000002 cycles: 1127800126 heartbeat IPC: 1.16927 cumulative IPC: 1.15176 (Simulation time: 6 hr 26 min 39 sec) 
Heartbeat CPU 0 instructions: 990000000 cycles: 1129098963 heartbeat IPC: 1.04994 cumulative IPC: 0.833897 (Simulation time: 6 hr 27 min 11 sec) 
Heartbeat CPU 3 instructions: 1350000000 cycles: 1136350028 heartbeat IPC: 1.1696 cumulative IPC: 1.15189 (Simulation time: 6 hr 30 min 18 sec) 
Heartbeat CPU 1 instructions: 960000001 cycles: 1136574989 heartbeat IPC: 0.891253 cumulative IPC: 0.81672 (Simulation time: 6 hr 30 min 24 sec) 
*** Reached end of trace for Core: 0 Repeating trace: ./traces/ligra/ligra_Radii.com-lj.ungraph.gcc_6.3.0_O3.drop_18000M.length_250M.champsimtrace.xz
Heartbeat CPU 0 instructions: 1000000002 cycles: 1138966553 heartbeat IPC: 1.01342 cumulative IPC: 0.835483 (Simulation time: 6 hr 31 min 22 sec) 
Heartbeat CPU 3 instructions: 1360000000 cycles: 1144966073 heartbeat IPC: 1.16063 cumulative IPC: 1.15196 (Simulation time: 6 hr 33 min 43 sec) 
Heartbeat CPU 1 instructions: 970000000 cycles: 1147883904 heartbeat IPC: 0.884258 cumulative IPC: 0.817398 (Simulation time: 6 hr 34 min 59 sec) 
Heartbeat CPU 0 instructions: 1010000003 cycles: 1149790274 heartbeat IPC: 0.923897 cumulative IPC: 0.836332 (Simulation time: 6 hr 35 min 49 sec) 
Heartbeat CPU 3 instructions: 1370000001 cycles: 1153549819 heartbeat IPC: 1.16499 cumulative IPC: 1.15206 (Simulation time: 6 hr 37 min 23 sec) 
Heartbeat CPU 1 instructions: 980000000 cycles: 1159117819 heartbeat IPC: 0.890162 cumulative IPC: 0.818117 (Simulation time: 6 hr 39 min 46 sec) 
Heartbeat CPU 0 instructions: 1020000001 cycles: 1159857867 heartbeat IPC: 0.993286 cumulative IPC: 0.837721 (Simulation time: 6 hr 40 min 4 sec) 
Heartbeat CPU 3 instructions: 1380000000 cycles: 1162134946 heartbeat IPC: 1.16481 cumulative IPC: 1.15216 (Simulation time: 6 hr 41 min 4 sec) 
Heartbeat CPU 0 instructions: 1030000000 cycles: 1169264522 heartbeat IPC: 1.06308 cumulative IPC: 0.83957 (Simulation time: 6 hr 44 min 1 sec) 
Heartbeat CPU 1 instructions: 990000000 cycles: 1170348950 heartbeat IPC: 0.890382 cumulative IPC: 0.818825 (Simulation time: 6 hr 44 min 28 sec) 
Heartbeat CPU 3 instructions: 1390000001 cycles: 1170684928 heartbeat IPC: 1.16959 cumulative IPC: 1.15229 (Simulation time: 6 hr 44 min 37 sec) 
Heartbeat CPU 0 instructions: 1040000002 cycles: 1178854196 heartbeat IPC: 1.04279 cumulative IPC: 0.841255 (Simulation time: 6 hr 47 min 58 sec) 
Heartbeat CPU 3 instructions: 1400000002 cycles: 1179249490 heartbeat IPC: 1.1676 cumulative IPC: 1.1524 (Simulation time: 6 hr 48 min 6 sec) 
Heartbeat CPU 1 instructions: 1000000000 cycles: 1181606746 heartbeat IPC: 0.888273 cumulative IPC: 0.819499 (Simulation time: 6 hr 49 min 6 sec) 
Heartbeat CPU 3 instructions: 1410000003 cycles: 1187812794 heartbeat IPC: 1.16777 cumulative IPC: 1.15251 (Simulation time: 6 hr 51 min 44 sec) 
Heartbeat CPU 0 instructions: 1050000000 cycles: 1188470306 heartbeat IPC: 1.03992 cumulative IPC: 0.842893 (Simulation time: 6 hr 52 min 3 sec) 
Heartbeat CPU 2 instructions: 210000000 cycles: 1189919694 heartbeat IPC: 0.147905 cumulative IPC: 0.116693 (Simulation time: 6 hr 52 min 41 sec) 
Heartbeat CPU 1 instructions: 1010000001 cycles: 1192842972 heartbeat IPC: 0.889979 cumulative IPC: 0.820176 (Simulation time: 6 hr 53 min 54 sec) 
Heartbeat CPU 3 instructions: 1420000000 cycles: 1196397685 heartbeat IPC: 1.16484 cumulative IPC: 1.1526 (Simulation time: 6 hr 55 min 25 sec) 
Heartbeat CPU 0 instructions: 1060000002 cycles: 1197854157 heartbeat IPC: 1.06566 cumulative IPC: 0.844671 (Simulation time: 6 hr 56 min 6 sec) 
Heartbeat CPU 1 instructions: 1020000000 cycles: 1204091282 heartbeat IPC: 0.889022 cumulative IPC: 0.820831 (Simulation time: 6 hr 58 min 44 sec) 
Heartbeat CPU 3 instructions: 1430000000 cycles: 1204984552 heartbeat IPC: 1.16457 cumulative IPC: 1.15269 (Simulation time: 6 hr 59 min 6 sec) 
Heartbeat CPU 0 instructions: 1070000002 cycles: 1207984468 heartbeat IPC: 0.987137 cumulative IPC: 0.845889 (Simulation time: 7 hr 0 min 20 sec) 
Heartbeat CPU 3 instructions: 1440000000 cycles: 1213581371 heartbeat IPC: 1.16322 cumulative IPC: 1.15277 (Simulation time: 7 hr 2 min 46 sec) 
Heartbeat CPU 1 instructions: 1030000003 cycles: 1215349245 heartbeat IPC: 0.88826 cumulative IPC: 0.821467 (Simulation time: 7 hr 3 min 29 sec) 
Heartbeat CPU 0 instructions: 1080000001 cycles: 1217977168 heartbeat IPC: 1.00073 cumulative IPC: 0.847183 (Simulation time: 7 hr 4 min 34 sec) 
Heartbeat CPU 3 instructions: 1450000000 cycles: 1222142309 heartbeat IPC: 1.1681 cumulative IPC: 1.15288 (Simulation time: 7 hr 6 min 23 sec) 
Heartbeat CPU 1 instructions: 1040000000 cycles: 1226603836 heartbeat IPC: 0.888526 cumulative IPC: 0.822094 (Simulation time: 7 hr 8 min 18 sec) 
Heartbeat CPU 0 instructions: 1090000003 cycles: 1227542024 heartbeat IPC: 1.04549 cumulative IPC: 0.848757 (Simulation time: 7 hr 8 min 43 sec) 
Heartbeat CPU 3 instructions: 1460000001 cycles: 1230705538 heartbeat IPC: 1.16778 cumulative IPC: 1.15298 (Simulation time: 7 hr 10 min 2 sec) 
Heartbeat CPU 0 instructions: 1100000000 cycles: 1237712525 heartbeat IPC: 0.983235 cumulative IPC: 0.849882 (Simulation time: 7 hr 13 min 0 sec) 
Heartbeat CPU 1 instructions: 1050000002 cycles: 1237854939 heartbeat IPC: 0.888802 cumulative IPC: 0.822711 (Simulation time: 7 hr 13 min 4 sec) 
Heartbeat CPU 3 instructions: 1470000001 cycles: 1239303041 heartbeat IPC: 1.16313 cumulative IPC: 1.15305 (Simulation time: 7 hr 13 min 44 sec) 
Heartbeat CPU 0 instructions: 1110000002 cycles: 1247470297 heartbeat IPC: 1.02482 cumulative IPC: 0.851275 (Simulation time: 7 hr 17 min 13 sec) 
Heartbeat CPU 3 instructions: 1480000002 cycles: 1247905675 heartbeat IPC: 1.16243 cumulative IPC: 1.15312 (Simulation time: 7 hr 17 min 25 sec) 
Heartbeat CPU 2 instructions: 220000000 cycles: 1247982432 heartbeat IPC: 0.172228 cumulative IPC: 0.119324 (Simulation time: 7 hr 17 min 27 sec) 
Heartbeat CPU 1 instructions: 1060000000 cycles: 1249091995 heartbeat IPC: 0.889913 cumulative IPC: 0.823327 (Simulation time: 7 hr 17 min 57 sec) 
Heartbeat CPU 3 instructions: 1490000001 cycles: 1256488634 heartbeat IPC: 1.1651 cumulative IPC: 1.1532 (Simulation time: 7 hr 21 min 4 sec) 
Heartbeat CPU 0 instructions: 1120000000 cycles: 1257266121 heartbeat IPC: 1.02084 cumulative IPC: 0.852621 (Simulation time: 7 hr 21 min 22 sec) 
Heartbeat CPU 1 instructions: 1070000002 cycles: 1260433720 heartbeat IPC: 0.8817 cumulative IPC: 0.823862 (Simulation time: 7 hr 22 min 38 sec) 
*** Reached end of trace for Core: 3 Repeating trace: ./traces/ligra/ligra_Triangle.com-lj.ungraph.gcc_6.3.0_O3.drop_750M.length_250M.champsimtrace.xz
Heartbeat CPU 3 instructions: 1500000002 cycles: 1265098238 heartbeat IPC: 1.16149 cumulative IPC: 1.15326 (Simulation time: 7 hr 24 min 32 sec) 
Heartbeat CPU 0 instructions: 1130000003 cycles: 1267352107 heartbeat IPC: 0.991475 cumulative IPC: 0.853745 (Simulation time: 7 hr 25 min 29 sec) 
Heartbeat CPU 1 instructions: 1080000001 cycles: 1271553551 heartbeat IPC: 0.899294 cumulative IPC: 0.824533 (Simulation time: 7 hr 27 min 15 sec) 
Heartbeat CPU 3 instructions: 1510000000 cycles: 1273634387 heartbeat IPC: 1.17149 cumulative IPC: 1.15338 (Simulation time: 7 hr 28 min 9 sec) 
Heartbeat CPU 0 instructions: 1140000000 cycles: 1277160196 heartbeat IPC: 1.01957 cumulative IPC: 0.855042 (Simulation time: 7 hr 29 min 40 sec) 
Heartbeat CPU 3 instructions: 1520000000 cycles: 1282147316 heartbeat IPC: 1.17468 cumulative IPC: 1.15353 (Simulation time: 7 hr 31 min 52 sec) 
Heartbeat CPU 1 instructions: 1090000001 cycles: 1282656289 heartbeat IPC: 0.900679 cumulative IPC: 0.825204 (Simulation time: 7 hr 32 min 5 sec) 
Heartbeat CPU 0 instructions: 1150000000 cycles: 1287276164 heartbeat IPC: 0.988536 cumulative IPC: 0.856109 (Simulation time: 7 hr 33 min 47 sec) 
Heartbeat CPU 3 instructions: 1530000002 cycles: 1290680269 heartbeat IPC: 1.17193 cumulative IPC: 1.15365 (Simulation time: 7 hr 35 min 10 sec) 
Heartbeat CPU 1 instructions: 1100000000 cycles: 1293814606 heartbeat IPC: 0.896192 cumulative IPC: 0.825827 (Simulation time: 7 hr 36 min 16 sec) 
Heartbeat CPU 0 instructions: 1160000000 cycles: 1296646006 heartbeat IPC: 1.06725 cumulative IPC: 0.857662 (Simulation time: 7 hr 37 min 29 sec) 
Heartbeat CPU 3 instructions: 1540000000 cycles: 1299245061 heartbeat IPC: 1.16757 cumulative IPC: 1.15374 (Simulation time: 7 hr 38 min 32 sec) 
Heartbeat CPU 1 instructions: 1110000002 cycles: 1304905012 heartbeat IPC: 0.90168 cumulative IPC: 0.826483 (Simulation time: 7 hr 40 min 56 sec) 
Heartbeat CPU 0 instructions: 1170000001 cycles: 1306440564 heartbeat IPC: 1.02098 cumulative IPC: 0.858907 (Simulation time: 7 hr 41 min 34 sec) 
Heartbeat CPU 3 instructions: 1550000003 cycles: 1307733883 heartbeat IPC: 1.17802 cumulative IPC: 1.1539 (Simulation time: 7 hr 42 min 6 sec) 
Heartbeat CPU 2 instructions: 230000001 cycles: 1313533800 heartbeat IPC: 0.152552 cumulative IPC: 0.121011 (Simulation time: 7 hr 44 min 17 sec) 
Heartbeat CPU 0 instructions: 1180000002 cycles: 1315845518 heartbeat IPC: 1.06327 cumulative IPC: 0.860393 (Simulation time: 7 hr 45 min 13 sec) 
Heartbeat CPU 1 instructions: 1120000003 cycles: 1316022101 heartbeat IPC: 0.899516 cumulative IPC: 0.827111 (Simulation time: 7 hr 45 min 18 sec) 
Heartbeat CPU 3 instructions: 1560000002 cycles: 1316260841 heartbeat IPC: 1.17275 cumulative IPC: 1.15403 (Simulation time: 7 hr 45 min 24 sec) 
Heartbeat CPU 3 instructions: 1570000001 cycles: 1324805499 heartbeat IPC: 1.17032 cumulative IPC: 1.15414 (Simulation time: 7 hr 48 min 47 sec) 
Heartbeat CPU 0 instructions: 1190000003 cycles: 1326082391 heartbeat IPC: 0.976861 cumulative IPC: 0.861308 (Simulation time: 7 hr 49 min 17 sec) 
Heartbeat CPU 1 instructions: 1130000002 cycles: 1327135069 heartbeat IPC: 0.89985 cumulative IPC: 0.82773 (Simulation time: 7 hr 49 min 46 sec) 
Heartbeat CPU 3 instructions: 1580000000 cycles: 1333337046 heartbeat IPC: 1.17212 cumulative IPC: 1.15425 (Simulation time: 7 hr 52 min 24 sec) 
Heartbeat CPU 0 instructions: 1200000002 cycles: 1335354469 heartbeat IPC: 1.07851 cumulative IPC: 0.862842 (Simulation time: 7 hr 53 min 18 sec) 
Heartbeat CPU 1 instructions: 1140000002 cycles: 1338243880 heartbeat IPC: 0.900186 cumulative IPC: 0.828342 (Simulation time: 7 hr 54 min 32 sec) 
Heartbeat CPU 3 instructions: 1590000000 cycles: 1341879475 heartbeat IPC: 1.17063 cumulative IPC: 1.15436 (Simulation time: 7 hr 56 min 8 sec) 
Heartbeat CPU 0 instructions: 1210000000 cycles: 1345205769 heartbeat IPC: 1.01509 cumulative IPC: 0.863976 (Simulation time: 7 hr 57 min 33 sec) 
Heartbeat CPU 1 instructions: 1150000001 cycles: 1349386044 heartbeat IPC: 0.897492 cumulative IPC: 0.828922 (Simulation time: 7 hr 59 min 24 sec) 
Heartbeat CPU 3 instructions: 1600000001 cycles: 1350439977 heartbeat IPC: 1.16816 cumulative IPC: 1.15445 (Simulation time: 7 hr 59 min 51 sec) 
Heartbeat CPU 0 instructions: 1220000002 cycles: 1354719861 heartbeat IPC: 1.05107 cumulative IPC: 0.865312 (Simulation time: 8 hr 1 min 33 sec) 
Heartbeat CPU 3 instructions: 1610000001 cycles: 1358986813 heartbeat IPC: 1.17002 cumulative IPC: 1.15455 (Simulation time: 8 hr 3 min 23 sec) 
Heartbeat CPU 1 instructions: 1160000000 cycles: 1360476147 heartbeat IPC: 0.901705 cumulative IPC: 0.829526 (Simulation time: 8 hr 4 min 2 sec) 
Heartbeat CPU 0 instructions: 1230000000 cycles: 1364340747 heartbeat IPC: 1.03941 cumulative IPC: 0.86656 (Simulation time: 8 hr 5 min 45 sec) 
Heartbeat CPU 3 instructions: 1620000000 cycles: 1367609460 heartbeat IPC: 1.15974 cumulative IPC: 1.15458 (Simulation time: 8 hr 7 min 11 sec) 
Heartbeat CPU 1 instructions: 1170000000 cycles: 1371661988 heartbeat IPC: 0.893987 cumulative IPC: 0.83006 (Simulation time: 8 hr 8 min 58 sec) 
Heartbeat CPU 0 instructions: 1240000000 cycles: 1374073783 heartbeat IPC: 1.02743 cumulative IPC: 0.867718 (Simulation time: 8 hr 10 min 0 sec) 
Heartbeat CPU 3 instructions: 1630000002 cycles: 1376198546 heartbeat IPC: 1.16427 cumulative IPC: 1.15464 (Simulation time: 8 hr 11 min 0 sec) 
Heartbeat CPU 1 instructions: 1180000000 cycles: 1381893174 heartbeat IPC: 0.977404 cumulative IPC: 0.831169 (Simulation time: 8 hr 13 min 36 sec) 
*** Reached end of trace for Core: 0 Repeating trace: ./traces/ligra/ligra_Radii.com-lj.ungraph.gcc_6.3.0_O3.drop_18000M.length_250M.champsimtrace.xz
Heartbeat CPU 0 instructions: 1250000000 cycles: 1384097321 heartbeat IPC: 0.997652 cumulative IPC: 0.868674 (Simulation time: 8 hr 14 min 32 sec) 
Heartbeat CPU 2 instructions: 240000001 cycles: 1384464865 heartbeat IPC: 0.140982 cumulative IPC: 0.122051 (Simulation time: 8 hr 14 min 42 sec) 
Heartbeat CPU 3 instructions: 1640000002 cycles: 1384815133 heartbeat IPC: 1.16055 cumulative IPC: 1.15468 (Simulation time: 8 hr 14 min 51 sec) 
Heartbeat CPU 1 instructions: 1190000002 cycles: 1393061249 heartbeat IPC: 0.89541 cumulative IPC: 0.831692 (Simulation time: 8 hr 18 min 10 sec) 
Heartbeat CPU 3 instructions: 1650000000 cycles: 1393417866 heartbeat IPC: 1.16242 cumulative IPC: 1.15473 (Simulation time: 8 hr 18 min 20 sec) 
Heartbeat CPU 0 instructions: 1260000002 cycles: 1395038398 heartbeat IPC: 0.913987 cumulative IPC: 0.869036 (Simulation time: 8 hr 18 min 58 sec) 
Heartbeat CPU 3 instructions: 1660000000 cycles: 1401993985 heartbeat IPC: 1.16603 cumulative IPC: 1.1548 (Simulation time: 8 hr 21 min 44 sec) 
Heartbeat CPU 1 instructions: 1200000000 cycles: 1404203492 heartbeat IPC: 0.897485 cumulative IPC: 0.832223 (Simulation time: 8 hr 22 min 38 sec) 
Heartbeat CPU 0 instructions: 1270000000 cycles: 1405107612 heartbeat IPC: 0.993126 cumulative IPC: 0.869939 (Simulation time: 8 hr 23 min 1 sec) 
Heartbeat CPU 3 instructions: 1670000001 cycles: 1410602273 heartbeat IPC: 1.16167 cumulative IPC: 1.15484 (Simulation time: 8 hr 25 min 18 sec) 
Heartbeat CPU 0 instructions: 1280000001 cycles: 1414751660 heartbeat IPC: 1.03691 cumulative IPC: 0.871096 (Simulation time: 8 hr 26 min 57 sec) 
Heartbeat CPU 1 instructions: 1210000000 cycles: 1415313244 heartbeat IPC: 0.90011 cumulative IPC: 0.832764 (Simulation time: 8 hr 27 min 11 sec) 
Heartbeat CPU 3 instructions: 1680000003 cycles: 1419211053 heartbeat IPC: 1.16161 cumulative IPC: 1.15488 (Simulation time: 8 hr 28 min 44 sec) 
Heartbeat CPU 0 instructions: 1290000002 cycles: 1424591067 heartbeat IPC: 1.01632 cumulative IPC: 0.872115 (Simulation time: 8 hr 30 min 49 sec) 
Heartbeat CPU 1 instructions: 1220000000 cycles: 1426424550 heartbeat IPC: 0.899984 cumulative IPC: 0.833296 (Simulation time: 8 hr 31 min 25 sec) 
Heartbeat CPU 3 instructions: 1690000001 cycles: 1427821971 heartbeat IPC: 1.16132 cumulative IPC: 1.15492 (Simulation time: 8 hr 31 min 57 sec) 
Heartbeat CPU 0 instructions: 1300000001 cycles: 1434438659 heartbeat IPC: 1.01548 cumulative IPC: 0.873115 (Simulation time: 8 hr 34 min 20 sec) 
Heartbeat CPU 3 instructions: 1700000001 cycles: 1436384253 heartbeat IPC: 1.16791 cumulative IPC: 1.155 (Simulation time: 8 hr 35 min 6 sec) 
Heartbeat CPU 1 instructions: 1230000002 cycles: 1437528114 heartbeat IPC: 0.900612 cumulative IPC: 0.833824 (Simulation time: 8 hr 35 min 31 sec) 
Heartbeat CPU 2 instructions: 250000000 cycles: 1442634266 heartbeat IPC: 0.171912 cumulative IPC: 0.124093 (Simulation time: 8 hr 37 min 31 sec) 
Heartbeat CPU 0 instructions: 1310000001 cycles: 1443931004 heartbeat IPC: 1.05348 cumulative IPC: 0.874319 (Simulation time: 8 hr 38 min 5 sec) 
Heartbeat CPU 3 instructions: 1710000002 cycles: 1444940518 heartbeat IPC: 1.16873 cumulative IPC: 1.15508 (Simulation time: 8 hr 38 min 30 sec) 
Heartbeat CPU 1 instructions: 1240000002 cycles: 1448644457 heartbeat IPC: 0.899576 cumulative IPC: 0.834337 (Simulation time: 8 hr 39 min 55 sec) 
Heartbeat CPU 3 instructions: 1720000002 cycles: 1453536023 heartbeat IPC: 1.1634 cumulative IPC: 1.15513 (Simulation time: 8 hr 41 min 54 sec) 
Heartbeat CPU 0 instructions: 1320000000 cycles: 1454111963 heartbeat IPC: 0.982226 cumulative IPC: 0.875086 (Simulation time: 8 hr 42 min 7 sec) 
Heartbeat CPU 1 instructions: 1250000000 cycles: 1459726683 heartbeat IPC: 0.902346 cumulative IPC: 0.834861 (Simulation time: 8 hr 44 min 23 sec) 
Heartbeat CPU 3 instructions: 1730000003 cycles: 1462150977 heartbeat IPC: 1.16077 cumulative IPC: 1.15517 (Simulation time: 8 hr 45 min 19 sec) 
Heartbeat CPU 0 instructions: 1330000001 cycles: 1464174355 heartbeat IPC: 0.9938 cumulative IPC: 0.875915 (Simulation time: 8 hr 46 min 4 sec) 
Heartbeat CPU 3 instructions: 1740000002 cycles: 1470756018 heartbeat IPC: 1.16211 cumulative IPC: 1.15521 (Simulation time: 8 hr 48 min 36 sec) 
Heartbeat CPU 1 instructions: 1260000003 cycles: 1470870849 heartbeat IPC: 0.897331 cumulative IPC: 0.835342 (Simulation time: 8 hr 48 min 39 sec) 
Heartbeat CPU 0 instructions: 1340000002 cycles: 1473699899 heartbeat IPC: 1.04981 cumulative IPC: 0.877056 (Simulation time: 8 hr 49 min 48 sec) 
*** Reached end of trace for Core: 3 Repeating trace: ./traces/ligra/ligra_Triangle.com-lj.ungraph.gcc_6.3.0_O3.drop_750M.length_250M.champsimtrace.xz
Heartbeat CPU 3 instructions: 1750000000 cycles: 1479347341 heartbeat IPC: 1.16396 cumulative IPC: 1.15526 (Simulation time: 8 hr 52 min 2 sec) 
Heartbeat CPU 1 instructions: 1270000000 cycles: 1481951140 heartbeat IPC: 0.902503 cumulative IPC: 0.835852 (Simulation time: 8 hr 53 min 2 sec) 
Heartbeat CPU 0 instructions: 1350000000 cycles: 1483896913 heartbeat IPC: 0.980679 cumulative IPC: 0.877779 (Simulation time: 8 hr 53 min 39 sec) 
Heartbeat CPU 3 instructions: 1760000000 cycles: 1487862579 heartbeat IPC: 1.17437 cumulative IPC: 1.15537 (Simulation time: 8 hr 55 min 13 sec) 
Heartbeat CPU 1 instructions: 1280000002 cycles: 1493046544 heartbeat IPC: 0.901274 cumulative IPC: 0.836345 (Simulation time: 8 hr 57 min 12 sec) 
Heartbeat CPU 0 instructions: 1360000002 cycles: 1493691667 heartbeat IPC: 1.02095 cumulative IPC: 0.878732 (Simulation time: 8 hr 57 min 29 sec) 
Heartbeat CPU 3 instructions: 1770000001 cycles: 1496384556 heartbeat IPC: 1.17344 cumulative IPC: 1.15548 (Simulation time: 8 hr 58 min 31 sec) 
Heartbeat CPU 2 instructions: 260000001 cycles: 1500877810 heartbeat IPC: 0.171693 cumulative IPC: 0.125968 (Simulation time: 9 hr 0 min 11 sec) 
Heartbeat CPU 0 instructions: 1370000002 cycles: 1503241109 heartbeat IPC: 1.04718 cumulative IPC: 0.879818 (Simulation time: 9 hr 1 min 5 sec) 
Heartbeat CPU 1 instructions: 1290000000 cycles: 1504839176 heartbeat IPC: 0.847987 cumulative IPC: 0.836438 (Simulation time: 9 hr 1 min 38 sec) 
Heartbeat CPU 3 instructions: 1780000003 cycles: 1504908533 heartbeat IPC: 1.17316 cumulative IPC: 1.15558 (Simulation time: 9 hr 1 min 40 sec) 
Heartbeat CPU 3 instructions: 1790000002 cycles: 1513524684 heartbeat IPC: 1.16061 cumulative IPC: 1.15561 (Simulation time: 9 hr 3 min 51 sec) 
Heartbeat CPU 0 instructions: 1380000000 cycles: 1514034816 heartbeat IPC: 0.926466 cumulative IPC: 0.880156 (Simulation time: 9 hr 4 min 1 sec) 
Heartbeat CPU 3 instructions: 1800000001 cycles: 1522033730 heartbeat IPC: 1.17522 cumulative IPC: 1.15572 (Simulation time: 9 hr 6 min 9 sec) 
Heartbeat CPU 0 instructions: 1390000002 cycles: 1524114199 heartbeat IPC: 0.992124 cumulative IPC: 0.880907 (Simulation time: 9 hr 6 min 41 sec) 
Heartbeat CPU 1 instructions: 1300000001 cycles: 1526965835 heartbeat IPC: 0.451944 cumulative IPC: 0.830783 (Simulation time: 9 hr 7 min 39 sec) 
Heartbeat CPU 3 instructions: 1810000000 cycles: 1530578585 heartbeat IPC: 1.17029 cumulative IPC: 1.1558 (Simulation time: 9 hr 8 min 37 sec) 
Heartbeat CPU 0 instructions: 1400000001 cycles: 1535739766 heartbeat IPC: 0.860173 cumulative IPC: 0.880748 (Simulation time: 9 hr 9 min 44 sec) 
Heartbeat CPU 3 instructions: 1820000000 cycles: 1539182082 heartbeat IPC: 1.16232 cumulative IPC: 1.15584 (Simulation time: 9 hr 10 min 52 sec) 
Heartbeat CPU 0 instructions: 1410000003 cycles: 1545583219 heartbeat IPC: 1.0159 cumulative IPC: 0.881622 (Simulation time: 9 hr 12 min 27 sec) 
Heartbeat CPU 3 instructions: 1830000001 cycles: 1547747422 heartbeat IPC: 1.1675 cumulative IPC: 1.1559 (Simulation time: 9 hr 13 min 6 sec) 
Heartbeat CPU 1 instructions: 1310000002 cycles: 1549984651 heartbeat IPC: 0.434427 cumulative IPC: 0.824811 (Simulation time: 9 hr 13 min 52 sec) 
Heartbeat CPU 0 instructions: 1420000003 cycles: 1555101817 heartbeat IPC: 1.05057 cumulative IPC: 0.882671 (Simulation time: 9 hr 15 min 26 sec) 
Heartbeat CPU 3 instructions: 1840000001 cycles: 1556293047 heartbeat IPC: 1.17019 cumulative IPC: 1.15598 (Simulation time: 9 hr 15 min 50 sec) 
Heartbeat CPU 2 instructions: 270000000 cycles: 1556539375 heartbeat IPC: 0.179657 cumulative IPC: 0.127916 (Simulation time: 9 hr 15 min 55 sec) 
Heartbeat CPU 1 instructions: 1320000000 cycles: 1563625074 heartbeat IPC: 0.733115 cumulative IPC: 0.823999 (Simulation time: 9 hr 18 min 23 sec) 
Heartbeat CPU 0 instructions: 1430000000 cycles: 1564182157 heartbeat IPC: 1.10128 cumulative IPC: 0.883958 (Simulation time: 9 hr 18 min 34 sec) 
Heartbeat CPU 3 instructions: 1850000002 cycles: 1564837823 heartbeat IPC: 1.17031 cumulative IPC: 1.15606 (Simulation time: 9 hr 18 min 46 sec) 
Heartbeat CPU 3 instructions: 1860000002 cycles: 1573367064 heartbeat IPC: 1.17244 cumulative IPC: 1.15615 (Simulation time: 9 hr 21 min 39 sec) 
Heartbeat CPU 0 instructions: 1440000000 cycles: 1573517620 heartbeat IPC: 1.07118 cumulative IPC: 0.885085 (Simulation time: 9 hr 21 min 41 sec) 
Finished CPU 2 instructions: 200000000 cycles: 1551557534 cumulative IPC: 0.128903 (Simulation time: 9 hr 21 min 49 sec) 

ChampSim completed all CPUs

Total Simulation Statistics (not including warmup)

CPU 0 cumulative IPC: 0.885164 instructions: 1373382418 cycles: 1551557533
ITLB TOTAL     ACCESS:  252941619  HIT:  252941619  MISS:          0  HIT %:        100  MISS %:          0   MPKI: 0
ITLB LOAD      ACCESS:          0  HIT:          0  MISS:          0  HIT %:       -nan  MISS %:       -nan   MPKI: 0
ITLB RFO       ACCESS:          0  HIT:          0  MISS:          0  HIT %:       -nan  MISS %:       -nan   MPKI: 0
ITLB PREFETCH  ACCESS:          0  HIT:          0  MISS:          0  HIT %:       -nan  MISS %:       -nan   MPKI: 0
ITLB WRITEBACK ACCESS:          0  HIT:          0  MISS:          0  HIT %:       -nan  MISS %:       -nan   MPKI: 0
DTLB TOTAL     ACCESS:  394920362  HIT:  394296794  MISS:     623568  HIT %:    99.8421  MISS %:   0.157897   MPKI: 0.454038
DTLB LOAD      ACCESS:          0  HIT:          0  MISS:          0  HIT %:       -nan  MISS %:       -nan   MPKI: 0
DTLB RFO       ACCESS:          0  HIT:          0  MISS:          0  HIT %:       -nan  MISS %:       -nan   MPKI: 0
DTLB PREFETCH  ACCESS:          0  HIT:          0  MISS:          0  HIT %:       -nan  MISS %:       -nan   MPKI: 0
DTLB WRITEBACK ACCESS:          0  HIT:          0  MISS:          0  HIT %:       -nan  MISS %:       -nan   MPKI: 0
STLB TOTAL     ACCESS:  150600215  HIT:  150484735  MISS:     115480  HIT %:    99.9233  MISS %:  0.0766798   MPKI: 0.0840844
STLB LOAD      ACCESS:          0  HIT:          0  MISS:          0  HIT %:       -nan  MISS %:       -nan   MPKI: 0
STLB RFO       ACCESS:          0  HIT:          0  MISS:          0  HIT %:       -nan  MISS %:       -nan   MPKI: 0
STLB PREFETCH  ACCESS:          0  HIT:          0  MISS:          0  HIT %:       -nan  MISS %:       -nan   MPKI: 0
STLB WRITEBACK ACCESS:          0  HIT:          0  MISS:          0  HIT %:       -nan  MISS %:       -nan   MPKI: 0
L1D TOTAL     ACCESS:  965630816  HIT:  931295368  MISS:   34335448  HIT %:    96.4442  MISS %:    3.55575   MPKI: 25.0006
L1D LOAD      ACCESS:  200627704  HIT:  198054424  MISS:    2573280  HIT %:    98.7174  MISS %:    1.28261   MPKI: 1.87368
L1D RFO       ACCESS:  225935890  HIT:  210841638  MISS:   15094252  HIT %:    93.3192  MISS %:    6.68077   MPKI: 10.9906
L1D PREFETCH  ACCESS:  539067222  HIT:  522399306  MISS:   16667916  HIT %:     96.908  MISS %:    3.09199   MPKI: 12.1364
L1D WRITEBACK ACCESS:          0  HIT:          0  MISS:          0  HIT %:       -nan  MISS %:       -nan   MPKI: 0
L1I TOTAL     ACCESS:  253863948  HIT:  253863947  MISS:          1  HIT %:        100  MISS %: 3.93912e-07   MPKI: 7.28129e-07
L1I LOAD      ACCESS:  253863948  HIT:  253863947  MISS:          1  HIT %:        100  MISS %: 3.93912e-07   MPKI: 7.28129e-07
L1I RFO       ACCESS:          0  HIT:          0  MISS:          0  HIT %:       -nan  MISS %:       -nan   MPKI: 0
L1I PREFETCH  ACCESS:          0  HIT:          0  MISS:          0  HIT %:       -nan  MISS %:       -nan   MPKI: 0
L1I WRITEBACK ACCESS:          0  HIT:          0  MISS:          0  HIT %:       -nan  MISS %:       -nan   MPKI: 0
L2C TOTAL     ACCESS:  197223474  HIT:  168139742  MISS:   29083732  HIT %:    85.2534  MISS %:    14.7466   MPKI: 21.1767
L2C LOAD      ACCESS:    1111674  HIT:     899042  MISS:     212632  HIT %:    80.8728  MISS %:    19.1272   MPKI: 0.154824
L2C RFO       ACCESS:   15093652  HIT:    1061450  MISS:   14032202  HIT %:    7.03243  MISS %:    92.9676   MPKI: 10.2173
L2C PREFETCH  ACCESS:  165169660  HIT:  150841143  MISS:   14328517  HIT %:     91.325  MISS %:    8.67503   MPKI: 10.433
L2C WRITEBACK ACCESS:   15131847  HIT:   14640969  MISS:     490878  HIT %:     96.756  MISS %:    3.24401   MPKI: 0.357423
PSCL5 TOTAL     ACCESS:     707923  HIT:     707923  MISS:          0  HIT %:        100  MISS %:          0   MPKI: 0
PSCL5 LOAD      ACCESS:          0  HIT:          0  MISS:          0  HIT %:       -nan  MISS %:       -nan   MPKI: 0
PSCL5 RFO       ACCESS:          0  HIT:          0  MISS:          0  HIT %:       -nan  MISS %:       -nan   MPKI: 0
PSCL5 PREFETCH  ACCESS:          0  HIT:          0  MISS:          0  HIT %:       -nan  MISS %:       -nan   MPKI: 0
PSCL5 WRITEBACK ACCESS:          0  HIT:          0  MISS:          0  HIT %:       -nan  MISS %:       -nan   MPKI: 0
PSCL4 TOTAL     ACCESS:     707923  HIT:     707923  MISS:          0  HIT %:        100  MISS %:          0   MPKI: 0
[...]
L2C USEFUL LOAD PREFETCHES:    1465000 PREFETCH ISSUED TO LOWER LEVEL:    4797423  ACCURACY: 30.5372
L2C TIMELY PREFETCHES:    1465000 LATE PREFETCHES: 271023 DROPPED PREFETCHES: 0
L2C PREFETCHES SAME FILL-ORIGIN LEVEL: 4766606 DIFFERENT FILL-ORIGIN LEVEL: 0
L2C AVERAGE MISS LATENCY: 544.842 cycles
L2C RQ	ACCESS:    6567242	FORWARD:          0	MERGED:          0	TO_CACHE:    6567241
L2C WQ	ACCESS:      50754	FORWARD:          2	MERGED:          0	TO_CACHE:      50754
L2C PQ	ACCESS:   16262686	FORWARD:          0	MERGED:      26847	TO_CACHE:   16235838

L2C Instructions Evicting Data 97308
L2C Translations Evicting Data 235394
L2C Data Evicting Data 8119742
L2C Instructions Evicting Instructions 6723
L2C Translations Evicting Instructions 8346
L2C Data Evicting Instructions 97643
L2C Instructions Evicting Translations 9801
L2C Translations Evicting Translations 15484
L2C Data Evicting Translations 232834
L2C Dense regions hint from L2: 0
PSCL5 TOTAL     ACCESS:     851851  HIT:     851851  MISS:          0  HIT %:        100  MISS %:          0   MPKI: 0
PSCL5 LOAD TRANSLATION ACCESS:     612201  HIT:     612201  MISS:          0  HIT %:        100  MISS %:          0   MPKI: 0
PSCL5 TRANSLATION FROM L1D PREFETCHER ACCESS:     239650  HIT:     239650  MISS:          0  HIT %:        100  MISS %:          0   MPKI: 0
PSCL5 PREFETCH  REQUESTED:          0  ISSUED:          0  USEFUL:          0  USELESS:          0
PSCL5 USEFUL LOAD PREFETCHES:          0 PREFETCH ISSUED TO LOWER LEVEL:          0  ACCURACY: -nan
PSCL5 TIMELY PREFETCHES:          0 LATE PREFETCHES: 0 DROPPED PREFETCHES: 0
PSCL5 PREFETCHES SAME FILL-ORIGIN LEVEL: 0 DIFFERENT FILL-ORIGIN LEVEL: 0

PSCL4 TOTAL     ACCESS:     851851  HIT:     851851  MISS:          0  HIT %:        100  MISS %:          0   MPKI: 0
PSCL4 LOAD TRANSLATION ACCESS:     612201  HIT:     612201  MISS:          0  HIT %:        100  MISS %:          0   MPKI: 0
PSCL4 TRANSLATION FROM L1D PREFETCHER ACCESS:     239650  HIT:     239650  MISS:          0  HIT %:        100  MISS %:          0   MPKI: 0
PSCL4 PREFETCH  REQUESTED:          0  ISSUED:          0  USEFUL:          0  USELESS:          0
PSCL4 USEFUL LOAD PREFETCHES:          0 PREFETCH ISSUED TO LOWER LEVEL:          0  ACCURACY: -nan
PSCL4 TIMELY PREFETCHES:          0 LATE PREFETCHES: 0 DROPPED PREFETCHES: 0
PSCL4 PREFETCHES SAME FILL-ORIGIN LEVEL: 0 DIFFERENT FILL-ORIGIN LEVEL: 0

PSCL3 TOTAL     ACCESS:     851851  HIT:     851851  MISS:          0  HIT %:        100  MISS %:          0   MPKI: 0
PSCL3 LOAD TRANSLATION ACCESS:     612201  HIT:     612201  MISS:          0  HIT %:        100  MISS %:          0   MPKI: 0
PSCL3 TRANSLATION FROM L1D PREFETCHER ACCESS:     239650  HIT:     239650  MISS:          0  HIT %:        100  MISS %:          0   MPKI: 0
PSCL3 PREFETCH  REQUESTED:          0  ISSUED:          0  USEFUL:          0  USELESS:          0
PSCL3 USEFUL LOAD PREFETCHES:          0 PREFETCH ISSUED TO LOWER LEVEL:          0  ACCURACY: -nan
PSCL3 TIMELY PREFETCHES:          0 LATE PREFETCHES: 0 DROPPED PREFETCHES: 0
PSCL3 PREFETCHES SAME FILL-ORIGIN LEVEL: 0 DIFFERENT FILL-ORIGIN LEVEL: 0

PSCL2 TOTAL     ACCESS:     846199  HIT:     805198  MISS:      41001  HIT %:    95.1547  MISS %:    4.84531   MPKI: 0.205005
PSCL2 LOAD TRANSLATION ACCESS:     612772  HIT:     571771  MISS:      41001  HIT %:    93.3089  MISS %:    6.69107   MPKI: 0.205005
PSCL2 TRANSLATION FROM L1D PREFETCHER ACCESS:     233427  HIT:     233427  MISS:          0  HIT %:        100  MISS %:          0   MPKI: 0
PSCL2 PREFETCH  REQUESTED:          0  ISSUED:          0  USEFUL:          0  USELESS:          0
PSCL2 USEFUL LOAD PREFETCHES:          0 PREFETCH ISSUED TO LOWER LEVEL:          0  ACCURACY: -nan
PSCL2 TIMELY PREFETCHES:          0 LATE PREFETCHES: 0 DROPPED PREFETCHES: 0
PSCL2 PREFETCHES SAME FILL-ORIGIN LEVEL: 0 DIFFERENT FILL-ORIGIN LEVEL: 0

LLC TOTAL     ACCESS:    8861788  HIT:      81774  MISS:    8780014  HIT %:   0.922771  MISS %:    99.0772   MPKI: 43.9001
LLC LOAD      ACCESS:    3748774  HIT:      35263  MISS:    3713511  HIT %:   0.940654  MISS %:    99.0593   MPKI: 18.5676
LLC RFO       ACCESS:      17855  HIT:       1481  MISS:      16374  HIT %:     8.2946  MISS %:    91.7054   MPKI: 0.08187
LLC PREFETCH  ACCESS:    4797422  HIT:      16533  MISS:    4780889  HIT %:   0.344623  MISS %:    99.6554   MPKI: 23.9044
LLC WRITEBACK ACCESS:      38513  HIT:      15357  MISS:      23156  HIT %:    39.8748  MISS %:    60.1252   MPKI: 0.11578
LLC LOAD TRANSLATION ACCESS:     243749  HIT:      12362  MISS:     231387  HIT %:    5.07161  MISS %:    94.9284   MPKI: 1.15694
LLC TRANSLATION FROM L1D PREFETCHER ACCESS:      15475  HIT:        778  MISS:      14697  HIT %:    5.02746  MISS %:    94.9725   MPKI: 0.073485
LLC PREFETCH  REQUESTED:          0  ISSUED:          0  USEFUL:    3374625  USELESS:   26292464
LLC USEFUL LOAD PREFETCHES:    3374625 PREFETCH ISSUED TO LOWER LEVEL:   30474791  ACCURACY: 11.0735
LLC TIMELY PREFETCHES:    3374625 LATE PREFETCHES: 0 DROPPED PREFETCHES: 0
LLC PREFETCHES SAME FILL-ORIGIN LEVEL: 0 DIFFERENT FILL-ORIGIN LEVEL: 0
LLC AVERAGE MISS LATENCY: 3109.41 cycles
LLC RQ	ACCESS:   18988780	FORWARD:          0	MERGED:          0	TO_CACHE:   18988767
LLC WQ	ACCESS:   25366743	FORWARD:         54	MERGED:          0	TO_CACHE:   25366743
LLC PQ	ACCESS:   41947198	FORWARD:          0	MERGED:          0	TO_CACHE:   41947157

LLC Dense regions hint to LLC: 0

RAW hits: 2525119
Loads Generated: 62453038
Loads sent to L1D: 59927919
Stores Generated: 6747555
Stores sent to L1D: 6747555
Major fault: 0 Minor fault: 22877
Allocated PAGES: 230823

CPU 3 cumulative IPC: 1.14843 instructions: 200000000 cycles: 174151475
ITLB TOTAL     ACCESS:   33214860  HIT:   33214860  MISS:          0  HIT %:        100  MISS %:          0   MPKI: 0
ITLB LOAD TRANSLATION ACCESS:   33214860  HIT:   33214860  MISS:          0  HIT %:        100  MISS %:          0   MPKI: 0
ITLB PREFETCH  REQUESTED:          0  ISSUED:          0  USEFUL:          0  USELESS:          0
ITLB USEFUL LOAD PREFETCHES:          0 PREFETCH ISSUED TO LOWER LEVEL:          0  ACCURACY: -nan
ITLB TIMELY PREFETCHES:          0 LATE PREFETCHES: 0 DROPPED PREFETCHES: 0
ITLB PREFETCHES SAME FILL-ORIGIN LEVEL: 0 DIFFERENT FILL-ORIGIN LEVEL: 0
ITLB AVERAGE MISS LATENCY: -nan cycles
ITLB RQ	ACCESS:  297950456	FORWARD:          0	MERGED:          0	TO_CACHE:  297950456

DTLB TOTAL     ACCESS:   18072247  HIT:   18064935  MISS:       7312  HIT %:    99.9595  MISS %:  0.0404598   MPKI: 0.03656
DTLB LOAD TRANSLATION ACCESS:   18072247  HIT:   18064935  MISS:       7312  HIT %:    99.9595  MISS %:  0.0404598   MPKI: 0.03656
DTLB PREFETCH  REQUESTED:          0  ISSUED:          0  USEFUL:          0  USELESS:          0
DTLB USEFUL LOAD PREFETCHES:          0 PREFETCH ISSUED TO LOWER LEVEL:          0  ACCURACY: -nan
DTLB TIMELY PREFETCHES:          0 LATE PREFETCHES: 0 DROPPED PREFETCHES: 0
DTLB PREFETCHES SAME FILL-ORIGIN LEVEL: 0 DIFFERENT FILL-ORIGIN LEVEL: 0
DTLB AVERAGE MISS LATENCY: 163.807 cycles
DTLB RQ	ACCESS:  167299887	FORWARD:          0	MERGED:    4710235	TO_CACHE:  162589652

STLB TOTAL     ACCESS:   11486623  HIT:   11479311  MISS:       7312  HIT %:    99.9363  MISS %:  0.0636567   MPKI: 0.03656
STLB LOAD TRANSLATION ACCESS:       7312  HIT:        611  MISS:       6701  HIT %:    8.35613  MISS %:    91.6439   MPKI: 0.033505
STLB TRANSLATION FROM L1D PREFETCHER ACCESS:   11479311  HIT:   11478700  MISS:        611  HIT %:    99.9947  MISS %: 0.00532262   MPKI: 0.003055
STLB PREFETCH  REQUESTED:          0  ISSUED:          0  USEFUL:      58779  USELESS:          0
STLB USEFUL LOAD PREFETCHES:      58779 PREFETCH ISSUED TO LOWER LEVEL:          0  ACCURACY: inf
STLB TIMELY PREFETCHES:      58779 LATE PREFETCHES: 1570 DROPPED PREFETCHES: 492934
STLB PREFETCHES SAME FILL-ORIGIN LEVEL: 0 DIFFERENT FILL-ORIGIN LEVEL: 0
STLB AVERAGE MISS LATENCY: 987.828 cycles
STLB RQ	ACCESS:  651592841	FORWARD:          0	MERGED:  538230713	TO_CACHE:  113362128

STLB Hit, L1D data hit: 0
STLB Hit, L2C data hit: 0
STLB Hit, LLC data hit: 0
STLB Hit, LLC data miss: 0
STLB STLB hints to L2: 0
L1D TOTAL     ACCESS:   74880786  HIT:   74412846  MISS:     467940  HIT %:    99.3751  MISS %:   0.624913   MPKI: 2.3397
L1D LOAD      ACCESS:   14480610  HIT:   14470785  MISS:       9825  HIT %:    99.9322  MISS %:  0.0678494   MPKI: 0.049125
L1D RFO       ACCESS:    4062618  HIT:    4062618  MISS:          0  HIT %:        100  MISS %:          0   MPKI: 0
L1D PREFETCH  ACCESS:   56337558  HIT:   55879443  MISS:     458115  HIT %:    99.1868  MISS %:   0.813161   MPKI: 2.29058
L1D PREFETCH  REQUESTED: 2465426626  ISSUED: 2465426332  USEFUL:    4149165  USELESS:         56
L1D USEFUL LOAD PREFETCHES:    4149165 PREFETCH ISSUED TO LOWER LEVEL:   25073184  ACCURACY: 16.5482
L1D TIMELY PREFETCHES:    4149165 LATE PREFETCHES: 43217 DROPPED PREFETCHES: 2246344
L1D PREFETCHES SAME FILL-ORIGIN LEVEL: 4192436 DIFFERENT FILL-ORIGIN LEVEL: 20880748
L1D AVERAGE MISS LATENCY: 5393.32 cycles
L1D RQ	ACCESS:  268567304	FORWARD:          0	MERGED:  137755712	TO_CACHE:  130811592
L1D WQ	ACCESS:   36488295	FORWARD:          0	MERGED:          0	TO_CACHE:   36488295
L1D PQ	ACCESS: 1813899067	FORWARD:          0	MERGED: 1162371802	TO_CACHE:  651527265

L1D UNIQUE REGIONS ACCESSED: 0
L1D REGIONS CONFLICTS: 0
L1D Cross Page Prefetch Requests: 127526470
L1D Same Page Prefetch Requests: 1824235620
L1D ROI Sum of L1D PQ occupancy: 7876147201
L1D PREFETCHES PUSHED FROM L2C: 0
L1I TOTAL     ACCESS:   33214860  HIT:   33214860  MISS:          0  HIT %:        100  MISS %:          0   MPKI: 0
L1I LOAD      ACCESS:   33214860  HIT:   33214860  MISS:          0  HIT %:        100  MISS %:          0   MPKI: 0
L1I PREFETCH  REQUESTED:          0  ISSUED:          0  USEFUL:          0  USELESS:          0
L1I USEFUL LOAD PREFETCHES:          0 PREFETCH ISSUED TO LOWER LEVEL:          0  ACCURACY: -nan
L1I TIMELY PREFETCHES:          0 LATE PREFETCHES: 0 DROPPED PREFETCHES: 0
L1I PREFETCHES SAME FILL-ORIGIN LEVEL: 0 DIFFERENT FILL-ORIGIN LEVEL: 0
L1I AVERAGE MISS LATENCY: -nan cycles
L1I RQ	ACCESS:  720103539	FORWARD:          0	MERGED:  422153083	TO_CACHE:  297950456

BTB TOTAL     ACCESS:   59895640  HIT:   59895640  MISS:          0  HIT %:        100  MISS %:          0   MPKI: 0
BTB BRANCH_DIRECT_JUMP	ACCESS:          0  HIT:          0  MISS:          0
BTB BRANCH_INDIRECT	ACCESS:          0  HIT:          0  MISS:          0
BTB BRANCH_CONDITIONAL	ACCESS:   59895640  HIT:   59895640  MISS:          0
BTB BRANCH_DIRECT_CALL	ACCESS:          0  HIT:          0  MISS:          0
BTB BRANCH_INDIRECT_CALL	ACCESS:          0  HIT:          0  MISS:          0
BTB BRANCH_RETURN	ACCESS:          0  HIT:          0  MISS:          0
BTB BRANCH_OTHER ACCESS:          0  HIT:          0  MISS:          0

L2C TOTAL     ACCESS:    2494796  HIT:    1973959  MISS:     520837  HIT %:    79.1231  MISS %:    20.8769   MPKI: 2.60419
L2C LOAD      ACCESS:       3966  HIT:          0  MISS:       3966  HIT %:          0  MISS %:        100   MPKI: 0.01983
L2C DATA LOAD MPKI: 0.01983
L2C INSTRUCTION LOAD MPKI: 0
L2C PREFETCH  ACCESS:    1521174  HIT:    1057200  MISS:     463974  HIT %:     69.499  MISS %:     30.501   MPKI: 2.31987
L2C DATA PREFETCH MPKI: 2.31987
L2C INSTRUCTION PREFETCH MPKI: 0
L2C WRITEBACK ACCESS:     467932  HIT:     415968  MISS:      51964  HIT %:     88.895  MISS %:     11.105   MPKI: 0.25982
L2C LOAD TRANSLATION ACCESS:       6699  HIT:       6698  MISS:          1  HIT %:    99.9851  MISS %:  0.0149276   MPKI: 5e-06
L2C TRANSLATION FROM L1D PREFETCHER ACCESS:     495025  HIT:     494093  MISS:        932  HIT %:    99.8117  MISS %:   0.188273   MPKI: 0.00466
L2C PREFETCH  REQUESTED:          0  ISSUED:          0  USEFUL:       8236  USELESS:    4192340
L2C USEFUL LOAD PREFETCHES:       8236 PREFETCH ISSUED TO LOWER LEVEL:    4192456  ACCURACY: 0.196448
L2C TIMELY PREFETCHES:       8236 LATE PREFETCHES: 0 DROPPED PREFETCHES: 0
L2C PREFETCHES SAME FILL-ORIGIN LEVEL: 573468 DIFFERENT FILL-ORIGIN LEVEL: 0
L2C AVERAGE MISS LATENCY: 5544.62 cycles
L2C RQ	ACCESS:     563979	FORWARD:          0	MERGED:          0	TO_CACHE:     563979
L2C WQ	ACCESS:    4196371	FORWARD:          0	MERGED:          0	TO_CACHE:    4196371
L2C PQ	ACCESS:   25073184	FORWARD:          0	MERGED:      25462	TO_CACHE:   25047722

L2C Instructions Evicting Data 0
L2C Translations Evicting Data 8242
L2C Data Evicting Data 4188779
L2C Instructions Evicting Instructions 0
L2C Translations Evicting Instructions 0
L2C Data Evicting Instructions 0
L2C Instructions Evicting Translations 0
L2C Translations Evicting Translations 5
L2C Data Evicting Translations 7649
L2C Dense regions hint from L2: 0
PSCL5 TOTAL     ACCESS:     501724  HIT:     501724  MISS:          0  HIT %:        100  MISS %:          0   MPKI: 0
PSCL5 LOAD TRANSLATION ACCESS:       6699  HIT:       6699  MISS:          0  HIT %:        100  MISS %:          0   MPKI: 0
PSCL5 TRANSLATION FROM L1D PREFETCHER ACCESS:     495025  HIT:     495025  MISS:          0  HIT %:        100  MISS %:          0   MPKI: 0
PSCL5 PREFETCH  REQUESTED:          0  ISSUED:          0  USEFUL:          0  USELESS:          0
PSCL5 USEFUL LOAD PREFETCHES:          0 PREFETCH ISSUED TO LOWER LEVEL:          0  ACCURACY: -nan
PSCL5 TIMELY PREFETCHES:          0 LATE PREFETCHES: 0 DROPPED PREFETCHES: 0
PSCL5 PREFETCHES SAME FILL-ORIGIN LEVEL: 0 DIFFERENT FILL-ORIGIN LEVEL: 0

PSCL4 TOTAL     ACCESS:     501724  HIT:     501724  MISS:          0  HIT %:        100  MISS %:          0   MPKI: 0
PSCL4 LOAD TRANSLATION ACCESS:       6699  HIT:       6699  MISS:          0  HIT %:        100  MISS %:          0   MPKI: 0
PSCL4 TRANSLATION FROM L1D PREFETCHER ACCESS:     495025  HIT:     495025  MISS:          0  HIT %:        100  MISS %:          0   MPKI: 0
PSCL4 PREFETCH  REQUESTED:          0  ISSUED:          0  USEFUL:          0  USELESS:          0
PSCL4 USEFUL LOAD PREFETCHES:          0 PREFETCH ISSUED TO LOWER LEVEL:          0  ACCURACY: -nan
PSCL4 TIMELY PREFETCHES:          0 LATE PREFETCHES: 0 DROPPED PREFETCHES: 0
PSCL4 PREFETCHES SAME FILL-ORIGIN LEVEL: 0 DIFFERENT FILL-ORIGIN LEVEL: 0

PSCL3 TOTAL     ACCESS:     501724  HIT:     501724  MISS:          0  HIT %:        100  MISS %:          0   MPKI: 0
PSCL3 LOAD TRANSLATION ACCESS:       6699  HIT:       6699  MISS:          0  HIT %:        100  MISS %:          0   MPKI: 0
PSCL3 TRANSLATION FROM L1D PREFETCHER ACCESS:     495025  HIT:     495025  MISS:          0  HIT %:        100  MISS %:          0   MPKI: 0
PSCL3 PREFETCH  REQUESTED:          0  ISSUED:          0  USEFUL:          0  USELESS:          0
PSCL3 USEFUL LOAD PREFETCHES:          0 PREFETCH ISSUED TO LOWER LEVEL:          0  ACCURACY: -nan
PSCL3 TIMELY PREFETCHES:          0 LATE PREFETCHES: 0 DROPPED PREFETCHES: 0
PSCL3 PREFETCHES SAME FILL-ORIGIN LEVEL: 0 DIFFERENT FILL-ORIGIN LEVEL: 0

PSCL2 TOTAL     ACCESS:     500880  HIT:     500866  MISS:         14  HIT %:    99.9972  MISS %: 0.00279508   MPKI: 7e-05
PSCL2 LOAD TRANSLATION ACCESS:       6699  HIT:       6685  MISS:         14  HIT %:     99.791  MISS %:   0.208986   MPKI: 7e-05
PSCL2 TRANSLATION FROM L1D PREFETCHER ACCESS:     494181  HIT:     494181  MISS:          0  HIT %:        100  MISS %:          0   MPKI: 0
PSCL2 PREFETCH  REQUESTED:          0  ISSUED:          0  USEFUL:          0  USELESS:          0
PSCL2 USEFUL LOAD PREFETCHES:          0 PREFETCH ISSUED TO LOWER LEVEL:          0  ACCURACY: -nan
PSCL2 TIMELY PREFETCHES:          0 LATE PREFETCHES: 0 DROPPED PREFETCHES: 0
PSCL2 PREFETCHES SAME FILL-ORIGIN LEVEL: 0 DIFFERENT FILL-ORIGIN LEVEL: 0

LLC TOTAL     ACCESS:     936834  HIT:     296659  MISS:     640175  HIT %:    31.6661  MISS %:    68.3339   MPKI: 3.20087
LLC LOAD      ACCESS:       3966  HIT:          0  MISS:       3966  HIT %:          0  MISS %:        100   MPKI: 0.01983
LLC PREFETCH  ACCESS:     463974  HIT:          0  MISS:     463974  HIT %:          0  MISS %:        100   MPKI: 2.31987
LLC WRITEBACK ACCESS:     467961  HIT:     296656  MISS:     171305  HIT %:    63.3933  MISS %:    36.6067   MPKI: 0.856525
LLC LOAD TRANSLATION ACCESS:          1  HIT:          0  MISS:          1  HIT %:          0  MISS %:        100   MPKI: 5e-06
LLC TRANSLATION FROM L1D PREFETCHER ACCESS:        932  HIT:          3  MISS:        929  HIT %:   0.321888  MISS %:    99.6781   MPKI: 0.004645
LLC PREFETCH  REQUESTED:          0  ISSUED:          0  USEFUL:    3374625  USELESS:   26292464
LLC USEFUL LOAD PREFETCHES:    3374625 PREFETCH ISSUED TO LOWER LEVEL:   30474791  ACCURACY: 11.0735
LLC TIMELY PREFETCHES:    3374625 LATE PREFETCHES: 0 DROPPED PREFETCHES: 0
LLC PREFETCHES SAME FILL-ORIGIN LEVEL: 0 DIFFERENT FILL-ORIGIN LEVEL: 0
LLC AVERAGE MISS LATENCY: 42645.7 cycles
LLC RQ	ACCESS:   18988780	FORWARD:          0	MERGED:          0	TO_CACHE:   18988767
LLC WQ	ACCESS:   25366743	FORWARD:         54	MERGED:          0	TO_CACHE:   25366743
LLC PQ	ACCESS:   41947198	FORWARD:          0	MERGED:          0	TO_CACHE:   41947157

LLC Dense regions hint to LLC: 0

RAW hits: 0
Loads Generated: 29947818
Loads sent to L1D: 29947817
Stores Generated: 4062618
Stores sent to L1D: 4062618
Major fault: 0 Minor fault: 9164
Allocated PAGES: 230823

DRAM Statistics
 CHANNEL 0
 RQ ROW_BUFFER_HIT:    7877124  ROW_BUFFER_MISS:   31186166
 DBUS_CONGESTED:        483
 WQ ROW_BUFFER_HIT:    1492963  ROW_BUFFER_MISS:   17802238  FULL:          0

 AVG_CONGESTED_CYCLE: 5
 All warmup complete: 5
Channel 0 Bank busy for read cycles: 0
Channel 0 Bank busy for write cycles: 0
Channel 0
Rank 0
0banks busy for read cycles: 615463
0banks busy for write cycles: 477
1banks busy for read cycles: 53971654
1banks busy for write cycles: 2257308
2banks busy for read cycles: 84086446
2banks busy for write cycles: 2249615
3banks busy for read cycles: 93869843
3banks busy for write cycles: 2249074
4banks busy for read cycles: 96490617
4banks busy for write cycles: 2271865
5banks busy for read cycles: 102855325
5banks busy for write cycles: 2369989
6banks busy for read cycles: 118632781
6banks busy for write cycles: 4740772
7banks busy for read cycles: 158357236
7banks busy for write cycles: 56910787
8banks busy for read cycles: 303542397
8banks busy for write cycles: 466085885

CPU 0 Branch Prediction Accuracy: 99.048% MPKI: 0.952986 Average ROB Occupancy at Mispredict: 60.3893
Branch types
NOT_BRANCH: 1234196209 89.8654%
BRANCH_DIRECT_JUMP: 7273 0.000529568%
BRANCH_INDIRECT: 0 0%
BRANCH_CONDITIONAL: 139157165 10.1324%
BRANCH_DIRECT_CALL: 10895 0.000793297%
BRANCH_INDIRECT_CALL: 0 0%
BRANCH_RETURN: 10895 0.000793297%
BRANCH_OTHER: 0 0%


CPU 1 Branch Prediction Accuracy: 99.6829% MPKI: 0.0498913 Average ROB Occupancy at Mispredict: 200.117
Branch types
NOT_BRANCH: 1257912105 98.4268%
BRANCH_DIRECT_JUMP: 292778 0.0229087%
BRANCH_INDIRECT: 90972 0.00711821%
BRANCH_CONDITIONAL: 17762827 1.38987%
BRANCH_DIRECT_CALL: 979836 0.0766684%
BRANCH_INDIRECT_CALL: 0 0%
BRANCH_RETURN: 979833 0.0766681%
BRANCH_OTHER: 0 0%


CPU 2 Branch Prediction Accuracy: 99.4345% MPKI: 1.44514 Average ROB Occupancy at Mispredict: 209.295
Branch types
NOT_BRANCH: 142824604 71.4123%
BRANCH_DIRECT_JUMP: 1760912 0.880456%
BRANCH_INDIRECT: 7782 0.003891%
BRANCH_CONDITIONAL: 50026593 25.0133%
BRANCH_DIRECT_CALL: 1816157 0.908079%
BRANCH_INDIRECT_CALL: 874016 0.437008%
BRANCH_RETURN: 2690174 1.34509%
BRANCH_OTHER: 0 0%


CPU 3 Branch Prediction Accuracy: 99.6913% MPKI: 0.977934 Average ROB Occupancy at Mispredict: 27.7102
Branch types
NOT_BRANCH: 1220222414 68.0227%
BRANCH_DIRECT_JUMP: 0 0%
BRANCH_INDIRECT: 0 0%
BRANCH_CONDITIONAL: 573622908 31.9773%
BRANCH_DIRECT_CALL: 0 0%
BRANCH_INDIRECT_CALL: 0 0%
BRANCH_RETURN: 0 0%
BRANCH_OTHER: 0 0%

DRAM PAGES: 1048576
Allocated PAGES: 230823
