
*** ChampSim Multicore Out-of-Order Simulator ***

Warmup Instructions: 50000000
Simulation Instructions: 200000000
Number of CPUs: 4
LLC sets: 8192
LLC ways: 16
Off-chip DRAM Size: 4096 MB Channels: 1 Width: 64-bit Data Rate: 6400 MT/s
CPU 0 runs ./traces/cs/cassandra_phase4_core0.trace.xz
.xz
CPU 1 runs ./traces/cs/cassandra_phase4_core1.trace.xz
.xz
CPU 2 runs ./traces/cs/cassandra_phase4_core2.trace.xz
.xz
CPU 3 runs ./traces/cs/cassandra_phase4_core3.trace.xz
.xz
BTB has LRU replacement policy
ITLB has LRU replacement policy
DTLB has LRU replacement policy
STLB has LRU replacement policy
L1I has LRU replacement policy
History Sets: 8
History Ways: 16
BERTI Size: 16
BERTI Stride Size: 8
L1D has LRU replacement policy
Initialize SRRIP state for L2C
Initialize DRRIP state for LLC
BTB has LRU replacement policy
ITLB has LRU replacement policy
DTLB has LRU replacement policy
STLB has LRU replacement policy
L1I has LRU replacement policy
History Sets: 8
History Ways: 16
BERTI Size: 16
BERTI Stride Size: 8
L1D has LRU replacement policy
Initialize SRRIP state for L2C
Initialize DRRIP state for LLC
BTB has LRU replacement policy
ITLB has LRU replacement policy
DTLB has LRU replacement policy
STLB has LRU replacement policy
L1I has LRU replacement policy
History Sets: 8
History Ways: 16
BERTI Size: 16
BERTI Stride Size: 8
L1D has LRU replacement policy
Initialize SRRIP state for L2C
Initialize DRRIP state for LLC
BTB has LRU replacement policy
ITLB has LRU replacement policy
DTLB has LRU replacement policy
STLB has LRU replacement policy
L1I has LRU replacement policy
History Sets: 8
History Ways: 16
BERTI Size: 16
BERTI Stride Size: 8
L1D has LRU replacement policy
Initialize SRRIP state for L2C
Initialize DRRIP state for LLC
UNIQUE_ASID[0] = 
UNIQUE_ASID[1] = €
Heartbeat CPU 2 instructions: 10000000 cycles: 2770495 heartbeat IPC: 3.60946 cumulative IPC: 3.60946 (Simulation time: 0 hr 2 min 4 sec) 
Heartbeat CPU 0 instructions: 10000000 cycles: 2782886 heartbeat IPC: 3.59339 cumulative IPC: 3.59339 (Simulation time: 0 hr 2 min 4 sec) 
Heartbeat CPU 3 instructions: 10000001 cycles: 2795435 heartbeat IPC: 3.57726 cumulative IPC: 3.57726 (Simulation time: 0 hr 2 min 5 sec) 
Heartbeat CPU 1 instructions: 10000002 cycles: 2810607 heartbeat IPC: 3.55795 cumulative IPC: 3.55795 (Simulation time: 0 hr 2 min 5 sec) 
Heartbeat CPU 0 instructions: 20000001 cycles: 5538923 heartbeat IPC: 3.6284 cumulative IPC: 3.61081 (Simulation time: 0 hr 4 min 24 sec) 
Heartbeat CPU 3 instructions: 20000003 cycles: 5548972 heartbeat IPC: 3.63169 cumulative IPC: 3.60427 (Simulation time: 0 hr 4 min 24 sec) 
Heartbeat CPU 2 instructions: 20000003 cycles: 5569585 heartbeat IPC: 3.57259 cumulative IPC: 3.59093 (Simulation time: 0 hr 4 min 25 sec) 
Heartbeat CPU 1 instructions: 20000003 cycles: 5727356 heartbeat IPC: 3.42847 cumulative IPC: 3.49201 (Simulation time: 0 hr 4 min 32 sec) 
Heartbeat CPU 0 instructions: 30000002 cycles: 8304159 heartbeat IPC: 3.61633 cumulative IPC: 3.61265 (Simulation time: 0 hr 6 min 35 sec) 
Heartbeat CPU 2 instructions: 30000000 cycles: 8337508 heartbeat IPC: 3.61282 cumulative IPC: 3.5982 (Simulation time: 0 hr 6 min 37 sec) 
Heartbeat CPU 3 instructions: 30000001 cycles: 8391726 heartbeat IPC: 3.51771 cumulative IPC: 3.57495 (Simulation time: 0 hr 6 min 40 sec) 
Heartbeat CPU 1 instructions: 30000002 cycles: 8736904 heartbeat IPC: 3.32276 cumulative IPC: 3.43371 (Simulation time: 0 hr 6 min 56 sec) 
Heartbeat CPU 2 instructions: 40000000 cycles: 11104508 heartbeat IPC: 3.61402 cumulative IPC: 3.60214 (Simulation time: 0 hr 8 min 55 sec) 
Heartbeat CPU 3 instructions: 40000002 cycles: 11109805 heartbeat IPC: 3.67907 cumulative IPC: 3.60042 (Simulation time: 0 hr 8 min 56 sec) 
Heartbeat CPU 0 instructions: 40000003 cycles: 11229728 heartbeat IPC: 3.41814 cumulative IPC: 3.56197 (Simulation time: 0 hr 9 min 2 sec) 
Heartbeat CPU 1 instructions: 40000002 cycles: 11903243 heartbeat IPC: 3.15822 cumulative IPC: 3.36043 (Simulation time: 0 hr 9 min 38 sec) 
Heartbeat CPU 2 instructions: 50000000 cycles: 13961912 heartbeat IPC: 3.49968 cumulative IPC: 3.58117 (Simulation time: 0 hr 11 min 13 sec) 
Heartbeat CPU 3 instructions: 50000002 cycles: 13972598 heartbeat IPC: 3.49309 cumulative IPC: 3.57843 (Simulation time: 0 hr 11 min 13 sec) 
Heartbeat CPU 0 instructions: 50000001 cycles: 14132908 heartbeat IPC: 3.4445 cumulative IPC: 3.53784 (Simulation time: 0 hr 11 min 19 sec) 
Heartbeat CPU 1 instructions: 50000000 cycles: 14902558 heartbeat IPC: 3.33409 cumulative IPC: 3.35513 (Simulation time: 0 hr 11 min 48 sec) 

Warmup complete CPU 0 instructions: 52710139 cycles: 14902559 (Simulation time: 0 hr 11 min 48 sec) 
Warmup complete CPU 1 instructions: 50000004 cycles: 14902559 (Simulation time: 0 hr 11 min 48 sec) 
Warmup complete CPU 2 instructions: 53244826 cycles: 14902558 (Simulation time: 0 hr 11 min 48 sec) 
Warmup complete CPU 3 instructions: 53260018 cycles: 14902558 (Simulation time: 0 hr 11 min 48 sec) 

Heartbeat CPU 2 instructions: 60000001 cycles: 26628164 heartbeat IPC: 0.7895 cumulative IPC: 0.576105 (Simulation time: 0 hr 14 min 4 sec) 
Heartbeat CPU 3 instructions: 60000001 cycles: 27179048 heartbeat IPC: 0.757206 cumulative IPC: 0.549015 (Simulation time: 0 hr 14 min 12 sec) 
Heartbeat CPU 0 instructions: 60000000 cycles: 28077477 heartbeat IPC: 0.717125 cumulative IPC: 0.553314 (Simulation time: 0 hr 14 min 23 sec) 
Heartbeat CPU 1 instructions: 60000000 cycles: 35552031 heartbeat IPC: 0.484274 cumulative IPC: 0.484274 (Simulation time: 0 hr 15 min 41 sec) 
Heartbeat CPU 2 instructions: 70000000 cycles: 42668109 heartbeat IPC: 0.623443 cumulative IPC: 0.603452 (Simulation time: 0 hr 17 min 25 sec) 
Heartbeat CPU 3 instructions: 70000000 cycles: 44128496 heartbeat IPC: 0.58999 cumulative IPC: 0.572778 (Simulation time: 0 hr 17 min 49 sec) 
Heartbeat CPU 0 instructions: 70000002 cycles: 44872250 heartbeat IPC: 0.595423 cumulative IPC: 0.576912 (Simulation time: 0 hr 18 min 1 sec) 
Heartbeat CPU 1 instructions: 70000000 cycles: 51723298 heartbeat IPC: 0.618381 cumulative IPC: 0.543172 (Simulation time: 0 hr 19 min 43 sec) 
Heartbeat CPU 2 instructions: 80000000 cycles: 56460981 heartbeat IPC: 0.725012 cumulative IPC: 0.643797 (Simulation time: 0 hr 20 min 51 sec) 
Heartbeat CPU 3 instructions: 80000001 cycles: 58133689 heartbeat IPC: 0.714021 cumulative IPC: 0.618535 (Simulation time: 0 hr 21 min 13 sec) 
Heartbeat CPU 0 instructions: 80000002 cycles: 58852543 heartbeat IPC: 0.715293 cumulative IPC: 0.62093 (Simulation time: 0 hr 21 min 21 sec) 
Heartbeat CPU 1 instructions: 80000002 cycles: 67321564 heartbeat IPC: 0.641097 cumulative IPC: 0.572311 (Simulation time: 0 hr 22 min 53 sec) 
Heartbeat CPU 2 instructions: 90000002 cycles: 77206819 heartbeat IPC: 0.482024 cumulative IPC: 0.58993 (Simulation time: 0 hr 24 min 29 sec) 
Heartbeat CPU 3 instructions: 90000002 cycles: 79430103 heartbeat IPC: 0.469563 cumulative IPC: 0.569369 (Simulation time: 0 hr 24 min 53 sec) 
Heartbeat CPU 0 instructions: 90000002 cycles: 81105131 heartbeat IPC: 0.449386 cumulative IPC: 0.563269 (Simulation time: 0 hr 25 min 13 sec) 
Heartbeat CPU 1 instructions: 90000003 cycles: 87870787 heartbeat IPC: 0.486636 cumulative IPC: 0.548184 (Simulation time: 0 hr 26 min 32 sec) 
Heartbeat CPU 2 instructions: 100000002 cycles: 94225990 heartbeat IPC: 0.587573 cumulative IPC: 0.589425 (Simulation time: 0 hr 27 min 52 sec) 
Heartbeat CPU 3 instructions: 100000002 cycles: 96987585 heartbeat IPC: 0.569558 cumulative IPC: 0.569409 (Simulation time: 0 hr 28 min 28 sec) 
Heartbeat CPU 0 instructions: 100000003 cycles: 99375722 heartbeat IPC: 0.547328 cumulative IPC: 0.559821 (Simulation time: 0 hr 28 min 55 sec) 
Heartbeat CPU 1 instructions: 100000003 cycles: 105251393 heartbeat IPC: 0.575354 cumulative IPC: 0.553411 (Simulation time: 0 hr 30 min 9 sec) 
Heartbeat CPU 2 instructions: 110000000 cycles: 110909437 heartbeat IPC: 0.599396 cumulative IPC: 0.591157 (Simulation time: 0 hr 31 min 15 sec) 
Heartbeat CPU 3 instructions: 110000000 cycles: 114455267 heartbeat IPC: 0.572486 cumulative IPC: 0.569949 (Simulation time: 0 hr 31 min 54 sec) 
Heartbeat CPU 0 instructions: 110000000 cycles: 117406738 heartbeat IPC: 0.5546 cumulative IPC: 0.558903 (Simulation time: 0 hr 32 min 27 sec) 
Heartbeat CPU 1 instructions: 110000000 cycles: 121817073 heartbeat IPC: 0.603657 cumulative IPC: 0.561196 (Simulation time: 0 hr 33 min 18 sec) 
Heartbeat CPU 2 instructions: 120000003 cycles: 127821178 heartbeat IPC: 0.591305 cumulative IPC: 0.59118 (Simulation time: 0 hr 34 min 29 sec) 
Heartbeat CPU 3 instructions: 120000003 cycles: 131581114 heartbeat IPC: 0.583913 cumulative IPC: 0.571999 (Simulation time: 0 hr 35 min 8 sec) 
Heartbeat CPU 0 instructions: 120000001 cycles: 135599171 heartbeat IPC: 0.549679 cumulative IPC: 0.557512 (Simulation time: 0 hr 35 min 50 sec) 
Heartbeat CPU 1 instructions: 120000001 cycles: 140521208 heartbeat IPC: 0.534641 cumulative IPC: 0.557242 (Simulation time: 0 hr 36 min 49 sec) 
Heartbeat CPU 2 instructions: 130000003 cycles: 145144616 heartbeat IPC: 0.577253 cumulative IPC: 0.589327 (Simulation time: 0 hr 37 min 48 sec) 
Heartbeat CPU 3 instructions: 130000000 cycles: 147631372 heartbeat IPC: 0.623043 cumulative IPC: 0.578171 (Simulation time: 0 hr 38 min 20 sec) 
Heartbeat CPU 0 instructions: 130000001 cycles: 153007840 heartbeat IPC: 0.574426 cumulative IPC: 0.559645 (Simulation time: 0 hr 39 min 31 sec) 
Heartbeat CPU 1 instructions: 130000002 cycles: 156469218 heartbeat IPC: 0.627038 cumulative IPC: 0.565105 (Simulation time: 0 hr 40 min 14 sec) 
Heartbeat CPU 2 instructions: 140000001 cycles: 162271914 heartbeat IPC: 0.583863 cumulative IPC: 0.588692 (Simulation time: 0 hr 41 min 16 sec) 
Heartbeat CPU 3 instructions: 140000001 cycles: 164628985 heartbeat IPC: 0.588318 cumulative IPC: 0.579323 (Simulation time: 0 hr 41 min 41 sec) 
Heartbeat CPU 0 instructions: 140000003 cycles: 174820404 heartbeat IPC: 0.458451 cumulative IPC: 0.545842 (Simulation time: 0 hr 43 min 38 sec) 
Heartbeat CPU 1 instructions: 140000002 cycles: 178691986 heartbeat IPC: 0.449989 cumulative IPC: 0.549486 (Simulation time: 0 hr 44 min 27 sec) 
Heartbeat CPU 2 instructions: 150000003 cycles: 180954978 heartbeat IPC: 0.535244 cumulative IPC: 0.582678 (Simulation time: 0 hr 44 min 50 sec) 
Heartbeat CPU 3 instructions: 150000000 cycles: 184348551 heartbeat IPC: 0.50711 cumulative IPC: 0.570919 (Simulation time: 0 hr 45 min 22 sec) 
Heartbeat CPU 0 instructions: 150000001 cycles: 193126845 heartbeat IPC: 0.546256 cumulative IPC: 0.545884 (Simulation time: 0 hr 46 min 48 sec) 
Heartbeat CPU 1 instructions: 150000003 cycles: 196610111 heartbeat IPC: 0.558094 cumulative IPC: 0.550335 (Simulation time: 0 hr 47 min 24 sec) 
Heartbeat CPU 2 instructions: 160000002 cycles: 198213697 heartbeat IPC: 0.579417 cumulative IPC: 0.582371 (Simulation time: 0 hr 47 min 46 sec) 
Heartbeat CPU 3 instructions: 160000001 cycles: 202150026 heartbeat IPC: 0.561751 cumulative IPC: 0.570048 (Simulation time: 0 hr 48 min 41 sec) 
Heartbeat CPU 0 instructions: 160000002 cycles: 211054539 heartbeat IPC: 0.557796 cumulative IPC: 0.546973 (Simulation time: 0 hr 50 min 24 sec) 
Heartbeat CPU 2 instructions: 170000001 cycles: 212955387 heartbeat IPC: 0.678348 cumulative IPC: 0.589515 (Simulation time: 0 hr 50 min 43 sec) 
Heartbeat CPU 1 instructions: 160000001 cycles: 217419830 heartbeat IPC: 0.480545 cumulative IPC: 0.543164 (Simulation time: 0 hr 51 min 34 sec) 
Heartbeat CPU 3 instructions: 170000000 cycles: 218176905 heartbeat IPC: 0.623952 cumulative IPC: 0.574298 (Simulation time: 0 hr 51 min 43 sec) 
Heartbeat CPU 2 instructions: 180000003 cycles: 227296473 heartbeat IPC: 0.697297 cumulative IPC: 0.596793 (Simulation time: 0 hr 53 min 28 sec) 
Heartbeat CPU 0 instructions: 170000001 cycles: 227751334 heartbeat IPC: 0.598917 cumulative IPC: 0.551048 (Simulation time: 0 hr 53 min 34 sec) 
Heartbeat CPU 3 instructions: 180000003 cycles: 232465395 heartbeat IPC: 0.699864 cumulative IPC: 0.582544 (Simulation time: 0 hr 54 min 46 sec) 
Heartbeat CPU 1 instructions: 170000003 cycles: 233661074 heartbeat IPC: 0.615717 cumulative IPC: 0.54855 (Simulation time: 0 hr 54 min 57 sec) 
Heartbeat CPU 0 instructions: 180000000 cycles: 241559078 heartbeat IPC: 0.724231 cumulative IPC: 0.561598 (Simulation time: 0 hr 56 min 24 sec) 
Heartbeat CPU 2 instructions: 190000001 cycles: 246876751 heartbeat IPC: 0.510718 cumulative IPC: 0.589528 (Simulation time: 0 hr 57 min 14 sec) 
Heartbeat CPU 1 instructions: 180000002 cycles: 248825330 heartbeat IPC: 0.659445 cumulative IPC: 0.555739 (Simulation time: 0 hr 57 min 30 sec) 
Heartbeat CPU 3 instructions: 190000003 cycles: 253606359 heartbeat IPC: 0.473015 cumulative IPC: 0.572844 (Simulation time: 0 hr 58 min 13 sec) 
Heartbeat CPU 0 instructions: 190000000 cycles: 263625842 heartbeat IPC: 0.45317 cumulative IPC: 0.551978 (Simulation time: 0 hr 59 min 36 sec) 
Heartbeat CPU 2 instructions: 200000001 cycles: 264935790 heartbeat IPC: 0.553739 cumulative IPC: 0.586943 (Simulation time: 0 hr 59 min 48 sec) 
Heartbeat CPU 1 instructions: 190000000 cycles: 269200857 heartbeat IPC: 0.490785 cumulative IPC: 0.550535 (Simulation time: 1 hr 0 min 44 sec) 
Heartbeat CPU 3 instructions: 200000000 cycles: 271273767 heartbeat IPC: 0.566014 cumulative IPC: 0.572373 (Simulation time: 1 hr 1 min 10 sec) 
Heartbeat CPU 2 instructions: 210000001 cycles: 281455097 heartbeat IPC: 0.605352 cumulative IPC: 0.588084 (Simulation time: 1 hr 2 min 54 sec) 
Heartbeat CPU 0 instructions: 200000002 cycles: 281960345 heartbeat IPC: 0.54542 cumulative IPC: 0.551528 (Simulation time: 1 hr 2 min 58 sec) 
Heartbeat CPU 1 instructions: 200000000 cycles: 286377109 heartbeat IPC: 0.582199 cumulative IPC: 0.552538 (Simulation time: 1 hr 3 min 49 sec) 
Heartbeat CPU 3 instructions: 210000000 cycles: 288662391 heartbeat IPC: 0.575089 cumulative IPC: 0.572546 (Simulation time: 1 hr 4 min 19 sec) 
Heartbeat CPU 2 instructions: 220000000 cycles: 298454256 heartbeat IPC: 0.588264 cumulative IPC: 0.588094 (Simulation time: 1 hr 6 min 13 sec) 
Heartbeat CPU 0 instructions: 210000003 cycles: 300181196 heartbeat IPC: 0.548822 cumulative IPC: 0.551355 (Simulation time: 1 hr 6 min 32 sec) 
Heartbeat CPU 1 instructions: 210000001 cycles: 303113865 heartbeat IPC: 0.597487 cumulative IPC: 0.555148 (Simulation time: 1 hr 7 min 6 sec) 
Heartbeat CPU 3 instructions: 220000000 cycles: 305862182 heartbeat IPC: 0.581402 cumulative IPC: 0.573069 (Simulation time: 1 hr 7 min 36 sec) 
Heartbeat CPU 2 instructions: 230000000 cycles: 315470464 heartbeat IPC: 0.587675 cumulative IPC: 0.588071 (Simulation time: 1 hr 9 min 26 sec) 
Heartbeat CPU 0 instructions: 220000000 cycles: 318259812 heartbeat IPC: 0.55314 cumulative IPC: 0.551462 (Simulation time: 1 hr 10 min 1 sec) 
Heartbeat CPU 3 instructions: 230000002 cycles: 321551180 heartbeat IPC: 0.637389 cumulative IPC: 0.57636 (Simulation time: 1 hr 10 min 47 sec) 
Heartbeat CPU 1 instructions: 220000000 cycles: 321587367 heartbeat IPC: 0.541316 cumulative IPC: 0.554315 (Simulation time: 1 hr 10 min 48 sec) 
Heartbeat CPU 2 instructions: 240000002 cycles: 332983305 heartbeat IPC: 0.57101 cumulative IPC: 0.587131 (Simulation time: 1 hr 12 min 57 sec) 
Heartbeat CPU 0 instructions: 230000001 cycles: 335760012 heartbeat IPC: 0.571422 cumulative IPC: 0.55255 (Simulation time: 1 hr 13 min 26 sec) 
Heartbeat CPU 1 instructions: 230000000 cycles: 337582075 heartbeat IPC: 0.625207 cumulative IPC: 0.557829 (Simulation time: 1 hr 13 min 45 sec) 
Heartbeat CPU 3 instructions: 240000001 cycles: 338801882 heartbeat IPC: 0.579687 cumulative IPC: 0.576537 (Simulation time: 1 hr 13 min 59 sec) 
Heartbeat CPU 2 instructions: 250000001 cycles: 351215974 heartbeat IPC: 0.548466 cumulative IPC: 0.585035 (Simulation time: 1 hr 16 min 18 sec) 
Finished CPU 2 instructions: 200000001 cycles: 342110317 cumulative IPC: 0.584607 (Simulation time: 1 hr 17 min 20 sec) 
Heartbeat CPU 0 instructions: 240000000 cycles: 357522417 heartbeat IPC: 0.459508 cumulative IPC: 0.54664 (Simulation time: 1 hr 17 min 25 sec) 
Heartbeat CPU 3 instructions: 250000003 cycles: 358403037 heartbeat IPC: 0.510174 cumulative IPC: 0.57275 (Simulation time: 1 hr 17 min 36 sec) 
Heartbeat CPU 1 instructions: 240000000 cycles: 359675194 heartbeat IPC: 0.45263 cumulative IPC: 0.551088 (Simulation time: 1 hr 17 min 54 sec) 
Finished CPU 3 instructions: 200000002 cycles: 349038849 cumulative IPC: 0.573002 (Simulation time: 1 hr 18 min 34 sec) 
Heartbeat CPU 2 instructions: 260000000 cycles: 368416644 heartbeat IPC: 0.581373 cumulative IPC: 0.584857 (Simulation time: 1 hr 19 min 37 sec) 
Heartbeat CPU 0 instructions: 250000003 cycles: 376346232 heartbeat IPC: 0.531242 cumulative IPC: 0.545838 (Simulation time: 1 hr 21 min 7 sec) 
Heartbeat CPU 3 instructions: 260000000 cycles: 376459959 heartbeat IPC: 0.553804 cumulative IPC: 0.571804 (Simulation time: 1 hr 21 min 9 sec) 
Heartbeat CPU 1 instructions: 250000001 cycles: 378081971 heartbeat IPC: 0.543278 cumulative IPC: 0.550692 (Simulation time: 1 hr 21 min 29 sec) 
Finished CPU 1 instructions: 200000003 cycles: 363179444 cumulative IPC: 0.550692 (Simulation time: 1 hr 21 min 29 sec) 
Finished CPU 0 instructions: 200000003 cycles: 365984465 cumulative IPC: 0.546471 (Simulation time: 1 hr 22 min 5 sec) 

ChampSim completed all CPUs

Total Simulation Statistics (not including warmup)

CPU 0 cumulative IPC: 0.546471 instructions: 200000003 cycles: 365984465
ITLB TOTAL     ACCESS:   30549348  HIT:   28490245  MISS:    2059103  HIT %:    93.2597  MISS %:    6.74025   MPKI: 10.2955
ITLB LOAD      ACCESS:          0  HIT:          0  MISS:          0  HIT %:       -nan  MISS %:       -nan   MPKI: 0
ITLB RFO       ACCESS:          0  HIT:          0  MISS:          0  HIT %:       -nan  MISS %:       -nan   MPKI: 0
ITLB PREFETCH  ACCESS:          0  HIT:          0  MISS:          0  HIT %:       -nan  MISS %:       -nan   MPKI: 0
ITLB WRITEBACK ACCESS:          0  HIT:          0  MISS:          0  HIT %:       -nan  MISS %:       -nan   MPKI: 0
DTLB TOTAL     ACCESS:   18695425  HIT:   11533022  MISS:    7162403  HIT %:     61.689  MISS %:     38.311   MPKI: 35.812
DTLB LOAD      ACCESS:          0  HIT:          0  MISS:          0  HIT %:       -nan  MISS %:       -nan   MPKI: 0
DTLB RFO       ACCESS:          0  HIT:          0  MISS:          0  HIT %:       -nan  MISS %:       -nan   MPKI: 0
DTLB PREFETCH  ACCESS:          0  HIT:          0  MISS:          0  HIT %:       -nan  MISS %:       -nan   MPKI: 0
DTLB WRITEBACK ACCESS:          0  HIT:          0  MISS:          0  HIT %:       -nan  MISS %:       -nan   MPKI: 0
STLB TOTAL     ACCESS:   12044435  HIT:    6202637  MISS:    5841798  HIT %:    51.4979  MISS %:    48.5021   MPKI: 29.209
STLB LOAD      ACCESS:          0  HIT:          0  MISS:          0  HIT %:       -nan  MISS %:       -nan   MPKI: 0
STLB RFO       ACCESS:          0  HIT:          0  MISS:          0  HIT %:       -nan  MISS %:       -nan   MPKI: 0
STLB PREFETCH  ACCESS:          0  HIT:          0  MISS:          0  HIT %:       -nan  MISS %:       -nan   MPKI: 0
STLB WRITEBACK ACCESS:          0  HIT:          0  MISS:          0  HIT %:       -nan  MISS %:       -nan   MPKI: 0
L1D TOTAL     ACCESS:   31792483  HIT:   29952017  MISS:    1840466  HIT %:     94.211  MISS %:      5.789   MPKI: 9.20233
L1D LOAD      ACCESS:   15258669  HIT:   14006936  MISS:    1251733  HIT %:    91.7966  MISS %:    8.20342   MPKI: 6.25866
L1D RFO       ACCESS:    7836088  HIT:    7582509  MISS:     253579  HIT %:     96.764  MISS %:    3.23604   MPKI: 1.26789
L1D PREFETCH  ACCESS:    8697726  HIT:    8362572  MISS:     335154  HIT %:    96.1466  MISS %:    3.85335   MPKI: 1.67577
L1D WRITEBACK ACCESS:          0  HIT:          0  MISS:          0  HIT %:       -nan  MISS %:       -nan   MPKI: 0
L1I TOTAL     ACCESS:   39270945  HIT:   38100644  MISS:    1170301  HIT %:    97.0199  MISS %:    2.98007   MPKI: 5.8515
L1I LOAD      ACCESS:   39270945  HIT:   38100644  MISS:    1170301  HIT %:    97.0199  MISS %:    2.98007   MPKI: 5.8515
L1I RFO       ACCESS:          0  HIT:          0  MISS:          0  HIT %:       -nan  MISS %:       -nan   MPKI: 0
L1I PREFETCH  ACCESS:          0  HIT:          0  MISS:          0  HIT %:       -nan  MISS %:       -nan   MPKI: 0
L1I WRITEBACK ACCESS:          0  HIT:          0  MISS:          0  HIT %:       -nan  MISS %:       -nan   MPKI: 0
L2C TOTAL     ACCESS:   14357098  HIT:   12060579  MISS:    2296519  HIT %:    84.0043  MISS %:    15.9957   MPKI: 11.4826
L2C LOAD      ACCESS:    2404321  HIT:    1155803  MISS:    1248518  HIT %:    48.0719  MISS %:    51.9281   MPKI: 6.24259
L2C RFO       ACCESS:     253563  HIT:     108404  MISS:     145159  HIT %:    42.7523  MISS %:    57.2477   MPKI: 0.725795
L2C PREFETCH  ACCESS:    4645223  HIT:    4049935  MISS:     595288  HIT %:    87.1849  MISS %:    12.8151   MPKI: 2.97644
L2C WRITEBACK ACCESS:     637800  HIT:     586783  MISS:      51017  HIT %:    92.0011  MISS %:     7.9989   MPKI: 0.255085
PSCL5 TOTAL     ACCESS:    5937398  HIT:    5937398  MISS:          0  HIT %:        100  MISS %:          0   MPKI: 0
PSCL5 LOAD      ACCESS:          0  HIT:          0  MISS:          0  HIT %:       -nan  MISS %:       -nan   MPKI: 0
PSCL5 RFO       ACCESS:          0  HIT:          0  MISS:          0  HIT %:       -nan  MISS %:       -nan   MPKI: 0
PSCL5 PREFETCH  ACCESS:          0  HIT:          0  MISS:          0  HIT %:       -nan  MISS %:       -nan   MPKI: 0
PSCL5 WRITEBACK ACCESS:          0  HIT:          0  MISS:          0  HIT %:       -nan  MISS %:       -nan   MPKI: 0
PSCL4 TOTAL     ACCESS:    5903944  HIT:    5903324  MISS:        620  HIT %:    99.9895  MISS %:  0.0105015   MPKI: 0.0031
PSCL4 LOAD      ACCESS:          0  HIT:          0  MISS:          0  HIT %:       -nan  MISS %:       -nan   MPKI: 0
PSCL4 RFO       ACCESS:          0  HIT:          0  MISS:          0  HIT %:       -nan  MISS %:       -nan   MPKI: 0
PSCL4 PREFETCH  ACCESS:          0  HIT:          0  MISS:          0  HIT %:       -nan  MISS %:       -nan   MPKI: 0
PSCL4 WRITEBACK ACCESS:          0  HIT:          0  MISS:          0  HIT %:       -nan  MISS %:       -nan   MPKI: 0
PSCL3 TOTAL     ACCESS:    5899443  HIT:    5888688  MISS:      10755  HIT %:    99.8177  MISS %:   0.182305   MPKI: 0.053775
PSCL3 LOAD      ACCESS:          0  HIT:          0  MISS:          0  HIT %:       -nan  MISS %:       -nan   MPKI: 0
PSCL3 RFO       ACCESS:          0  HIT:          0  MISS:          0  HIT %:       -nan  MISS %:       -nan   MPKI: 0
PSCL3 PREFETCH  ACCESS:          0  HIT:          0  MISS:          0  HIT %:       -nan  MISS %:       -nan   MPKI: 0
PSCL3 WRITEBACK ACCESS:          0  HIT:          0  MISS:          0  HIT %:       -nan  MISS %:       -nan   MPKI: 0
PSCL2 TOTAL     ACCESS:    5936151  HIT:    5469676  MISS:     466475  HIT %:    92.1418  MISS %:    7.85821   MPKI: 2.33237
PSCL2 LOAD      ACCESS:          0  HIT:          0  MISS:          0  HIT %:       -nan  MISS %:       -nan   MPKI: 0
PSCL2 RFO       ACCESS:          0  HIT:          0  MISS:          0  HIT %:       -nan  MISS %:       -nan   MPKI: 0
PSCL2 PREFETCH  ACCESS:          0  HIT:          0  MISS:          0  HIT %:       -nan  MISS %:       -nan   MPKI: 0
PSCL2 WRITEBACK ACCESS:          0  HIT:          0  MISS:          0  HIT %:       -nan  MISS %:       -nan   MPKI: 0
LLC TOTAL     ACCESS:    2776305  HIT:    1219946  MISS:    1556359  HIT %:    43.9414  MISS %:    56.0586   MPKI: 7.78179
LLC LOAD      ACCESS:    1236126  HIT:     509689  MISS:     726437  HIT %:    41.2328  MISS %:    58.7672   MPKI: 3.63218
LLC RFO       ACCESS:     143926  HIT:      36874  MISS:     107052  HIT %:    25.6201  MISS %:    74.3799   MPKI: 0.53526
LLC PREFETCH  ACCESS:     608909  HIT:      39994  MISS:     568915  HIT %:    6.56814  MISS %:    93.4319   MPKI: 2.84457
LLC WRITEBACK ACCESS:     530807  HIT:     502249  MISS:      28558  HIT %:    94.6199  MISS %:    5.38011   MPKI: 0.14279

RAW hits: 1410586
Loads Generated: 27824830
Loads sent to L1D: 26414242
Stores Generated: 9001568
Stores sent to L1D: 9001567

CPU 1 cumulative IPC: 0.550564 instructions: 201497739 cycles: 365984465
ITLB TOTAL     ACCESS:   31804195  HIT:   29615410  MISS:    2188785  HIT %:    93.1179  MISS %:    6.88206   MPKI: 10.8626
ITLB LOAD      ACCESS:          0  HIT:          0  MISS:          0  HIT %:       -nan  MISS %:       -nan   MPKI: 0
ITLB RFO       ACCESS:          0  HIT:          0  MISS:          0  HIT %:       -nan  MISS %:       -nan   MPKI: 0
ITLB PREFETCH  ACCESS:          0  HIT:          0  MISS:          0  HIT %:       -nan  MISS %:       -nan   MPKI: 0
ITLB WRITEBACK ACCESS:          0  HIT:          0  MISS:          0  HIT %:       -nan  MISS %:       -nan   MPKI: 0
DTLB TOTAL     ACCESS:   19530508  HIT:   12757004  MISS:    6773504  HIT %:    65.3183  MISS %:    34.6817   MPKI: 33.6158
DTLB LOAD      ACCESS:          0  HIT:          0  MISS:          0  HIT %:       -nan  MISS %:       -nan   MPKI: 0
DTLB RFO       ACCESS:          0  HIT:          0  MISS:          0  HIT %:       -nan  MISS %:       -nan   MPKI: 0
DTLB PREFETCH  ACCESS:          0  HIT:          0  MISS:          0  HIT %:       -nan  MISS %:       -nan   MPKI: 0
DTLB WRITEBACK ACCESS:          0  HIT:          0  MISS:          0  HIT %:       -nan  MISS %:       -nan   MPKI: 0
STLB TOTAL     ACCESS:   13254873  HIT:    7172790  MISS:    6082083  HIT %:    54.1144  MISS %:    45.8856   MPKI: 30.1844
STLB LOAD      ACCESS:          0  HIT:          0  MISS:          0  HIT %:       -nan  MISS %:       -nan   MPKI: 0
STLB RFO       ACCESS:          0  HIT:          0  MISS:          0  HIT %:       -nan  MISS %:       -nan   MPKI: 0
STLB PREFETCH  ACCESS:          0  HIT:          0  MISS:          0  HIT %:       -nan  MISS %:       -nan   MPKI: 0
STLB WRITEBACK ACCESS:          0  HIT:          0  MISS:          0  HIT %:       -nan  MISS %:       -nan   MPKI: 0
L1D TOTAL     ACCESS:   37503367  HIT:   35215546  MISS:    2287821  HIT %:    93.8997  MISS %:    6.10031   MPKI: 11.3541
L1D LOAD      ACCESS:   15964701  HIT:   14495000  MISS:    1469701  HIT %:    90.7941  MISS %:    9.20594   MPKI: 7.29388
L1D RFO       ACCESS:    7914956  HIT:    7636979  MISS:     277977  HIT %:     96.488  MISS %:    3.51205   MPKI: 1.37955
L1D PREFETCH  ACCESS:   13623710  HIT:   13083567  MISS:     540143  HIT %:    96.0353  MISS %:    3.96473   MPKI: 2.68064
L1D WRITEBACK ACCESS:          0  HIT:          0  MISS:          0  HIT %:       -nan  MISS %:       -nan   MPKI: 0
L1I TOTAL     ACCESS:   39437132  HIT:   37862028  MISS:    1575104  HIT %:     96.006  MISS %:    3.99396   MPKI: 7.81698
L1I LOAD      ACCESS:   39437132  HIT:   37862028  MISS:    1575104  HIT %:     96.006  MISS %:    3.99396   MPKI: 7.81698
L1I RFO       ACCESS:          0  HIT:          0  MISS:          0  HIT %:       -nan  MISS %:       -nan   MPKI: 0
L1I PREFETCH  ACCESS:          0  HIT:          0  MISS:          0  HIT %:       -nan  MISS %:       -nan   MPKI: 0
L1I WRITEBACK ACCESS:          0  HIT:          0  MISS:          0  HIT %:       -nan  MISS %:       -nan   MPKI: 0
L2C TOTAL     ACCESS:   16251635  HIT:   13559563  MISS:    2692072  HIT %:    83.4351  MISS %:    16.5649   MPKI: 13.3603
L2C LOAD      ACCESS:    3015618  HIT:    1700317  MISS:    1315301  HIT %:    56.3837  MISS %:    43.6163   MPKI: 6.52762
L2C RFO       ACCESS:     277913  HIT:     123289  MISS:     154624  HIT %:    44.3624  MISS %:    55.6376   MPKI: 0.767373
L2C PREFETCH  ACCESS:    5486909  HIT:    4545744  MISS:     941165  HIT %:    82.8471  MISS %:    17.1529   MPKI: 4.67085
L2C WRITEBACK ACCESS:     725402  HIT:     674706  MISS:      50696  HIT %:    93.0113  MISS %:    6.98868   MPKI: 0.251596
PSCL5 TOTAL     ACCESS:    6211096  HIT:    6211096  MISS:          0  HIT %:        100  MISS %:          0   MPKI: 0
PSCL5 LOAD      ACCESS:          0  HIT:          0  MISS:          0  HIT %:       -nan  MISS %:       -nan   MPKI: 0
PSCL5 RFO       ACCESS:          0  HIT:          0  MISS:          0  HIT %:       -nan  MISS %:       -nan   MPKI: 0
PSCL5 PREFETCH  ACCESS:          0  HIT:          0  MISS:          0  HIT %:       -nan  MISS %:       -nan   MPKI: 0
PSCL5 WRITEBACK ACCESS:          0  HIT:          0  MISS:          0  HIT %:       -nan  MISS %:       -nan   MPKI: 0
PSCL4 TOTAL     ACCESS:    5963908  HIT:    5963363  MISS:        545  HIT %:    99.9909  MISS %:  0.0091383   MPKI: 0.00270474
PSCL4 LOAD      ACCESS:          0  HIT:          0  MISS:          0  HIT %:       -nan  MISS %:       -nan   MPKI: 0
PSCL4 RFO       ACCESS:          0  HIT:          0  MISS:          0  HIT %:       -nan  MISS %:       -nan   MPKI: 0
PSCL4 PREFETCH  ACCESS:          0  HIT:          0  MISS:          0  HIT %:       -nan  MISS %:       -nan   MPKI: 0
PSCL4 WRITEBACK ACCESS:          0  HIT:          0  MISS:          0  HIT %:       -nan  MISS %:       -nan   MPKI: 0
PSCL3 TOTAL     ACCESS:    6172914  HIT:    6157435  MISS:      15479  HIT %:    99.7492  MISS %:   0.250757   MPKI: 0.0768197
PSCL3 LOAD      ACCESS:          0  HIT:          0  MISS:          0  HIT %:       -nan  MISS %:       -nan   MPKI: 0
PSCL3 RFO       ACCESS:          0  HIT:          0  MISS:          0  HIT %:       -nan  MISS %:       -nan   MPKI: 0
PSCL3 PREFETCH  ACCESS:          0  HIT:          0  MISS:          0  HIT %:       -nan  MISS %:       -nan   MPKI: 0
PSCL3 WRITEBACK ACCESS:          0  HIT:          0  MISS:          0  HIT %:       -nan  MISS %:       -nan   MPKI: 0
PSCL2 TOTAL     ACCESS:    6209193  HIT:    5691997  MISS:     517196  HIT %:    91.6705  MISS %:    8.32952   MPKI: 2.56676
PSCL2 LOAD      ACCESS:          0  HIT:          0  MISS:          0  HIT %:       -nan  MISS %:       -nan   MPKI: 0
PSCL2 RFO       ACCESS:          0  HIT:          0  MISS:          0  HIT %:       -nan  MISS %:       -nan   MPKI: 0
PSCL2 PREFETCH  ACCESS:          0  HIT:          0  MISS:          0  HIT %:       -nan  MISS %:       -nan   MPKI: 0
PSCL2 WRITEBACK ACCESS:          0  HIT:          0  MISS:          0  HIT %:       -nan  MISS %:       -nan   MPKI: 0
LLC TOTAL     ACCESS:    3204735  HIT:    1287013  MISS:    1917722  HIT %:    40.1597  MISS %:    59.8403   MPKI: 9.51734
LLC LOAD      ACCESS:    1246092  HIT:     512942  MISS:     733150  HIT %:    41.1641  MISS %:    58.8359   MPKI: 3.6385
LLC RFO       ACCESS:     152769  HIT:      44981  MISS:     107788  HIT %:    29.4438  MISS %:    70.5562   MPKI: 0.534934
LLC PREFETCH  ACCESS:    1012226  HIT:      73560  MISS:     938666  HIT %:    7.26715  MISS %:    92.7328   MPKI: 4.65844
LLC WRITEBACK ACCESS:     563362  HIT:     542620  MISS:      20742  HIT %:    96.3182  MISS %:    3.68182   MPKI: 0.102939

RAW hits: 1451119
Loads Generated: 28993983
Loads sent to L1D: 27542864
Stores Generated: 9163313
Stores sent to L1D: 9163311

CPU 2 cumulative IPC: 0.587288 instructions: 214938219 cycles: 365984466
ITLB TOTAL     ACCESS:   33187700  HIT:   31195339  MISS:    1992361  HIT %:    93.9967  MISS %:    6.00331   MPKI: 9.26946
ITLB LOAD      ACCESS:          0  HIT:          0  MISS:          0  HIT %:       -nan  MISS %:       -nan   MPKI: 0
ITLB RFO       ACCESS:          0  HIT:          0  MISS:          0  HIT %:       -nan  MISS %:       -nan   MPKI: 0
ITLB PREFETCH  ACCESS:          0  HIT:          0  MISS:          0  HIT %:       -nan  MISS %:       -nan   MPKI: 0
ITLB WRITEBACK ACCESS:          0  HIT:          0  MISS:          0  HIT %:       -nan  MISS %:       -nan   MPKI: 0
DTLB TOTAL     ACCESS:   19642599  HIT:   12416913  MISS:    7225686  HIT %:    63.2142  MISS %:    36.7858   MPKI: 33.6175
DTLB LOAD      ACCESS:          0  HIT:          0  MISS:          0  HIT %:       -nan  MISS %:       -nan   MPKI: 0
DTLB RFO       ACCESS:          0  HIT:          0  MISS:          0  HIT %:       -nan  MISS %:       -nan   MPKI: 0
DTLB PREFETCH  ACCESS:          0  HIT:          0  MISS:          0  HIT %:       -nan  MISS %:       -nan   MPKI: 0
DTLB WRITEBACK ACCESS:          0  HIT:          0  MISS:          0  HIT %:       -nan  MISS %:       -nan   MPKI: 0
STLB TOTAL     ACCESS:   12962510  HIT:    7128026  MISS:    5834484  HIT %:    54.9896  MISS %:    45.0104   MPKI: 27.1449
STLB LOAD      ACCESS:          0  HIT:          0  MISS:          0  HIT %:       -nan  MISS %:       -nan   MPKI: 0
STLB RFO       ACCESS:          0  HIT:          0  MISS:          0  HIT %:       -nan  MISS %:       -nan   MPKI: 0
STLB PREFETCH  ACCESS:          0  HIT:          0  MISS:          0  HIT %:       -nan  MISS %:       -nan   MPKI: 0
STLB WRITEBACK ACCESS:          0  HIT:          0  MISS:          0  HIT %:       -nan  MISS %:       -nan   MPKI: 0
L1D TOTAL     ACCESS:   35211036  HIT:   33496483  MISS:    1714553  HIT %:    95.1306  MISS %:    4.86936   MPKI: 7.97696
L1D LOAD      ACCESS:   16205079  HIT:   15152541  MISS:    1052538  HIT %:    93.5049  MISS %:    6.49511   MPKI: 4.89693
L1D RFO       ACCESS:    7658288  HIT:    7427895  MISS:     230393  HIT %:    96.9916  MISS %:    3.00841   MPKI: 1.0719
L1D PREFETCH  ACCESS:   11347669  HIT:   10916047  MISS:     431622  HIT %:    96.1964  MISS %:    3.80362   MPKI: 2.00812
L1D WRITEBACK ACCESS:          0  HIT:          0  MISS:          0  HIT %:       -nan  MISS %:       -nan   MPKI: 0
L1I TOTAL     ACCESS:   42383083  HIT:   41809445  MISS:     573638  HIT %:    98.6465  MISS %:    1.35346   MPKI: 2.66885
L1I LOAD      ACCESS:   42383083  HIT:   41809445  MISS:     573638  HIT %:    98.6465  MISS %:    1.35346   MPKI: 2.66885
L1I RFO       ACCESS:          0  HIT:          0  MISS:          0  HIT %:       -nan  MISS %:       -nan   MPKI: 0
L1I PREFETCH  ACCESS:          0  HIT:          0  MISS:          0  HIT %:       -nan  MISS %:       -nan   MPKI: 0
L1I WRITEBACK ACCESS:          0  HIT:          0  MISS:          0  HIT %:       -nan  MISS %:       -nan   MPKI: 0
L2C TOTAL     ACCESS:   14578449  HIT:   12422635  MISS:    2155814  HIT %:    85.2123  MISS %:    14.7877   MPKI: 10.0299
L2C LOAD      ACCESS:    1609290  HIT:     552330  MISS:    1056960  HIT %:    34.3213  MISS %:    65.6787   MPKI: 4.91751
L2C RFO       ACCESS:     230304  HIT:      92658  MISS:     137646  HIT %:    40.2329  MISS %:    59.7671   MPKI: 0.640398
L2C PREFETCH  ACCESS:    5820209  HIT:    5144858  MISS:     675351  HIT %:    88.3964  MISS %:    11.6036   MPKI: 3.14207
L2C WRITEBACK ACCESS:     572465  HIT:     527382  MISS:      45083  HIT %:    92.1248  MISS %:    7.87524   MPKI: 0.209749
PSCL5 TOTAL     ACCESS:    5927009  HIT:    5927009  MISS:          0  HIT %:        100  MISS %:          0   MPKI: 0
PSCL5 LOAD      ACCESS:          0  HIT:          0  MISS:          0  HIT %:       -nan  MISS %:       -nan   MPKI: 0
PSCL5 RFO       ACCESS:          0  HIT:          0  MISS:          0  HIT %:       -nan  MISS %:       -nan   MPKI: 0
PSCL5 PREFETCH  ACCESS:          0  HIT:          0  MISS:          0  HIT %:       -nan  MISS %:       -nan   MPKI: 0
PSCL5 WRITEBACK ACCESS:          0  HIT:          0  MISS:          0  HIT %:       -nan  MISS %:       -nan   MPKI: 0
PSCL4 TOTAL     ACCESS:    5905471  HIT:    5904812  MISS:        659  HIT %:    99.9888  MISS %:  0.0111591   MPKI: 0.003066
PSCL4 LOAD      ACCESS:          0  HIT:          0  MISS:          0  HIT %:       -nan  MISS %:       -nan   MPKI: 0
PSCL4 RFO       ACCESS:          0  HIT:          0  MISS:          0  HIT %:       -nan  MISS %:       -nan   MPKI: 0
PSCL4 PREFETCH  ACCESS:          0  HIT:          0  MISS:          0  HIT %:       -nan  MISS %:       -nan   MPKI: 0
PSCL4 WRITEBACK ACCESS:          0  HIT:          0  MISS:          0  HIT %:       -nan  MISS %:       -nan   MPKI: 0
PSCL3 TOTAL     ACCESS:    5907367  HIT:    5900446  MISS:       6921  HIT %:    99.8828  MISS %:   0.117159   MPKI: 0.0322
PSCL3 LOAD      ACCESS:          0  HIT:          0  MISS:          0  HIT %:       -nan  MISS %:       -nan   MPKI: 0
PSCL3 RFO       ACCESS:          0  HIT:          0  MISS:          0  HIT %:       -nan  MISS %:       -nan   MPKI: 0
PSCL3 PREFETCH  ACCESS:          0  HIT:          0  MISS:          0  HIT %:       -nan  MISS %:       -nan   MPKI: 0
PSCL3 WRITEBACK ACCESS:          0  HIT:          0  MISS:          0  HIT %:       -nan  MISS %:       -nan   MPKI: 0
PSCL2 TOTAL     ACCESS:    5925914  HIT:    5514955  MISS:     410959  HIT %:    93.0651  MISS %:    6.93495   MPKI: 1.91199
PSCL2 LOAD      ACCESS:          0  HIT:          0  MISS:          0  HIT %:       -nan  MISS %:       -nan   MPKI: 0
PSCL2 RFO       ACCESS:          0  HIT:          0  MISS:          0  HIT %:       -nan  MISS %:       -nan   MPKI: 0
PSCL2 PREFETCH  ACCESS:          0  HIT:          0  MISS:          0  HIT %:       -nan  MISS %:       -nan   MPKI: 0
PSCL2 WRITEBACK ACCESS:          0  HIT:          0  MISS:          0  HIT %:       -nan  MISS %:       -nan   MPKI: 0
LLC TOTAL     ACCESS:    2613187  HIT:     995297  MISS:    1617890  HIT %:    38.0875  MISS %:    61.9125   MPKI: 7.52723
LLC LOAD      ACCESS:    1045017  HIT:     336627  MISS:     708390  HIT %:    32.2126  MISS %:    67.7874   MPKI: 3.29578
LLC RFO       ACCESS:     135137  HIT:      27741  MISS:     107396  HIT %:    20.5281  MISS %:    79.4719   MPKI: 0.49966
LLC PREFETCH  ACCESS:     689801  HIT:      39995  MISS:     649806  HIT %:    5.79805  MISS %:     94.202   MPKI: 3.02322
LLC WRITEBACK ACCESS:     502458  HIT:     469291  MISS:      33167  HIT %:    93.3991  MISS %:    6.60095   MPKI: 0.154309

RAW hits: 1536435
Loads Generated: 29612692
Loads sent to L1D: 28076257
Stores Generated: 8802761
Stores sent to L1D: 8802760

CPU 3 cumulative IPC: 0.571559 instructions: 209181735 cycles: 365984466
ITLB TOTAL     ACCESS:   32115598  HIT:   30231327  MISS:    1884271  HIT %:    94.1328  MISS %:    5.86715   MPKI: 9.00782
ITLB LOAD      ACCESS:          0  HIT:          0  MISS:          0  HIT %:       -nan  MISS %:       -nan   MPKI: 0
ITLB RFO       ACCESS:          0  HIT:          0  MISS:          0  HIT %:       -nan  MISS %:       -nan   MPKI: 0
ITLB PREFETCH  ACCESS:          0  HIT:          0  MISS:          0  HIT %:       -nan  MISS %:       -nan   MPKI: 0
ITLB WRITEBACK ACCESS:          0  HIT:          0  MISS:          0  HIT %:       -nan  MISS %:       -nan   MPKI: 0
DTLB TOTAL     ACCESS:   18972550  HIT:   11988516  MISS:    6984034  HIT %:    63.1887  MISS %:    36.8113   MPKI: 33.3874
DTLB LOAD      ACCESS:          0  HIT:          0  MISS:          0  HIT %:       -nan  MISS %:       -nan   MPKI: 0
DTLB RFO       ACCESS:          0  HIT:          0  MISS:          0  HIT %:       -nan  MISS %:       -nan   MPKI: 0
DTLB PREFETCH  ACCESS:          0  HIT:          0  MISS:          0  HIT %:       -nan  MISS %:       -nan   MPKI: 0
DTLB WRITEBACK ACCESS:          0  HIT:          0  MISS:          0  HIT %:       -nan  MISS %:       -nan   MPKI: 0
STLB TOTAL     ACCESS:   12468754  HIT:    6749535  MISS:    5719219  HIT %:    54.1316  MISS %:    45.8684   MPKI: 27.3409
STLB LOAD      ACCESS:          0  HIT:          0  MISS:          0  HIT %:       -nan  MISS %:       -nan   MPKI: 0
STLB RFO       ACCESS:          0  HIT:          0  MISS:          0  HIT %:       -nan  MISS %:       -nan   MPKI: 0
STLB PREFETCH  ACCESS:          0  HIT:          0  MISS:          0  HIT %:       -nan  MISS %:       -nan   MPKI: 0
STLB WRITEBACK ACCESS:          0  HIT:          0  MISS:          0  HIT %:       -nan  MISS %:       -nan   MPKI: 0
L1D TOTAL     ACCESS:   34318324  HIT:   32521548  MISS:    1796776  HIT %:    94.7644  MISS %:    5.23562   MPKI: 8.58955
L1D LOAD      ACCESS:   15683473  HIT:   14571656  MISS:    1111817  HIT %:    92.9109  MISS %:     7.0891   MPKI: 5.31508
L1D RFO       ACCESS:    7378377  HIT:    7141855  MISS:     236522  HIT %:    96.7944  MISS %:    3.20561   MPKI: 1.1307
L1D PREFETCH  ACCESS:   11256474  HIT:   10808037  MISS:     448437  HIT %:    96.0162  MISS %:    3.98381   MPKI: 2.14377
L1D WRITEBACK ACCESS:          0  HIT:          0  MISS:          0  HIT %:       -nan  MISS %:       -nan   MPKI: 0
L1I TOTAL     ACCESS:   41045077  HIT:   40463530  MISS:     581547  HIT %:    98.5832  MISS %:    1.41685   MPKI: 2.7801
L1I LOAD      ACCESS:   41045077  HIT:   40463530  MISS:     581547  HIT %:    98.5832  MISS %:    1.41685   MPKI: 2.7801
L1I RFO       ACCESS:          0  HIT:          0  MISS:          0  HIT %:       -nan  MISS %:       -nan   MPKI: 0
L1I PREFETCH  ACCESS:          0  HIT:          0  MISS:          0  HIT %:       -nan  MISS %:       -nan   MPKI: 0
L1I WRITEBACK ACCESS:          0  HIT:          0  MISS:          0  HIT %:       -nan  MISS %:       -nan   MPKI: 0
L2C TOTAL     ACCESS:   13755903  HIT:   11584017  MISS:    2171886  HIT %:    84.2112  MISS %:    15.7888   MPKI: 10.3828
L2C LOAD      ACCESS:    1674568  HIT:     612527  MISS:    1062041  HIT %:    36.5782  MISS %:    63.4218   MPKI: 5.07712
L2C RFO       ACCESS:     236473  HIT:      92622  MISS:     143851  HIT %:    39.1681  MISS %:    60.8319   MPKI: 0.687684
L2C PREFETCH  ACCESS:    5057572  HIT:    4387571  MISS:     670001  HIT %:    86.7525  MISS %:    13.2475   MPKI: 3.20296
L2C WRITEBACK ACCESS:     563963  HIT:     522287  MISS:      41676  HIT %:    92.6102  MISS %:    7.38985   MPKI: 0.199233
PSCL5 TOTAL     ACCESS:    5812301  HIT:    5812301  MISS:          0  HIT %:        100  MISS %:          0   MPKI: 0
PSCL5 LOAD      ACCESS:          0  HIT:          0  MISS:          0  HIT %:       -nan  MISS %:       -nan   MPKI: 0
PSCL5 RFO       ACCESS:          0  HIT:          0  MISS:          0  HIT %:       -nan  MISS %:       -nan   MPKI: 0
PSCL5 PREFETCH  ACCESS:          0  HIT:          0  MISS:          0  HIT %:       -nan  MISS %:       -nan   MPKI: 0
PSCL5 WRITEBACK ACCESS:          0  HIT:          0  MISS:          0  HIT %:       -nan  MISS %:       -nan   MPKI: 0
PSCL4 TOTAL     ACCESS:    5741970  HIT:    5741414  MISS:        556  HIT %:    99.9903  MISS %: 0.00968309   MPKI: 0.00265798
PSCL4 LOAD      ACCESS:          0  HIT:          0  MISS:          0  HIT %:       -nan  MISS %:       -nan   MPKI: 0
PSCL4 RFO       ACCESS:          0  HIT:          0  MISS:          0  HIT %:       -nan  MISS %:       -nan   MPKI: 0
PSCL4 PREFETCH  ACCESS:          0  HIT:          0  MISS:          0  HIT %:       -nan  MISS %:       -nan   MPKI: 0
PSCL4 WRITEBACK ACCESS:          0  HIT:          0  MISS:          0  HIT %:       -nan  MISS %:       -nan   MPKI: 0
PSCL3 TOTAL     ACCESS:    5795535  HIT:    5789946  MISS:       5589  HIT %:    99.9036  MISS %:  0.0964363   MPKI: 0.0267184
PSCL3 LOAD      ACCESS:          0  HIT:          0  MISS:          0  HIT %:       -nan  MISS %:       -nan   MPKI: 0
PSCL3 RFO       ACCESS:          0  HIT:          0  MISS:          0  HIT %:       -nan  MISS %:       -nan   MPKI: 0
PSCL3 PREFETCH  ACCESS:          0  HIT:          0  MISS:          0  HIT %:       -nan  MISS %:       -nan   MPKI: 0
PSCL3 WRITEBACK ACCESS:          0  HIT:          0  MISS:          0  HIT %:       -nan  MISS %:       -nan   MPKI: 0
PSCL2 TOTAL     ACCESS:    5811133  HIT:    5407080  MISS:     404053  HIT %:    93.0469  MISS %:    6.95308   MPKI: 1.93159
PSCL2 LOAD      ACCESS:          0  HIT:          0  MISS:          0  HIT %:       -nan  MISS %:       -nan   MPKI: 0
PSCL2 RFO       ACCESS:          0  HIT:          0  MISS:          0  HIT %:       -nan  MISS %:       -nan   MPKI: 0
PSCL2 PREFETCH  ACCESS:          0  HIT:          0  MISS:          0  HIT %:       -nan  MISS %:       -nan   MPKI: 0
PSCL2 WRITEBACK ACCESS:          0  HIT:          0  MISS:          0  HIT %:       -nan  MISS %:       -nan   MPKI: 0
LLC TOTAL     ACCESS:    2624440  HIT:     988154  MISS:    1636286  HIT %:     37.652  MISS %:     62.348   MPKI: 7.82232
LLC LOAD      ACCESS:    1050279  HIT:     328170  MISS:     722109  HIT %:     31.246  MISS %:     68.754   MPKI: 3.45207
LLC RFO       ACCESS:     142174  HIT:      28434  MISS:     113740  HIT %:    19.9994  MISS %:    80.0006   MPKI: 0.543738
LLC PREFETCH  ACCESS:     683440  HIT:      41576  MISS:     641864  HIT %:    6.08334  MISS %:    93.9167   MPKI: 3.06845
LLC WRITEBACK ACCESS:     494230  HIT:     462746  MISS:      31484  HIT %:    93.6297  MISS %:    6.37031   MPKI: 0.15051

RAW hits: 1437797
Loads Generated: 28835514
Loads sent to L1D: 27397717
Stores Generated: 8527714
Stores sent to L1D: 8527714

Region of Interest Statistics

CPU 0 cumulative IPC: 0.546471 instructions: 200000003 cycles: 365984465
ITLB TOTAL     ACCESS:   30549348  HIT:   28490245  MISS:    2059103  HIT %:    93.2597  MISS %:    6.74025   MPKI: 10.2955
ITLB LOAD TRANSLATION ACCESS:   30549348  HIT:   28490245  MISS:    2059103  HIT %:    93.2597  MISS %:    6.74025   MPKI: 10.2955
ITLB PREFETCH  REQUESTED:          0  ISSUED:          0  USEFUL:          0  USELESS:          0
ITLB USEFUL LOAD PREFETCHES:          0 PREFETCH ISSUED TO LOWER LEVEL:          0  ACCURACY: -nan
ITLB TIMELY PREFETCHES:          0 LATE PREFETCHES: 0 DROPPED PREFETCHES: 0
ITLB PREFETCHES SAME FILL-ORIGIN LEVEL: 0 DIFFERENT FILL-ORIGIN LEVEL: 0
ITLB AVERAGE MISS LATENCY: 37.0802 cycles
ITLB RQ	ACCESS:   39769800	FORWARD:          0	MERGED:    8204342	TO_CACHE:   31565458

DTLB TOTAL     ACCESS:   18695425  HIT:   11533022  MISS:    7162403  HIT %:     61.689  MISS %:     38.311   MPKI: 35.812
DTLB LOAD TRANSLATION ACCESS:   18695425  HIT:   11533022  MISS:    7162403  HIT %:     61.689  MISS %:     38.311   MPKI: 35.812
DTLB PREFETCH  REQUESTED:          0  ISSUED:          0  USEFUL:          0  USELESS:          0
DTLB USEFUL LOAD PREFETCHES:          0 PREFETCH ISSUED TO LOWER LEVEL:          0  ACCURACY: -nan
DTLB TIMELY PREFETCHES:          0 LATE PREFETCHES: 0 DROPPED PREFETCHES: 0
DTLB PREFETCHES SAME FILL-ORIGIN LEVEL: 0 DIFFERENT FILL-ORIGIN LEVEL: 0
DTLB AVERAGE MISS LATENCY: 31.4678 cycles
DTLB RQ	ACCESS:   23903605	FORWARD:          0	MERGED:    4344667	TO_CACHE:   19558938

STLB TOTAL     ACCESS:   12044435  HIT:    6202637  MISS:    5841798  HIT %:    51.4979  MISS %:    48.5021   MPKI: 29.209
STLB LOAD TRANSLATION ACCESS:    9221506  HIT:    3445594  MISS:    5775912  HIT %:    37.3648  MISS %:    62.6352   MPKI: 28.8796
STLB TRANSLATION FROM L1D PREFETCHER ACCESS:    2822929  HIT:    2757043  MISS:      65886  HIT %:     97.666  MISS %:    2.33396   MPKI: 0.32943
STLB PREFETCH  REQUESTED:          0  ISSUED:          0  USEFUL:      46737  USELESS:      19144
STLB USEFUL LOAD PREFETCHES:      46737 PREFETCH ISSUED TO LOWER LEVEL:          0  ACCURACY: inf
STLB TIMELY PREFETCHES:      46737 LATE PREFETCHES: 0 DROPPED PREFETCHES: 95599
STLB PREFETCHES SAME FILL-ORIGIN LEVEL: 0 DIFFERENT FILL-ORIGIN LEVEL: 0
STLB AVERAGE MISS LATENCY: 37.8348 cycles
STLB RQ	ACCESS:   23052832	FORWARD:          0	MERGED:   10901066	TO_CACHE:   12151766

STLB Hit, L1D data hit: 0
STLB Hit, L2C data hit: 0
STLB Hit, LLC data hit: 0
STLB Hit, LLC data miss: 0
STLB STLB hints to L2: 0
L1D TOTAL     ACCESS:   31792483  HIT:   29952017  MISS:    1840466  HIT %:     94.211  MISS %:      5.789   MPKI: 9.20233
L1D LOAD      ACCESS:   15258669  HIT:   14006936  MISS:    1251733  HIT %:    91.7966  MISS %:    8.20342   MPKI: 6.25866
L1D RFO       ACCESS:    7836088  HIT:    7582509  MISS:     253579  HIT %:     96.764  MISS %:    3.23604   MPKI: 1.26789
L1D PREFETCH  ACCESS:    8697726  HIT:    8362572  MISS:     335154  HIT %:    96.1466  MISS %:    3.85335   MPKI: 1.67577
L1D PREFETCH  REQUESTED:   36689546  ISSUED:   34798883  USEFUL:     315502  USELESS:      19651
L1D USEFUL LOAD PREFETCHES:     315502 PREFETCH ISSUED TO LOWER LEVEL:    5040354  ACCURACY: 6.25952
L1D TIMELY PREFETCHES:     315502 LATE PREFETCHES: 17700 DROPPED PREFETCHES: 260714
L1D PREFETCHES SAME FILL-ORIGIN LEVEL: 353361 DIFFERENT FILL-ORIGIN LEVEL: 4686993
L1D AVERAGE MISS LATENCY: 149.12 cycles
L1D RQ	ACCESS:   26414242	FORWARD:          0	MERGED:   10879849	TO_CACHE:   15339403
L1D WQ	ACCESS:    9001567	FORWARD:     207153	MERGED:     437365	TO_CACHE:    8564202
L1D PQ	ACCESS:   20967559	FORWARD:          0	MERGED:    7124072	TO_CACHE:   13831324

L1D UNIQUE REGIONS ACCESSED: 0
L1D REGIONS CONFLICTS: 0
L1D Cross Page Prefetch Requests: 3586075
L1D Same Page Prefetch Requests: 22712842
L1D ROI Sum of L1D PQ occupancy: 224479345
L1D PREFETCHES PUSHED FROM L2C: 0
L1I TOTAL     ACCESS:   39270945  HIT:   38100644  MISS:    1170301  HIT %:    97.0199  MISS %:    2.98007   MPKI: 5.8515
L1I LOAD      ACCESS:   39270945  HIT:   38100644  MISS:    1170301  HIT %:    97.0199  MISS %:    2.98007   MPKI: 5.8515
L1I PREFETCH  REQUESTED:          0  ISSUED:          0  USEFUL:          0  USELESS:          0
L1I USEFUL LOAD PREFETCHES:          0 PREFETCH ISSUED TO LOWER LEVEL:          0  ACCURACY: -nan
L1I TIMELY PREFETCHES:          0 LATE PREFETCHES: 0 DROPPED PREFETCHES: 0
L1I PREFETCHES SAME FILL-ORIGIN LEVEL: 0 DIFFERENT FILL-ORIGIN LEVEL: 0
L1I AVERAGE MISS LATENCY: 41.7308 cycles
L1I RQ	ACCESS:   62440075	FORWARD:          0	MERGED:   22670275	TO_CACHE:   39769800

BTB BRANCH_DIRECT_JUMP	ACCESS:          0  HIT:          0  MISS:          0
BTB BRANCH_INDIRECT	ACCESS:          0  HIT:          0  MISS:          0
BTB BRANCH_CONDITIONAL	ACCESS:          0  HIT:          0  MISS:          0
BTB BRANCH_DIRECT_CALL	ACCESS:          0  HIT:          0  MISS:          0
BTB BRANCH_INDIRECT_CALL	ACCESS:          0  HIT:          0  MISS:          0
BTB BRANCH_RETURN	ACCESS:          0  HIT:          0  MISS:          0
BTB BRANCH_OTHER ACCESS:          0  HIT:          0  MISS:          0

L2C TOTAL     ACCESS:   14357098  HIT:   12060579  MISS:    2296519  HIT %:    84.0043  MISS %:    15.9957   MPKI: 11.4826
L2C LOAD      ACCESS:    2404321  HIT:    1155803  MISS:    1248518  HIT %:    48.0719  MISS %:    51.9281   MPKI: 6.24259
L2C DATA LOAD MPKI: 4.33754
L2C INSTRUCTION LOAD MPKI: 1.90505
L2C RFO       ACCESS:     253563  HIT:     108404  MISS:     145159  HIT %:    42.7523  MISS %:    57.2477   MPKI: 0.725795
L2C PREFETCH  ACCESS:    4645223  HIT:    4049935  MISS:     595288  HIT %:    87.1849  MISS %:    12.8151   MPKI: 2.97644
L2C DATA PREFETCH MPKI: 2.97644
L2C INSTRUCTION PREFETCH MPKI: 0
L2C WRITEBACK ACCESS:     637800  HIT:     586783  MISS:      51017  HIT %:    92.0011  MISS %:     7.9989   MPKI: 0.255085
L2C LOAD TRANSLATION ACCESS:    6252506  HIT:    5999716  MISS:     252790  HIT %:     95.957  MISS %:    4.04302   MPKI: 1.26395
L2C TRANSLATION FROM L1D PREFETCHER ACCESS:     163685  HIT:     159938  MISS:       3747  HIT %:    97.7108  MISS %:    2.28915   MPKI: 0.018735
L2C PREFETCH  REQUESTED:          0  ISSUED:          0  USEFUL:     162323  USELESS:     436749
L2C USEFUL LOAD PREFETCHES:     162323 PREFETCH ISSUED TO LOWER LEVEL:     608910  ACCURACY: 26.658
L2C TIMELY PREFETCHES:     162323 LATE PREFETCHES: 13621 DROPPED PREFETCHES: 0
L2C PREFETCHES SAME FILL-ORIGIN LEVEL: 515985 DIFFERENT FILL-ORIGIN LEVEL: 0
L2C AVERAGE MISS LATENCY: 205.16 cycles
L2C RQ	ACCESS:    9074096	FORWARD:          0	MERGED:          0	TO_CACHE:    9074081
L2C WQ	ACCESS:     637800	FORWARD:         19	MERGED:          0	TO_CACHE:     637800
L2C PQ	ACCESS:    5031540	FORWARD:          0	MERGED:      11790	TO_CACHE:    5019746

L2C Instructions Evicting Data 246483
L2C Translations Evicting Data 182099
L2C Data Evicting Data 1195269
L2C Instructions Evicting Instructions 92704
L2C Translations Evicting Instructions 41317
L2C Data Evicting Instructions 235951
L2C Instructions Evicting Translations 41823
L2C Translations Evicting Translations 33121
L2C Data Evicting Translations 176735
L2C Dense regions hint from L2: 0
PSCL5 TOTAL     ACCESS:    5937398  HIT:    5937398  MISS:          0  HIT %:        100  MISS %:          0   MPKI: 0
PSCL5 LOAD TRANSLATION ACCESS:    5775913  HIT:    5775913  MISS:          0  HIT %:        100  MISS %:          0   MPKI: 0
PSCL5 TRANSLATION FROM L1D PREFETCHER ACCESS:     161485  HIT:     161485  MISS:          0  HIT %:        100  MISS %:          0   MPKI: 0
PSCL5 PREFETCH  REQUESTED:          0  ISSUED:          0  USEFUL:          0  USELESS:          0
PSCL5 USEFUL LOAD PREFETCHES:          0 PREFETCH ISSUED TO LOWER LEVEL:          0  ACCURACY: -nan
PSCL5 TIMELY PREFETCHES:          0 LATE PREFETCHES: 0 DROPPED PREFETCHES: 0
PSCL5 PREFETCHES SAME FILL-ORIGIN LEVEL: 0 DIFFERENT FILL-ORIGIN LEVEL: 0

PSCL4 TOTAL     ACCESS:    5903944  HIT:    5903324  MISS:        620  HIT %:    99.9895  MISS %:  0.0105015   MPKI: 0.0031
PSCL4 LOAD TRANSLATION ACCESS:    5742955  HIT:    5742335  MISS:        620  HIT %:    99.9892  MISS %:  0.0107958   MPKI: 0.0031
PSCL4 TRANSLATION FROM L1D PREFETCHER ACCESS:     160989  HIT:     160989  MISS:          0  HIT %:        100  MISS %:          0   MPKI: 0
PSCL4 PREFETCH  REQUESTED:          0  ISSUED:          0  USEFUL:          0  USELESS:          0
PSCL4 USEFUL LOAD PREFETCHES:          0 PREFETCH ISSUED TO LOWER LEVEL:          0  ACCURACY: -nan
PSCL4 TIMELY PREFETCHES:          0 LATE PREFETCHES: 0 DROPPED PREFETCHES: 0
PSCL4 PREFETCHES SAME FILL-ORIGIN LEVEL: 0 DIFFERENT FILL-ORIGIN LEVEL: 0

PSCL3 TOTAL     ACCESS:    5899443  HIT:    5888688  MISS:      10755  HIT %:    99.8177  MISS %:   0.182305   MPKI: 0.053775
PSCL3 LOAD TRANSLATION ACCESS:    5738855  HIT:    5728100  MISS:      10755  HIT %:    99.8126  MISS %:   0.187407   MPKI: 0.053775
PSCL3 TRANSLATION FROM L1D PREFETCHER ACCESS:     160588  HIT:     160588  MISS:          0  HIT %:        100  MISS %:          0   MPKI: 0
PSCL3 PREFETCH  REQUESTED:          0  ISSUED:          0  USEFUL:          0  USELESS:          0
PSCL3 USEFUL LOAD PREFETCHES:          0 PREFETCH ISSUED TO LOWER LEVEL:          0  ACCURACY: -nan
PSCL3 TIMELY PREFETCHES:          0 LATE PREFETCHES: 0 DROPPED PREFETCHES: 0
PSCL3 PREFETCHES SAME FILL-ORIGIN LEVEL: 0 DIFFERENT FILL-ORIGIN LEVEL: 0

PSCL2 TOTAL     ACCESS:    5936151  HIT:    5469676  MISS:     466475  HIT %:    92.1418  MISS %:    7.85821   MPKI: 2.33237
PSCL2 LOAD TRANSLATION ACCESS:    5776749  HIT:    5310274  MISS:     466475  HIT %:     91.925  MISS %:    8.07504   MPKI: 2.33237
PSCL2 TRANSLATION FROM L1D PREFETCHER ACCESS:     159402  HIT:     159402  MISS:          0  HIT %:        100  MISS %:          0   MPKI: 0
PSCL2 PREFETCH  REQUESTED:          0  ISSUED:          0  USEFUL:          0  USELESS:          0
PSCL2 USEFUL LOAD PREFETCHES:          0 PREFETCH ISSUED TO LOWER LEVEL:          0  ACCURACY: -nan
PSCL2 TIMELY PREFETCHES:          0 LATE PREFETCHES: 0 DROPPED PREFETCHES: 0
PSCL2 PREFETCHES SAME FILL-ORIGIN LEVEL: 0 DIFFERENT FILL-ORIGIN LEVEL: 0

LLC TOTAL     ACCESS:    2776305  HIT:    1219946  MISS:    1556359  HIT %:    43.9414  MISS %:    56.0586   MPKI: 7.78179
LLC LOAD      ACCESS:    1236126  HIT:     509689  MISS:     726437  HIT %:    41.2328  MISS %:    58.7672   MPKI: 3.63218
LLC RFO       ACCESS:     143926  HIT:      36874  MISS:     107052  HIT %:    25.6201  MISS %:    74.3799   MPKI: 0.53526
LLC PREFETCH  ACCESS:     608909  HIT:      39994  MISS:     568915  HIT %:    6.56814  MISS %:    93.4319   MPKI: 2.84457
LLC WRITEBACK ACCESS:     530807  HIT:     502249  MISS:      28558  HIT %:    94.6199  MISS %:    5.38011   MPKI: 0.14279
LLC LOAD TRANSLATION ACCESS:     252790  HIT:     130657  MISS:     122133  HIT %:     51.686  MISS %:     48.314   MPKI: 0.610665
LLC TRANSLATION FROM L1D PREFETCHER ACCESS:       3747  HIT:        483  MISS:       3264  HIT %:    12.8903  MISS %:    87.1097   MPKI: 0.01632
LLC PREFETCH  REQUESTED:          0  ISSUED:          0  USEFUL:      57846  USELESS:    2738483
LLC USEFUL LOAD PREFETCHES:      57846 PREFETCH ISSUED TO LOWER LEVEL:    2830480  ACCURACY: 2.04368
LLC TIMELY PREFETCHES:      57846 LATE PREFETCHES: 0 DROPPED PREFETCHES: 0
LLC PREFETCHES SAME FILL-ORIGIN LEVEL: 0 DIFFERENT FILL-ORIGIN LEVEL: 0
LLC AVERAGE MISS LATENCY: 1167.1 cycles
LLC RQ	ACCESS:    6133443	FORWARD:          0	MERGED:          0	TO_CACHE:    6133435
LLC WQ	ACCESS:    2090856	FORWARD:          9	MERGED:          0	TO_CACHE:    2090856
LLC PQ	ACCESS:    2994378	FORWARD:          0	MERGED:          0	TO_CACHE:    2994377

LLC Dense regions hint to LLC: 0

RAW hits: 1410586
Loads Generated: 27824830
Loads sent to L1D: 26414242
Stores Generated: 9001568
Stores sent to L1D: 9001567
Major fault: 0 Minor fault: 51675
Allocated PAGES: 205039

CPU 1 cumulative IPC: 0.550692 instructions: 200000003 cycles: 363179444
ITLB TOTAL     ACCESS:   31571117  HIT:   29393117  MISS:    2178000  HIT %:    93.1013  MISS %:    6.89871   MPKI: 10.89
ITLB LOAD TRANSLATION ACCESS:   31571117  HIT:   29393117  MISS:    2178000  HIT %:    93.1013  MISS %:    6.89871   MPKI: 10.89
ITLB PREFETCH  REQUESTED:          0  ISSUED:          0  USEFUL:          0  USELESS:          0
ITLB USEFUL LOAD PREFETCHES:          0 PREFETCH ISSUED TO LOWER LEVEL:          0  ACCURACY: -nan
ITLB TIMELY PREFETCHES:          0 LATE PREFETCHES: 0 DROPPED PREFETCHES: 0
ITLB PREFETCHES SAME FILL-ORIGIN LEVEL: 0 DIFFERENT FILL-ORIGIN LEVEL: 0
ITLB AVERAGE MISS LATENCY: 37.3579 cycles
ITLB RQ	ACCESS:   40074183	FORWARD:          0	MERGED:    7240276	TO_CACHE:   32833907

DTLB TOTAL     ACCESS:   19408696  HIT:   12665739  MISS:    6742957  HIT %:    65.2581  MISS %:    34.7419   MPKI: 33.7148
DTLB LOAD TRANSLATION ACCESS:   19408696  HIT:   12665739  MISS:    6742957  HIT %:    65.2581  MISS %:    34.7419   MPKI: 33.7148
DTLB PREFETCH  REQUESTED:          0  ISSUED:          0  USEFUL:          0  USELESS:          0
DTLB USEFUL LOAD PREFETCHES:          0 PREFETCH ISSUED TO LOWER LEVEL:          0  ACCURACY: -nan
DTLB TIMELY PREFETCHES:          0 LATE PREFETCHES: 0 DROPPED PREFETCHES: 0
DTLB PREFETCHES SAME FILL-ORIGIN LEVEL: 0 DIFFERENT FILL-ORIGIN LEVEL: 0
DTLB AVERAGE MISS LATENCY: 33.4836 cycles
DTLB RQ	ACCESS:   24775763	FORWARD:          0	MERGED:    4436004	TO_CACHE:   20339759

STLB TOTAL     ACCESS:   13175587  HIT:    7122358  MISS:    6053229  HIT %:    54.0572  MISS %:    45.9428   MPKI: 30.2661
STLB LOAD TRANSLATION ACCESS:    8920957  HIT:    2975383  MISS:    5945574  HIT %:    33.3527  MISS %:    66.6473   MPKI: 29.7279
STLB TRANSLATION FROM L1D PREFETCHER ACCESS:    4254630  HIT:    4146975  MISS:     107655  HIT %:    97.4697  MISS %:     2.5303   MPKI: 0.538275
STLB PREFETCH  REQUESTED:          0  ISSUED:          0  USEFUL:      79104  USELESS:      28780
STLB USEFUL LOAD PREFETCHES:      79104 PREFETCH ISSUED TO LOWER LEVEL:          0  ACCURACY: inf
STLB TIMELY PREFETCHES:      79104 LATE PREFETCHES: 0 DROPPED PREFETCHES: 129012
STLB PREFETCHES SAME FILL-ORIGIN LEVEL: 0 DIFFERENT FILL-ORIGIN LEVEL: 0
STLB AVERAGE MISS LATENCY: 38.0883 cycles
STLB RQ	ACCESS:   30866949	FORWARD:          0	MERGED:   17462481	TO_CACHE:   13404468

STLB Hit, L1D data hit: 0
STLB Hit, L2C data hit: 0
STLB Hit, LLC data hit: 0
STLB Hit, LLC data miss: 0
STLB STLB hints to L2: 0
L1D TOTAL     ACCESS:   37212624  HIT:   34940069  MISS:    2272555  HIT %:    93.8931  MISS %:    6.10695   MPKI: 11.3628
L1D LOAD      ACCESS:   15862759  HIT:   14401673  MISS:    1461086  HIT %:    90.7892  MISS %:    9.21079   MPKI: 7.30543
L1D RFO       ACCESS:    7873165  HIT:    7596561  MISS:     276604  HIT %:    96.4867  MISS %:    3.51325   MPKI: 1.38302
L1D PREFETCH  ACCESS:   13476700  HIT:   12941835  MISS:     534865  HIT %:    96.0312  MISS %:    3.96881   MPKI: 2.67432
L1D PREFETCH  REQUESTED:   66201269  ISSUED:   61714997  USEFUL:     513234  USELESS:      26913
L1D USEFUL LOAD PREFETCHES:     513234 PREFETCH ISSUED TO LOWER LEVEL:    6164309  ACCURACY: 8.3259
L1D TIMELY PREFETCHES:     513234 LATE PREFETCHES: 29165 DROPPED PREFETCHES: 357024
L1D PREFETCHES SAME FILL-ORIGIN LEVEL: 572771 DIFFERENT FILL-ORIGIN LEVEL: 5591538
L1D AVERAGE MISS LATENCY: 161.846 cycles
L1D RQ	ACCESS:   27542864	FORWARD:          0	MERGED:   11305131	TO_CACHE:   16062576
L1D WQ	ACCESS:    9163311	FORWARD:     182817	MERGED:     450124	TO_CACHE:    8713187
L1D PQ	ACCESS:   39810339	FORWARD:          0	MERGED:   17898021	TO_CACHE:   21904658

L1D UNIQUE REGIONS ACCESSED: 0
L1D REGIONS CONFLICTS: 0
L1D Cross Page Prefetch Requests: 5748210
L1D Same Page Prefetch Requests: 50406788
L1D ROI Sum of L1D PQ occupancy: 355834972
L1D PREFETCHES PUSHED FROM L2C: 0
L1I TOTAL     ACCESS:   39163204  HIT:   37600912  MISS:    1562292  HIT %:    96.0108  MISS %:    3.98918   MPKI: 7.81146
L1I LOAD      ACCESS:   39163204  HIT:   37600912  MISS:    1562292  HIT %:    96.0108  MISS %:    3.98918   MPKI: 7.81146
L1I PREFETCH  REQUESTED:          0  ISSUED:          0  USEFUL:          0  USELESS:          0
L1I USEFUL LOAD PREFETCHES:          0 PREFETCH ISSUED TO LOWER LEVEL:          0  ACCURACY: -nan
L1I TIMELY PREFETCHES:          0 LATE PREFETCHES: 0 DROPPED PREFETCHES: 0
L1I PREFETCHES SAME FILL-ORIGIN LEVEL: 0 DIFFERENT FILL-ORIGIN LEVEL: 0
L1I AVERAGE MISS LATENCY: 32.7441 cycles
L1I RQ	ACCESS:   63758208	FORWARD:          0	MERGED:   23684025	TO_CACHE:   40074183

BTB BRANCH_DIRECT_JUMP	ACCESS:          0  HIT:          0  MISS:          0
BTB BRANCH_INDIRECT	ACCESS:          0  HIT:          0  MISS:          0
BTB BRANCH_CONDITIONAL	ACCESS:          0  HIT:          0  MISS:          0
BTB BRANCH_DIRECT_CALL	ACCESS:          0  HIT:          0  MISS:          0
BTB BRANCH_INDIRECT_CALL	ACCESS:          0  HIT:          0  MISS:          0
BTB BRANCH_RETURN	ACCESS:          0  HIT:          0  MISS:          0
BTB BRANCH_OTHER ACCESS:          0  HIT:          0  MISS:          0

L2C TOTAL     ACCESS:   16176941  HIT:   13507771  MISS:    2669170  HIT %:    83.5002  MISS %:    16.4998   MPKI: 13.3458
L2C LOAD      ACCESS:    2994229  HIT:    1692154  MISS:    1302075  HIT %:    56.5138  MISS %:    43.4862   MPKI: 6.51037
L2C DATA LOAD MPKI: 4.57013
L2C INSTRUCTION LOAD MPKI: 1.94024
L2C RFO       ACCESS:     276541  HIT:     122804  MISS:     153737  HIT %:    44.4072  MISS %:    55.5928   MPKI: 0.768685
L2C PREFETCH  ACCESS:    5471418  HIT:    4536405  MISS:     935013  HIT %:     82.911  MISS %:     17.089   MPKI: 4.67506
L2C DATA PREFETCH MPKI: 4.67506
L2C INSTRUCTION PREFETCH MPKI: 0
L2C WRITEBACK ACCESS:     721837  HIT:     671601  MISS:      50236  HIT %:    93.0405  MISS %:    6.95947   MPKI: 0.25118
L2C LOAD TRANSLATION ACCESS:    6473561  HIT:    6250568  MISS:     222993  HIT %:    96.5553  MISS %:    3.44467   MPKI: 1.11496
L2C TRANSLATION FROM L1D PREFETCHER ACCESS:     239355  HIT:     234239  MISS:       5116  HIT %:    97.8626  MISS %:    2.13741   MPKI: 0.02558
L2C PREFETCH  REQUESTED:          0  ISSUED:          0  USEFUL:     225999  USELESS:     719292
L2C USEFUL LOAD PREFETCHES:     225999 PREFETCH ISSUED TO LOWER LEVEL:    1012227  ACCURACY: 22.3269
L2C TIMELY PREFETCHES:     225999 LATE PREFETCHES: 71062 DROPPED PREFETCHES: 0
L2C PREFETCHES SAME FILL-ORIGIN LEVEL: 739443 DIFFERENT FILL-ORIGIN LEVEL: 0
L2C AVERAGE MISS LATENCY: 236.674 cycles
L2C RQ	ACCESS:   10039359	FORWARD:          0	MERGED:          0	TO_CACHE:   10039338
L2C WQ	ACCESS:     725402	FORWARD:         24	MERGED:          0	TO_CACHE:     725402
L2C PQ	ACCESS:    6068851	FORWARD:          0	MERGED:      21443	TO_CACHE:    6047405

L2C Instructions Evicting Data 254209
L2C Translations Evicting Data 169416
L2C Data Evicting Data 1608796
L2C Instructions Evicting Instructions 104599
L2C Translations Evicting Instructions 34755
L2C Data Evicting Instructions 242853
L2C Instructions Evicting Translations 35965
L2C Translations Evicting Translations 26115
L2C Data Evicting Translations 164667
L2C Dense regions hint from L2: 0
PSCL5 TOTAL     ACCESS:    6181886  HIT:    6181886  MISS:          0  HIT %:        100  MISS %:          0   MPKI: 0
PSCL5 LOAD TRANSLATION ACCESS:    5945574  HIT:    5945574  MISS:          0  HIT %:        100  MISS %:          0   MPKI: 0
PSCL5 TRANSLATION FROM L1D PREFETCHER ACCESS:     236312  HIT:     236312  MISS:          0  HIT %:        100  MISS %:          0   MPKI: 0
PSCL5 PREFETCH  REQUESTED:          0  ISSUED:          0  USEFUL:          0  USELESS:          0
PSCL5 USEFUL LOAD PREFETCHES:          0 PREFETCH ISSUED TO LOWER LEVEL:          0  ACCURACY: -nan
PSCL5 TIMELY PREFETCHES:          0 LATE PREFETCHES: 0 DROPPED PREFETCHES: 0
PSCL5 PREFETCHES SAME FILL-ORIGIN LEVEL: 0 DIFFERENT FILL-ORIGIN LEVEL: 0

PSCL4 TOTAL     ACCESS:    5935643  HIT:    5935107  MISS:        536  HIT %:     99.991  MISS %: 0.00903019   MPKI: 0.00268
PSCL4 LOAD TRANSLATION ACCESS:    5727826  HIT:    5727290  MISS:        536  HIT %:    99.9906  MISS %: 0.00935783   MPKI: 0.00268
PSCL4 TRANSLATION FROM L1D PREFETCHER ACCESS:     207817  HIT:     207817  MISS:          0  HIT %:        100  MISS %:          0   MPKI: 0
PSCL4 PREFETCH  REQUESTED:          0  ISSUED:          0  USEFUL:          0  USELESS:          0
PSCL4 USEFUL LOAD PREFETCHES:          0 PREFETCH ISSUED TO LOWER LEVEL:          0  ACCURACY: -nan
PSCL4 TIMELY PREFETCHES:          0 LATE PREFETCHES: 0 DROPPED PREFETCHES: 0
PSCL4 PREFETCHES SAME FILL-ORIGIN LEVEL: 0 DIFFERENT FILL-ORIGIN LEVEL: 0

PSCL3 TOTAL     ACCESS:    6143984  HIT:    6128592  MISS:      15392  HIT %:    99.7495  MISS %:   0.250521   MPKI: 0.07696
PSCL3 LOAD TRANSLATION ACCESS:    5908604  HIT:    5893212  MISS:      15392  HIT %:    99.7395  MISS %:   0.260501   MPKI: 0.07696
PSCL3 TRANSLATION FROM L1D PREFETCHER ACCESS:     235380  HIT:     235380  MISS:          0  HIT %:        100  MISS %:          0   MPKI: 0
PSCL3 PREFETCH  REQUESTED:          0  ISSUED:          0  USEFUL:          0  USELESS:          0
PSCL3 USEFUL LOAD PREFETCHES:          0 PREFETCH ISSUED TO LOWER LEVEL:          0  ACCURACY: -nan
PSCL3 TIMELY PREFETCHES:          0 LATE PREFETCHES: 0 DROPPED PREFETCHES: 0
PSCL3 PREFETCHES SAME FILL-ORIGIN LEVEL: 0 DIFFERENT FILL-ORIGIN LEVEL: 0

PSCL2 TOTAL     ACCESS:    6180043  HIT:    5666358  MISS:     513685  HIT %:     91.688  MISS %:      8.312   MPKI: 2.56842
PSCL2 LOAD TRANSLATION ACCESS:    5946719  HIT:    5433034  MISS:     513685  HIT %:    91.3619  MISS %:    8.63812   MPKI: 2.56842
PSCL2 TRANSLATION FROM L1D PREFETCHER ACCESS:     233324  HIT:     233324  MISS:          0  HIT %:        100  MISS %:          0   MPKI: 0
PSCL2 PREFETCH  REQUESTED:          0  ISSUED:          0  USEFUL:          0  USELESS:          0
PSCL2 USEFUL LOAD PREFETCHES:          0 PREFETCH ISSUED TO LOWER LEVEL:          0  ACCURACY: -nan
PSCL2 TIMELY PREFETCHES:          0 LATE PREFETCHES: 0 DROPPED PREFETCHES: 0
PSCL2 PREFETCHES SAME FILL-ORIGIN LEVEL: 0 DIFFERENT FILL-ORIGIN LEVEL: 0

LLC TOTAL     ACCESS:    3179127  HIT:    1275639  MISS:    1903488  HIT %:    40.1254  MISS %:    59.8746   MPKI: 9.51744
LLC LOAD      ACCESS:    1232901  HIT:     506104  MISS:     726797  HIT %:    41.0498  MISS %:    58.9502   MPKI: 3.63398
LLC RFO       ACCESS:     151883  HIT:      44784  MISS:     107099  HIT %:    29.4859  MISS %:    70.5141   MPKI: 0.535495
LLC PREFETCH  ACCESS:    1006038  HIT:      73402  MISS:     932636  HIT %:    7.29615  MISS %:    92.7039   MPKI: 4.66318
LLC WRITEBACK ACCESS:     560196  HIT:     539672  MISS:      20524  HIT %:    96.3363  MISS %:    3.66372   MPKI: 0.10262
LLC LOAD TRANSLATION ACCESS:     222993  HIT:     110480  MISS:     112513  HIT %:    49.5442  MISS %:    50.4558   MPKI: 0.562565
LLC TRANSLATION FROM L1D PREFETCHER ACCESS:       5116  HIT:       1197  MISS:       3919  HIT %:    23.3972  MISS %:    76.6028   MPKI: 0.019595
LLC PREFETCH  REQUESTED:          0  ISSUED:          0  USEFUL:      57846  USELESS:    2738483
LLC USEFUL LOAD PREFETCHES:      57846 PREFETCH ISSUED TO LOWER LEVEL:    2830480  ACCURACY: 2.04368
LLC TIMELY PREFETCHES:      57846 LATE PREFETCHES: 0 DROPPED PREFETCHES: 0
LLC PREFETCHES SAME FILL-ORIGIN LEVEL: 0 DIFFERENT FILL-ORIGIN LEVEL: 0
LLC AVERAGE MISS LATENCY: 954.263 cycles
LLC RQ	ACCESS:    6133443	FORWARD:          0	MERGED:          0	TO_CACHE:    6133435
LLC WQ	ACCESS:    2090856	FORWARD:          9	MERGED:          0	TO_CACHE:    2090856
LLC PQ	ACCESS:    2994378	FORWARD:          0	MERGED:          0	TO_CACHE:    2994377

LLC Dense regions hint to LLC: 0

RAW hits: 1446726
Loads Generated: 28804197
Loads sent to L1D: 27357471
Stores Generated: 9115486
Stores sent to L1D: 9115492
Major fault: 0 Minor fault: 52221
Allocated PAGES: 205039

CPU 2 cumulative IPC: 0.584607 instructions: 200000001 cycles: 342110317
ITLB TOTAL     ACCESS:   30616058  HIT:   28885092  MISS:    1730966  HIT %:    94.3462  MISS %:    5.65378   MPKI: 8.65483
ITLB LOAD TRANSLATION ACCESS:   30616058  HIT:   28885092  MISS:    1730966  HIT %:    94.3462  MISS %:    5.65378   MPKI: 8.65483
ITLB PREFETCH  REQUESTED:          0  ISSUED:          0  USEFUL:          0  USELESS:          0
ITLB USEFUL LOAD PREFETCHES:          0 PREFETCH ISSUED TO LOWER LEVEL:          0  ACCURACY: -nan
ITLB TIMELY PREFETCHES:          0 LATE PREFETCHES: 0 DROPPED PREFETCHES: 0
ITLB PREFETCHES SAME FILL-ORIGIN LEVEL: 0 DIFFERENT FILL-ORIGIN LEVEL: 0
ITLB AVERAGE MISS LATENCY: 43.0879 cycles
ITLB RQ	ACCESS:   42599210	FORWARD:          0	MERGED:    8356368	TO_CACHE:   34242842

DTLB TOTAL     ACCESS:   17907712  HIT:   11401119  MISS:    6506593  HIT %:     63.666  MISS %:     36.334   MPKI: 32.533
DTLB LOAD TRANSLATION ACCESS:   17907712  HIT:   11401119  MISS:    6506593  HIT %:     63.666  MISS %:     36.334   MPKI: 32.533
DTLB PREFETCH  REQUESTED:          0  ISSUED:          0  USEFUL:          0  USELESS:          0
DTLB USEFUL LOAD PREFETCHES:          0 PREFETCH ISSUED TO LOWER LEVEL:          0  ACCURACY: -nan
DTLB TIMELY PREFETCHES:          0 LATE PREFETCHES: 0 DROPPED PREFETCHES: 0
DTLB PREFETCHES SAME FILL-ORIGIN LEVEL: 0 DIFFERENT FILL-ORIGIN LEVEL: 0
DTLB AVERAGE MISS LATENCY: 34.2017 cycles
DTLB RQ	ACCESS:   24614761	FORWARD:          0	MERGED:    4164137	TO_CACHE:   20450624

STLB TOTAL     ACCESS:   11539767  HIT:    6311129  MISS:    5228638  HIT %:    54.6903  MISS %:    45.3097   MPKI: 26.1432
STLB LOAD TRANSLATION ACCESS:    8237559  HIT:    3080173  MISS:    5157386  HIT %:    37.3918  MISS %:    62.6082   MPKI: 25.7869
STLB TRANSLATION FROM L1D PREFETCHER ACCESS:    3302208  HIT:    3230956  MISS:      71252  HIT %:    97.8423  MISS %:    2.15771   MPKI: 0.35626
STLB PREFETCH  REQUESTED:          0  ISSUED:          0  USEFUL:      58179  USELESS:      23502
STLB USEFUL LOAD PREFETCHES:      58179 PREFETCH ISSUED TO LOWER LEVEL:          0  ACCURACY: inf
STLB TIMELY PREFETCHES:      58179 LATE PREFETCHES: 0 DROPPED PREFETCHES: 92523
STLB PREFETCHES SAME FILL-ORIGIN LEVEL: 0 DIFFERENT FILL-ORIGIN LEVEL: 0
STLB AVERAGE MISS LATENCY: 41.4984 cycles
STLB RQ	ACCESS:   27771168	FORWARD:          0	MERGED:   14705577	TO_CACHE:   13065591

STLB Hit, L1D data hit: 0
STLB Hit, L2C data hit: 0
STLB Hit, LLC data hit: 0
STLB Hit, LLC data miss: 0
STLB STLB hints to L2: 0
L1D TOTAL     ACCESS:   32191887  HIT:   30594881  MISS:    1597006  HIT %:    95.0391  MISS %:     4.9609   MPKI: 7.98503
L1D LOAD      ACCESS:   14731312  HIT:   13745672  MISS:     985640  HIT %:    93.3092  MISS %:    6.69078   MPKI: 4.9282
L1D RFO       ACCESS:    6999785  HIT:    6799266  MISS:     200519  HIT %:    97.1354  MISS %:    2.86465   MPKI: 1.00259
L1D PREFETCH  ACCESS:   10460790  HIT:   10049943  MISS:     410847  HIT %:    96.0725  MISS %:    3.92749   MPKI: 2.05423
L1D PREFETCH  REQUESTED:   51881745  ISSUED:   49698622  USEFUL:     408925  USELESS:      22672
L1D USEFUL LOAD PREFETCHES:     408925 PREFETCH ISSUED TO LOWER LEVEL:    6238216  ACCURACY: 6.55516
L1D TIMELY PREFETCHES:     408925 LATE PREFETCHES: 16882 DROPPED PREFETCHES: 257041
L1D PREFETCHES SAME FILL-ORIGIN LEVEL: 448641 DIFFERENT FILL-ORIGIN LEVEL: 5789575
L1D AVERAGE MISS LATENCY: 180.508 cycles
L1D RQ	ACCESS:   28076257	FORWARD:          0	MERGED:   11597362	TO_CACHE:   16275967
L1D WQ	ACCESS:    8802760	FORWARD:     213227	MERGED:     463966	TO_CACHE:    8338794
L1D PQ	ACCESS:   31145503	FORWARD:          0	MERGED:   12582085	TO_CACHE:   18553119

L1D UNIQUE REGIONS ACCESSED: 0
L1D REGIONS CONFLICTS: 0
L1D Cross Page Prefetch Requests: 4881823
L1D Same Page Prefetch Requests: 36911669
L1D ROI Sum of L1D PQ occupancy: 286699752
L1D PREFETCHES PUSHED FROM L2C: 0
L1I TOTAL     ACCESS:   39191717  HIT:   38683637  MISS:     508080  HIT %:    98.7036  MISS %:     1.2964   MPKI: 2.5404
L1I LOAD      ACCESS:   39191717  HIT:   38683637  MISS:     508080  HIT %:    98.7036  MISS %:     1.2964   MPKI: 2.5404
L1I PREFETCH  REQUESTED:          0  ISSUED:          0  USEFUL:          0  USELESS:          0
L1I USEFUL LOAD PREFETCHES:          0 PREFETCH ISSUED TO LOWER LEVEL:          0  ACCURACY: -nan
L1I TIMELY PREFETCHES:          0 LATE PREFETCHES: 0 DROPPED PREFETCHES: 0
L1I PREFETCHES SAME FILL-ORIGIN LEVEL: 0 DIFFERENT FILL-ORIGIN LEVEL: 0
L1I AVERAGE MISS LATENCY: 67.202 cycles
L1I RQ	ACCESS:   67104252	FORWARD:          0	MERGED:   24505042	TO_CACHE:   42599210

BTB BRANCH_DIRECT_JUMP	ACCESS:          0  HIT:          0  MISS:          0
BTB BRANCH_INDIRECT	ACCESS:          0  HIT:          0  MISS:          0
BTB BRANCH_CONDITIONAL	ACCESS:          0  HIT:          0  MISS:          0
BTB BRANCH_DIRECT_CALL	ACCESS:          0  HIT:          0  MISS:          0
BTB BRANCH_INDIRECT_CALL	ACCESS:          0  HIT:          0  MISS:          0
BTB BRANCH_RETURN	ACCESS:          0  HIT:          0  MISS:          0
BTB BRANCH_OTHER ACCESS:          0  HIT:          0  MISS:          0

L2C TOTAL     ACCESS:   12960767  HIT:   10957918  MISS:    2002849  HIT %:    84.5468  MISS %:    15.4532   MPKI: 10.0142
L2C LOAD      ACCESS:    1478217  HIT:     477239  MISS:    1000978  HIT %:    32.2848  MISS %:    67.7152   MPKI: 5.00489
L2C DATA LOAD MPKI: 3.81949
L2C INSTRUCTION LOAD MPKI: 1.1854
L2C RFO       ACCESS:     200435  HIT:      80955  MISS:     119480  HIT %:    40.3897  MISS %:    59.6103   MPKI: 0.5974
L2C PREFETCH  ACCESS:    5055468  HIT:    4444315  MISS:     611153  HIT %:     87.911  MISS %:     12.089   MPKI: 3.05576
L2C DATA PREFETCH MPKI: 3.05576
L2C INSTRUCTION PREFETCH MPKI: 0
L2C WRITEBACK ACCESS:     516549  HIT:     476220  MISS:      40329  HIT %:    92.1926  MISS %:    7.80739   MPKI: 0.201645
L2C LOAD TRANSLATION ACCESS:    5550790  HIT:    5323320  MISS:     227470  HIT %:     95.902  MISS %:    4.09798   MPKI: 1.13735
L2C TRANSLATION FROM L1D PREFETCHER ACCESS:     159308  HIT:     155869  MISS:       3439  HIT %:    97.8413  MISS %:    2.15871   MPKI: 0.017195
L2C PREFETCH  REQUESTED:          0  ISSUED:          0  USEFUL:     146299  USELESS:     531929
L2C USEFUL LOAD PREFETCHES:     146299 PREFETCH ISSUED TO LOWER LEVEL:     689801  ACCURACY: 21.2089
L2C TIMELY PREFETCHES:     146299 LATE PREFETCHES: 14450 DROPPED PREFETCHES: 0
L2C PREFETCHES SAME FILL-ORIGIN LEVEL: 522399 DIFFERENT FILL-ORIGIN LEVEL: 0
L2C AVERAGE MISS LATENCY: 239.599 cycles
L2C RQ	ACCESS:    8185784	FORWARD:          0	MERGED:          0	TO_CACHE:    8185779
L2C WQ	ACCESS:     572465	FORWARD:          8	MERGED:          0	TO_CACHE:     572465
L2C PQ	ACCESS:    6230531	FORWARD:          0	MERGED:      12405	TO_CACHE:    6218123

L2C Instructions Evicting Data 176926
L2C Translations Evicting Data 182748
L2C Data Evicting Data 1268114
L2C Instructions Evicting Instructions 46963
L2C Translations Evicting Instructions 27238
L2C Data Evicting Instructions 171171
L2C Instructions Evicting Translations 28263
L2C Translations Evicting Translations 30788
L2C Data Evicting Translations 178519
L2C Dense regions hint from L2: 0
PSCL5 TOTAL     ACCESS:    5315091  HIT:    5315091  MISS:          0  HIT %:        100  MISS %:          0   MPKI: 0
PSCL5 LOAD TRANSLATION ACCESS:    5157386  HIT:    5157386  MISS:          0  HIT %:        100  MISS %:          0   MPKI: 0
PSCL5 TRANSLATION FROM L1D PREFETCHER ACCESS:     157705  HIT:     157705  MISS:          0  HIT %:        100  MISS %:          0   MPKI: 0
PSCL5 PREFETCH  REQUESTED:          0  ISSUED:          0  USEFUL:          0  USELESS:          0
PSCL5 USEFUL LOAD PREFETCHES:          0 PREFETCH ISSUED TO LOWER LEVEL:          0  ACCURACY: -nan
PSCL5 TIMELY PREFETCHES:          0 LATE PREFETCHES: 0 DROPPED PREFETCHES: 0
PSCL5 PREFETCHES SAME FILL-ORIGIN LEVEL: 0 DIFFERENT FILL-ORIGIN LEVEL: 0

PSCL4 TOTAL     ACCESS:    5294405  HIT:    5293795  MISS:        610  HIT %:    99.9885  MISS %:  0.0115216   MPKI: 0.00305
PSCL4 LOAD TRANSLATION ACCESS:    5138346  HIT:    5137736  MISS:        610  HIT %:    99.9881  MISS %:  0.0118715   MPKI: 0.00305
PSCL4 TRANSLATION FROM L1D PREFETCHER ACCESS:     156059  HIT:     156059  MISS:          0  HIT %:        100  MISS %:          0   MPKI: 0
PSCL4 PREFETCH  REQUESTED:          0  ISSUED:          0  USEFUL:          0  USELESS:          0
PSCL4 USEFUL LOAD PREFETCHES:          0 PREFETCH ISSUED TO LOWER LEVEL:          0  ACCURACY: -nan
PSCL4 TIMELY PREFETCHES:          0 LATE PREFETCHES: 0 DROPPED PREFETCHES: 0
PSCL4 PREFETCHES SAME FILL-ORIGIN LEVEL: 0 DIFFERENT FILL-ORIGIN LEVEL: 0

PSCL3 TOTAL     ACCESS:    5298466  HIT:    5292505  MISS:       5961  HIT %:    99.8875  MISS %:   0.112504   MPKI: 0.029805
PSCL3 LOAD TRANSLATION ACCESS:    5141380  HIT:    5135419  MISS:       5961  HIT %:    99.8841  MISS %:   0.115942   MPKI: 0.029805
PSCL3 TRANSLATION FROM L1D PREFETCHER ACCESS:     157086  HIT:     157086  MISS:          0  HIT %:        100  MISS %:          0   MPKI: 0
PSCL3 PREFETCH  REQUESTED:          0  ISSUED:          0  USEFUL:          0  USELESS:          0
PSCL3 USEFUL LOAD PREFETCHES:          0 PREFETCH ISSUED TO LOWER LEVEL:          0  ACCURACY: -nan
PSCL3 TIMELY PREFETCHES:          0 LATE PREFETCHES: 0 DROPPED PREFETCHES: 0
PSCL3 PREFETCHES SAME FILL-ORIGIN LEVEL: 0 DIFFERENT FILL-ORIGIN LEVEL: 0

PSCL2 TOTAL     ACCESS:    5314100  HIT:    4926196  MISS:     387904  HIT %:    92.7005  MISS %:    7.29952   MPKI: 1.93952
PSCL2 LOAD TRANSLATION ACCESS:    5158010  HIT:    4770106  MISS:     387904  HIT %:    92.4796  MISS %:    7.52042   MPKI: 1.93952
PSCL2 TRANSLATION FROM L1D PREFETCHER ACCESS:     156090  HIT:     156090  MISS:          0  HIT %:        100  MISS %:          0   MPKI: 0
PSCL2 PREFETCH  REQUESTED:          0  ISSUED:          0  USEFUL:          0  USELESS:          0
PSCL2 USEFUL LOAD PREFETCHES:          0 PREFETCH ISSUED TO LOWER LEVEL:          0  ACCURACY: -nan
PSCL2 TIMELY PREFETCHES:          0 LATE PREFETCHES: 0 DROPPED PREFETCHES: 0
PSCL2 PREFETCHES SAME FILL-ORIGIN LEVEL: 0 DIFFERENT FILL-ORIGIN LEVEL: 0

LLC TOTAL     ACCESS:    2415639  HIT:     918416  MISS:    1497223  HIT %:    38.0196  MISS %:    61.9804   MPKI: 7.48611
LLC LOAD      ACCESS:     990474  HIT:     317425  MISS:     673049  HIT %:    32.0478  MISS %:    67.9522   MPKI: 3.36524
LLC RFO       ACCESS:     117429  HIT:      26802  MISS:      90627  HIT %:     22.824  MISS %:     77.176   MPKI: 0.453135
LLC PREFETCH  ACCESS:     623706  HIT:      34650  MISS:     589056  HIT %:     5.5555  MISS %:    94.4445   MPKI: 2.94528
LLC WRITEBACK ACCESS:     453121  HIT:     422692  MISS:      30429  HIT %:    93.2846  MISS %:    6.71542   MPKI: 0.152145
LLC LOAD TRANSLATION ACCESS:     227470  HIT:     116459  MISS:     111011  HIT %:    51.1975  MISS %:    48.8025   MPKI: 0.555055
LLC TRANSLATION FROM L1D PREFETCHER ACCESS:       3439  HIT:        388  MISS:       3051  HIT %:    11.2823  MISS %:    88.7177   MPKI: 0.015255
LLC PREFETCH  REQUESTED:          0  ISSUED:          0  USEFUL:      57846  USELESS:    2738483
LLC USEFUL LOAD PREFETCHES:      57846 PREFETCH ISSUED TO LOWER LEVEL:    2830480  ACCURACY: 2.04368
LLC TIMELY PREFETCHES:      57846 LATE PREFETCHES: 0 DROPPED PREFETCHES: 0
LLC PREFETCHES SAME FILL-ORIGIN LEVEL: 0 DIFFERENT FILL-ORIGIN LEVEL: 0
LLC AVERAGE MISS LATENCY: 1213.2 cycles
LLC RQ	ACCESS:    6133443	FORWARD:          0	MERGED:          0	TO_CACHE:    6133435
LLC WQ	ACCESS:    2090856	FORWARD:          9	MERGED:          0	TO_CACHE:    2090856
LLC PQ	ACCESS:    2994378	FORWARD:          0	MERGED:          0	TO_CACHE:    2994377

LLC Dense regions hint to LLC: 0

RAW hits: 1323057
Loads Generated: 27047902
Loads sent to L1D: 25724845
Stores Generated: 8008838
Stores sent to L1D: 8008837
Major fault: 0 Minor fault: 49198
Allocated PAGES: 205039

CPU 3 cumulative IPC: 0.573002 instructions: 200000002 cycles: 349038849
ITLB TOTAL     ACCESS:   30527133  HIT:   28772252  MISS:    1754881  HIT %:    94.2514  MISS %:    5.74859   MPKI: 8.7744
ITLB LOAD TRANSLATION ACCESS:   30527133  HIT:   28772252  MISS:    1754881  HIT %:    94.2514  MISS %:    5.74859   MPKI: 8.7744
ITLB PREFETCH  REQUESTED:          0  ISSUED:          0  USEFUL:          0  USELESS:          0
ITLB USEFUL LOAD PREFETCHES:          0 PREFETCH ISSUED TO LOWER LEVEL:          0  ACCURACY: -nan
ITLB TIMELY PREFETCHES:          0 LATE PREFETCHES: 0 DROPPED PREFETCHES: 0
ITLB PREFETCHES SAME FILL-ORIGIN LEVEL: 0 DIFFERENT FILL-ORIGIN LEVEL: 0
ITLB AVERAGE MISS LATENCY: 40.8044 cycles
ITLB RQ	ACCESS:   41282674	FORWARD:          0	MERGED:    8189149	TO_CACHE:   33093525

DTLB TOTAL     ACCESS:   18029106  HIT:   11381957  MISS:    6647149  HIT %:     63.131  MISS %:     36.869   MPKI: 33.2357
DTLB LOAD TRANSLATION ACCESS:   18029106  HIT:   11381957  MISS:    6647149  HIT %:     63.131  MISS %:     36.869   MPKI: 33.2357
DTLB PREFETCH  REQUESTED:          0  ISSUED:          0  USEFUL:          0  USELESS:          0
DTLB USEFUL LOAD PREFETCHES:          0 PREFETCH ISSUED TO LOWER LEVEL:          0  ACCURACY: -nan
DTLB TIMELY PREFETCHES:          0 LATE PREFETCHES: 0 DROPPED PREFETCHES: 0
DTLB PREFETCHES SAME FILL-ORIGIN LEVEL: 0 DIFFERENT FILL-ORIGIN LEVEL: 0
DTLB AVERAGE MISS LATENCY: 33.8261 cycles
DTLB RQ	ACCESS:   23830416	FORWARD:          0	MERGED:    4088259	TO_CACHE:   19742157

STLB TOTAL     ACCESS:   11814983  HIT:    6373119  MISS:    5441864  HIT %:     53.941  MISS %:     46.059   MPKI: 27.2093
STLB LOAD TRANSLATION ACCESS:    8402030  HIT:    3022795  MISS:    5379235  HIT %:     35.977  MISS %:     64.023   MPKI: 26.8962
STLB TRANSLATION FROM L1D PREFETCHER ACCESS:    3412953  HIT:    3350324  MISS:      62629  HIT %:     98.165  MISS %:    1.83504   MPKI: 0.313145
STLB PREFETCH  REQUESTED:          0  ISSUED:          0  USEFUL:      46752  USELESS:      20698
STLB USEFUL LOAD PREFETCHES:      46752 PREFETCH ISSUED TO LOWER LEVEL:          0  ACCURACY: inf
STLB TIMELY PREFETCHES:      46752 LATE PREFETCHES: 0 DROPPED PREFETCHES: 93082
STLB PREFETCHES SAME FILL-ORIGIN LEVEL: 0 DIFFERENT FILL-ORIGIN LEVEL: 0
STLB AVERAGE MISS LATENCY: 40.2538 cycles
STLB RQ	ACCESS:   26628483	FORWARD:          0	MERGED:   14055409	TO_CACHE:   12573074

STLB Hit, L1D data hit: 0
STLB Hit, L2C data hit: 0
STLB Hit, LLC data hit: 0
STLB Hit, LLC data miss: 0
STLB STLB hints to L2: 0
L1D TOTAL     ACCESS:   32681231  HIT:   30976013  MISS:    1705218  HIT %:    94.7823  MISS %:    5.21773   MPKI: 8.52609
L1D LOAD      ACCESS:   14856508  HIT:   13802903  MISS:    1053605  HIT %:    92.9081  MISS %:    7.09188   MPKI: 5.26802
L1D RFO       ACCESS:    7021748  HIT:    6804254  MISS:     217494  HIT %:    96.9026  MISS %:    3.09743   MPKI: 1.08747
L1D PREFETCH  ACCESS:   10802975  HIT:   10368856  MISS:     434119  HIT %:    95.9815  MISS %:    4.01851   MPKI: 2.17059
L1D PREFETCH  REQUESTED:   50843422  ISSUED:   48535770  USEFUL:     424715  USELESS:      23733
L1D USEFUL LOAD PREFETCHES:     424715 PREFETCH ISSUED TO LOWER LEVEL:    5456872  ACCURACY: 7.78312
L1D TIMELY PREFETCHES:     424715 LATE PREFETCHES: 18784 DROPPED PREFETCHES: 246732
L1D PREFETCHES SAME FILL-ORIGIN LEVEL: 467430 DIFFERENT FILL-ORIGIN LEVEL: 4989442
L1D AVERAGE MISS LATENCY: 175.726 cycles
L1D RQ	ACCESS:   27397717	FORWARD:          0	MERGED:   11420267	TO_CACHE:   15753602
L1D WQ	ACCESS:    8527714	FORWARD:     233242	MERGED:     450900	TO_CACHE:    8076814
L1D PQ	ACCESS:   30775592	FORWARD:          0	MERGED:   13006020	TO_CACHE:   17760178

L1D UNIQUE REGIONS ACCESSED: 0
L1D REGIONS CONFLICTS: 0
L1D Cross Page Prefetch Requests: 4799014
L1D Same Page Prefetch Requests: 37346453
L1D ROI Sum of L1D PQ occupancy: 277721078
L1D PREFETCHES PUSHED FROM L2C: 0
L1I TOTAL     ACCESS:   39122865  HIT:   38596922  MISS:     525943  HIT %:    98.6557  MISS %:    1.34434   MPKI: 2.62971
L1I LOAD      ACCESS:   39122865  HIT:   38596922  MISS:     525943  HIT %:    98.6557  MISS %:    1.34434   MPKI: 2.62971
L1I PREFETCH  REQUESTED:          0  ISSUED:          0  USEFUL:          0  USELESS:          0
L1I USEFUL LOAD PREFETCHES:          0 PREFETCH ISSUED TO LOWER LEVEL:          0  ACCURACY: -nan
L1I TIMELY PREFETCHES:          0 LATE PREFETCHES: 0 DROPPED PREFETCHES: 0
L1I PREFETCHES SAME FILL-ORIGIN LEVEL: 0 DIFFERENT FILL-ORIGIN LEVEL: 0
L1I AVERAGE MISS LATENCY: 62.9536 cycles
L1I RQ	ACCESS:   64756331	FORWARD:          0	MERGED:   23473657	TO_CACHE:   41282674

BTB BRANCH_DIRECT_JUMP	ACCESS:          0  HIT:          0  MISS:          0
BTB BRANCH_INDIRECT	ACCESS:          0  HIT:          0  MISS:          0
BTB BRANCH_CONDITIONAL	ACCESS:          0  HIT:          0  MISS:          0
BTB BRANCH_DIRECT_CALL	ACCESS:          0  HIT:          0  MISS:          0
BTB BRANCH_INDIRECT_CALL	ACCESS:          0  HIT:          0  MISS:          0
BTB BRANCH_RETURN	ACCESS:          0  HIT:          0  MISS:          0
BTB BRANCH_OTHER ACCESS:          0  HIT:          0  MISS:          0

L2C TOTAL     ACCESS:   13022667  HIT:   10966799  MISS:    2055868  HIT %:    84.2132  MISS %:    15.7868   MPKI: 10.2793
L2C LOAD      ACCESS:    1562227  HIT:     553010  MISS:    1009217  HIT %:    35.3988  MISS %:    64.6012   MPKI: 5.04608
L2C DATA LOAD MPKI: 3.97815
L2C INSTRUCTION LOAD MPKI: 1.06793
L2C RFO       ACCESS:     217445  HIT:      88661  MISS:     128784  HIT %:     40.774  MISS %:     59.226   MPKI: 0.64392
L2C PREFETCH  ACCESS:    4787755  HIT:    4153449  MISS:     634306  HIT %:    86.7515  MISS %:    13.2485   MPKI: 3.17153
L2C DATA PREFETCH MPKI: 3.17153
L2C INSTRUCTION PREFETCH MPKI: 0
L2C WRITEBACK ACCESS:     530478  HIT:     491954  MISS:      38524  HIT %:    92.7379  MISS %:    7.26213   MPKI: 0.19262
L2C LOAD TRANSLATION ACCESS:    5770297  HIT:    5528973  MISS:     241324  HIT %:    95.8178  MISS %:    4.18218   MPKI: 1.20662
L2C TRANSLATION FROM L1D PREFETCHER ACCESS:     154465  HIT:     150752  MISS:       3713  HIT %:    97.5962  MISS %:    2.40378   MPKI: 0.018565
L2C PREFETCH  REQUESTED:          0  ISSUED:          0  USEFUL:     142132  USELESS:     530629
L2C USEFUL LOAD PREFETCHES:     142132 PREFETCH ISSUED TO LOWER LEVEL:     683440  ACCURACY: 20.7966
L2C TIMELY PREFETCHES:     142132 LATE PREFETCHES: 13439 DROPPED PREFETCHES: 0
L2C PREFETCHES SAME FILL-ORIGIN LEVEL: 503760 DIFFERENT FILL-ORIGIN LEVEL: 0
L2C AVERAGE MISS LATENCY: 236.75 cycles
L2C RQ	ACCESS:    8134383	FORWARD:          0	MERGED:          0	TO_CACHE:    8134374
L2C WQ	ACCESS:     563963	FORWARD:         11	MERGED:          0	TO_CACHE:     563963
L2C PQ	ACCESS:    5451700	FORWARD:          0	MERGED:      10196	TO_CACHE:    5441502

L2C Instructions Evicting Data 164413
L2C Translations Evicting Data 194976
L2C Data Evicting Data 1296678
L2C Instructions Evicting Instructions 37768
L2C Translations Evicting Instructions 24620
L2C Data Evicting Instructions 160658
L2C Instructions Evicting Translations 26948
L2C Translations Evicting Translations 34721
L2C Data Evicting Translations 189427
L2C Dense regions hint from L2: 0
PSCL5 TOTAL     ACCESS:    5532040  HIT:    5532040  MISS:          0  HIT %:        100  MISS %:          0   MPKI: 0
PSCL5 LOAD TRANSLATION ACCESS:    5379235  HIT:    5379235  MISS:          0  HIT %:        100  MISS %:          0   MPKI: 0
PSCL5 TRANSLATION FROM L1D PREFETCHER ACCESS:     152805  HIT:     152805  MISS:          0  HIT %:        100  MISS %:          0   MPKI: 0
PSCL5 PREFETCH  REQUESTED:          0  ISSUED:          0  USEFUL:          0  USELESS:          0
PSCL5 USEFUL LOAD PREFETCHES:          0 PREFETCH ISSUED TO LOWER LEVEL:          0  ACCURACY: -nan
PSCL5 TIMELY PREFETCHES:          0 LATE PREFETCHES: 0 DROPPED PREFETCHES: 0
PSCL5 PREFETCHES SAME FILL-ORIGIN LEVEL: 0 DIFFERENT FILL-ORIGIN LEVEL: 0

PSCL4 TOTAL     ACCESS:    5463556  HIT:    5463031  MISS:        525  HIT %:    99.9904  MISS %: 0.00960913   MPKI: 0.002625
PSCL4 LOAD TRANSLATION ACCESS:    5314645  HIT:    5314120  MISS:        525  HIT %:    99.9901  MISS %: 0.00987836   MPKI: 0.002625
PSCL4 TRANSLATION FROM L1D PREFETCHER ACCESS:     148911  HIT:     148911  MISS:          0  HIT %:        100  MISS %:          0   MPKI: 0
PSCL4 PREFETCH  REQUESTED:          0  ISSUED:          0  USEFUL:          0  USELESS:          0
PSCL4 USEFUL LOAD PREFETCHES:          0 PREFETCH ISSUED TO LOWER LEVEL:          0  ACCURACY: -nan
PSCL4 TIMELY PREFETCHES:          0 LATE PREFETCHES: 0 DROPPED PREFETCHES: 0
PSCL4 PREFETCHES SAME FILL-ORIGIN LEVEL: 0 DIFFERENT FILL-ORIGIN LEVEL: 0

PSCL3 TOTAL     ACCESS:    5517712  HIT:    5512896  MISS:       4816  HIT %:    99.9127  MISS %:  0.0872826   MPKI: 0.02408
PSCL3 LOAD TRANSLATION ACCESS:    5365384  HIT:    5360568  MISS:       4816  HIT %:    99.9102  MISS %:  0.0897606   MPKI: 0.02408
PSCL3 TRANSLATION FROM L1D PREFETCHER ACCESS:     152328  HIT:     152328  MISS:          0  HIT %:        100  MISS %:          0   MPKI: 0
PSCL3 PREFETCH  REQUESTED:          0  ISSUED:          0  USEFUL:          0  USELESS:          0
PSCL3 USEFUL LOAD PREFETCHES:          0 PREFETCH ISSUED TO LOWER LEVEL:          0  ACCURACY: -nan
PSCL3 TIMELY PREFETCHES:          0 LATE PREFETCHES: 0 DROPPED PREFETCHES: 0
PSCL3 PREFETCHES SAME FILL-ORIGIN LEVEL: 0 DIFFERENT FILL-ORIGIN LEVEL: 0

PSCL2 TOTAL     ACCESS:    5530972  HIT:    5144318  MISS:     386654  HIT %:    93.0093  MISS %:    6.99071   MPKI: 1.93327
PSCL2 LOAD TRANSLATION ACCESS:    5379816  HIT:    4993162  MISS:     386654  HIT %:    92.8129  MISS %:    7.18712   MPKI: 1.93327
PSCL2 TRANSLATION FROM L1D PREFETCHER ACCESS:     151156  HIT:     151156  MISS:          0  HIT %:        100  MISS %:          0   MPKI: 0
PSCL2 PREFETCH  REQUESTED:          0  ISSUED:          0  USEFUL:          0  USELESS:          0
PSCL2 USEFUL LOAD PREFETCHES:          0 PREFETCH ISSUED TO LOWER LEVEL:          0  ACCURACY: -nan
PSCL2 TIMELY PREFETCHES:          0 LATE PREFETCHES: 0 DROPPED PREFETCHES: 0
PSCL2 PREFETCHES SAME FILL-ORIGIN LEVEL: 0 DIFFERENT FILL-ORIGIN LEVEL: 0

LLC TOTAL     ACCESS:    2480367  HIT:     935608  MISS:    1544759  HIT %:    37.7205  MISS %:    62.2795   MPKI: 7.72379
LLC LOAD      ACCESS:     998728  HIT:     311557  MISS:     687171  HIT %:    31.1954  MISS %:    68.8046   MPKI: 3.43585
LLC RFO       ACCESS:     127213  HIT:      28070  MISS:      99143  HIT %:    22.0654  MISS %:    77.9346   MPKI: 0.495715
LLC PREFETCH  ACCESS:     646366  HIT:      40275  MISS:     606091  HIT %:    6.23099  MISS %:     93.769   MPKI: 3.03045
LLC WRITEBACK ACCESS:     463023  HIT:     433073  MISS:      29950  HIT %:    93.5316  MISS %:    6.46836   MPKI: 0.14975
LLC LOAD TRANSLATION ACCESS:     241324  HIT:     122131  MISS:     119193  HIT %:    50.6087  MISS %:    49.3913   MPKI: 0.595965
LLC TRANSLATION FROM L1D PREFETCHER ACCESS:       3713  HIT:        502  MISS:       3211  HIT %:    13.5201  MISS %:    86.4799   MPKI: 0.016055
LLC PREFETCH  REQUESTED:          0  ISSUED:          0  USEFUL:      57846  USELESS:    2738483
LLC USEFUL LOAD PREFETCHES:      57846 PREFETCH ISSUED TO LOWER LEVEL:    2830480  ACCURACY: 2.04368
LLC TIMELY PREFETCHES:      57846 LATE PREFETCHES: 0 DROPPED PREFETCHES: 0
LLC PREFETCHES SAME FILL-ORIGIN LEVEL: 0 DIFFERENT FILL-ORIGIN LEVEL: 0
LLC AVERAGE MISS LATENCY: 1175.86 cycles
LLC RQ	ACCESS:    6133443	FORWARD:          0	MERGED:          0	TO_CACHE:    6133435
LLC WQ	ACCESS:    2090856	FORWARD:          9	MERGED:          0	TO_CACHE:    2090856
LLC PQ	ACCESS:    2994378	FORWARD:          0	MERGED:          0	TO_CACHE:    2994377

LLC Dense regions hint to LLC: 0

RAW hits: 1331197
Loads Generated: 27350055
Loads sent to L1D: 26018858
Stores Generated: 8090816
Stores sent to L1D: 8090816
Major fault: 0 Minor fault: 51945
Allocated PAGES: 205039

DRAM Statistics
 CHANNEL 0
 RQ ROW_BUFFER_HIT:     863993  ROW_BUFFER_MISS:    5750140
 DBUS_CONGESTED:        424
 WQ ROW_BUFFER_HIT:     262664  ROW_BUFFER_MISS:    1583914  FULL:          0

 AVG_CONGESTED_CYCLE: 5
 All warmup complete: 5
Channel 0 Bank busy for read cycles: 0
Channel 0 Bank busy for write cycles: 0
Channel 0
Rank 0
0banks busy for read cycles: 1238842
0banks busy for write cycles: 3647
1banks busy for read cycles: 56655815
1banks busy for write cycles: 956662
2banks busy for read cycles: 77942005
2banks busy for write cycles: 890084
3banks busy for read cycles: 66858666
3banks busy for write cycles: 879367
4banks busy for read cycles: 43172640
4banks busy for write cycles: 971182
5banks busy for read cycles: 23967329
5banks busy for write cycles: 1127468
6banks busy for read cycles: 13605391
6banks busy for write cycles: 1873808
7banks busy for read cycles: 9302009
7banks busy for write cycles: 9235091
8banks busy for read cycles: 9520399
8banks busy for write cycles: 47784061

CPU 0 Branch Prediction Accuracy: 98.7507% MPKI: 1.80086 Average ROB Occupancy at Mispredict: 67.1074
Branch types
NOT_BRANCH: 0 0%
BRANCH_DIRECT_JUMP: 0 0%
BRANCH_INDIRECT: 0 0%
BRANCH_CONDITIONAL: 0 0%
BRANCH_DIRECT_CALL: 0 0%
BRANCH_INDIRECT_CALL: 0 0%
BRANCH_RETURN: 0 0%
BRANCH_OTHER: 0 0%


CPU 1 Branch Prediction Accuracy: 98.7771% MPKI: 1.79889 Average ROB Occupancy at Mispredict: 63.7938
Branch types
NOT_BRANCH: 0 0%
BRANCH_DIRECT_JUMP: 0 0%
BRANCH_INDIRECT: 0 0%
BRANCH_CONDITIONAL: 0 0%
BRANCH_DIRECT_CALL: 0 0%
BRANCH_INDIRECT_CALL: 0 0%
BRANCH_RETURN: 0 0%
BRANCH_OTHER: 0 0%


CPU 2 Branch Prediction Accuracy: 98.9032% MPKI: 1.59423 Average ROB Occupancy at Mispredict: 69.8591
Branch types
NOT_BRANCH: 0 0%
BRANCH_DIRECT_JUMP: 0 0%
BRANCH_INDIRECT: 0 0%
BRANCH_CONDITIONAL: 0 0%
BRANCH_DIRECT_CALL: 0 0%
BRANCH_INDIRECT_CALL: 0 0%
BRANCH_RETURN: 0 0%
BRANCH_OTHER: 0 0%


CPU 3 Branch Prediction Accuracy: 98.8146% MPKI: 1.7019 Average ROB Occupancy at Mispredict: 67.4119
Branch types
NOT_BRANCH: 0 0%
BRANCH_DIRECT_JUMP: 0 0%
BRANCH_INDIRECT: 0 0%
BRANCH_CONDITIONAL: 0 0%
BRANCH_DIRECT_CALL: 0 0%
BRANCH_INDIRECT_CALL: 0 0%
BRANCH_RETURN: 0 0%
BRANCH_OTHER: 0 0%

DRAM PAGES: 1048576
Allocated PAGES: 205039
