
*** ChampSim Multicore Out-of-Order Simulator ***

Warmup Instructions: 50000000
Simulation Instructions: 200000000
Number of CPUs: 4
LLC sets: 8192
LLC ways: 16
Off-chip DRAM Size: 4096 MB Channels: 1 Width: 64-bit Data Rate: 6400 MT/s
CPU 0 runs ./traces/gap/pr-10.trace.gz
.gz
CPU 1 runs ./traces/spec/433.milc-274B.champsimtrace.xz
.xz
CPU 2 runs ./traces/spec/605.mcf_s-1152B.champsimtrace.xz
.xz
CPU 3 runs ./traces/spec/605.mcf_s-484B.champsimtrace.xz
.xz
BTB has LRU replacement policy
ITLB has LRU replacement policy
DTLB has LRU replacement policy
STLB has LRU replacement policy
L1I has LRU replacement policy
History Sets: 8
History Ways: 16
BERTI Size: 16
BERTI Stride Size: 8
L1D has LRU replacement policy
Initialize SRRIP state for L2C
Initialize DRRIP state for LLC
BTB has LRU replacement policy
ITLB has LRU replacement policy
DTLB has LRU replacement policy
STLB has LRU replacement policy
L1I has LRU replacement policy
History Sets: 8
History Ways: 16
BERTI Size: 16
BERTI Stride Size: 8
L1D has LRU replacement policy
Initialize SRRIP state for L2C
Initialize DRRIP state for LLC
BTB has LRU replacement policy
ITLB has LRU replacement policy
DTLB has LRU replacement policy
STLB has LRU replacement policy
L1I has LRU replacement policy
History Sets: 8
History Ways: 16
BERTI Size: 16
BERTI Stride Size: 8
L1D has LRU replacement policy
Initialize SRRIP state for L2C
Initialize DRRIP state for LLC
BTB has LRU replacement policy
ITLB has LRU replacement policy
DTLB has LRU replacement policy
STLB has LRU replacement policy
L1I has LRU replacement policy
History Sets: 8
History Ways: 16
BERTI Size: 16
BERTI Stride Size: 8
L1D has LRU replacement policy
Initialize SRRIP state for L2C
Initialize DRRIP state for LLC
Heartbeat CPU 1 instructions: 10000002 cycles: 2590172 heartbeat IPC: 3.86075 cumulative IPC: 3.86075 (Simulation time: 0 hr 3 min 13 sec) 
Heartbeat CPU 3 instructions: 10000001 cycles: 3178746 heartbeat IPC: 3.1459 cumulative IPC: 3.1459 (Simulation time: 0 hr 3 min 58 sec) 
Heartbeat CPU 0 instructions: 10000002 cycles: 3333621 heartbeat IPC: 2.99974 cumulative IPC: 2.99974 (Simulation time: 0 hr 4 min 8 sec) 
Heartbeat CPU 2 instructions: 10000001 cycles: 3337042 heartbeat IPC: 2.99667 cumulative IPC: 2.99667 (Simulation time: 0 hr 4 min 9 sec) 
Heartbeat CPU 1 instructions: 20000002 cycles: 5180129 heartbeat IPC: 3.86107 cumulative IPC: 3.86091 (Simulation time: 0 hr 6 min 30 sec) 
Heartbeat CPU 3 instructions: 20000003 cycles: 6387850 heartbeat IPC: 3.11614 cumulative IPC: 3.13094 (Simulation time: 0 hr 8 min 2 sec) 
Heartbeat CPU 2 instructions: 20000000 cycles: 6675898 heartbeat IPC: 2.99504 cumulative IPC: 2.99585 (Simulation time: 0 hr 8 min 25 sec) 
Heartbeat CPU 1 instructions: 30000001 cycles: 7771375 heartbeat IPC: 3.85915 cumulative IPC: 3.86032 (Simulation time: 0 hr 9 min 44 sec) 
Heartbeat CPU 3 instructions: 30000001 cycles: 9565939 heartbeat IPC: 3.14654 cumulative IPC: 3.13613 (Simulation time: 0 hr 12 min 8 sec) 
Heartbeat CPU 0 instructions: 20000000 cycles: 9656581 heartbeat IPC: 1.58154 cumulative IPC: 2.07113 (Simulation time: 0 hr 12 min 16 sec) 
Heartbeat CPU 2 instructions: 30000001 cycles: 10017560 heartbeat IPC: 2.99252 cumulative IPC: 2.99474 (Simulation time: 0 hr 12 min 41 sec) 
Heartbeat CPU 1 instructions: 40000002 cycles: 10360831 heartbeat IPC: 3.86182 cumulative IPC: 3.86069 (Simulation time: 0 hr 13 min 6 sec) 
Heartbeat CPU 3 instructions: 40000000 cycles: 12729524 heartbeat IPC: 3.16097 cumulative IPC: 3.1423 (Simulation time: 0 hr 15 min 54 sec) 
Heartbeat CPU 1 instructions: 50000002 cycles: 12949975 heartbeat IPC: 3.86228 cumulative IPC: 3.86101 (Simulation time: 0 hr 16 min 9 sec) 
Heartbeat CPU 2 instructions: 40000001 cycles: 13354391 heartbeat IPC: 2.99686 cumulative IPC: 2.99527 (Simulation time: 0 hr 16 min 40 sec) 
Heartbeat CPU 1 instructions: 60000003 cycles: 15539873 heartbeat IPC: 3.86116 cumulative IPC: 0.643506 (Simulation time: 0 hr 19 min 33 sec) 
Heartbeat CPU 3 instructions: 50000000 cycles: 15918783 heartbeat IPC: 3.13552 cumulative IPC: 3.14094 (Simulation time: 0 hr 20 min 1 sec) 
Heartbeat CPU 0 instructions: 30000003 cycles: 16463342 heartbeat IPC: 1.46913 cumulative IPC: 1.82223 (Simulation time: 0 hr 20 min 40 sec) 
Heartbeat CPU 2 instructions: 50000001 cycles: 16699325 heartbeat IPC: 2.9896 cumulative IPC: 2.99413 (Simulation time: 0 hr 20 min 54 sec) 
Heartbeat CPU 3 instructions: 60000003 cycles: 19193977 heartbeat IPC: 3.05326 cumulative IPC: 0.520997 (Simulation time: 0 hr 23 min 14 sec) 
Heartbeat CPU 1 instructions: 70000003 cycles: 20489676 heartbeat IPC: 2.02028 cumulative IPC: 0.976101 (Simulation time: 0 hr 24 min 41 sec) 
Heartbeat CPU 2 instructions: 60000002 cycles: 22208643 heartbeat IPC: 1.81511 cumulative IPC: 0.450275 (Simulation time: 0 hr 26 min 27 sec) 
Heartbeat CPU 3 instructions: 70000001 cycles: 22562456 heartbeat IPC: 2.9687 cumulative IPC: 0.886428 (Simulation time: 0 hr 26 min 49 sec) 
Heartbeat CPU 1 instructions: 80000003 cycles: 23070599 heartbeat IPC: 3.87458 cumulative IPC: 1.30036 (Simulation time: 0 hr 27 min 21 sec) 
Heartbeat CPU 0 instructions: 40000001 cycles: 23248634 heartbeat IPC: 1.47378 cumulative IPC: 1.72053 (Simulation time: 0 hr 27 min 32 sec) 
Heartbeat CPU 1 instructions: 90000003 cycles: 25640788 heartbeat IPC: 3.89076 cumulative IPC: 1.56001 (Simulation time: 0 hr 29 min 47 sec) 
Heartbeat CPU 3 instructions: 80000000 cycles: 25934677 heartbeat IPC: 2.9654 cumulative IPC: 1.15675 (Simulation time: 0 hr 30 min 5 sec) 
Heartbeat CPU 2 instructions: 70000001 cycles: 27737621 heartbeat IPC: 1.80865 cumulative IPC: 0.721042 (Simulation time: 0 hr 31 min 50 sec) 
Heartbeat CPU 1 instructions: 100000003 cycles: 28200942 heartbeat IPC: 3.90601 cumulative IPC: 1.77299 (Simulation time: 0 hr 32 min 20 sec) 
Heartbeat CPU 3 instructions: 90000001 cycles: 29279928 heartbeat IPC: 2.98931 cumulative IPC: 1.36612 (Simulation time: 0 hr 33 min 25 sec) 
Heartbeat CPU 0 instructions: 50000000 cycles: 29911668 heartbeat IPC: 1.50082 cumulative IPC: 1.67159 (Simulation time: 0 hr 33 min 57 sec) 

Warmup complete CPU 0 instructions: 50000002 cycles: 29911669 (Simulation time: 0 hr 33 min 57 sec) 
Warmup complete CPU 1 instructions: 106682142 cycles: 29911668 (Simulation time: 0 hr 33 min 57 sec) 
Warmup complete CPU 2 instructions: 73972738 cycles: 29911668 (Simulation time: 0 hr 33 min 57 sec) 
Warmup complete CPU 3 instructions: 91945367 cycles: 29911668 (Simulation time: 0 hr 33 min 57 sec) 

Heartbeat CPU 1 instructions: 110000000 cycles: 32611958 heartbeat IPC: 2.26705 cumulative IPC: 1.2287 (Simulation time: 0 hr 34 min 28 sec) 
Heartbeat CPU 1 instructions: 120000001 cycles: 40520686 heartbeat IPC: 1.26443 cumulative IPC: 1.25533 (Simulation time: 0 hr 36 min 4 sec) 
Heartbeat CPU 3 instructions: 100000000 cycles: 47081531 heartbeat IPC: 0.561747 cumulative IPC: 0.469115 (Simulation time: 0 hr 37 min 46 sec) 
Heartbeat CPU 1 instructions: 130000000 cycles: 47913781 heartbeat IPC: 1.35261 cumulative IPC: 1.29528 (Simulation time: 0 hr 37 min 56 sec) 
Heartbeat CPU 1 instructions: 140000000 cycles: 56180099 heartbeat IPC: 1.20973 cumulative IPC: 1.26836 (Simulation time: 0 hr 39 min 35 sec) 
Heartbeat CPU 1 instructions: 150000002 cycles: 63476744 heartbeat IPC: 1.37049 cumulative IPC: 1.29056 (Simulation time: 0 hr 41 min 14 sec) 
Heartbeat CPU 2 instructions: 80000001 cycles: 67212767 heartbeat IPC: 0.253324 cumulative IPC: 0.161584 (Simulation time: 0 hr 42 min 1 sec) 
Heartbeat CPU 3 instructions: 110000000 cycles: 68582901 heartbeat IPC: 0.465087 cumulative IPC: 0.466875 (Simulation time: 0 hr 42 min 19 sec) 
Heartbeat CPU 1 instructions: 160000003 cycles: 70980652 heartbeat IPC: 1.33264 cumulative IPC: 1.29825 (Simulation time: 0 hr 42 min 52 sec) 
Heartbeat CPU 1 instructions: 170000001 cycles: 78235381 heartbeat IPC: 1.37841 cumulative IPC: 1.31029 (Simulation time: 0 hr 44 min 32 sec) 
Heartbeat CPU 1 instructions: 180000001 cycles: 85552874 heartbeat IPC: 1.36659 cumulative IPC: 1.31769 (Simulation time: 0 hr 46 min 9 sec) 
Heartbeat CPU 3 instructions: 120000001 cycles: 86264082 heartbeat IPC: 0.565573 cumulative IPC: 0.497843 (Simulation time: 0 hr 46 min 19 sec) 
Heartbeat CPU 1 instructions: 190000001 cycles: 92731213 heartbeat IPC: 1.39308 cumulative IPC: 1.3263 (Simulation time: 0 hr 47 min 46 sec) 
Heartbeat CPU 1 instructions: 200000002 cycles: 100122057 heartbeat IPC: 1.35303 cumulative IPC: 1.32912 (Simulation time: 0 hr 49 min 24 sec) 
Heartbeat CPU 3 instructions: 130000000 cycles: 105752416 heartbeat IPC: 0.513127 cumulative IPC: 0.50177 (Simulation time: 0 hr 50 min 32 sec) 
Heartbeat CPU 2 instructions: 90000003 cycles: 119941875 heartbeat IPC: 0.189649 cumulative IPC: 0.178021 (Simulation time: 0 hr 53 min 7 sec) 
Heartbeat CPU 1 instructions: 210000000 cycles: 121565246 heartbeat IPC: 0.466348 cumulative IPC: 1.12726 (Simulation time: 0 hr 53 min 27 sec) 
Heartbeat CPU 3 instructions: 140000001 cycles: 125724814 heartbeat IPC: 0.500691 cumulative IPC: 0.501545 (Simulation time: 0 hr 54 min 11 sec) 
Heartbeat CPU 3 instructions: 150000002 cycles: 143501414 heartbeat IPC: 0.562537 cumulative IPC: 0.51109 (Simulation time: 0 hr 57 min 29 sec) 
Heartbeat CPU 1 instructions: 220000000 cycles: 144986644 heartbeat IPC: 0.42696 cumulative IPC: 0.984731 (Simulation time: 0 hr 57 min 44 sec) 
Heartbeat CPU 2 instructions: 100000001 cycles: 166866545 heartbeat IPC: 0.213107 cumulative IPC: 0.190043 (Simulation time: 1 hr 1 min 13 sec) 
Heartbeat CPU 1 instructions: 230000000 cycles: 166949950 heartbeat IPC: 0.455305 cumulative IPC: 0.899879 (Simulation time: 1 hr 1 min 15 sec) 
Heartbeat CPU 3 instructions: 160000000 cycles: 167526643 heartbeat IPC: 0.416229 cumulative IPC: 0.494529 (Simulation time: 1 hr 1 min 24 sec) 
Heartbeat CPU 1 instructions: 240000000 cycles: 177838552 heartbeat IPC: 0.918392 cumulative IPC: 0.901242 (Simulation time: 1 hr 3 min 20 sec) 
Heartbeat CPU 1 instructions: 250000000 cycles: 185238432 heartbeat IPC: 1.35137 cumulative IPC: 0.922686 (Simulation time: 1 hr 4 min 57 sec) 
Heartbeat CPU 3 instructions: 170000000 cycles: 193232777 heartbeat IPC: 0.389012 cumulative IPC: 0.477921 (Simulation time: 1 hr 6 min 37 sec) 
Heartbeat CPU 1 instructions: 260000003 cycles: 193606832 heartbeat IPC: 1.19497 cumulative IPC: 0.936606 (Simulation time: 1 hr 6 min 42 sec) 
Heartbeat CPU 1 instructions: 270000000 cycles: 201574117 heartbeat IPC: 1.25513 cumulative IPC: 0.95139 (Simulation time: 1 hr 8 min 23 sec) 
Heartbeat CPU 1 instructions: 280000000 cycles: 210304752 heartbeat IPC: 1.14539 cumulative IPC: 0.960779 (Simulation time: 1 hr 9 min 58 sec) 
Heartbeat CPU 3 instructions: 180000001 cycles: 218090131 heartbeat IPC: 0.402295 cumulative IPC: 0.467932 (Simulation time: 1 hr 11 min 32 sec) 
Heartbeat CPU 1 instructions: 290000000 cycles: 218822198 heartbeat IPC: 1.17406 cumulative IPC: 0.970395 (Simulation time: 1 hr 11 min 40 sec) 
Heartbeat CPU 1 instructions: 300000003 cycles: 227196528 heartbeat IPC: 1.19413 cumulative IPC: 0.979892 (Simulation time: 1 hr 13 min 21 sec) 
Finished CPU 1 instructions: 200000000 cycles: 203099394 cumulative IPC: 0.98474 (Simulation time: 1 hr 14 min 28 sec) 
Heartbeat CPU 1 instructions: 310000001 cycles: 235508724 heartbeat IPC: 1.20305 cumulative IPC: 0.988914 (Simulation time: 1 hr 15 min 1 sec) 
Heartbeat CPU 2 instructions: 110000000 cycles: 242293819 heartbeat IPC: 0.132578 cumulative IPC: 0.169634 (Simulation time: 1 hr 16 min 24 sec) 
Heartbeat CPU 3 instructions: 190000000 cycles: 242897983 heartbeat IPC: 0.403098 cumulative IPC: 0.46038 (Simulation time: 1 hr 16 min 32 sec) 
Heartbeat CPU 1 instructions: 320000001 cycles: 243207753 heartbeat IPC: 1.29887 cumulative IPC: 1.0001 (Simulation time: 1 hr 16 min 36 sec) 
Heartbeat CPU 1 instructions: 330000000 cycles: 251896106 heartbeat IPC: 1.15097 cumulative IPC: 1.00601 (Simulation time: 1 hr 18 min 6 sec) 
Heartbeat CPU 1 instructions: 340000001 cycles: 260421687 heartbeat IPC: 1.17294 cumulative IPC: 1.01218 (Simulation time: 1 hr 19 min 32 sec) 
Heartbeat CPU 1 instructions: 350000001 cycles: 267974867 heartbeat IPC: 1.32395 cumulative IPC: 1.02207 (Simulation time: 1 hr 21 min 18 sec) 
Heartbeat CPU 3 instructions: 200000000 cycles: 275043471 heartbeat IPC: 0.311086 cumulative IPC: 0.440802 (Simulation time: 1 hr 22 min 40 sec) 
Heartbeat CPU 1 instructions: 360000003 cycles: 276136763 heartbeat IPC: 1.22521 cumulative IPC: 1.02881 (Simulation time: 1 hr 22 min 50 sec) 
Heartbeat CPU 1 instructions: 370000000 cycles: 283503668 heartbeat IPC: 1.35742 cumulative IPC: 1.03835 (Simulation time: 1 hr 24 min 15 sec) 
Heartbeat CPU 1 instructions: 380000000 cycles: 305997018 heartbeat IPC: 0.444576 cumulative IPC: 0.989976 (Simulation time: 1 hr 28 min 34 sec) 
Heartbeat CPU 1 instructions: 390000002 cycles: 315758239 heartbeat IPC: 1.02446 cumulative IPC: 0.991154 (Simulation time: 1 hr 30 min 14 sec) 
Heartbeat CPU 3 instructions: 210000002 cycles: 319591972 heartbeat IPC: 0.224474 cumulative IPC: 0.407534 (Simulation time: 1 hr 30 min 59 sec) 
Heartbeat CPU 1 instructions: 400000000 cycles: 322792364 heartbeat IPC: 1.42164 cumulative IPC: 1.00149 (Simulation time: 1 hr 31 min 42 sec) 
Heartbeat CPU 2 instructions: 120000002 cycles: 322853023 heartbeat IPC: 0.124132 cumulative IPC: 0.157121 (Simulation time: 1 hr 31 min 43 sec) 
Heartbeat CPU 1 instructions: 410000002 cycles: 330196456 heartbeat IPC: 1.3506 cumulative IPC: 1.0101 (Simulation time: 1 hr 33 min 24 sec) 
Heartbeat CPU 1 instructions: 420000001 cycles: 338068755 heartbeat IPC: 1.27028 cumulative IPC: 1.01675 (Simulation time: 1 hr 35 min 4 sec) 
Heartbeat CPU 3 instructions: 220000000 cycles: 339839592 heartbeat IPC: 0.493885 cumulative IPC: 0.413176 (Simulation time: 1 hr 35 min 28 sec) 
Heartbeat CPU 1 instructions: 430000000 cycles: 345070059 heartbeat IPC: 1.42831 cumulative IPC: 1.02589 (Simulation time: 1 hr 36 min 37 sec) 
Heartbeat CPU 1 instructions: 440000000 cycles: 352485317 heartbeat IPC: 1.34857 cumulative IPC: 1.03331 (Simulation time: 1 hr 38 min 11 sec) 
Heartbeat CPU 1 instructions: 450000002 cycles: 359480333 heartbeat IPC: 1.42959 cumulative IPC: 1.04172 (Simulation time: 1 hr 39 min 36 sec) 
Heartbeat CPU 3 instructions: 230000002 cycles: 364752120 heartbeat IPC: 0.401405 cumulative IPC: 0.4123 (Simulation time: 1 hr 40 min 40 sec) 
Heartbeat CPU 1 instructions: 460000002 cycles: 366560462 heartbeat IPC: 1.4124 cumulative IPC: 1.04951 (Simulation time: 1 hr 41 min 5 sec) 
Heartbeat CPU 1 instructions: 470000002 cycles: 373816374 heartbeat IPC: 1.37819 cumulative IPC: 1.05645 (Simulation time: 1 hr 42 min 39 sec) 
Heartbeat CPU 1 instructions: 480000000 cycles: 380754222 heartbeat IPC: 1.44137 cumulative IPC: 1.06406 (Simulation time: 1 hr 43 min 58 sec) 
Heartbeat CPU 1 instructions: 490000002 cycles: 387965806 heartbeat IPC: 1.38666 cumulative IPC: 1.07056 (Simulation time: 1 hr 45 min 33 sec) 
Heartbeat CPU 3 instructions: 240000000 cycles: 389105418 heartbeat IPC: 0.410622 cumulative IPC: 0.412186 (Simulation time: 1 hr 45 min 52 sec) 
Heartbeat CPU 2 instructions: 130000002 cycles: 391603095 heartbeat IPC: 0.145454 cumulative IPC: 0.154903 (Simulation time: 1 hr 46 min 32 sec) 
Heartbeat CPU 1 instructions: 500000003 cycles: 395030991 heartbeat IPC: 1.41539 cumulative IPC: 1.07723 (Simulation time: 1 hr 47 min 14 sec) 
Heartbeat CPU 1 instructions: 510000000 cycles: 402106188 heartbeat IPC: 1.41339 cumulative IPC: 1.08362 (Simulation time: 1 hr 48 min 45 sec) 
Heartbeat CPU 1 instructions: 520000001 cycles: 416349004 heartbeat IPC: 0.702108 cumulative IPC: 1.06956 (Simulation time: 1 hr 51 min 19 sec) 
Heartbeat CPU 3 instructions: 250000001 cycles: 417151598 heartbeat IPC: 0.356555 cumulative IPC: 0.408157 (Simulation time: 1 hr 51 min 27 sec) 
Heartbeat CPU 3 instructions: 260000001 cycles: 437399753 heartbeat IPC: 0.493872 cumulative IPC: 0.412416 (Simulation time: 1 hr 54 min 56 sec) 
Heartbeat CPU 1 instructions: 530000003 cycles: 443851677 heartbeat IPC: 0.363601 cumulative IPC: 1.02266 (Simulation time: 1 hr 55 min 52 sec) 
Heartbeat CPU 2 instructions: 140000000 cycles: 463100096 heartbeat IPC: 0.139866 cumulative IPC: 0.152422 (Simulation time: 1 hr 58 min 44 sec) 
Heartbeat CPU 1 instructions: 540000003 cycles: 470295025 heartbeat IPC: 0.378167 cumulative IPC: 0.983956 (Simulation time: 1 hr 59 min 41 sec) 
Heartbeat CPU 3 instructions: 270000002 cycles: 476964503 heartbeat IPC: 0.25275 cumulative IPC: 0.398285 (Simulation time: 2 hr 0 min 39 sec) 
Heartbeat CPU 1 instructions: 550000000 cycles: 497889162 heartbeat IPC: 0.362396 cumulative IPC: 0.947306 (Simulation time: 2 hr 3 min 49 sec) 
Heartbeat CPU 3 instructions: 280000001 cycles: 505308725 heartbeat IPC: 0.352806 cumulative IPC: 0.395574 (Simulation time: 2 hr 5 min 2 sec) 
Heartbeat CPU 1 instructions: 560000003 cycles: 518218240 heartbeat IPC: 0.491906 cumulative IPC: 0.928347 (Simulation time: 2 hr 7 min 15 sec) 
Heartbeat CPU 1 instructions: 570000001 cycles: 527125073 heartbeat IPC: 1.12273 cumulative IPC: 0.931829 (Simulation time: 2 hr 8 min 56 sec) 
Heartbeat CPU 2 instructions: 150000001 cycles: 531239215 heartbeat IPC: 0.146759 cumulative IPC: 0.151652 (Simulation time: 2 hr 9 min 59 sec) 
Heartbeat CPU 1 instructions: 580000001 cycles: 534171861 heartbeat IPC: 1.41909 cumulative IPC: 0.938638 (Simulation time: 2 hr 10 min 41 sec) 
Heartbeat CPU 3 instructions: 290000003 cycles: 535364544 heartbeat IPC: 0.332714 cumulative IPC: 0.391836 (Simulation time: 2 hr 11 min 0 sec) 
Finished CPU 3 instructions: 200000000 cycles: 508358497 cumulative IPC: 0.393423 (Simulation time: 2 hr 11 min 46 sec) 
Heartbeat CPU 1 instructions: 590000000 cycles: 541571249 heartbeat IPC: 1.35146 cumulative IPC: 0.944608 (Simulation time: 2 hr 12 min 24 sec) 
Heartbeat CPU 1 instructions: 600000000 cycles: 549181330 heartbeat IPC: 1.31405 cumulative IPC: 0.950023 (Simulation time: 2 hr 13 min 56 sec) 
Heartbeat CPU 1 instructions: 610000001 cycles: 556491125 heartbeat IPC: 1.36803 cumulative IPC: 0.955825 (Simulation time: 2 hr 15 min 45 sec) 
Heartbeat CPU 3 instructions: 300000000 cycles: 557727512 heartbeat IPC: 0.447168 cumulative IPC: 0.39418 (Simulation time: 2 hr 16 min 1 sec) 
Heartbeat CPU 1 instructions: 620000002 cycles: 564861745 heartbeat IPC: 1.19465 cumulative IPC: 0.959562 (Simulation time: 2 hr 17 min 36 sec) 
Heartbeat CPU 1 instructions: 630000002 cycles: 571974633 heartbeat IPC: 1.4059 cumulative IPC: 0.965419 (Simulation time: 2 hr 19 min 21 sec) 
Heartbeat CPU 1 instructions: 640000001 cycles: 579905213 heartbeat IPC: 1.26094 cumulative IPC: 0.96968 (Simulation time: 2 hr 21 min 7 sec) 
Heartbeat CPU 2 instructions: 160000000 cycles: 581379203 heartbeat IPC: 0.199442 cumulative IPC: 0.155997 (Simulation time: 2 hr 21 min 26 sec) 
Heartbeat CPU 3 instructions: 310000000 cycles: 581554646 heartbeat IPC: 0.41969 cumulative IPC: 0.395282 (Simulation time: 2 hr 21 min 30 sec) 
Heartbeat CPU 1 instructions: 650000003 cycles: 587008400 heartbeat IPC: 1.40782 cumulative IPC: 0.975267 (Simulation time: 2 hr 22 min 55 sec) 
Heartbeat CPU 1 instructions: 660000000 cycles: 594269064 heartbeat IPC: 1.37728 cumulative IPC: 0.980439 (Simulation time: 2 hr 24 min 21 sec) 
Heartbeat CPU 1 instructions: 670000001 cycles: 602854298 heartbeat IPC: 1.16479 cumulative IPC: 0.983201 (Simulation time: 2 hr 26 min 0 sec) 
Heartbeat CPU 1 instructions: 680000002 cycles: 609751761 heartbeat IPC: 1.44981 cumulative IPC: 0.988752 (Simulation time: 2 hr 27 min 35 sec) 
Heartbeat CPU 3 instructions: 320000003 cycles: 612158518 heartbeat IPC: 0.326756 cumulative IPC: 0.39168 (Simulation time: 2 hr 28 min 5 sec) 
Heartbeat CPU 1 instructions: 690000000 cycles: 616685643 heartbeat IPC: 1.44219 cumulative IPC: 0.99411 (Simulation time: 2 hr 29 min 8 sec) 
Heartbeat CPU 1 instructions: 700000001 cycles: 623923282 heartbeat IPC: 1.38167 cumulative IPC: 0.998832 (Simulation time: 2 hr 30 min 48 sec) 
Heartbeat CPU 2 instructions: 170000001 cycles: 628707695 heartbeat IPC: 0.211289 cumulative IPC: 0.160367 (Simulation time: 2 hr 32 min 2 sec) 
Heartbeat CPU 1 instructions: 710000001 cycles: 630904851 heartbeat IPC: 1.43234 cumulative IPC: 1.00387 (Simulation time: 2 hr 32 min 35 sec) 
Heartbeat CPU 3 instructions: 330000000 cycles: 632332935 heartbeat IPC: 0.495677 cumulative IPC: 0.395163 (Simulation time: 2 hr 33 min 0 sec) 
Heartbeat CPU 1 instructions: 720000000 cycles: 638966220 heartbeat IPC: 1.24048 cumulative IPC: 1.007 (Simulation time: 2 hr 34 min 25 sec) 
Heartbeat CPU 1 instructions: 730000000 cycles: 657549552 heartbeat IPC: 0.538117 cumulative IPC: 0.993117 (Simulation time: 2 hr 38 min 16 sec) 
Heartbeat CPU 3 instructions: 340000000 cycles: 667058927 heartbeat IPC: 0.287969 cumulative IPC: 0.389321 (Simulation time: 2 hr 40 min 11 sec) 
Heartbeat CPU 1 instructions: 740000002 cycles: 671952228 heartbeat IPC: 0.694316 cumulative IPC: 0.986414 (Simulation time: 2 hr 41 min 7 sec) 
Heartbeat CPU 1 instructions: 750000000 cycles: 679338241 heartbeat IPC: 1.35391 cumulative IPC: 0.990594 (Simulation time: 2 hr 42 min 43 sec) 
Heartbeat CPU 1 instructions: 760000001 cycles: 686379996 heartbeat IPC: 1.4201 cumulative IPC: 0.995201 (Simulation time: 2 hr 44 min 20 sec) 
Heartbeat CPU 2 instructions: 180000003 cycles: 687815113 heartbeat IPC: 0.169184 cumulative IPC: 0.161159 (Simulation time: 2 hr 44 min 39 sec) 
Heartbeat CPU 1 instructions: 770000000 cycles: 693831865 heartbeat IPC: 1.34195 cumulative IPC: 0.999093 (Simulation time: 2 hr 46 min 5 sec) 
Heartbeat CPU 3 instructions: 350000003 cycles: 696597535 heartbeat IPC: 0.33854 cumulative IPC: 0.387071 (Simulation time: 2 hr 46 min 46 sec) 
Heartbeat CPU 1 instructions: 780000002 cycles: 700928983 heartbeat IPC: 1.40902 cumulative IPC: 1.00343 (Simulation time: 2 hr 47 min 45 sec) 
Heartbeat CPU 1 instructions: 790000002 cycles: 708602661 heartbeat IPC: 1.30316 cumulative IPC: 1.00682 (Simulation time: 2 hr 49 min 27 sec) 
Heartbeat CPU 1 instructions: 800000000 cycles: 716867484 heartbeat IPC: 1.20995 cumulative IPC: 1.00926 (Simulation time: 2 hr 51 min 9 sec) 
Heartbeat CPU 3 instructions: 360000000 cycles: 723314714 heartbeat IPC: 0.374291 cumulative IPC: 0.386578 (Simulation time: 2 hr 52 min 44 sec) 
Heartbeat CPU 1 instructions: 810000003 cycles: 724070944 heartbeat IPC: 1.38822 cumulative IPC: 1.01319 (Simulation time: 2 hr 52 min 56 sec) 
Heartbeat CPU 1 instructions: 820000002 cycles: 731449856 heartbeat IPC: 1.35521 cumulative IPC: 1.01679 (Simulation time: 2 hr 54 min 42 sec) 
Heartbeat CPU 1 instructions: 830000000 cycles: 738505749 heartbeat IPC: 1.41725 cumulative IPC: 1.02078 (Simulation time: 2 hr 56 min 22 sec) 
Heartbeat CPU 2 instructions: 190000000 cycles: 740082363 heartbeat IPC: 0.191324 cumulative IPC: 0.163379 (Simulation time: 2 hr 56 min 43 sec) 
Heartbeat CPU 1 instructions: 840000002 cycles: 745483485 heartbeat IPC: 1.43313 cumulative IPC: 1.0248 (Simulation time: 2 hr 58 min 0 sec) 
Heartbeat CPU 3 instructions: 370000000 cycles: 746667990 heartbeat IPC: 0.428205 cumulative IPC: 0.387935 (Simulation time: 2 hr 58 min 16 sec) 
Heartbeat CPU 1 instructions: 850000002 cycles: 753158373 heartbeat IPC: 1.30295 cumulative IPC: 1.02775 (Simulation time: 2 hr 59 min 43 sec) 
Heartbeat CPU 1 instructions: 860000003 cycles: 760113998 heartbeat IPC: 1.43769 cumulative IPC: 1.03166 (Simulation time: 3 hr 1 min 29 sec) 
Heartbeat CPU 1 instructions: 870000002 cycles: 769401654 heartbeat IPC: 1.0767 cumulative IPC: 1.03222 (Simulation time: 3 hr 3 min 43 sec) 
Heartbeat CPU 3 instructions: 380000001 cycles: 769445798 heartbeat IPC: 0.439024 cumulative IPC: 0.389508 (Simulation time: 3 hr 3 min 44 sec) 
Heartbeat CPU 1 instructions: 880000000 cycles: 790364397 heartbeat IPC: 0.477037 cumulative IPC: 1.01692 (Simulation time: 3 hr 7 min 25 sec) 
Heartbeat CPU 2 instructions: 200000001 cycles: 790691107 heartbeat IPC: 0.197594 cumulative IPC: 0.165655 (Simulation time: 3 hr 7 min 28 sec) 
Heartbeat CPU 3 instructions: 390000002 cycles: 796397311 heartbeat IPC: 0.371037 cumulative IPC: 0.388859 (Simulation time: 3 hr 8 min 22 sec) 
Heartbeat CPU 0 instructions: 60000000 cycles: 804353291 heartbeat IPC: 0.0129125 cumulative IPC: 0.0129125 (Simulation time: 3 hr 9 min 46 sec) 
Heartbeat CPU 1 instructions: 890000001 cycles: 812315549 heartbeat IPC: 0.455557 cumulative IPC: 1.00117 (Simulation time: 3 hr 11 min 9 sec) 
Heartbeat CPU 3 instructions: 400000001 cycles: 823383960 heartbeat IPC: 0.370554 cumulative IPC: 0.388236 (Simulation time: 3 hr 12 min 58 sec) 
Heartbeat CPU 1 instructions: 900000000 cycles: 833239886 heartbeat IPC: 0.477912 cumulative IPC: 0.987539 (Simulation time: 3 hr 14 min 58 sec) 
Heartbeat CPU 1 instructions: 910000001 cycles: 841146173 heartbeat IPC: 1.26482 cumulative IPC: 0.990241 (Simulation time: 3 hr 16 min 48 sec) 
Heartbeat CPU 2 instructions: 210000002 cycles: 843516188 heartbeat IPC: 0.189304 cumulative IPC: 0.167191 (Simulation time: 3 hr 17 min 19 sec) 
Heartbeat CPU 3 instructions: 410000001 cycles: 844709216 heartbeat IPC: 0.468928 cumulative IPC: 0.390348 (Simulation time: 3 hr 17 min 36 sec) 
Heartbeat CPU 1 instructions: 920000000 cycles: 848336755 heartbeat IPC: 1.39071 cumulative IPC: 0.99376 (Simulation time: 3 hr 18 min 24 sec) 
Heartbeat CPU 1 instructions: 930000001 cycles: 856001827 heartbeat IPC: 1.30462 cumulative IPC: 0.996644 (Simulation time: 3 hr 19 min 55 sec) 
Heartbeat CPU 1 instructions: 940000001 cycles: 863243376 heartbeat IPC: 1.38092 cumulative IPC: 0.999983 (Simulation time: 3 hr 21 min 39 sec) 
Heartbeat CPU 1 instructions: 950000000 cycles: 870398983 heartbeat IPC: 1.39751 cumulative IPC: 1.00337 (Simulation time: 3 hr 23 min 0 sec) 
Heartbeat CPU 3 instructions: 420000000 cycles: 873649980 heartbeat IPC: 0.345533 cumulative IPC: 0.388811 (Simulation time: 3 hr 23 min 38 sec) 
Heartbeat CPU 1 instructions: 960000003 cycles: 877424917 heartbeat IPC: 1.4233 cumulative IPC: 1.00685 (Simulation time: 3 hr 24 min 22 sec) 
Heartbeat CPU 1 instructions: 970000001 cycles: 885040972 heartbeat IPC: 1.31302 cumulative IPC: 1.00958 (Simulation time: 3 hr 26 min 1 sec) 
Heartbeat CPU 1 instructions: 980000000 cycles: 892658040 heartbeat IPC: 1.31284 cumulative IPC: 1.01225 (Simulation time: 3 hr 27 min 50 sec) 
Heartbeat CPU 3 instructions: 430000000 cycles: 895734470 heartbeat IPC: 0.452806 cumulative IPC: 0.390443 (Simulation time: 3 hr 28 min 38 sec) 
Heartbeat CPU 1 instructions: 990000000 cycles: 899829307 heartbeat IPC: 1.39445 cumulative IPC: 1.0154 (Simulation time: 3 hr 29 min 36 sec) 
Heartbeat CPU 2 instructions: 220000000 cycles: 899925358 heartbeat IPC: 0.177276 cumulative IPC: 0.167845 (Simulation time: 3 hr 29 min 37 sec) 
Heartbeat CPU 1 instructions: 1000000001 cycles: 906952692 heartbeat IPC: 1.40383 cumulative IPC: 1.01856 (Simulation time: 3 hr 31 min 1 sec) 
Heartbeat CPU 1 instructions: 1010000001 cycles: 913982598 heartbeat IPC: 1.42249 cumulative IPC: 1.02177 (Simulation time: 3 hr 32 min 30 sec) 
Heartbeat CPU 1 instructions: 1020000002 cycles: 921226867 heartbeat IPC: 1.3804 cumulative IPC: 1.02469 (Simulation time: 3 hr 34 min 11 sec) 
Heartbeat CPU 3 instructions: 440000000 cycles: 925205814 heartbeat IPC: 0.339313 cumulative IPC: 0.38876 (Simulation time: 3 hr 34 min 52 sec) 
Heartbeat CPU 1 instructions: 1030000000 cycles: 929309961 heartbeat IPC: 1.23715 cumulative IPC: 1.0266 (Simulation time: 3 hr 35 min 40 sec) 
Heartbeat CPU 1 instructions: 1040000001 cycles: 936854617 heartbeat IPC: 1.32544 cumulative IPC: 1.02908 (Simulation time: 3 hr 37 min 13 sec) 
Heartbeat CPU 3 instructions: 450000002 cycles: 957269709 heartbeat IPC: 0.311877 cumulative IPC: 0.386102 (Simulation time: 3 hr 41 min 20 sec) 
Heartbeat CPU 1 instructions: 1050000000 cycles: 960934979 heartbeat IPC: 0.415276 cumulative IPC: 1.01321 (Simulation time: 3 hr 42 min 5 sec) 
Heartbeat CPU 2 instructions: 230000002 cycles: 961765288 heartbeat IPC: 0.161708 cumulative IPC: 0.167438 (Simulation time: 3 hr 42 min 15 sec) 
Heartbeat CPU 1 instructions: 1060000000 cycles: 968242168 heartbeat IPC: 1.36852 cumulative IPC: 1.01597 (Simulation time: 3 hr 43 min 35 sec) 
Heartbeat CPU 1 instructions: 1070000001 cycles: 976266253 heartbeat IPC: 1.24625 cumulative IPC: 1.01792 (Simulation time: 3 hr 45 min 18 sec) 
Heartbeat CPU 1 instructions: 1080000000 cycles: 983751965 heartbeat IPC: 1.33588 cumulative IPC: 1.02042 (Simulation time: 3 hr 47 min 0 sec) 
Heartbeat CPU 3 instructions: 460000000 cycles: 987305951 heartbeat IPC: 0.332931 cumulative IPC: 0.384434 (Simulation time: 3 hr 47 min 49 sec) 
Heartbeat CPU 1 instructions: 1090000000 cycles: 990932139 heartbeat IPC: 1.39272 cumulative IPC: 1.0232 (Simulation time: 3 hr 48 min 36 sec) 
Heartbeat CPU 1 instructions: 1100000000 cycles: 998279251 heartbeat IPC: 1.36108 cumulative IPC: 1.02577 (Simulation time: 3 hr 50 min 5 sec) 
Heartbeat CPU 1 instructions: 1110000000 cycles: 1005430470 heartbeat IPC: 1.39836 cumulative IPC: 1.0285 (Simulation time: 3 hr 51 min 36 sec) 
Heartbeat CPU 3 instructions: 470000000 cycles: 1013157667 heartbeat IPC: 0.386822 cumulative IPC: 0.384496 (Simulation time: 3 hr 53 min 12 sec) 
Heartbeat CPU 1 instructions: 1120000003 cycles: 1013398692 heartbeat IPC: 1.25499 cumulative IPC: 1.03033 (Simulation time: 3 hr 53 min 15 sec) 
Heartbeat CPU 1 instructions: 1130000002 cycles: 1020683684 heartbeat IPC: 1.37268 cumulative IPC: 1.03285 (Simulation time: 3 hr 55 min 1 sec) 
Heartbeat CPU 2 instructions: 240000001 cycles: 1023385831 heartbeat IPC: 0.162284 cumulative IPC: 0.167118 (Simulation time: 3 hr 55 min 35 sec) 
Heartbeat CPU 1 instructions: 1140000000 cycles: 1028396803 heartbeat IPC: 1.29649 cumulative IPC: 1.03489 (Simulation time: 3 hr 56 min 45 sec) 
Heartbeat CPU 3 instructions: 480000001 cycles: 1033883926 heartbeat IPC: 0.48248 cumulative IPC: 0.386519 (Simulation time: 3 hr 58 min 7 sec) 
Heartbeat CPU 1 instructions: 1150000003 cycles: 1035875968 heartbeat IPC: 1.33705 cumulative IPC: 1.03713 (Simulation time: 3 hr 58 min 34 sec) 
Heartbeat CPU 1 instructions: 1160000003 cycles: 1042915731 heartbeat IPC: 1.4205 cumulative IPC: 1.0398 (Simulation time: 4 hr 0 min 9 sec) 
Heartbeat CPU 1 instructions: 1170000001 cycles: 1050623336 heartbeat IPC: 1.29742 cumulative IPC: 1.04174 (Simulation time: 4 hr 1 min 55 sec) 
Heartbeat CPU 3 instructions: 490000002 cycles: 1056223238 heartbeat IPC: 0.447641 cumulative IPC: 0.38785 (Simulation time: 4 hr 3 min 27 sec) 
Heartbeat CPU 1 instructions: 1180000002 cycles: 1057592192 heartbeat IPC: 1.43496 cumulative IPC: 1.04441 (Simulation time: 4 hr 3 min 44 sec) 
Heartbeat CPU 1 instructions: 1190000000 cycles: 1077427184 heartbeat IPC: 0.504159 cumulative IPC: 1.03418 (Simulation time: 4 hr 7 min 15 sec) 
Heartbeat CPU 2 instructions: 250000001 cycles: 1079063325 heartbeat IPC: 0.179606 cumulative IPC: 0.167781 (Simulation time: 4 hr 7 min 30 sec) 
Heartbeat CPU 3 instructions: 500000001 cycles: 1083841588 heartbeat IPC: 0.362078 cumulative IPC: 0.387174 (Simulation time: 4 hr 8 min 16 sec) 
Heartbeat CPU 1 instructions: 1200000001 cycles: 1104868786 heartbeat IPC: 0.36441 cumulative IPC: 1.01708 (Simulation time: 4 hr 11 min 48 sec) 
Heartbeat CPU 3 instructions: 510000002 cycles: 1108394202 heartbeat IPC: 0.407289 cumulative IPC: 0.387632 (Simulation time: 4 hr 12 min 24 sec) 
Heartbeat CPU 1 instructions: 1210000000 cycles: 1134067258 heartbeat IPC: 0.342484 cumulative IPC: 0.999241 (Simulation time: 4 hr 16 min 27 sec) 
Heartbeat CPU 2 instructions: 260000000 cycles: 1142502081 heartbeat IPC: 0.157632 cumulative IPC: 0.167202 (Simulation time: 4 hr 17 min 31 sec) 
Heartbeat CPU 3 instructions: 520000002 cycles: 1146878607 heartbeat IPC: 0.259846 cumulative IPC: 0.383229 (Simulation time: 4 hr 18 min 10 sec) 
Heartbeat CPU 1 instructions: 1220000001 cycles: 1160766386 heartbeat IPC: 0.374544 cumulative IPC: 0.984492 (Simulation time: 4 hr 20 min 37 sec) 
Heartbeat CPU 3 instructions: 530000002 cycles: 1168750767 heartbeat IPC: 0.457202 cumulative IPC: 0.38465 (Simulation time: 4 hr 22 min 2 sec) 
Heartbeat CPU 1 instructions: 1230000001 cycles: 1176177429 heartbeat IPC: 0.648885 cumulative IPC: 0.97998 (Simulation time: 4 hr 23 min 39 sec) 
Heartbeat CPU 1 instructions: 1240000003 cycles: 1184599464 heartbeat IPC: 1.18736 cumulative IPC: 0.981493 (Simulation time: 4 hr 25 min 27 sec) 
Heartbeat CPU 1 instructions: 1250000002 cycles: 1192453212 heartbeat IPC: 1.27328 cumulative IPC: 0.983464 (Simulation time: 4 hr 27 min 10 sec) 
Heartbeat CPU 3 instructions: 540000000 cycles: 1195838971 heartbeat IPC: 0.369164 cumulative IPC: 0.38429 (Simulation time: 4 hr 27 min 58 sec) 
Heartbeat CPU 1 instructions: 1260000002 cycles: 1199800897 heartbeat IPC: 1.36097 cumulative IPC: 0.985835 (Simulation time: 4 hr 28 min 48 sec) 
Heartbeat CPU 1 instructions: 1270000001 cycles: 1207594659 heartbeat IPC: 1.28308 cumulative IPC: 0.987802 (Simulation time: 4 hr 30 min 32 sec) 
Heartbeat CPU 2 instructions: 270000001 cycles: 1209839251 heartbeat IPC: 0.148506 cumulative IPC: 0.166135 (Simulation time: 4 hr 31 min 4 sec) 
Heartbeat CPU 1 instructions: 1280000000 cycles: 1214935345 heartbeat IPC: 1.36227 cumulative IPC: 0.990122 (Simulation time: 4 hr 32 min 8 sec) 
Heartbeat CPU 3 instructions: 550000000 cycles: 1216238141 heartbeat IPC: 0.490216 cumulative IPC: 0.386112 (Simulation time: 4 hr 32 min 27 sec) 
Heartbeat CPU 1 instructions: 1290000001 cycles: 1223594056 heartbeat IPC: 1.15491 cumulative IPC: 0.991317 (Simulation time: 4 hr 33 min 50 sec) 
Heartbeat CPU 1 instructions: 1300000003 cycles: 1231623552 heartbeat IPC: 1.24541 cumulative IPC: 0.993015 (Simulation time: 4 hr 35 min 25 sec) 
Finished CPU 2 instructions: 200000000 cycles: 1207303954 cumulative IPC: 0.165658 (Simulation time: 4 hr 36 min 34 sec) 
Heartbeat CPU 1 instructions: 1310000003 cycles: 1238772442 heartbeat IPC: 1.39882 cumulative IPC: 0.995415 (Simulation time: 4 hr 36 min 56 sec) 
Heartbeat CPU 1 instructions: 1320000000 cycles: 1246585598 heartbeat IPC: 1.27989 cumulative IPC: 0.997242 (Simulation time: 4 hr 38 min 46 sec) 
Heartbeat CPU 3 instructions: 560000003 cycles: 1246706488 heartbeat IPC: 0.32821 cumulative IPC: 0.384662 (Simulation time: 4 hr 38 min 47 sec) 
Heartbeat CPU 1 instructions: 1330000003 cycles: 1253761124 heartbeat IPC: 1.39363 cumulative IPC: 0.999566 (Simulation time: 4 hr 40 min 21 sec) 
Heartbeat CPU 1 instructions: 1340000003 cycles: 1261193675 heartbeat IPC: 1.34543 cumulative IPC: 1.00165 (Simulation time: 4 hr 42 min 7 sec) 
Heartbeat CPU 1 instructions: 1350000002 cycles: 1268416539 heartbeat IPC: 1.38449 cumulative IPC: 1.00389 (Simulation time: 4 hr 43 min 41 sec) 
Heartbeat CPU 3 instructions: 570000000 cycles: 1271236123 heartbeat IPC: 0.40767 cumulative IPC: 0.385117 (Simulation time: 4 hr 44 min 17 sec) 
Heartbeat CPU 1 instructions: 1360000003 cycles: 1275295727 heartbeat IPC: 1.45366 cumulative IPC: 1.00637 (Simulation time: 4 hr 45 min 11 sec) 
Heartbeat CPU 2 instructions: 280000000 cycles: 1276178034 heartbeat IPC: 0.150741 cumulative IPC: 0.165316 (Simulation time: 4 hr 45 min 26 sec) 
Heartbeat CPU 1 instructions: 1370000000 cycles: 1282248250 heartbeat IPC: 1.43833 cumulative IPC: 1.00877 (Simulation time: 4 hr 46 min 46 sec) 
Heartbeat CPU 1 instructions: 1380000001 cycles: 1290259862 heartbeat IPC: 1.24819 cumulative IPC: 1.01029 (Simulation time: 4 hr 48 min 19 sec) 
Heartbeat CPU 1 instructions: 1390000003 cycles: 1297851268 heartbeat IPC: 1.31728 cumulative IPC: 1.01213 (Simulation time: 4 hr 49 min 56 sec) 
Heartbeat CPU 3 instructions: 580000000 cycles: 1300155604 heartbeat IPC: 0.345788 cumulative IPC: 0.384221 (Simulation time: 4 hr 50 min 31 sec) 
Heartbeat CPU 1 instructions: 1400000003 cycles: 1321529801 heartbeat IPC: 0.422323 cumulative IPC: 1.00132 (Simulation time: 4 hr 55 min 5 sec) 
Heartbeat CPU 3 instructions: 590000002 cycles: 1328159047 heartbeat IPC: 0.357099 cumulative IPC: 0.383636 (Simulation time: 4 hr 56 min 18 sec) 
Heartbeat CPU 1 instructions: 1410000002 cycles: 1330861077 heartbeat IPC: 1.07166 cumulative IPC: 1.00182 (Simulation time: 4 hr 56 min 51 sec) 
Heartbeat CPU 1 instructions: 1420000003 cycles: 1338420865 heartbeat IPC: 1.32279 cumulative IPC: 1.00367 (Simulation time: 4 hr 58 min 28 sec) 
Heartbeat CPU 1 instructions: 1430000000 cycles: 1345557821 heartbeat IPC: 1.40116 cumulative IPC: 1.00583 (Simulation time: 5 hr 0 min 4 sec) 
Heartbeat CPU 2 instructions: 290000001 cycles: 1353070466 heartbeat IPC: 0.130052 cumulative IPC: 0.163266 (Simulation time: 5 hr 1 min 46 sec) 
Heartbeat CPU 3 instructions: 600000003 cycles: 1353164319 heartbeat IPC: 0.399916 cumulative IPC: 0.383944 (Simulation time: 5 hr 1 min 47 sec) 
Heartbeat CPU 1 instructions: 1440000003 cycles: 1353478615 heartbeat IPC: 1.2625 cumulative IPC: 1.00737 (Simulation time: 5 hr 1 min 52 sec) 
Heartbeat CPU 1 instructions: 1450000000 cycles: 1360545251 heartbeat IPC: 1.4151 cumulative IPC: 1.00953 (Simulation time: 5 hr 3 min 31 sec) 
Heartbeat CPU 1 instructions: 1460000000 cycles: 1368078307 heartbeat IPC: 1.32748 cumulative IPC: 1.01132 (Simulation time: 5 hr 5 min 5 sec) 
Heartbeat CPU 3 instructions: 610000001 cycles: 1375081591 heartbeat IPC: 0.456261 cumulative IPC: 0.385122 (Simulation time: 5 hr 6 min 40 sec) 
Heartbeat CPU 1 instructions: 1470000000 cycles: 1375180926 heartbeat IPC: 1.40793 cumulative IPC: 1.01342 (Simulation time: 5 hr 6 min 42 sec) 
Heartbeat CPU 1 instructions: 1480000003 cycles: 1382399039 heartbeat IPC: 1.3854 cumulative IPC: 1.0154 (Simulation time: 5 hr 8 min 6 sec) 
Heartbeat CPU 1 instructions: 1490000003 cycles: 1390167073 heartbeat IPC: 1.28733 cumulative IPC: 1.01695 (Simulation time: 5 hr 9 min 33 sec) 
Heartbeat CPU 1 instructions: 1500000002 cycles: 1397484838 heartbeat IPC: 1.36654 cumulative IPC: 1.01883 (Simulation time: 5 hr 11 min 18 sec) 
Heartbeat CPU 3 instructions: 620000000 cycles: 1400525262 heartbeat IPC: 0.393025 cumulative IPC: 0.385269 (Simulation time: 5 hr 12 min 1 sec) 
Heartbeat CPU 1 instructions: 1510000002 cycles: 1405102901 heartbeat IPC: 1.31267 cumulative IPC: 1.02045 (Simulation time: 5 hr 13 min 0 sec) 
Heartbeat CPU 1 instructions: 1520000000 cycles: 1412039837 heartbeat IPC: 1.44156 cumulative IPC: 1.02257 (Simulation time: 5 hr 14 min 41 sec) 
Heartbeat CPU 1 instructions: 1530000002 cycles: 1419274658 heartbeat IPC: 1.3822 cumulative IPC: 1.02444 (Simulation time: 5 hr 16 min 13 sec) 
Heartbeat CPU 3 instructions: 630000000 cycles: 1422012287 heartbeat IPC: 0.465397 cumulative IPC: 0.386506 (Simulation time: 5 hr 16 min 43 sec) 
Heartbeat CPU 2 instructions: 300000002 cycles: 1429121272 heartbeat IPC: 0.131491 cumulative IPC: 0.161539 (Simulation time: 5 hr 18 min 16 sec) 
Heartbeat CPU 1 instructions: 1540000000 cycles: 1432815841 heartbeat IPC: 0.738488 cumulative IPC: 1.02168 (Simulation time: 5 hr 18 min 56 sec) 
Heartbeat CPU 3 instructions: 640000000 cycles: 1442812484 heartbeat IPC: 0.480765 cumulative IPC: 0.387893 (Simulation time: 5 hr 20 min 51 sec) 
Heartbeat CPU 1 instructions: 1550000001 cycles: 1454650297 heartbeat IPC: 0.457992 cumulative IPC: 1.01304 (Simulation time: 5 hr 22 min 52 sec) 
Heartbeat CPU 3 instructions: 650000000 cycles: 1463729161 heartbeat IPC: 0.478087 cumulative IPC: 0.389209 (Simulation time: 5 hr 24 min 39 sec) 
Heartbeat CPU 1 instructions: 1560000003 cycles: 1476698861 heartbeat IPC: 0.453544 cumulative IPC: 1.00451 (Simulation time: 5 hr 26 min 59 sec) 
Heartbeat CPU 3 instructions: 660000000 cycles: 1482288443 heartbeat IPC: 0.538814 cumulative IPC: 0.391121 (Simulation time: 5 hr 27 min 51 sec) 
Heartbeat CPU 2 instructions: 310000000 cycles: 1487445697 heartbeat IPC: 0.171455 cumulative IPC: 0.161936 (Simulation time: 5 hr 28 min 43 sec) 
Heartbeat CPU 1 instructions: 1570000001 cycles: 1493294589 heartbeat IPC: 0.602565 cumulative IPC: 0.999956 (Simulation time: 5 hr 30 min 3 sec) 
Heartbeat CPU 1 instructions: 1580000000 cycles: 1500218771 heartbeat IPC: 1.44421 cumulative IPC: 1.00205 (Simulation time: 5 hr 31 min 30 sec) 
Heartbeat CPU 1 instructions: 1590000003 cycles: 1507525552 heartbeat IPC: 1.36859 cumulative IPC: 1.00386 (Simulation time: 5 hr 32 min 56 sec) 
Heartbeat CPU 3 instructions: 670000000 cycles: 1510554000 heartbeat IPC: 0.353787 cumulative IPC: 0.390408 (Simulation time: 5 hr 33 min 37 sec) 
Heartbeat CPU 1 instructions: 1600000001 cycles: 1514671009 heartbeat IPC: 1.39949 cumulative IPC: 1.00576 (Simulation time: 5 hr 34 min 31 sec) 
Heartbeat CPU 1 instructions: 1610000001 cycles: 1522344237 heartbeat IPC: 1.30323 cumulative IPC: 1.00729 (Simulation time: 5 hr 36 min 10 sec) 
Heartbeat CPU 1 instructions: 1620000000 cycles: 1530429062 heartbeat IPC: 1.23689 cumulative IPC: 1.00853 (Simulation time: 5 hr 37 min 42 sec) 
Heartbeat CPU 3 instructions: 680000002 cycles: 1537179637 heartbeat IPC: 0.375578 cumulative IPC: 0.390146 (Simulation time: 5 hr 39 min 16 sec) 
Heartbeat CPU 1 instructions: 1630000001 cycles: 1537619037 heartbeat IPC: 1.39083 cumulative IPC: 1.01035 (Simulation time: 5 hr 39 min 22 sec) 
Heartbeat CPU 1 instructions: 1640000002 cycles: 1544757144 heartbeat IPC: 1.40093 cumulative IPC: 1.01219 (Simulation time: 5 hr 40 min 48 sec) 
Heartbeat CPU 1 instructions: 1650000000 cycles: 1552615413 heartbeat IPC: 1.27254 cumulative IPC: 1.01354 (Simulation time: 5 hr 42 min 23 sec) 
Heartbeat CPU 1 instructions: 1660000002 cycles: 1559705473 heartbeat IPC: 1.41043 cumulative IPC: 1.01538 (Simulation time: 5 hr 44 min 0 sec) 
Heartbeat CPU 3 instructions: 690000003 cycles: 1565437246 heartbeat IPC: 0.353887 cumulative IPC: 0.389479 (Simulation time: 5 hr 45 min 17 sec) 
Heartbeat CPU 1 instructions: 1670000000 cycles: 1566809716 heartbeat IPC: 1.40761 cumulative IPC: 1.01719 (Simulation time: 5 hr 45 min 32 sec) 
Heartbeat CPU 2 instructions: 320000002 cycles: 1568602066 heartbeat IPC: 0.123219 cumulative IPC: 0.159894 (Simulation time: 5 hr 45 min 52 sec) 
Heartbeat CPU 1 instructions: 1680000001 cycles: 1574399050 heartbeat IPC: 1.31764 cumulative IPC: 1.01867 (Simulation time: 5 hr 46 min 57 sec) 
Heartbeat CPU 1 instructions: 1690000000 cycles: 1582113702 heartbeat IPC: 1.29623 cumulative IPC: 1.02005 (Simulation time: 5 hr 48 min 25 sec) 
Heartbeat CPU 1 instructions: 1700000000 cycles: 1589135981 heartbeat IPC: 1.42404 cumulative IPC: 1.02187 (Simulation time: 5 hr 50 min 13 sec) 
Heartbeat CPU 3 instructions: 700000002 cycles: 1596423124 heartbeat IPC: 0.322728 cumulative IPC: 0.388158 (Simulation time: 5 hr 51 min 40 sec) 
Heartbeat CPU 1 instructions: 1710000000 cycles: 1601661064 heartbeat IPC: 0.798398 cumulative IPC: 1.02008 (Simulation time: 5 hr 52 min 39 sec) 
Heartbeat CPU 1 instructions: 1720000000 cycles: 1621822246 heartbeat IPC: 0.496003 cumulative IPC: 1.01345 (Simulation time: 5 hr 56 min 33 sec) 
Heartbeat CPU 0 instructions: 70000000 cycles: 1623055362 heartbeat IPC: 0.0122145 cumulative IPC: 0.0125538 (Simulation time: 5 hr 56 min 47 sec) 
Heartbeat CPU 3 instructions: 710000003 cycles: 1626820755 heartbeat IPC: 0.328973 cumulative IPC: 0.387032 (Simulation time: 5 hr 57 min 37 sec) 
Heartbeat CPU 1 instructions: 1730000002 cycles: 1628792894 heartbeat IPC: 1.43459 cumulative IPC: 1.01528 (Simulation time: 5 hr 58 min 7 sec) 
Heartbeat CPU 1 instructions: 1740000000 cycles: 1635686449 heartbeat IPC: 1.45063 cumulative IPC: 1.01715 (Simulation time: 5 hr 59 min 37 sec) 
Heartbeat CPU 1 instructions: 1750000000 cycles: 1642835089 heartbeat IPC: 1.39887 cumulative IPC: 1.01884 (Simulation time: 6 hr 1 min 6 sec) 
Heartbeat CPU 2 instructions: 330000000 cycles: 1646572859 heartbeat IPC: 0.128253 cumulative IPC: 0.158368 (Simulation time: 6 hr 1 min 51 sec) 
Heartbeat CPU 1 instructions: 1760000000 cycles: 1649750644 heartbeat IPC: 1.44602 cumulative IPC: 1.02067 (Simulation time: 6 hr 2 min 33 sec) 
Heartbeat CPU 3 instructions: 720000003 cycles: 1651844007 heartbeat IPC: 0.399628 cumulative IPC: 0.387226 (Simulation time: 6 hr 3 min 7 sec) 
Heartbeat CPU 1 instructions: 1770000003 cycles: 1656705181 heartbeat IPC: 1.43791 cumulative IPC: 1.02245 (Simulation time: 6 hr 4 min 18 sec) 
Heartbeat CPU 1 instructions: 1780000003 cycles: 1663894599 heartbeat IPC: 1.39093 cumulative IPC: 1.02407 (Simulation time: 6 hr 5 min 47 sec) 
Heartbeat CPU 1 instructions: 1790000001 cycles: 1670775232 heartbeat IPC: 1.45335 cumulative IPC: 1.02587 (Simulation time: 6 hr 7 min 15 sec) 
Heartbeat CPU 3 instructions: 730000003 cycles: 1674626039 heartbeat IPC: 0.438942 cumulative IPC: 0.387943 (Simulation time: 6 hr 8 min 16 sec) 
Heartbeat CPU 1 instructions: 1800000000 cycles: 1677725932 heartbeat IPC: 1.4387 cumulative IPC: 1.02761 (Simulation time: 6 hr 8 min 57 sec) 
Heartbeat CPU 1 instructions: 1810000000 cycles: 1684677108 heartbeat IPC: 1.43861 cumulative IPC: 1.02934 (Simulation time: 6 hr 10 min 34 sec) 
Heartbeat CPU 1 instructions: 1820000000 cycles: 1691556545 heartbeat IPC: 1.45361 cumulative IPC: 1.0311 (Simulation time: 6 hr 12 min 3 sec) 
Heartbeat CPU 1 instructions: 1830000003 cycles: 1698689944 heartbeat IPC: 1.40186 cumulative IPC: 1.03268 (Simulation time: 6 hr 13 min 29 sec) 
Heartbeat CPU 3 instructions: 740000000 cycles: 1701106977 heartbeat IPC: 0.37763 cumulative IPC: 0.387779 (Simulation time: 6 hr 13 min 57 sec) 
Heartbeat CPU 2 instructions: 340000001 cycles: 1704394462 heartbeat IPC: 0.172946 cumulative IPC: 0.158871 (Simulation time: 6 hr 14 min 42 sec) 
Heartbeat CPU 1 instructions: 1840000003 cycles: 1705589495 heartbeat IPC: 1.44937 cumulative IPC: 1.0344 (Simulation time: 6 hr 14 min 59 sec) 
Heartbeat CPU 1 instructions: 1850000000 cycles: 1712963680 heartbeat IPC: 1.35608 cumulative IPC: 1.03581 (Simulation time: 6 hr 16 min 37 sec) 
Heartbeat CPU 3 instructions: 750000003 cycles: 1723017823 heartbeat IPC: 0.456395 cumulative IPC: 0.388667 (Simulation time: 6 hr 18 min 21 sec) 
Heartbeat CPU 1 instructions: 1860000001 cycles: 1739915630 heartbeat IPC: 0.371031 cumulative IPC: 1.02533 (Simulation time: 6 hr 21 min 2 sec) 
Heartbeat CPU 3 instructions: 760000003 cycles: 1742716665 heartbeat IPC: 0.507644 cumulative IPC: 0.390035 (Simulation time: 6 hr 21 min 35 sec) 
Heartbeat CPU 1 instructions: 1870000000 cycles: 1769750767 heartbeat IPC: 0.335175 cumulative IPC: 1.01349 (Simulation time: 6 hr 25 min 51 sec) 
Heartbeat CPU 3 instructions: 770000000 cycles: 1770045479 heartbeat IPC: 0.365914 cumulative IPC: 0.389657 (Simulation time: 6 hr 25 min 54 sec) 
Heartbeat CPU 2 instructions: 350000000 cycles: 1770967040 heartbeat IPC: 0.150212 cumulative IPC: 0.15854 (Simulation time: 6 hr 26 min 3 sec) 
Heartbeat CPU 3 instructions: 780000000 cycles: 1796325192 heartbeat IPC: 0.380522 cumulative IPC: 0.389521 (Simulation time: 6 hr 29 min 35 sec) 
Heartbeat CPU 1 instructions: 1880000003 cycles: 1797386271 heartbeat IPC: 0.361853 cumulative IPC: 1.00331 (Simulation time: 6 hr 29 min 44 sec) 
Heartbeat CPU 3 instructions: 790000003 cycles: 1819090034 heartbeat IPC: 0.439274 cumulative IPC: 0.390154 (Simulation time: 6 hr 33 min 13 sec) 
Heartbeat CPU 1 instructions: 1890000000 cycles: 1825242654 heartbeat IPC: 0.358984 cumulative IPC: 0.993309 (Simulation time: 6 hr 34 min 14 sec) 
Heartbeat CPU 1 instructions: 1900000003 cycles: 1835687204 heartbeat IPC: 0.957437 cumulative IPC: 0.993101 (Simulation time: 6 hr 36 min 20 sec) 
Heartbeat CPU 2 instructions: 360000001 cycles: 1838263130 heartbeat IPC: 0.148597 cumulative IPC: 0.15817 (Simulation time: 6 hr 36 min 51 sec) 
Heartbeat CPU 1 instructions: 1910000003 cycles: 1842703942 heartbeat IPC: 1.42516 cumulative IPC: 0.994774 (Simulation time: 6 hr 37 min 48 sec) 
Heartbeat CPU 3 instructions: 800000001 cycles: 1847797413 heartbeat IPC: 0.348342 cumulative IPC: 0.389493 (Simulation time: 6 hr 38 min 48 sec) 
Heartbeat CPU 1 instructions: 1920000001 cycles: 1849851662 heartbeat IPC: 1.39905 cumulative IPC: 0.996361 (Simulation time: 6 hr 39 min 13 sec) 
Heartbeat CPU 1 instructions: 1930000002 cycles: 1858363876 heartbeat IPC: 1.17478 cumulative IPC: 0.997192 (Simulation time: 6 hr 40 min 52 sec) 
Heartbeat CPU 1 instructions: 1940000000 cycles: 1865589029 heartbeat IPC: 1.38405 cumulative IPC: 0.998715 (Simulation time: 6 hr 42 min 29 sec) 
Heartbeat CPU 1 instructions: 1950000001 cycles: 1873361645 heartbeat IPC: 1.28657 cumulative IPC: 0.999928 (Simulation time: 6 hr 44 min 6 sec) 
Heartbeat CPU 3 instructions: 810000000 cycles: 1874360299 heartbeat IPC: 0.376465 cumulative IPC: 0.389306 (Simulation time: 6 hr 44 min 16 sec) 
Heartbeat CPU 1 instructions: 1960000000 cycles: 1882182773 heartbeat IPC: 1.13364 cumulative IPC: 1.00057 (Simulation time: 6 hr 45 min 36 sec) 
Heartbeat CPU 1 instructions: 1970000003 cycles: 1890192202 heartbeat IPC: 1.24853 cumulative IPC: 1.00163 (Simulation time: 6 hr 47 min 16 sec) 
Heartbeat CPU 1 instructions: 1980000000 cycles: 1897453076 heartbeat IPC: 1.37724 cumulative IPC: 1.00309 (Simulation time: 6 hr 48 min 46 sec) 
Heartbeat CPU 1 instructions: 1990000003 cycles: 1904864684 heartbeat IPC: 1.34924 cumulative IPC: 1.00446 (Simulation time: 6 hr 50 min 11 sec) 
Heartbeat CPU 2 instructions: 370000002 cycles: 1904945198 heartbeat IPC: 0.149965 cumulative IPC: 0.157878 (Simulation time: 6 hr 50 min 12 sec) 
Heartbeat CPU 3 instructions: 820000000 cycles: 1907516924 heartbeat IPC: 0.301599 cumulative IPC: 0.387757 (Simulation time: 6 hr 50 min 38 sec) 
*** Reached end of trace for Core: 1 Repeating trace: ./traces/spec/433.milc-274B.champsimtrace.xz
Heartbeat CPU 1 instructions: 2000000001 cycles: 1912981451 heartbeat IPC: 1.23202 cumulative IPC: 1.00544 (Simulation time: 6 hr 51 min 35 sec) 
Heartbeat CPU 1 instructions: 2010000000 cycles: 1919729077 heartbeat IPC: 1.482 cumulative IPC: 1.00714 (Simulation time: 6 hr 53 min 8 sec) 
Heartbeat CPU 1 instructions: 2020000003 cycles: 1926765066 heartbeat IPC: 1.42126 cumulative IPC: 1.00868 (Simulation time: 6 hr 54 min 40 sec) 
Heartbeat CPU 3 instructions: 830000000 cycles: 1930786796 heartbeat IPC: 0.42974 cumulative IPC: 0.388271 (Simulation time: 6 hr 55 min 33 sec) 
Heartbeat CPU 1 instructions: 2030000000 cycles: 1933446351 heartbeat IPC: 1.49672 cumulative IPC: 1.01039 (Simulation time: 6 hr 56 min 9 sec) 
Heartbeat CPU 1 instructions: 2040000003 cycles: 1940124833 heartbeat IPC: 1.49735 cumulative IPC: 1.0121 (Simulation time: 6 hr 57 min 43 sec) 
Heartbeat CPU 1 instructions: 2050000000 cycles: 1947403216 heartbeat IPC: 1.37393 cumulative IPC: 1.01347 (Simulation time: 6 hr 59 min 11 sec) 
Heartbeat CPU 1 instructions: 2060000003 cycles: 1955082420 heartbeat IPC: 1.30222 cumulative IPC: 1.01462 (Simulation time: 7 hr 0 min 39 sec) 
Heartbeat CPU 3 instructions: 840000002 cycles: 1961411296 heartbeat IPC: 0.326536 cumulative IPC: 0.387292 (Simulation time: 7 hr 1 min 54 sec) 
Heartbeat CPU 2 instructions: 380000003 cycles: 1977089085 heartbeat IPC: 0.138612 cumulative IPC: 0.157165 (Simulation time: 7 hr 4 min 34 sec) 
Heartbeat CPU 1 instructions: 2070000002 cycles: 1980722391 heartbeat IPC: 0.390016 cumulative IPC: 1.00641 (Simulation time: 7 hr 5 min 8 sec) 
Heartbeat CPU 3 instructions: 850000001 cycles: 1987772571 heartbeat IPC: 0.379344 cumulative IPC: 0.387185 (Simulation time: 7 hr 6 min 52 sec) 
Heartbeat CPU 1 instructions: 2080000000 cycles: 1987977326 heartbeat IPC: 1.37837 cumulative IPC: 1.00779 (Simulation time: 7 hr 6 min 55 sec) 
Heartbeat CPU 1 instructions: 2090000000 cycles: 1995752831 heartbeat IPC: 1.28609 cumulative IPC: 1.00889 (Simulation time: 7 hr 8 min 40 sec) 
Heartbeat CPU 1 instructions: 2100000000 cycles: 2004019471 heartbeat IPC: 1.20968 cumulative IPC: 1.00973 (Simulation time: 7 hr 10 min 15 sec) 
Heartbeat CPU 1 instructions: 2110000000 cycles: 2011205453 heartbeat IPC: 1.3916 cumulative IPC: 1.01112 (Simulation time: 7 hr 11 min 49 sec) 
Heartbeat CPU 3 instructions: 860000000 cycles: 2012817627 heartbeat IPC: 0.39928 cumulative IPC: 0.387338 (Simulation time: 7 hr 12 min 13 sec) 
Heartbeat CPU 1 instructions: 2120000001 cycles: 2018789915 heartbeat IPC: 1.31849 cumulative IPC: 1.01229 (Simulation time: 7 hr 13 min 28 sec) 
Heartbeat CPU 1 instructions: 2130000001 cycles: 2026000884 heartbeat IPC: 1.38678 cumulative IPC: 1.01364 (Simulation time: 7 hr 15 min 7 sec) 
Heartbeat CPU 1 instructions: 2140000000 cycles: 2033492046 heartbeat IPC: 1.33491 cumulative IPC: 1.01484 (Simulation time: 7 hr 16 min 39 sec) 
Heartbeat CPU 3 instructions: 870000002 cycles: 2033909287 heartbeat IPC: 0.474121 cumulative IPC: 0.388251 (Simulation time: 7 hr 16 min 44 sec) 
Heartbeat CPU 1 instructions: 2150000002 cycles: 2040636743 heartbeat IPC: 1.39964 cumulative IPC: 1.01621 (Simulation time: 7 hr 18 min 9 sec) 
Heartbeat CPU 2 instructions: 390000001 cycles: 2044253628 heartbeat IPC: 0.148888 cumulative IPC: 0.156889 (Simulation time: 7 hr 18 min 48 sec) 
Heartbeat CPU 1 instructions: 2160000001 cycles: 2047654733 heartbeat IPC: 1.42491 cumulative IPC: 1.01763 (Simulation time: 7 hr 19 min 32 sec) 
Heartbeat CPU 1 instructions: 2170000000 cycles: 2055071081 heartbeat IPC: 1.34837 cumulative IPC: 1.01884 (Simulation time: 7 hr 20 min 50 sec) 
Heartbeat CPU 1 instructions: 2180000000 cycles: 2062177925 heartbeat IPC: 1.40709 cumulative IPC: 1.0202 (Simulation time: 7 hr 22 min 11 sec) 
Heartbeat CPU 3 instructions: 880000000 cycles: 2064154025 heartbeat IPC: 0.330636 cumulative IPC: 0.387395 (Simulation time: 7 hr 22 min 36 sec) 
Heartbeat CPU 1 instructions: 2190000000 cycles: 2069169935 heartbeat IPC: 1.4302 cumulative IPC: 1.02161 (Simulation time: 7 hr 23 min 38 sec) 
Heartbeat CPU 1 instructions: 2200000000 cycles: 2076174444 heartbeat IPC: 1.42765 cumulative IPC: 1.023 (Simulation time: 7 hr 25 min 7 sec) 
Heartbeat CPU 3 instructions: 890000001 cycles: 2084455244 heartbeat IPC: 0.492581 cumulative IPC: 0.388434 (Simulation time: 7 hr 27 min 6 sec) 
Heartbeat CPU 1 instructions: 2210000000 cycles: 2095746030 heartbeat IPC: 0.510945 cumulative IPC: 1.01814 (Simulation time: 7 hr 29 min 1 sec) 
Heartbeat CPU 2 instructions: 400000001 cycles: 2104874092 heartbeat IPC: 0.164961 cumulative IPC: 0.157124 (Simulation time: 7 hr 30 min 41 sec) 
Heartbeat CPU 3 instructions: 900000002 cycles: 2105799343 heartbeat IPC: 0.468514 cumulative IPC: 0.389257 (Simulation time: 7 hr 30 min 52 sec) 
Heartbeat CPU 1 instructions: 2220000001 cycles: 2118224270 heartbeat IPC: 0.444875 cumulative IPC: 1.01197 (Simulation time: 7 hr 32 min 55 sec) 
Heartbeat CPU 3 instructions: 910000000 cycles: 2131495159 heartbeat IPC: 0.389168 cumulative IPC: 0.389256 (Simulation time: 7 hr 35 min 5 sec) 
Heartbeat CPU 1 instructions: 2230000000 cycles: 2140427206 heartbeat IPC: 0.450391 cumulative IPC: 1.00607 (Simulation time: 7 hr 36 min 28 sec) 
Heartbeat CPU 1 instructions: 2240000000 cycles: 2150575963 heartbeat IPC: 0.985342 cumulative IPC: 1.00597 (Simulation time: 7 hr 38 min 20 sec) 
Heartbeat CPU 1 instructions: 2250000000 cycles: 2158006817 heartbeat IPC: 1.34574 cumulative IPC: 1.00715 (Simulation time: 7 hr 39 min 39 sec) 
Heartbeat CPU 3 instructions: 920000002 cycles: 2162410940 heartbeat IPC: 0.323459 cumulative IPC: 0.388302 (Simulation time: 7 hr 40 min 27 sec) 
Heartbeat CPU 1 instructions: 2260000000 cycles: 2165742843 heartbeat IPC: 1.29265 cumulative IPC: 1.00819 (Simulation time: 7 hr 40 min 58 sec) 
Heartbeat CPU 1 instructions: 2270000000 cycles: 2174113594 heartbeat IPC: 1.19464 cumulative IPC: 1.00892 (Simulation time: 7 hr 42 min 23 sec) 
Heartbeat CPU 1 instructions: 2280000001 cycles: 2181943787 heartbeat IPC: 1.27711 cumulative IPC: 1.00989 (Simulation time: 7 hr 43 min 52 sec) 
Heartbeat CPU 1 instructions: 2290000000 cycles: 2189803676 heartbeat IPC: 1.27228 cumulative IPC: 1.01085 (Simulation time: 7 hr 45 min 24 sec) 
Heartbeat CPU 3 instructions: 930000002 cycles: 2195461551 heartbeat IPC: 0.302566 cumulative IPC: 0.386994 (Simulation time: 7 hr 46 min 21 sec) 
Heartbeat CPU 1 instructions: 2300000003 cycles: 2198007021 heartbeat IPC: 1.21902 cumulative IPC: 1.01163 (Simulation time: 7 hr 46 min 49 sec) 
Heartbeat CPU 2 instructions: 410000003 cycles: 2205903366 heartbeat IPC: 0.0989812 cumulative IPC: 0.154425 (Simulation time: 7 hr 48 min 28 sec) 
Heartbeat CPU 1 instructions: 2310000000 cycles: 2206196755 heartbeat IPC: 1.22104 cumulative IPC: 1.01242 (Simulation time: 7 hr 48 min 31 sec) 
Heartbeat CPU 1 instructions: 2320000002 cycles: 2214291075 heartbeat IPC: 1.23543 cumulative IPC: 1.01325 (Simulation time: 7 hr 50 min 2 sec) 
Heartbeat CPU 3 instructions: 940000000 cycles: 2214849491 heartbeat IPC: 0.515784 cumulative IPC: 0.388137 (Simulation time: 7 hr 50 min 8 sec) 
Heartbeat CPU 1 instructions: 2330000002 cycles: 2222582471 heartbeat IPC: 1.20607 cumulative IPC: 1.01398 (Simulation time: 7 hr 51 min 30 sec) 
Heartbeat CPU 1 instructions: 2340000001 cycles: 2231197777 heartbeat IPC: 1.16072 cumulative IPC: 1.01455 (Simulation time: 7 hr 52 min 58 sec) 
Heartbeat CPU 1 instructions: 2350000000 cycles: 2238644195 heartbeat IPC: 1.34293 cumulative IPC: 1.01566 (Simulation time: 7 hr 54 min 27 sec) 
Heartbeat CPU 3 instructions: 950000000 cycles: 2244737084 heartbeat IPC: 0.334587 cumulative IPC: 0.387414 (Simulation time: 7 hr 55 min 31 sec) 
Heartbeat CPU 1 instructions: 2360000003 cycles: 2246270151 heartbeat IPC: 1.31131 cumulative IPC: 1.01668 (Simulation time: 7 hr 55 min 47 sec) 
Heartbeat CPU 1 instructions: 2370000000 cycles: 2253628073 heartbeat IPC: 1.35908 cumulative IPC: 1.01781 (Simulation time: 7 hr 57 min 22 sec) 
Heartbeat CPU 3 instructions: 960000001 cycles: 2275148462 heartbeat IPC: 0.328824 cumulative IPC: 0.386621 (Simulation time: 8 hr 1 min 13 sec) 
Heartbeat CPU 1 instructions: 2380000000 cycles: 2276728240 heartbeat IPC: 0.432897 cumulative IPC: 1.0118 (Simulation time: 8 hr 1 min 38 sec) 
Heartbeat CPU 1 instructions: 2390000002 cycles: 2286488010 heartbeat IPC: 1.02461 cumulative IPC: 1.01185 (Simulation time: 8 hr 3 min 31 sec) 
Heartbeat CPU 1 instructions: 2400000000 cycles: 2293499470 heartbeat IPC: 1.42624 cumulative IPC: 1.01313 (Simulation time: 8 hr 5 min 15 sec) 
Heartbeat CPU 3 instructions: 970000001 cycles: 2294483194 heartbeat IPC: 0.517204 cumulative IPC: 0.387735 (Simulation time: 8 hr 5 min 28 sec) 
Heartbeat CPU 2 instructions: 420000001 cycles: 2296436193 heartbeat IPC: 0.110457 cumulative IPC: 0.152669 (Simulation time: 8 hr 5 min 54 sec) 
Heartbeat CPU 1 instructions: 2410000002 cycles: 2301114107 heartbeat IPC: 1.31326 cumulative IPC: 1.01414 (Simulation time: 8 hr 6 min 52 sec) 
Heartbeat CPU 1 instructions: 2420000000 cycles: 2308201087 heartbeat IPC: 1.41104 cumulative IPC: 1.01537 (Simulation time: 8 hr 8 min 22 sec) 
Heartbeat CPU 1 instructions: 2430000001 cycles: 2315583699 heartbeat IPC: 1.35453 cumulative IPC: 1.01647 (Simulation time: 8 hr 9 min 47 sec) 
Heartbeat CPU 3 instructions: 980000000 cycles: 2317528828 heartbeat IPC: 0.433922 cumulative IPC: 0.388201 (Simulation time: 8 hr 10 min 10 sec) 
Heartbeat CPU 1 instructions: 2440000002 cycles: 2322690849 heartbeat IPC: 1.40703 cumulative IPC: 1.01768 (Simulation time: 8 hr 11 min 14 sec) 
Heartbeat CPU 1 instructions: 2450000002 cycles: 2329751932 heartbeat IPC: 1.41621 cumulative IPC: 1.0189 (Simulation time: 8 hr 12 min 43 sec) 
Heartbeat CPU 1 instructions: 2460000002 cycles: 2337607872 heartbeat IPC: 1.27292 cumulative IPC: 1.01977 (Simulation time: 8 hr 14 min 11 sec) 
Heartbeat CPU 3 instructions: 990000000 cycles: 2344664177 heartbeat IPC: 0.368523 cumulative IPC: 0.38797 (Simulation time: 8 hr 15 min 39 sec) 
Heartbeat CPU 1 instructions: 2470000002 cycles: 2344850344 heartbeat IPC: 1.38074 cumulative IPC: 1.0209 (Simulation time: 8 hr 15 min 41 sec) 
Heartbeat CPU 1 instructions: 2480000000 cycles: 2351793125 heartbeat IPC: 1.44034 cumulative IPC: 1.02215 (Simulation time: 8 hr 17 min 4 sec) 
Heartbeat CPU 1 instructions: 2490000002 cycles: 2359031754 heartbeat IPC: 1.38148 cumulative IPC: 1.02327 (Simulation time: 8 hr 18 min 41 sec) 
Heartbeat CPU 1 instructions: 2500000001 cycles: 2365964291 heartbeat IPC: 1.44247 cumulative IPC: 1.02451 (Simulation time: 8 hr 20 min 20 sec) 
Heartbeat CPU 3 instructions: 1000000001 cycles: 2366458755 heartbeat IPC: 0.45883 cumulative IPC: 0.388631 (Simulation time: 8 hr 20 min 28 sec) 
Heartbeat CPU 2 instructions: 430000003 cycles: 2372161357 heartbeat IPC: 0.132057 cumulative IPC: 0.152002 (Simulation time: 8 hr 21 min 46 sec) 
Heartbeat CPU 1 instructions: 2510000003 cycles: 2373181672 heartbeat IPC: 1.38554 cumulative IPC: 1.02563 (Simulation time: 8 hr 22 min 3 sec) 
Heartbeat CPU 3 instructions: 1010000002 cycles: 2387147495 heartbeat IPC: 0.483355 cumulative IPC: 0.389462 (Simulation time: 8 hr 24 min 39 sec) 
Heartbeat CPU 1 instructions: 2520000001 cycles: 2387179559 heartbeat IPC: 0.714393 cumulative IPC: 1.02378 (Simulation time: 8 hr 24 min 40 sec) 
Heartbeat CPU 3 instructions: 1020000003 cycles: 2411162407 heartbeat IPC: 0.416408 cumulative IPC: 0.389734 (Simulation time: 8 hr 28 min 18 sec) 
Heartbeat CPU 1 instructions: 2530000000 cycles: 2414376179 heartbeat IPC: 0.367693 cumulative IPC: 1.01629 (Simulation time: 8 hr 28 min 54 sec) 
Heartbeat CPU 3 instructions: 1030000001 cycles: 2435725040 heartbeat IPC: 0.407122 cumulative IPC: 0.389912 (Simulation time: 8 hr 32 min 2 sec) 
Heartbeat CPU 1 instructions: 2540000001 cycles: 2442117167 heartbeat IPC: 0.360477 cumulative IPC: 1.00875 (Simulation time: 8 hr 33 min 0 sec) 
Heartbeat CPU 2 instructions: 440000000 cycles: 2448509966 heartbeat IPC: 0.130978 cumulative IPC: 0.151339 (Simulation time: 8 hr 33 min 56 sec) 
Heartbeat CPU 3 instructions: 1040000000 cycles: 2460252876 heartbeat IPC: 0.4077 cumulative IPC: 0.390091 (Simulation time: 8 hr 35 min 48 sec) 
Heartbeat CPU 1 instructions: 2550000001 cycles: 2469565545 heartbeat IPC: 0.36432 cumulative IPC: 1.0015 (Simulation time: 8 hr 37 min 14 sec) 
Heartbeat CPU 3 instructions: 1050000000 cycles: 2490187109 heartbeat IPC: 0.334066 cumulative IPC: 0.38941 (Simulation time: 8 hr 40 min 26 sec) 
Heartbeat CPU 1 instructions: 2560000002 cycles: 2492753851 heartbeat IPC: 0.431252 cumulative IPC: 0.996133 (Simulation time: 8 hr 41 min 1 sec) 
Heartbeat CPU 0 instructions: 80000000 cycles: 2493564649 heartbeat IPC: 0.0114875 cumulative IPC: 0.012177 (Simulation time: 8 hr 41 min 10 sec) 
Heartbeat CPU 1 instructions: 2570000001 cycles: 2500332315 heartbeat IPC: 1.31953 cumulative IPC: 0.997125 (Simulation time: 8 hr 42 min 29 sec) 
Heartbeat CPU 1 instructions: 2580000001 cycles: 2507707237 heartbeat IPC: 1.35595 cumulative IPC: 0.998193 (Simulation time: 8 hr 43 min 58 sec) 
Heartbeat CPU 1 instructions: 2590000002 cycles: 2515558864 heartbeat IPC: 1.27362 cumulative IPC: 0.999063 (Simulation time: 8 hr 45 min 37 sec) 
Heartbeat CPU 3 instructions: 1060000001 cycles: 2518487977 heartbeat IPC: 0.353346 cumulative IPC: 0.388999 (Simulation time: 8 hr 46 min 22 sec) 
Heartbeat CPU 2 instructions: 450000001 cycles: 2518610694 heartbeat IPC: 0.142652 cumulative IPC: 0.151094 (Simulation time: 8 hr 46 min 24 sec) 
Heartbeat CPU 1 instructions: 2600000000 cycles: 2522777225 heartbeat IPC: 1.38536 cumulative IPC: 1.00018 (Simulation time: 8 hr 47 min 24 sec) 
Heartbeat CPU 1 instructions: 2610000001 cycles: 2529885317 heartbeat IPC: 1.40685 cumulative IPC: 1.00134 (Simulation time: 8 hr 48 min 49 sec) 
Heartbeat CPU 1 instructions: 2620000002 cycles: 2537397996 heartbeat IPC: 1.33108 cumulative IPC: 1.00233 (Simulation time: 8 hr 50 min 24 sec) 
Heartbeat CPU 3 instructions: 1070000002 cycles: 2543722629 heartbeat IPC: 0.396281 cumulative IPC: 0.389072 (Simulation time: 8 hr 51 min 59 sec) 
Heartbeat CPU 1 instructions: 2630000002 cycles: 2544615459 heartbeat IPC: 1.38553 cumulative IPC: 1.00343 (Simulation time: 8 hr 52 min 13 sec) 
Heartbeat CPU 1 instructions: 2640000000 cycles: 2552115284 heartbeat IPC: 1.33336 cumulative IPC: 1.00441 (Simulation time: 8 hr 53 min 45 sec) 
Heartbeat CPU 1 instructions: 2650000002 cycles: 2559277844 heartbeat IPC: 1.39615 cumulative IPC: 1.00552 (Simulation time: 8 hr 55 min 31 sec) 
Heartbeat CPU 2 instructions: 460000000 cycles: 2565670634 heartbeat IPC: 0.212495 cumulative IPC: 0.152233 (Simulation time: 8 hr 56 min 51 sec) 
Heartbeat CPU 1 instructions: 2660000001 cycles: 2566754792 heartbeat IPC: 1.33744 cumulative IPC: 1.00649 (Simulation time: 8 hr 57 min 2 sec) 
Heartbeat CPU 3 instructions: 1080000002 cycles: 2568776446 heartbeat IPC: 0.399141 cumulative IPC: 0.389172 (Simulation time: 8 hr 57 min 29 sec) 
Heartbeat CPU 1 instructions: 2670000000 cycles: 2573943943 heartbeat IPC: 1.39098 cumulative IPC: 1.00758 (Simulation time: 8 hr 58 min 36 sec) 
Heartbeat CPU 1 instructions: 2680000000 cycles: 2581598702 heartbeat IPC: 1.30638 cumulative IPC: 1.00848 (Simulation time: 9 hr 0 min 24 sec) 
Heartbeat CPU 1 instructions: 2690000000 cycles: 2589756993 heartbeat IPC: 1.22575 cumulative IPC: 1.00917 (Simulation time: 9 hr 2 min 1 sec) 
Heartbeat CPU 3 instructions: 1090000001 cycles: 2590898020 heartbeat IPC: 0.452047 cumulative IPC: 0.389715 (Simulation time: 9 hr 2 min 20 sec) 
Heartbeat CPU 1 instructions: 2700000001 cycles: 2596691714 heartbeat IPC: 1.44202 cumulative IPC: 1.01034 (Simulation time: 9 hr 3 min 45 sec) 
Heartbeat CPU 1 instructions: 2710000002 cycles: 2603840781 heartbeat IPC: 1.39878 cumulative IPC: 1.01142 (Simulation time: 9 hr 5 min 22 sec) 
Heartbeat CPU 3 instructions: 1100000000 cycles: 2607155234 heartbeat IPC: 0.615111 cumulative IPC: 0.391137 (Simulation time: 9 hr 6 min 10 sec) 
Heartbeat CPU 1 instructions: 2720000000 cycles: 2610841879 heartbeat IPC: 1.42835 cumulative IPC: 1.01255 (Simulation time: 9 hr 7 min 5 sec) 
Heartbeat CPU 2 instructions: 470000001 cycles: 2613204246 heartbeat IPC: 0.210377 cumulative IPC: 0.153303 (Simulation time: 9 hr 7 min 35 sec) 
Heartbeat CPU 1 instructions: 2730000000 cycles: 2631916149 heartbeat IPC: 0.474512 cumulative IPC: 1.00819 (Simulation time: 9 hr 11 min 14 sec) 
Heartbeat CPU 1 instructions: 2740000001 cycles: 2644579919 heartbeat IPC: 0.789654 cumulative IPC: 1.00713 (Simulation time: 9 hr 13 min 41 sec) 
Heartbeat CPU 3 instructions: 1110000000 cycles: 2644624962 heartbeat IPC: 0.266882 cumulative IPC: 0.389356 (Simulation time: 9 hr 13 min 42 sec) 
Heartbeat CPU 1 instructions: 2750000000 cycles: 2651962449 heartbeat IPC: 1.35455 cumulative IPC: 1.00811 (Simulation time: 9 hr 15 min 22 sec) 
Heartbeat CPU 1 instructions: 2760000001 cycles: 2659108030 heartbeat IPC: 1.39947 cumulative IPC: 1.00917 (Simulation time: 9 hr 17 min 10 sec) 
Heartbeat CPU 3 instructions: 1120000000 cycles: 2661275202 heartbeat IPC: 0.600592 cumulative IPC: 0.390693 (Simulation time: 9 hr 17 min 35 sec) 
Heartbeat CPU 1 instructions: 2770000000 cycles: 2666545267 heartbeat IPC: 1.34459 cumulative IPC: 1.01012 (Simulation time: 9 hr 18 min 42 sec) 
Heartbeat CPU 2 instructions: 480000000 cycles: 2671798457 heartbeat IPC: 0.170665 cumulative IPC: 0.153688 (Simulation time: 9 hr 19 min 52 sec) 
Heartbeat CPU 1 instructions: 2780000003 cycles: 2673905450 heartbeat IPC: 1.35866 cumulative IPC: 1.01109 (Simulation time: 9 hr 20 min 19 sec) 
Heartbeat CPU 1 instructions: 2790000002 cycles: 2681484466 heartbeat IPC: 1.31943 cumulative IPC: 1.01197 (Simulation time: 9 hr 21 min 50 sec) 
Heartbeat CPU 3 instructions: 1130000001 cycles: 2686592394 heartbeat IPC: 0.394989 cumulative IPC: 0.390734 (Simulation time: 9 hr 22 min 55 sec) 
Heartbeat CPU 1 instructions: 2800000000 cycles: 2688637710 heartbeat IPC: 1.39797 cumulative IPC: 1.01301 (Simulation time: 9 hr 23 min 23 sec) 
Heartbeat CPU 1 instructions: 2810000003 cycles: 2695751353 heartbeat IPC: 1.40575 cumulative IPC: 1.01406 (Simulation time: 9 hr 25 min 0 sec) 
Heartbeat CPU 1 instructions: 2820000000 cycles: 2703154838 heartbeat IPC: 1.35071 cumulative IPC: 1.01499 (Simulation time: 9 hr 26 min 47 sec) 
Heartbeat CPU 3 instructions: 1140000000 cycles: 2706463154 heartbeat IPC: 0.503252 cumulative IPC: 0.391569 (Simulation time: 9 hr 27 min 35 sec) 
Heartbeat CPU 1 instructions: 2830000002 cycles: 2710174021 heartbeat IPC: 1.42467 cumulative IPC: 1.01606 (Simulation time: 9 hr 28 min 30 sec) 
Heartbeat CPU 1 instructions: 2840000002 cycles: 2717846607 heartbeat IPC: 1.30334 cumulative IPC: 1.01688 (Simulation time: 9 hr 30 min 7 sec) 
Heartbeat CPU 2 instructions: 490000000 cycles: 2722943062 heartbeat IPC: 0.195524 cumulative IPC: 0.154483 (Simulation time: 9 hr 31 min 21 sec) 
Heartbeat CPU 1 instructions: 2850000002 cycles: 2724838820 heartbeat IPC: 1.43016 cumulative IPC: 1.01796 (Simulation time: 9 hr 31 min 53 sec) 
Heartbeat CPU 3 instructions: 1150000001 cycles: 2727247684 heartbeat IPC: 0.481127 cumulative IPC: 0.392259 (Simulation time: 9 hr 32 min 29 sec) 
Heartbeat CPU 1 instructions: 2860000000 cycles: 2731967367 heartbeat IPC: 1.40281 cumulative IPC: 1.01897 (Simulation time: 9 hr 33 min 33 sec) 
Heartbeat CPU 1 instructions: 2870000000 cycles: 2740839029 heartbeat IPC: 1.12718 cumulative IPC: 1.01933 (Simulation time: 9 hr 35 min 42 sec) 
Heartbeat CPU 3 instructions: 1160000002 cycles: 2748638058 heartbeat IPC: 0.4675 cumulative IPC: 0.392851 (Simulation time: 9 hr 37 min 3 sec) 
Heartbeat CPU 1 instructions: 2880000002 cycles: 2762370851 heartbeat IPC: 0.464429 cumulative IPC: 1.01495 (Simulation time: 9 hr 39 min 19 sec) 
Heartbeat CPU 2 instructions: 500000002 cycles: 2770383318 heartbeat IPC: 0.210791 cumulative IPC: 0.155458 (Simulation time: 9 hr 40 min 33 sec) 
Heartbeat CPU 3 instructions: 1170000003 cycles: 2781598067 heartbeat IPC: 0.303398 cumulative IPC: 0.39178 (Simulation time: 9 hr 42 min 14 sec) 
Heartbeat CPU 1 instructions: 2890000001 cycles: 2789323618 heartbeat IPC: 0.371019 cumulative IPC: 1.00866 (Simulation time: 9 hr 43 min 21 sec) 
Heartbeat CPU 1 instructions: 2900000000 cycles: 2812934008 heartbeat IPC: 0.423542 cumulative IPC: 1.0037 (Simulation time: 9 hr 46 min 56 sec) 
Heartbeat CPU 1 instructions: 2910000000 cycles: 2821464211 heartbeat IPC: 1.1723 cumulative IPC: 1.00421 (Simulation time: 9 hr 48 min 31 sec) 
Heartbeat CPU 1 instructions: 2920000002 cycles: 2829293430 heartbeat IPC: 1.27727 cumulative IPC: 1.00498 (Simulation time: 9 hr 49 min 59 sec) 
Heartbeat CPU 2 instructions: 510000000 cycles: 2833308298 heartbeat IPC: 0.158919 cumulative IPC: 0.155535 (Simulation time: 9 hr 50 min 42 sec) 
Heartbeat CPU 3 instructions: 1180000000 cycles: 2833551034 heartbeat IPC: 0.192482 cumulative IPC: 0.388087 (Simulation time: 9 hr 50 min 45 sec) 
Heartbeat CPU 1 instructions: 2930000001 cycles: 2837584679 heartbeat IPC: 1.20609 cumulative IPC: 1.00557 (Simulation time: 9 hr 51 min 30 sec) 
Heartbeat CPU 1 instructions: 2940000001 cycles: 2845757215 heartbeat IPC: 1.22361 cumulative IPC: 1.0062 (Simulation time: 9 hr 53 min 4 sec) 
Heartbeat CPU 1 instructions: 2950000000 cycles: 2853909879 heartbeat IPC: 1.22659 cumulative IPC: 1.00684 (Simulation time: 9 hr 54 min 37 sec) 
Heartbeat CPU 1 instructions: 2960000003 cycles: 2861964929 heartbeat IPC: 1.24146 cumulative IPC: 1.00751 (Simulation time: 9 hr 56 min 6 sec) 
Heartbeat CPU 1 instructions: 2970000000 cycles: 2869992120 heartbeat IPC: 1.24577 cumulative IPC: 1.00818 (Simulation time: 9 hr 57 min 34 sec) 
Heartbeat CPU 1 instructions: 2980000001 cycles: 2877971968 heartbeat IPC: 1.25316 cumulative IPC: 1.00887 (Simulation time: 9 hr 58 min 59 sec) 
Heartbeat CPU 3 instructions: 1190000003 cycles: 2883530049 heartbeat IPC: 0.200084 cumulative IPC: 0.384794 (Simulation time: 9 hr 59 min 59 sec) 
Heartbeat CPU 1 instructions: 2990000001 cycles: 2885945989 heartbeat IPC: 1.25407 cumulative IPC: 1.00955 (Simulation time: 10 hr 0 min 24 sec) 
Heartbeat CPU 1 instructions: 3000000000 cycles: 2893604482 heartbeat IPC: 1.30574 cumulative IPC: 1.01035 (Simulation time: 10 hr 1 min 51 sec) 
Heartbeat CPU 2 instructions: 520000001 cycles: 2897326106 heartbeat IPC: 0.156207 cumulative IPC: 0.15555 (Simulation time: 10 hr 2 min 34 sec) 
Heartbeat CPU 1 instructions: 3010000001 cycles: 2901006550 heartbeat IPC: 1.35097 cumulative IPC: 1.01122 (Simulation time: 10 hr 3 min 13 sec) 
Heartbeat CPU 1 instructions: 3020000002 cycles: 2908179781 heartbeat IPC: 1.39407 cumulative IPC: 1.01218 (Simulation time: 10 hr 4 min 30 sec) 
Heartbeat CPU 1 instructions: 3030000000 cycles: 2915240686 heartbeat IPC: 1.41625 cumulative IPC: 1.01317 (Simulation time: 10 hr 5 min 51 sec) 
Heartbeat CPU 1 instructions: 3040000001 cycles: 2922225436 heartbeat IPC: 1.43169 cumulative IPC: 1.01418 (Simulation time: 10 hr 7 min 11 sec) 
Heartbeat CPU 3 instructions: 1200000000 cycles: 2942229974 heartbeat IPC: 0.170358 cumulative IPC: 0.380472 (Simulation time: 10 hr 10 min 44 sec) 
Heartbeat CPU 1 instructions: 3050000000 cycles: 2947553427 heartbeat IPC: 0.39482 cumulative IPC: 1.0088 (Simulation time: 10 hr 11 min 43 sec) 
Heartbeat CPU 1 instructions: 3060000000 cycles: 2954948265 heartbeat IPC: 1.35229 cumulative IPC: 1.00967 (Simulation time: 10 hr 13 min 7 sec) 
Heartbeat CPU 1 instructions: 3070000003 cycles: 2962268580 heartbeat IPC: 1.36606 cumulative IPC: 1.01056 (Simulation time: 10 hr 14 min 35 sec) 
Heartbeat CPU 1 instructions: 3080000000 cycles: 2969690821 heartbeat IPC: 1.3473 cumulative IPC: 1.01141 (Simulation time: 10 hr 16 min 0 sec) 
Heartbeat CPU 2 instructions: 530000002 cycles: 2969896598 heartbeat IPC: 0.137797 cumulative IPC: 0.155112 (Simulation time: 10 hr 16 min 2 sec) 
Heartbeat CPU 1 instructions: 3090000000 cycles: 2977064360 heartbeat IPC: 1.3562 cumulative IPC: 1.01227 (Simulation time: 10 hr 17 min 24 sec) 
Heartbeat CPU 1 instructions: 3100000003 cycles: 2984359652 heartbeat IPC: 1.37075 cumulative IPC: 1.01316 (Simulation time: 10 hr 18 min 52 sec) 
Heartbeat CPU 3 instructions: 1210000000 cycles: 2987950777 heartbeat IPC: 0.218719 cumulative IPC: 0.377972 (Simulation time: 10 hr 19 min 35 sec) 
Heartbeat CPU 1 instructions: 3110000000 cycles: 2991579551 heartbeat IPC: 1.38506 cumulative IPC: 1.01406 (Simulation time: 10 hr 20 min 17 sec) 
Heartbeat CPU 1 instructions: 3120000002 cycles: 2998816873 heartbeat IPC: 1.38173 cumulative IPC: 1.01496 (Simulation time: 10 hr 21 min 43 sec) 
Heartbeat CPU 1 instructions: 3130000002 cycles: 3006052727 heartbeat IPC: 1.38201 cumulative IPC: 1.01585 (Simulation time: 10 hr 23 min 10 sec) 
Heartbeat CPU 1 instructions: 3140000000 cycles: 3013188335 heartbeat IPC: 1.40142 cumulative IPC: 1.01677 (Simulation time: 10 hr 24 min 36 sec) 
Heartbeat CPU 1 instructions: 3150000003 cycles: 3020233783 heartbeat IPC: 1.41936 cumulative IPC: 1.01772 (Simulation time: 10 hr 26 min 1 sec) 
Heartbeat CPU 3 instructions: 1220000000 cycles: 3026546889 heartbeat IPC: 0.259093 cumulative IPC: 0.37644 (Simulation time: 10 hr 27 min 17 sec) 
Heartbeat CPU 1 instructions: 3160000002 cycles: 3027286192 heartbeat IPC: 1.41796 cumulative IPC: 1.01866 (Simulation time: 10 hr 27 min 26 sec) 
Heartbeat CPU 2 instructions: 540000000 cycles: 3028663690 heartbeat IPC: 0.170163 cumulative IPC: 0.155407 (Simulation time: 10 hr 27 min 41 sec) 
Heartbeat CPU 1 instructions: 3170000001 cycles: 3034247553 heartbeat IPC: 1.4365 cumulative IPC: 1.01963 (Simulation time: 10 hr 28 min 46 sec) 
Heartbeat CPU 1 instructions: 3180000001 cycles: 3041203651 heartbeat IPC: 1.43759 cumulative IPC: 1.0206 (Simulation time: 10 hr 30 min 5 sec) 
Heartbeat CPU 1 instructions: 3190000000 cycles: 3059333399 heartbeat IPC: 0.55158 cumulative IPC: 1.01779 (Simulation time: 10 hr 32 min 38 sec) 
Heartbeat CPU 3 instructions: 1230000000 cycles: 3075126809 heartbeat IPC: 0.205846 cumulative IPC: 0.373719 (Simulation time: 10 hr 34 min 33 sec) 
Heartbeat CPU 2 instructions: 550000000 cycles: 3079249179 heartbeat IPC: 0.197685 cumulative IPC: 0.156108 (Simulation time: 10 hr 35 min 5 sec) 
Heartbeat CPU 1 instructions: 3200000000 cycles: 3084972783 heartbeat IPC: 0.390025 cumulative IPC: 1.01252 (Simulation time: 10 hr 35 min 46 sec) 
Heartbeat CPU 1 instructions: 3210000003 cycles: 3110752492 heartbeat IPC: 0.387902 cumulative IPC: 1.0073 (Simulation time: 10 hr 39 min 4 sec) 
Heartbeat CPU 1 instructions: 3220000003 cycles: 3135355478 heartbeat IPC: 0.406455 cumulative IPC: 1.00254 (Simulation time: 10 hr 42 min 12 sec) 
Heartbeat CPU 2 instructions: 560000002 cycles: 3137996234 heartbeat IPC: 0.170221 cumulative IPC: 0.156375 (Simulation time: 10 hr 42 min 32 sec) 
Heartbeat CPU 3 instructions: 1240000000 cycles: 3141039863 heartbeat IPC: 0.151715 cumulative IPC: 0.369016 (Simulation time: 10 hr 42 min 56 sec) 
Heartbeat CPU 1 instructions: 3230000001 cycles: 3149879202 heartbeat IPC: 0.688528 cumulative IPC: 1.00107 (Simulation time: 10 hr 44 min 32 sec) 
Heartbeat CPU 1 instructions: 3240000003 cycles: 3156897124 heartbeat IPC: 1.42492 cumulative IPC: 1.00203 (Simulation time: 10 hr 45 min 54 sec) 
Heartbeat CPU 1 instructions: 3250000002 cycles: 3163905024 heartbeat IPC: 1.42696 cumulative IPC: 1.00298 (Simulation time: 10 hr 47 min 14 sec) 
Heartbeat CPU 1 instructions: 3260000003 cycles: 3170964202 heartbeat IPC: 1.4166 cumulative IPC: 1.0039 (Simulation time: 10 hr 48 min 32 sec) 
Heartbeat CPU 1 instructions: 3270000000 cycles: 3178434223 heartbeat IPC: 1.33868 cumulative IPC: 1.0047 (Simulation time: 10 hr 49 min 52 sec) 
Heartbeat CPU 1 instructions: 3280000003 cycles: 3185733895 heartbeat IPC: 1.36993 cumulative IPC: 1.00554 (Simulation time: 10 hr 51 min 11 sec) 
Heartbeat CPU 3 instructions: 1250000003 cycles: 3188692000 heartbeat IPC: 0.209854 cumulative IPC: 0.366614 (Simulation time: 10 hr 51 min 43 sec) 
Heartbeat CPU 1 instructions: 3290000001 cycles: 3192761039 heartbeat IPC: 1.42305 cumulative IPC: 1.00647 (Simulation time: 10 hr 52 min 25 sec) 
Heartbeat CPU 2 instructions: 570000002 cycles: 3196896789 heartbeat IPC: 0.169778 cumulative IPC: 0.156624 (Simulation time: 10 hr 53 min 11 sec) 
Heartbeat CPU 1 instructions: 3300000000 cycles: 3199798936 heartbeat IPC: 1.42088 cumulative IPC: 1.00739 (Simulation time: 10 hr 53 min 40 sec) 
Heartbeat CPU 1 instructions: 3310000003 cycles: 3206838503 heartbeat IPC: 1.42054 cumulative IPC: 1.00831 (Simulation time: 10 hr 54 min 58 sec) 
Heartbeat CPU 1 instructions: 3320000001 cycles: 3213910108 heartbeat IPC: 1.41411 cumulative IPC: 1.00921 (Simulation time: 10 hr 56 min 17 sec) 
Heartbeat CPU 1 instructions: 3330000001 cycles: 3220944007 heartbeat IPC: 1.42169 cumulative IPC: 1.01012 (Simulation time: 10 hr 57 min 38 sec) 
Heartbeat CPU 1 instructions: 3340000003 cycles: 3227866419 heartbeat IPC: 1.44458 cumulative IPC: 1.01106 (Simulation time: 10 hr 58 min 52 sec) 
Heartbeat CPU 1 instructions: 3350000001 cycles: 3234690820 heartbeat IPC: 1.46533 cumulative IPC: 1.01203 (Simulation time: 11 hr 0 min 11 sec) 
Heartbeat CPU 3 instructions: 1260000000 cycles: 3236160154 heartbeat IPC: 0.210667 cumulative IPC: 0.364306 (Simulation time: 11 hr 0 min 28 sec) 
Heartbeat CPU 1 instructions: 3360000001 cycles: 3241471412 heartbeat IPC: 1.4748 cumulative IPC: 1.013 (Simulation time: 11 hr 1 min 28 sec) 
Heartbeat CPU 1 instructions: 3370000000 cycles: 3248269396 heartbeat IPC: 1.47102 cumulative IPC: 1.01397 (Simulation time: 11 hr 2 min 36 sec) 
Heartbeat CPU 1 instructions: 3380000001 cycles: 3255177382 heartbeat IPC: 1.4476 cumulative IPC: 1.0149 (Simulation time: 11 hr 3 min 41 sec) 
Heartbeat CPU 1 instructions: 3390000003 cycles: 3262255847 heartbeat IPC: 1.41274 cumulative IPC: 1.01577 (Simulation time: 11 hr 4 min 51 sec) 
Heartbeat CPU 2 instructions: 580000000 cycles: 3280473637 heartbeat IPC: 0.11965 cumulative IPC: 0.155674 (Simulation time: 11 hr 7 min 44 sec) 
Heartbeat CPU 1 instructions: 3400000000 cycles: 3284120873 heartbeat IPC: 0.457351 cumulative IPC: 1.01202 (Simulation time: 11 hr 8 min 18 sec) 
[...]
L2C RQ	ACCESS:   61103081	FORWARD:          0	MERGED:          0	TO_CACHE:   61102751
L2C WQ	ACCESS:    5274573	FORWARD:        360	MERGED:          0	TO_CACHE:    5274573
L2C PQ	ACCESS:   83269380	FORWARD:          0	MERGED:     182342	TO_CACHE:   83087008

L2C Instructions Evicting Data 69
L2C Translations Evicting Data 196514
L2C Data Evicting Data 66613193
L2C Instructions Evicting Instructions 0
L2C Translations Evicting Instructions 0
L2C Data Evicting Instructions 70
L2C Instructions Evicting Translations 0
L2C Translations Evicting Translations 716
L2C Data Evicting Translations 195999
L2C Dense regions hint from L2: 0
PSCL5 TOTAL     ACCESS:     951208  HIT:     951208  MISS:          0  HIT %:        100  MISS %:          0   MPKI: 0
PSCL5 LOAD TRANSLATION ACCESS:     104558  HIT:     104558  MISS:          0  HIT %:        100  MISS %:          0   MPKI: 0
PSCL5 TRANSLATION FROM L1D PREFETCHER ACCESS:     846650  HIT:     846650  MISS:          0  HIT %:        100  MISS %:          0   MPKI: 0
PSCL5 PREFETCH  REQUESTED:          0  ISSUED:          0  USEFUL:          0  USELESS:          0
PSCL5 USEFUL LOAD PREFETCHES:          0 PREFETCH ISSUED TO LOWER LEVEL:          0  ACCURACY: -nan
PSCL5 TIMELY PREFETCHES:          0 LATE PREFETCHES: 0 DROPPED PREFETCHES: 0
PSCL5 PREFETCHES SAME FILL-ORIGIN LEVEL: 0 DIFFERENT FILL-ORIGIN LEVEL: 0

PSCL4 TOTAL     ACCESS:     951208  HIT:     951208  MISS:          0  HIT %:        100  MISS %:          0   MPKI: 0
PSCL4 LOAD TRANSLATION ACCESS:     104558  HIT:     104558  MISS:          0  HIT %:        100  MISS %:          0   MPKI: 0
PSCL4 TRANSLATION FROM L1D PREFETCHER ACCESS:     846650  HIT:     846650  MISS:          0  HIT %:        100  MISS %:          0   MPKI: 0
PSCL4 PREFETCH  REQUESTED:          0  ISSUED:          0  USEFUL:          0  USELESS:          0
PSCL4 USEFUL LOAD PREFETCHES:          0 PREFETCH ISSUED TO LOWER LEVEL:          0  ACCURACY: -nan
PSCL4 TIMELY PREFETCHES:          0 LATE PREFETCHES: 0 DROPPED PREFETCHES: 0
PSCL4 PREFETCHES SAME FILL-ORIGIN LEVEL: 0 DIFFERENT FILL-ORIGIN LEVEL: 0

PSCL3 TOTAL     ACCESS:     951208  HIT:     951208  MISS:          0  HIT %:        100  MISS %:          0   MPKI: 0
PSCL3 LOAD TRANSLATION ACCESS:     104558  HIT:     104558  MISS:          0  HIT %:        100  MISS %:          0   MPKI: 0
PSCL3 TRANSLATION FROM L1D PREFETCHER ACCESS:     846650  HIT:     846650  MISS:          0  HIT %:        100  MISS %:          0   MPKI: 0
PSCL3 PREFETCH  REQUESTED:          0  ISSUED:          0  USEFUL:          0  USELESS:          0
PSCL3 USEFUL LOAD PREFETCHES:          0 PREFETCH ISSUED TO LOWER LEVEL:          0  ACCURACY: -nan
PSCL3 TIMELY PREFETCHES:          0 LATE PREFETCHES: 0 DROPPED PREFETCHES: 0
PSCL3 PREFETCHES SAME FILL-ORIGIN LEVEL: 0 DIFFERENT FILL-ORIGIN LEVEL: 0

PSCL2 TOTAL     ACCESS:     942596  HIT:     941563  MISS:       1033  HIT %:    99.8904  MISS %:   0.109591   MPKI: 0.005165
PSCL2 LOAD TRANSLATION ACCESS:     104595  HIT:     103562  MISS:       1033  HIT %:    99.0124  MISS %:   0.987619   MPKI: 0.005165
PSCL2 TRANSLATION FROM L1D PREFETCHER ACCESS:     838001  HIT:     838001  MISS:          0  HIT %:        100  MISS %:          0   MPKI: 0
PSCL2 PREFETCH  REQUESTED:          0  ISSUED:          0  USEFUL:          0  USELESS:          0
PSCL2 USEFUL LOAD PREFETCHES:          0 PREFETCH ISSUED TO LOWER LEVEL:          0  ACCURACY: -nan
PSCL2 TIMELY PREFETCHES:          0 LATE PREFETCHES: 0 DROPPED PREFETCHES: 0
PSCL2 PREFETCHES SAME FILL-ORIGIN LEVEL: 0 DIFFERENT FILL-ORIGIN LEVEL: 0

LLC TOTAL     ACCESS:   12187920  HIT:    6728390  MISS:    5459530  HIT %:    55.2054  MISS %:    44.7946   MPKI: 27.2977
LLC LOAD      ACCESS:    6649196  HIT:    5591262  MISS:    1057934  HIT %:    84.0893  MISS %:    15.9107   MPKI: 5.28967
LLC RFO       ACCESS:     293548  HIT:     288474  MISS:       5074  HIT %:    98.2715  MISS %:    1.72851   MPKI: 0.02537
LLC PREFETCH  ACCESS:    4619455  HIT:     244239  MISS:    4375216  HIT %:    5.28718  MISS %:    94.7128   MPKI: 21.8761
LLC WRITEBACK ACCESS:     588660  HIT:     581493  MISS:       7167  HIT %:    98.7825  MISS %:    1.21751   MPKI: 0.035835
LLC LOAD TRANSLATION ACCESS:      26682  HIT:      21879  MISS:       4803  HIT %:    81.9991  MISS %:    18.0009   MPKI: 0.024015
LLC TRANSLATION FROM L1D PREFETCHER ACCESS:      10379  HIT:       1043  MISS:       9336  HIT %:    10.0491  MISS %:    89.9509   MPKI: 0.04668
LLC PREFETCH  REQUESTED:          0  ISSUED:          0  USEFUL:    1500482  USELESS:  375007424
LLC USEFUL LOAD PREFETCHES:    1500482 PREFETCH ISSUED TO LOWER LEVEL:  855116969  ACCURACY: 0.175471
LLC TIMELY PREFETCHES:    1500482 LATE PREFETCHES: 0 DROPPED PREFETCHES: 0
LLC PREFETCHES SAME FILL-ORIGIN LEVEL: 0 DIFFERENT FILL-ORIGIN LEVEL: 0
LLC AVERAGE MISS LATENCY: 47670 cycles
LLC RQ	ACCESS:  104908980	FORWARD:          0	MERGED:          0	TO_CACHE:  104908939
LLC WQ	ACCESS:   77812733	FORWARD:         51	MERGED:          0	TO_CACHE:   77812733
LLC PQ	ACCESS:  394144046	FORWARD:          0	MERGED:          0	TO_CACHE:  394144036

LLC Dense regions hint to LLC: 0

RAW hits: 2622884
Loads Generated: 70605214
Loads sent to L1D: 67982330
Stores Generated: 17475802
Stores sent to L1D: 17475802
Major fault: 30938 Minor fault: 355245
Allocated PAGES: 1048576

CPU 3 cumulative IPC: 0.393423 instructions: 200000000 cycles: 508358497
ITLB TOTAL     ACCESS:   36522220  HIT:   36522220  MISS:          0  HIT %:        100  MISS %:          0   MPKI: 0
ITLB LOAD TRANSLATION ACCESS:   36522220  HIT:   36522220  MISS:          0  HIT %:        100  MISS %:          0   MPKI: 0
ITLB PREFETCH  REQUESTED:          0  ISSUED:          0  USEFUL:          0  USELESS:          0
ITLB USEFUL LOAD PREFETCHES:          0 PREFETCH ISSUED TO LOWER LEVEL:          0  ACCURACY: -nan
ITLB TIMELY PREFETCHES:          0 LATE PREFETCHES: 0 DROPPED PREFETCHES: 0
ITLB PREFETCHES SAME FILL-ORIGIN LEVEL: 0 DIFFERENT FILL-ORIGIN LEVEL: 0
ITLB AVERAGE MISS LATENCY: inf cycles
ITLB RQ	ACCESS:  402168887	FORWARD:          0	MERGED:   55023963	TO_CACHE:  347144924

DTLB TOTAL     ACCESS:   53237772  HIT:   52732256  MISS:     505516  HIT %:    99.0505  MISS %:   0.949544   MPKI: 2.52758
DTLB LOAD TRANSLATION ACCESS:   53237772  HIT:   52732256  MISS:     505516  HIT %:    99.0505  MISS %:   0.949544   MPKI: 2.52758
DTLB PREFETCH  REQUESTED:          0  ISSUED:          0  USEFUL:          0  USELESS:          0
DTLB USEFUL LOAD PREFETCHES:          0 PREFETCH ISSUED TO LOWER LEVEL:          0  ACCURACY: -nan
DTLB TIMELY PREFETCHES:          0 LATE PREFETCHES: 0 DROPPED PREFETCHES: 0
DTLB PREFETCHES SAME FILL-ORIGIN LEVEL: 0 DIFFERENT FILL-ORIGIN LEVEL: 0
DTLB AVERAGE MISS LATENCY: 7212.27 cycles
DTLB RQ	ACCESS:  776425624	FORWARD:          0	MERGED:  258812372	TO_CACHE:  517613252

STLB TOTAL     ACCESS:   17284633  HIT:   17147737  MISS:     136896  HIT %:     99.208  MISS %:    0.79201   MPKI: 0.68448
STLB LOAD TRANSLATION ACCESS:     505516  HIT:     459399  MISS:      46117  HIT %:    90.8772  MISS %:    9.12276   MPKI: 0.230585
STLB TRANSLATION FROM L1D PREFETCHER ACCESS:   16779117  HIT:   16688338  MISS:      90779  HIT %:     99.459  MISS %:   0.541024   MPKI: 0.453895
STLB PREFETCH  REQUESTED:          0  ISSUED:          0  USEFUL:     930108  USELESS:        446
STLB USEFUL LOAD PREFETCHES:     930108 PREFETCH ISSUED TO LOWER LEVEL:          0  ACCURACY: inf
STLB TIMELY PREFETCHES:     930108 LATE PREFETCHES: 97842 DROPPED PREFETCHES: 25986602
STLB PREFETCHES SAME FILL-ORIGIN LEVEL: 0 DIFFERENT FILL-ORIGIN LEVEL: 0
STLB AVERAGE MISS LATENCY: 26998.6 cycles
STLB RQ	ACCESS:  869116782	FORWARD:          0	MERGED:  679767591	TO_CACHE:  189349191

STLB Hit, L1D data hit: 0
STLB Hit, L2C data hit: 0
STLB Hit, LLC data hit: 0
STLB Hit, LLC data miss: 0
STLB STLB hints to L2: 0
L1D TOTAL     ACCESS:  121236961  HIT:  115856663  MISS:    5380298  HIT %:    95.5622  MISS %:    4.43784   MPKI: 26.9015
L1D LOAD      ACCESS:   36619815  HIT:   34150091  MISS:    2469724  HIT %:    93.2558  MISS %:    6.74423   MPKI: 12.3486
L1D RFO       ACCESS:   55596777  HIT:   55134061  MISS:     462716  HIT %:    99.1677  MISS %:   0.832271   MPKI: 2.31358
L1D PREFETCH  ACCESS:   29020369  HIT:   26572511  MISS:    2447858  HIT %:     91.565  MISS %:    8.43497   MPKI: 12.2393
L1D PREFETCH  REQUESTED: 2598225982  ISSUED: 2086060628  USEFUL:   34880558  USELESS:    3154476
L1D USEFUL LOAD PREFETCHES:   34880558 PREFETCH ISSUED TO LOWER LEVEL:  594127065  ACCURACY: 5.87089
L1D TIMELY PREFETCHES:   34880558 LATE PREFETCHES: 7952817 DROPPED PREFETCHES: 41552165
L1D PREFETCHES SAME FILL-ORIGIN LEVEL: 58017842 DIFFERENT FILL-ORIGIN LEVEL: 536109223
L1D AVERAGE MISS LATENCY: 5728.32 cycles
L1D RQ	ACCESS:  603544428	FORWARD:          0	MERGED:  193291501	TO_CACHE:  401404941
L1D WQ	ACCESS:  377937731	FORWARD:    8870928	MERGED:    2917048	TO_CACHE:  375020683
L1D PQ	ACCESS: 1220851942	FORWARD:          0	MERGED:  355620314	TO_CACHE:  865208686

L1D UNIQUE REGIONS ACCESSED: 0
L1D REGIONS CONFLICTS: 0
L1D Cross Page Prefetch Requests: 131257085
L1D Same Page Prefetch Requests: 1127619541
L1D ROI Sum of L1D PQ occupancy: 19811044399
L1D PREFETCHES PUSHED FROM L2C: 0
L1I TOTAL     ACCESS:   46391884  HIT:   46391884  MISS:          0  HIT %:        100  MISS %:          0   MPKI: 0
L1I LOAD      ACCESS:   46391884  HIT:   46391884  MISS:          0  HIT %:        100  MISS %:          0   MPKI: 0
L1I PREFETCH  REQUESTED:          0  ISSUED:          0  USEFUL:          0  USELESS:          0
L1I USEFUL LOAD PREFETCHES:          0 PREFETCH ISSUED TO LOWER LEVEL:          0  ACCURACY: -nan
L1I TIMELY PREFETCHES:          0 LATE PREFETCHES: 0 DROPPED PREFETCHES: 0
L1I PREFETCHES SAME FILL-ORIGIN LEVEL: 0 DIFFERENT FILL-ORIGIN LEVEL: 0
L1I AVERAGE MISS LATENCY: inf cycles
L1I RQ	ACCESS:  619270364	FORWARD:          0	MERGED:  217101477	TO_CACHE:  402168887

BTB TOTAL     ACCESS:   19320278  HIT:   19320278  MISS:          0  HIT %:        100  MISS %:          0   MPKI: 0
BTB BRANCH_DIRECT_JUMP	ACCESS:     932806  HIT:     932806  MISS:          0
BTB BRANCH_INDIRECT	ACCESS:          0  HIT:          0  MISS:          0
BTB BRANCH_CONDITIONAL	ACCESS:   18387296  HIT:   18387296  MISS:          0
BTB BRANCH_DIRECT_CALL	ACCESS:         88  HIT:         88  MISS:          0
BTB BRANCH_INDIRECT_CALL	ACCESS:          0  HIT:          0  MISS:          0
BTB BRANCH_RETURN	ACCESS:         88  HIT:         88  MISS:          0
BTB BRANCH_OTHER ACCESS:          0  HIT:          0  MISS:          0

L2C TOTAL     ACCESS:   42338480  HIT:   35025735  MISS:    7312745  HIT %:    82.7279  MISS %:    17.2721   MPKI: 36.5637
L2C LOAD      ACCESS:    2113682  HIT:    1499372  MISS:     614310  HIT %:    70.9365  MISS %:    29.0635   MPKI: 3.07155
L2C DATA LOAD MPKI: 3.07155
L2C INSTRUCTION LOAD MPKI: 0
L2C RFO       ACCESS:     462626  HIT:      44962  MISS:     417664  HIT %:    9.71887  MISS %:    90.2811   MPKI: 2.08832
L2C PREFETCH  ACCESS:   37678777  HIT:   31488334  MISS:    6190443  HIT %:    83.5705  MISS %:    16.4295   MPKI: 30.9522
L2C DATA PREFETCH MPKI: 30.9522
L2C INSTRUCTION PREFETCH MPKI: 0
L2C WRITEBACK ACCESS:    1199457  HIT:    1131502  MISS:      67955  HIT %:    94.3345  MISS %:    5.66548   MPKI: 0.339775
L2C LOAD TRANSLATION ACCESS:      43025  HIT:      38453  MISS:       4572  HIT %:    89.3736  MISS %:    10.6264   MPKI: 0.02286
L2C TRANSLATION FROM L1D PREFETCHER ACCESS:     840913  HIT:     823112  MISS:      17801  HIT %:    97.8831  MISS %:    2.11687   MPKI: 0.089005
L2C PREFETCH  REQUESTED:          0  ISSUED:          0  USEFUL:   16517610  USELESS:   59310476
L2C USEFUL LOAD PREFETCHES:   16517610 PREFETCH ISSUED TO LOWER LEVEL:   81429366  ACCURACY: 20.2846
L2C TIMELY PREFETCHES:   16517610 LATE PREFETCHES: 5793950 DROPPED PREFETCHES: 0
L2C PREFETCHES SAME FILL-ORIGIN LEVEL: 56344741 DIFFERENT FILL-ORIGIN LEVEL: 0
L2C AVERAGE MISS LATENCY: 9919.27 cycles
L2C RQ	ACCESS:   57157170	FORWARD:          0	MERGED:          0	TO_CACHE:   57156995
L2C WQ	ACCESS:    8952357	FORWARD:        589	MERGED:          0	TO_CACHE:    8952357
L2C PQ	ACCESS:  387055724	FORWARD:          0	MERGED:    6005247	TO_CACHE:  381050063

L2C Instructions Evicting Data 58
L2C Translations Evicting Data 225806
L2C Data Evicting Data 87729756
L2C Instructions Evicting Instructions 0
L2C Translations Evicting Instructions 0
L2C Data Evicting Instructions 56
L2C Instructions Evicting Translations 0
L2C Translations Evicting Translations 335
L2C Data Evicting Translations 223845
L2C Dense regions hint from L2: 0
PSCL5 TOTAL     ACCESS:     849995  HIT:     849995  MISS:          0  HIT %:        100  MISS %:          0   MPKI: 0
PSCL5 LOAD TRANSLATION ACCESS:      42756  HIT:      42756  MISS:          0  HIT %:        100  MISS %:          0   MPKI: 0
PSCL5 TRANSLATION FROM L1D PREFETCHER ACCESS:     807239  HIT:     807239  MISS:          0  HIT %:        100  MISS %:          0   MPKI: 0
PSCL5 PREFETCH  REQUESTED:          0  ISSUED:          0  USEFUL:          0  USELESS:          0
PSCL5 USEFUL LOAD PREFETCHES:          0 PREFETCH ISSUED TO LOWER LEVEL:          0  ACCURACY: -nan
PSCL5 TIMELY PREFETCHES:          0 LATE PREFETCHES: 0 DROPPED PREFETCHES: 0
PSCL5 PREFETCHES SAME FILL-ORIGIN LEVEL: 0 DIFFERENT FILL-ORIGIN LEVEL: 0

PSCL4 TOTAL     ACCESS:     849995  HIT:     849995  MISS:          0  HIT %:        100  MISS %:          0   MPKI: 0
PSCL4 LOAD TRANSLATION ACCESS:      42756  HIT:      42756  MISS:          0  HIT %:        100  MISS %:          0   MPKI: 0
PSCL4 TRANSLATION FROM L1D PREFETCHER ACCESS:     807239  HIT:     807239  MISS:          0  HIT %:        100  MISS %:          0   MPKI: 0
PSCL4 PREFETCH  REQUESTED:          0  ISSUED:          0  USEFUL:          0  USELESS:          0
PSCL4 USEFUL LOAD PREFETCHES:          0 PREFETCH ISSUED TO LOWER LEVEL:          0  ACCURACY: -nan
PSCL4 TIMELY PREFETCHES:          0 LATE PREFETCHES: 0 DROPPED PREFETCHES: 0
PSCL4 PREFETCHES SAME FILL-ORIGIN LEVEL: 0 DIFFERENT FILL-ORIGIN LEVEL: 0

PSCL3 TOTAL     ACCESS:     849995  HIT:     849995  MISS:          0  HIT %:        100  MISS %:          0   MPKI: 0
PSCL3 LOAD TRANSLATION ACCESS:      42756  HIT:      42756  MISS:          0  HIT %:        100  MISS %:          0   MPKI: 0
PSCL3 TRANSLATION FROM L1D PREFETCHER ACCESS:     807239  HIT:     807239  MISS:          0  HIT %:        100  MISS %:          0   MPKI: 0
PSCL3 PREFETCH  REQUESTED:          0  ISSUED:          0  USEFUL:          0  USELESS:          0
PSCL3 USEFUL LOAD PREFETCHES:          0 PREFETCH ISSUED TO LOWER LEVEL:          0  ACCURACY: -nan
PSCL3 TIMELY PREFETCHES:          0 LATE PREFETCHES: 0 DROPPED PREFETCHES: 0
PSCL3 PREFETCHES SAME FILL-ORIGIN LEVEL: 0 DIFFERENT FILL-ORIGIN LEVEL: 0

PSCL2 TOTAL     ACCESS:     812969  HIT:     812475  MISS:        494  HIT %:    99.9392  MISS %:  0.0607649   MPKI: 0.00247
PSCL2 LOAD TRANSLATION ACCESS:      42885  HIT:      42391  MISS:        494  HIT %:    98.8481  MISS %:    1.15192   MPKI: 0.00247
PSCL2 TRANSLATION FROM L1D PREFETCHER ACCESS:     770084  HIT:     770084  MISS:          0  HIT %:        100  MISS %:          0   MPKI: 0
PSCL2 PREFETCH  REQUESTED:          0  ISSUED:          0  USEFUL:          0  USELESS:          0
PSCL2 USEFUL LOAD PREFETCHES:          0 PREFETCH ISSUED TO LOWER LEVEL:          0  ACCURACY: -nan
PSCL2 TIMELY PREFETCHES:          0 LATE PREFETCHES: 0 DROPPED PREFETCHES: 0
PSCL2 PREFETCHES SAME FILL-ORIGIN LEVEL: 0 DIFFERENT FILL-ORIGIN LEVEL: 0

LLC TOTAL     ACCESS:    8379354  HIT:     363423  MISS:    8015931  HIT %:    4.33712  MISS %:    95.6629   MPKI: 40.0797
LLC LOAD      ACCESS:     261740  HIT:      10139  MISS:     251601  HIT %:    3.87369  MISS %:    96.1263   MPKI: 1.25801
LLC RFO       ACCESS:     411419  HIT:        132  MISS:     411287  HIT %:  0.0320841  MISS %:    99.9679   MPKI: 2.05644
LLC PREFETCH  ACCESS:    6549255  HIT:     193798  MISS:    6355457  HIT %:    2.95908  MISS %:    97.0409   MPKI: 31.7773
LLC WRITEBACK ACCESS:    1134567  HIT:     157929  MISS:     976638  HIT %:    13.9198  MISS %:    86.0802   MPKI: 4.88319
LLC LOAD TRANSLATION ACCESS:       4572  HIT:        155  MISS:       4417  HIT %:     3.3902  MISS %:    96.6098   MPKI: 0.022085
LLC TRANSLATION FROM L1D PREFETCHER ACCESS:      17801  HIT:       1270  MISS:      16531  HIT %:    7.13443  MISS %:    92.8656   MPKI: 0.082655
LLC PREFETCH  REQUESTED:          0  ISSUED:          0  USEFUL:    1500482  USELESS:  375007424
LLC USEFUL LOAD PREFETCHES:    1500482 PREFETCH ISSUED TO LOWER LEVEL:  855116969  ACCURACY: 0.175471
LLC TIMELY PREFETCHES:    1500482 LATE PREFETCHES: 0 DROPPED PREFETCHES: 0
LLC PREFETCHES SAME FILL-ORIGIN LEVEL: 0 DIFFERENT FILL-ORIGIN LEVEL: 0
LLC AVERAGE MISS LATENCY: 32467.3 cycles
LLC RQ	ACCESS:  104908980	FORWARD:          0	MERGED:          0	TO_CACHE:  104908939
LLC WQ	ACCESS:   77812733	FORWARD:         51	MERGED:          0	TO_CACHE:   77812733
LLC PQ	ACCESS:  394144046	FORWARD:          0	MERGED:          0	TO_CACHE:  394144036

LLC Dense regions hint to LLC: 0

RAW hits: 1331036
Loads Generated: 63838830
Loads sent to L1D: 62507794
Stores Generated: 57708859
Stores sent to L1D: 57708853
Major fault: 35027 Minor fault: 557257
Allocated PAGES: 1048576

DRAM Statistics
 CHANNEL 0
 RQ ROW_BUFFER_HIT:  184194219  ROW_BUFFER_MISS:  252842456
 DBUS_CONGESTED:       1710
 WQ ROW_BUFFER_HIT:    6134547  ROW_BUFFER_MISS:   68660952  FULL:     130132

 AVG_CONGESTED_CYCLE: 5
 All warmup complete: 5
Channel 0 Bank busy for read cycles: 0
Channel 0 Bank busy for write cycles: 0
Channel 0
Rank 0
0banks busy for read cycles: 901593
0banks busy for write cycles: 638
1banks busy for read cycles: 95780161
1banks busy for write cycles: 8241394
2banks busy for read cycles: 208934197
2banks busy for write cycles: 17817405
3banks busy for read cycles: 312629362
3banks busy for write cycles: 494480055
4banks busy for read cycles: 444308161
4banks busy for write cycles: 203369519
5banks busy for read cycles: 654645594
5banks busy for write cycles: 160006394
6banks busy for read cycles: 1042576553
6banks busy for write cycles: 148822150
7banks busy for read cycles: 1811403080
7banks busy for write cycles: 277166565
8banks busy for read cycles: 3059758870
8banks busy for write cycles: 1048545626

CPU 0 Branch Prediction Accuracy: 96.9594% MPKI: 5.62926 Average ROB Occupancy at Mispredict: 140.26
Branch types
NOT_BRANCH: 162972290 81.4861%
BRANCH_DIRECT_JUMP: 67 3.35e-05%
BRANCH_INDIRECT: 4 2e-06%
BRANCH_CONDITIONAL: 37027324 18.5137%
BRANCH_DIRECT_CALL: 28 1.4e-05%
BRANCH_INDIRECT_CALL: 5 2.5e-06%
BRANCH_RETURN: 33 1.65e-05%
BRANCH_OTHER: 0 0%


CPU 1 Branch Prediction Accuracy: 99.9999% MPKI: 3.97947e-05 Average ROB Occupancy at Mispredict: 191.221
Branch types
NOT_BRANCH: 10555713802 96.1802%
BRANCH_DIRECT_JUMP: 297 2.70617e-06%
BRANCH_INDIRECT: 0 0%
BRANCH_CONDITIONAL: 356239789 3.24594%
BRANCH_DIRECT_CALL: 31492060 0.286945%
BRANCH_INDIRECT_CALL: 0 0%
BRANCH_RETURN: 31492060 0.286945%
BRANCH_OTHER: 0 0%


CPU 2 Branch Prediction Accuracy: 94.6408% MPKI: 13.5312 Average ROB Occupancy at Mispredict: 30.7888
Branch types
NOT_BRANCH: 820481571 74.204%
BRANCH_DIRECT_JUMP: 32188436 2.91111%
BRANCH_INDIRECT: 0 0%
BRANCH_CONDITIONAL: 210172802 19.0079%
BRANCH_DIRECT_CALL: 20057841 1.81402%
BRANCH_INDIRECT_CALL: 1376208 0.124464%
BRANCH_RETURN: 21434049 1.93849%
BRANCH_OTHER: 0 0%


CPU 3 Branch Prediction Accuracy: 98.7679% MPKI: 2.13434 Average ROB Occupancy at Mispredict: 84.6206
Branch types
NOT_BRANCH: 1495088912 82.2772%
BRANCH_DIRECT_JUMP: 21454741 1.18069%
BRANCH_INDIRECT: 0 0%
BRANCH_CONDITIONAL: 263385240 14.4945%
BRANCH_DIRECT_CALL: 18603955 1.02381%
BRANCH_INDIRECT_CALL: 8 4.40253e-07%
BRANCH_RETURN: 18603962 1.02381%
BRANCH_OTHER: 0 0%

DRAM PAGES: 1048576
Allocated PAGES: 1048576
