
*** ChampSim Multicore Out-of-Order Simulator ***

Warmup Instructions: 50000000
Simulation Instructions: 200000000
Number of CPUs: 4
LLC sets: 8192
LLC ways: 16
Off-chip DRAM Size: 4096 MB Channels: 1 Width: 64-bit Data Rate: 6400 MT/s
CPU 0 runs ./traces/spec/605.mcf_s-472B.champsimtrace.xz
.xz
CPU 1 runs ./traces/spec/605.mcf_s-472B.champsimtrace.xz
.xz
CPU 2 runs ./traces/spec/605.mcf_s-472B.champsimtrace.xz
.xz
CPU 3 runs ./traces/spec/605.mcf_s-472B.champsimtrace.xz
.xz
BTB has LRU replacement policy
ITLB has LRU replacement policy
DTLB has LRU replacement policy
STLB has LRU replacement policy
L1I has LRU replacement policy
History Sets: 8
History Ways: 16
BERTI Size: 16
BERTI Stride Size: 8
L1D has LRU replacement policy
Initialize SRRIP state for L2C
Initialize DRRIP state for LLC
BTB has LRU replacement policy
ITLB has LRU replacement policy
DTLB has LRU replacement policy
STLB has LRU replacement policy
L1I has LRU replacement policy
History Sets: 8
History Ways: 16
BERTI Size: 16
BERTI Stride Size: 8
L1D has LRU replacement policy
Initialize SRRIP state for L2C
Initialize DRRIP state for LLC
BTB has LRU replacement policy
ITLB has LRU replacement policy
DTLB has LRU replacement policy
STLB has LRU replacement policy
L1I has LRU replacement policy
History Sets: 8
History Ways: 16
BERTI Size: 16
BERTI Stride Size: 8
L1D has LRU replacement policy
Initialize SRRIP state for L2C
Initialize DRRIP state for LLC
BTB has LRU replacement policy
ITLB has LRU replacement policy
DTLB has LRU replacement policy
STLB has LRU replacement policy
L1I has LRU replacement policy
History Sets: 8
History Ways: 16
BERTI Size: 16
BERTI Stride Size: 8
L1D has LRU replacement policy
Initialize SRRIP state for L2C
Initialize DRRIP state for LLC
Heartbeat CPU 2 instructions: 10000001 cycles: 3612081 heartbeat IPC: 2.76849 cumulative IPC: 2.76849 (Simulation time: 0 hr 5 min 7 sec) 
Heartbeat CPU 0 instructions: 10000001 cycles: 3615262 heartbeat IPC: 2.76605 cumulative IPC: 2.76605 (Simulation time: 0 hr 5 min 7 sec) 
Heartbeat CPU 1 instructions: 10000001 cycles: 3615430 heartbeat IPC: 2.76592 cumulative IPC: 2.76592 (Simulation time: 0 hr 5 min 7 sec) 
Heartbeat CPU 3 instructions: 10000001 cycles: 3617372 heartbeat IPC: 2.76444 cumulative IPC: 2.76444 (Simulation time: 0 hr 5 min 7 sec) 
Heartbeat CPU 2 instructions: 20000003 cycles: 8255977 heartbeat IPC: 2.15336 cumulative IPC: 2.42249 (Simulation time: 0 hr 10 min 27 sec) 
Heartbeat CPU 0 instructions: 20000003 cycles: 8274594 heartbeat IPC: 2.14623 cumulative IPC: 2.41704 (Simulation time: 0 hr 10 min 28 sec) 
Heartbeat CPU 1 instructions: 20000003 cycles: 8275130 heartbeat IPC: 2.14606 cumulative IPC: 2.41688 (Simulation time: 0 hr 10 min 28 sec) 
Heartbeat CPU 3 instructions: 20000003 cycles: 8276152 heartbeat IPC: 2.14649 cumulative IPC: 2.41658 (Simulation time: 0 hr 10 min 29 sec) 
Heartbeat CPU 2 instructions: 30000002 cycles: 13389972 heartbeat IPC: 1.9478 cumulative IPC: 2.24048 (Simulation time: 0 hr 16 min 25 sec) 
Heartbeat CPU 1 instructions: 30000001 cycles: 13479617 heartbeat IPC: 1.92142 cumulative IPC: 2.22558 (Simulation time: 0 hr 16 min 32 sec) 
Heartbeat CPU 0 instructions: 30000001 cycles: 13480569 heartbeat IPC: 1.92087 cumulative IPC: 2.22543 (Simulation time: 0 hr 16 min 32 sec) 
Heartbeat CPU 3 instructions: 30000001 cycles: 13484987 heartbeat IPC: 1.91981 cumulative IPC: 2.2247 (Simulation time: 0 hr 16 min 33 sec) 
Heartbeat CPU 2 instructions: 40000003 cycles: 16988556 heartbeat IPC: 2.77887 cumulative IPC: 2.35453 (Simulation time: 0 hr 21 min 27 sec) 
Heartbeat CPU 1 instructions: 40000003 cycles: 17109076 heartbeat IPC: 2.75523 cumulative IPC: 2.33794 (Simulation time: 0 hr 21 min 37 sec) 
Heartbeat CPU 0 instructions: 40000003 cycles: 17112258 heartbeat IPC: 2.75354 cumulative IPC: 2.33751 (Simulation time: 0 hr 21 min 38 sec) 
Heartbeat CPU 3 instructions: 40000003 cycles: 17116924 heartbeat IPC: 2.75335 cumulative IPC: 2.33687 (Simulation time: 0 hr 21 min 38 sec) 
Heartbeat CPU 2 instructions: 50000000 cycles: 20555688 heartbeat IPC: 2.80337 cumulative IPC: 2.43242 (Simulation time: 0 hr 26 min 37 sec) 
Heartbeat CPU 1 instructions: 50000003 cycles: 20857138 heartbeat IPC: 2.66805 cumulative IPC: 2.39726 (Simulation time: 0 hr 27 min 1 sec) 
Heartbeat CPU 0 instructions: 50000000 cycles: 20861654 heartbeat IPC: 2.6671 cumulative IPC: 2.39674 (Simulation time: 0 hr 27 min 1 sec) 
Heartbeat CPU 3 instructions: 50000003 cycles: 20867624 heartbeat IPC: 2.66617 cumulative IPC: 2.39606 (Simulation time: 0 hr 27 min 2 sec) 

Warmup complete CPU 0 instructions: 50010285 cycles: 20867624 (Simulation time: 0 hr 27 min 2 sec) 
Warmup complete CPU 1 instructions: 50018349 cycles: 20867624 (Simulation time: 0 hr 27 min 2 sec) 
Warmup complete CPU 2 instructions: 50848576 cycles: 20867624 (Simulation time: 0 hr 27 min 2 sec) 
Warmup complete CPU 3 instructions: 50000003 cycles: 20867624 (Simulation time: 0 hr 27 min 2 sec) 

Heartbeat CPU 2 instructions: 60000001 cycles: 53254830 heartbeat IPC: 0.305818 cumulative IPC: 0.282563 (Simulation time: 0 hr 35 min 8 sec) 
Heartbeat CPU 1 instructions: 60000001 cycles: 58860613 heartbeat IPC: 0.263134 cumulative IPC: 0.262724 (Simulation time: 0 hr 36 min 20 sec) 
Heartbeat CPU 0 instructions: 60000001 cycles: 58897255 heartbeat IPC: 0.262912 cumulative IPC: 0.262682 (Simulation time: 0 hr 36 min 20 sec) 
Heartbeat CPU 3 instructions: 60000001 cycles: 59144331 heartbeat IPC: 0.261255 cumulative IPC: 0.261255 (Simulation time: 0 hr 36 min 25 sec) 
Heartbeat CPU 2 instructions: 70000002 cycles: 85547300 heartbeat IPC: 0.30967 cumulative IPC: 0.296097 (Simulation time: 0 hr 43 min 6 sec) 
Heartbeat CPU 0 instructions: 70000002 cycles: 91443007 heartbeat IPC: 0.30726 cumulative IPC: 0.283239 (Simulation time: 0 hr 44 min 37 sec) 
Heartbeat CPU 1 instructions: 70000002 cycles: 91613748 heartbeat IPC: 0.305314 cumulative IPC: 0.282442 (Simulation time: 0 hr 44 min 40 sec) 
Heartbeat CPU 3 instructions: 70000002 cycles: 92074575 heartbeat IPC: 0.303672 cumulative IPC: 0.280871 (Simulation time: 0 hr 44 min 49 sec) 
Heartbeat CPU 2 instructions: 80000002 cycles: 130417562 heartbeat IPC: 0.222865 cumulative IPC: 0.266102 (Simulation time: 0 hr 53 min 37 sec) 
Heartbeat CPU 0 instructions: 80000002 cycles: 131057033 heartbeat IPC: 0.252436 cumulative IPC: 0.272165 (Simulation time: 0 hr 53 min 47 sec) 
Heartbeat CPU 1 instructions: 80000002 cycles: 137833923 heartbeat IPC: 0.216356 cumulative IPC: 0.256327 (Simulation time: 0 hr 55 min 29 sec) 
Heartbeat CPU 3 instructions: 80000002 cycles: 138945893 heartbeat IPC: 0.21335 cumulative IPC: 0.254069 (Simulation time: 0 hr 55 min 49 sec) 
Heartbeat CPU 0 instructions: 90000000 cycles: 156894854 heartbeat IPC: 0.387029 cumulative IPC: 0.293983 (Simulation time: 1 hr 0 min 51 sec) 
Heartbeat CPU 2 instructions: 90000000 cycles: 159439990 heartbeat IPC: 0.344561 cumulative IPC: 0.282534 (Simulation time: 1 hr 1 min 27 sec) 
Heartbeat CPU 1 instructions: 90000000 cycles: 166907893 heartbeat IPC: 0.34395 cumulative IPC: 0.273771 (Simulation time: 1 hr 3 min 29 sec) 
Heartbeat CPU 3 instructions: 90000000 cycles: 168376195 heartbeat IPC: 0.339786 cumulative IPC: 0.271171 (Simulation time: 1 hr 3 min 52 sec) 
Heartbeat CPU 0 instructions: 100000002 cycles: 191072279 heartbeat IPC: 0.292591 cumulative IPC: 0.293704 (Simulation time: 1 hr 9 min 17 sec) 
Heartbeat CPU 2 instructions: 100000002 cycles: 198116974 heartbeat IPC: 0.258552 cumulative IPC: 0.277301 (Simulation time: 1 hr 10 min 58 sec) 
Heartbeat CPU 1 instructions: 100000002 cycles: 205759919 heartbeat IPC: 0.257387 cumulative IPC: 0.270328 (Simulation time: 1 hr 12 min 49 sec) 
Heartbeat CPU 3 instructions: 100000002 cycles: 206801166 heartbeat IPC: 0.260247 cumulative IPC: 0.268913 (Simulation time: 1 hr 12 min 58 sec) 
Heartbeat CPU 0 instructions: 110000000 cycles: 219671615 heartbeat IPC: 0.349658 cumulative IPC: 0.301753 (Simulation time: 1 hr 16 min 24 sec) 
Heartbeat CPU 2 instructions: 110000000 cycles: 228584668 heartbeat IPC: 0.328216 cumulative IPC: 0.284769 (Simulation time: 1 hr 18 min 54 sec) 
Heartbeat CPU 1 instructions: 110000000 cycles: 237265907 heartbeat IPC: 0.3174 cumulative IPC: 0.277182 (Simulation time: 1 hr 21 min 3 sec) 
Heartbeat CPU 3 instructions: 110000000 cycles: 237633818 heartbeat IPC: 0.324331 cumulative IPC: 0.276796 (Simulation time: 1 hr 21 min 11 sec) 
Heartbeat CPU 0 instructions: 120000002 cycles: 252035159 heartbeat IPC: 0.30899 cumulative IPC: 0.302766 (Simulation time: 1 hr 24 min 48 sec) 
Heartbeat CPU 2 instructions: 120000002 cycles: 263634727 heartbeat IPC: 0.285306 cumulative IPC: 0.284847 (Simulation time: 1 hr 27 min 38 sec) 
Heartbeat CPU 1 instructions: 120000002 cycles: 274485616 heartbeat IPC: 0.268675 cumulative IPC: 0.275933 (Simulation time: 1 hr 30 min 6 sec) 
Heartbeat CPU 3 instructions: 120000002 cycles: 274638830 heartbeat IPC: 0.270234 cumulative IPC: 0.275839 (Simulation time: 1 hr 30 min 9 sec) 
Heartbeat CPU 0 instructions: 130000002 cycles: 288231097 heartbeat IPC: 0.276274 cumulative IPC: 0.29918 (Simulation time: 1 hr 33 min 8 sec) 
Heartbeat CPU 2 instructions: 130000002 cycles: 303045040 heartbeat IPC: 0.253741 cumulative IPC: 0.280502 (Simulation time: 1 hr 36 min 7 sec) 
Heartbeat CPU 1 instructions: 130000002 cycles: 314573635 heartbeat IPC: 0.249451 cumulative IPC: 0.272319 (Simulation time: 1 hr 38 min 39 sec) 
Heartbeat CPU 3 instructions: 130000002 cycles: 315438055 heartbeat IPC: 0.245103 cumulative IPC: 0.271582 (Simulation time: 1 hr 38 min 52 sec) 
Heartbeat CPU 0 instructions: 140000000 cycles: 322746689 heartbeat IPC: 0.289724 cumulative IPC: 0.298099 (Simulation time: 1 hr 40 min 19 sec) 
Heartbeat CPU 2 instructions: 140000001 cycles: 346549486 heartbeat IPC: 0.229862 cumulative IPC: 0.273738 (Simulation time: 1 hr 46 min 4 sec) 
Heartbeat CPU 1 instructions: 140000000 cycles: 357419324 heartbeat IPC: 0.233396 cumulative IPC: 0.267364 (Simulation time: 1 hr 48 min 37 sec) 
Heartbeat CPU 3 instructions: 140000000 cycles: 359922342 heartbeat IPC: 0.224798 cumulative IPC: 0.265444 (Simulation time: 1 hr 49 min 8 sec) 
Heartbeat CPU 0 instructions: 150000002 cycles: 365166325 heartbeat IPC: 0.23574 cumulative IPC: 0.290416 (Simulation time: 1 hr 50 min 41 sec) 
Heartbeat CPU 2 instructions: 150000002 cycles: 388952471 heartbeat IPC: 0.235832 cumulative IPC: 0.269371 (Simulation time: 1 hr 55 min 59 sec) 
Heartbeat CPU 1 instructions: 150000002 cycles: 397284724 heartbeat IPC: 0.250844 cumulative IPC: 0.265614 (Simulation time: 1 hr 57 min 48 sec) 
Heartbeat CPU 3 instructions: 150000002 cycles: 399987871 heartbeat IPC: 0.249591 cumulative IPC: 0.263769 (Simulation time: 1 hr 58 min 36 sec) 
Heartbeat CPU 0 instructions: 160000000 cycles: 403561633 heartbeat IPC: 0.260448 cumulative IPC: 0.287409 (Simulation time: 1 hr 59 min 21 sec) 
Heartbeat CPU 2 instructions: 160000002 cycles: 428133963 heartbeat IPC: 0.255223 cumulative IPC: 0.26801 (Simulation time: 2 hr 4 min 50 sec) 
Heartbeat CPU 1 instructions: 160000000 cycles: 435561783 heartbeat IPC: 0.261253 cumulative IPC: 0.265211 (Simulation time: 2 hr 6 min 19 sec) 
Heartbeat CPU 3 instructions: 160000003 cycles: 438114958 heartbeat IPC: 0.262281 cumulative IPC: 0.263633 (Simulation time: 2 hr 7 min 0 sec) 
Heartbeat CPU 0 instructions: 170000001 cycles: 440025470 heartbeat IPC: 0.274244 cumulative IPC: 0.286264 (Simulation time: 2 hr 7 min 18 sec) 
Heartbeat CPU 2 instructions: 170000001 cycles: 460812253 heartbeat IPC: 0.306014 cumulative IPC: 0.270833 (Simulation time: 2 hr 12 min 44 sec) 
Heartbeat CPU 0 instructions: 180000000 cycles: 467138194 heartbeat IPC: 0.36883 cumulative IPC: 0.29128 (Simulation time: 2 hr 14 min 20 sec) 
Heartbeat CPU 1 instructions: 170000001 cycles: 468976298 heartbeat IPC: 0.299271 cumulative IPC: 0.267751 (Simulation time: 2 hr 14 min 48 sec) 
Heartbeat CPU 3 instructions: 170000001 cycles: 471461154 heartbeat IPC: 0.299884 cumulative IPC: 0.266315 (Simulation time: 2 hr 15 min 13 sec) 
Heartbeat CPU 2 instructions: 180000000 cycles: 490699942 heartbeat IPC: 0.334586 cumulative IPC: 0.274888 (Simulation time: 2 hr 20 min 19 sec) 
Heartbeat CPU 1 instructions: 180000000 cycles: 498314702 heartbeat IPC: 0.34085 cumulative IPC: 0.272243 (Simulation time: 2 hr 22 min 17 sec) 
Heartbeat CPU 3 instructions: 180000000 cycles: 499753555 heartbeat IPC: 0.353452 cumulative IPC: 0.271463 (Simulation time: 2 hr 22 min 44 sec) 
Heartbeat CPU 0 instructions: 190000002 cycles: 520877027 heartbeat IPC: 0.186085 cumulative IPC: 0.279974 (Simulation time: 2 hr 27 min 2 sec) 
Heartbeat CPU 2 instructions: 190000001 cycles: 541478335 heartbeat IPC: 0.196934 cumulative IPC: 0.267285 (Simulation time: 2 hr 32 min 1 sec) 
Heartbeat CPU 1 instructions: 190000001 cycles: 552382108 heartbeat IPC: 0.184954 cumulative IPC: 0.263364 (Simulation time: 2 hr 34 min 20 sec) 
Heartbeat CPU 3 instructions: 190000001 cycles: 554275666 heartbeat IPC: 0.183412 cumulative IPC: 0.262463 (Simulation time: 2 hr 34 min 50 sec) 
Heartbeat CPU 0 instructions: 200000002 cycles: 555363299 heartbeat IPC: 0.28997 cumulative IPC: 0.280619 (Simulation time: 2 hr 35 min 13 sec) 
Heartbeat CPU 2 instructions: 200000002 cycles: 577793806 heartbeat IPC: 0.275365 cumulative IPC: 0.267812 (Simulation time: 2 hr 40 min 35 sec) 
Heartbeat CPU 1 instructions: 200000002 cycles: 586683474 heartbeat IPC: 0.291534 cumulative IPC: 0.265071 (Simulation time: 2 hr 42 min 22 sec) 
Heartbeat CPU 3 instructions: 200000002 cycles: 589402067 heartbeat IPC: 0.284686 cumulative IPC: 0.263836 (Simulation time: 2 hr 43 min 2 sec) 
Heartbeat CPU 0 instructions: 210000003 cycles: 592923300 heartbeat IPC: 0.266241 cumulative IPC: 0.279675 (Simulation time: 2 hr 43 min 45 sec) 
Heartbeat CPU 2 instructions: 210000003 cycles: 613934148 heartbeat IPC: 0.276699 cumulative IPC: 0.268353 (Simulation time: 2 hr 48 min 57 sec) 
Heartbeat CPU 1 instructions: 210000003 cycles: 619935979 heartbeat IPC: 0.300729 cumulative IPC: 0.267051 (Simulation time: 2 hr 50 min 24 sec) 
Heartbeat CPU 3 instructions: 210000003 cycles: 622122119 heartbeat IPC: 0.305623 cumulative IPC: 0.26611 (Simulation time: 2 hr 51 min 2 sec) 
Heartbeat CPU 0 instructions: 220000000 cycles: 626960431 heartbeat IPC: 0.293797 cumulative IPC: 0.280468 (Simulation time: 2 hr 52 min 12 sec) 
Heartbeat CPU 2 instructions: 220000000 cycles: 654676176 heartbeat IPC: 0.245447 cumulative IPC: 0.266881 (Simulation time: 2 hr 58 min 40 sec) 
Heartbeat CPU 1 instructions: 220000000 cycles: 660613256 heartbeat IPC: 0.245837 cumulative IPC: 0.265702 (Simulation time: 3 hr 0 min 12 sec) 
Heartbeat CPU 3 instructions: 220000000 cycles: 663271906 heartbeat IPC: 0.243015 cumulative IPC: 0.264631 (Simulation time: 3 hr 0 min 55 sec) 
Heartbeat CPU 0 instructions: 230000002 cycles: 666769928 heartbeat IPC: 0.251196 cumulative IPC: 0.278664 (Simulation time: 3 hr 1 min 49 sec) 
Heartbeat CPU 2 instructions: 230000002 cycles: 690932616 heartbeat IPC: 0.275813 cumulative IPC: 0.267364 (Simulation time: 3 hr 7 min 51 sec) 
Heartbeat CPU 1 instructions: 230000002 cycles: 700397282 heartbeat IPC: 0.251357 cumulative IPC: 0.264862 (Simulation time: 3 hr 9 min 34 sec) 
Heartbeat CPU 3 instructions: 230000002 cycles: 702559588 heartbeat IPC: 0.254533 cumulative IPC: 0.264049 (Simulation time: 3 hr 10 min 0 sec) 
Heartbeat CPU 0 instructions: 240000002 cycles: 718933699 heartbeat IPC: 0.191704 cumulative IPC: 0.272166 (Simulation time: 3 hr 13 min 47 sec) 
Heartbeat CPU 2 instructions: 240000002 cycles: 733460267 heartbeat IPC: 0.235141 cumulative IPC: 0.265441 (Simulation time: 3 hr 17 min 18 sec) 
Heartbeat CPU 1 instructions: 240000002 cycles: 736151751 heartbeat IPC: 0.279685 cumulative IPC: 0.265603 (Simulation time: 3 hr 18 min 7 sec) 
Heartbeat CPU 3 instructions: 240000002 cycles: 737730547 heartbeat IPC: 0.284325 cumulative IPC: 0.265044 (Simulation time: 3 hr 18 min 30 sec) 
Heartbeat CPU 0 instructions: 250000000 cycles: 750056799 heartbeat IPC: 0.321305 cumulative IPC: 0.274263 (Simulation time: 3 hr 22 min 0 sec) 
Finished CPU 0 instructions: 200000000 cycles: 729217025 cumulative IPC: 0.274267 (Simulation time: 3 hr 22 min 1 sec) 
Heartbeat CPU 2 instructions: 250000000 cycles: 759707479 heartbeat IPC: 0.380993 cumulative IPC: 0.269546 (Simulation time: 3 hr 24 min 44 sec) 
Finished CPU 2 instructions: 200000000 cycles: 741118698 cumulative IPC: 0.269862 (Simulation time: 3 hr 25 min 19 sec) 
Heartbeat CPU 1 instructions: 250000000 cycles: 762253387 heartbeat IPC: 0.383118 cumulative IPC: 0.26974 (Simulation time: 3 hr 25 min 24 sec) 
Finished CPU 1 instructions: 200000000 cycles: 741433002 cumulative IPC: 0.269748 (Simulation time: 3 hr 25 min 25 sec) 
Heartbeat CPU 3 instructions: 250000000 cycles: 763917572 heartbeat IPC: 0.381868 cumulative IPC: 0.269161 (Simulation time: 3 hr 25 min 53 sec) 
Finished CPU 3 instructions: 200000001 cycles: 743049953 cumulative IPC: 0.269161 (Simulation time: 3 hr 25 min 53 sec) 

ChampSim completed all CPUs

Total Simulation Statistics (not including warmup)

CPU 0 cumulative IPC: 0.27621 instructions: 205238202 cycles: 743049953
ITLB TOTAL     ACCESS:   39182098  HIT:   39182098  MISS:          0  HIT %:        100  MISS %:          0   MPKI: 0
ITLB LOAD      ACCESS:          0  HIT:          0  MISS:          0  HIT %:       -nan  MISS %:       -nan   MPKI: 0
ITLB RFO       ACCESS:          0  HIT:          0  MISS:          0  HIT %:       -nan  MISS %:       -nan   MPKI: 0
ITLB PREFETCH  ACCESS:          0  HIT:          0  MISS:          0  HIT %:       -nan  MISS %:       -nan   MPKI: 0
ITLB WRITEBACK ACCESS:          0  HIT:          0  MISS:          0  HIT %:       -nan  MISS %:       -nan   MPKI: 0
DTLB TOTAL     ACCESS:   54979445  HIT:   54258197  MISS:     721248  HIT %:    98.6881  MISS %:    1.31185   MPKI: 3.5142
DTLB LOAD      ACCESS:          0  HIT:          0  MISS:          0  HIT %:       -nan  MISS %:       -nan   MPKI: 0
DTLB RFO       ACCESS:          0  HIT:          0  MISS:          0  HIT %:       -nan  MISS %:       -nan   MPKI: 0
DTLB PREFETCH  ACCESS:          0  HIT:          0  MISS:          0  HIT %:       -nan  MISS %:       -nan   MPKI: 0
DTLB WRITEBACK ACCESS:          0  HIT:          0  MISS:          0  HIT %:       -nan  MISS %:       -nan   MPKI: 0
STLB TOTAL     ACCESS:   21486798  HIT:   21219740  MISS:     267058  HIT %:    98.7571  MISS %:    1.24289   MPKI: 1.30121
STLB LOAD      ACCESS:          0  HIT:          0  MISS:          0  HIT %:       -nan  MISS %:       -nan   MPKI: 0
STLB RFO       ACCESS:          0  HIT:          0  MISS:          0  HIT %:       -nan  MISS %:       -nan   MPKI: 0
STLB PREFETCH  ACCESS:          0  HIT:          0  MISS:          0  HIT %:       -nan  MISS %:       -nan   MPKI: 0
STLB WRITEBACK ACCESS:          0  HIT:          0  MISS:          0  HIT %:       -nan  MISS %:       -nan   MPKI: 0
L1D TOTAL     ACCESS:  121906754  HIT:  110613652  MISS:   11293102  HIT %:    90.7363  MISS %:    9.26372   MPKI: 55.0244
L1D LOAD      ACCESS:   43495831  HIT:   37323185  MISS:    6172646  HIT %:    85.8086  MISS %:    14.1914   MPKI: 30.0755
L1D RFO       ACCESS:   43977699  HIT:   43547191  MISS:     430508  HIT %:    99.0211  MISS %:   0.978923   MPKI: 2.0976
L1D PREFETCH  ACCESS:   34433224  HIT:   29743276  MISS:    4689948  HIT %:    86.3796  MISS %:    13.6204   MPKI: 22.8512
L1D WRITEBACK ACCESS:          0  HIT:          0  MISS:          0  HIT %:       -nan  MISS %:       -nan   MPKI: 0
L1I TOTAL     ACCESS:   48350411  HIT:   48350405  MISS:          6  HIT %:        100  MISS %: 1.24094e-05   MPKI: 2.92343e-05
L1I LOAD      ACCESS:   48350411  HIT:   48350405  MISS:          6  HIT %:        100  MISS %: 1.24094e-05   MPKI: 2.92343e-05
L1I RFO       ACCESS:          0  HIT:          0  MISS:          0  HIT %:       -nan  MISS %:       -nan   MPKI: 0
L1I PREFETCH  ACCESS:          0  HIT:          0  MISS:          0  HIT %:       -nan  MISS %:       -nan   MPKI: 0
L1I WRITEBACK ACCESS:          0  HIT:          0  MISS:          0  HIT %:       -nan  MISS %:       -nan   MPKI: 0
L2C TOTAL     ACCESS:   52727931  HIT:   37810039  MISS:   14917892  HIT %:    71.7078  MISS %:    28.2922   MPKI: 72.6857
L2C LOAD      ACCESS:    4964230  HIT:    2997297  MISS:    1966933  HIT %:    60.3779  MISS %:    39.6221   MPKI: 9.58366
L2C RFO       ACCESS:     430373  HIT:      40181  MISS:     390192  HIT %:    9.33632  MISS %:    90.6637   MPKI: 1.90117
L2C PREFETCH  ACCESS:   45350265  HIT:   32922653  MISS:   12427612  HIT %:    72.5964  MISS %:    27.4036   MPKI: 60.5521
L2C WRITEBACK ACCESS:     953298  HIT:     861782  MISS:      91516  HIT %:    90.4001  MISS %:    9.59994   MPKI: 0.445901
PSCL5 TOTAL     ACCESS:     977498  HIT:     977498  MISS:          0  HIT %:        100  MISS %:          0   MPKI: 0
PSCL5 LOAD      ACCESS:          0  HIT:          0  MISS:          0  HIT %:       -nan  MISS %:       -nan   MPKI: 0
PSCL5 RFO       ACCESS:          0  HIT:          0  MISS:          0  HIT %:       -nan  MISS %:       -nan   MPKI: 0
PSCL5 PREFETCH  ACCESS:          0  HIT:          0  MISS:          0  HIT %:       -nan  MISS %:       -nan   MPKI: 0
PSCL5 WRITEBACK ACCESS:          0  HIT:          0  MISS:          0  HIT %:       -nan  MISS %:       -nan   MPKI: 0
PSCL4 TOTAL     ACCESS:     977498  HIT:     977498  MISS:          0  HIT %:        100  MISS %:          0   MPKI: 0
PSCL4 LOAD      ACCESS:          0  HIT:          0  MISS:          0  HIT %:       -nan  MISS %:       -nan   MPKI: 0
PSCL4 RFO       ACCESS:          0  HIT:          0  MISS:          0  HIT %:       -nan  MISS %:       -nan   MPKI: 0
PSCL4 PREFETCH  ACCESS:          0  HIT:          0  MISS:          0  HIT %:       -nan  MISS %:       -nan   MPKI: 0
PSCL4 WRITEBACK ACCESS:          0  HIT:          0  MISS:          0  HIT %:       -nan  MISS %:       -nan   MPKI: 0
PSCL3 TOTAL     ACCESS:     970829  HIT:     970814  MISS:         15  HIT %:    99.9985  MISS %: 0.00154507   MPKI: 7.30858e-05
PSCL3 LOAD      ACCESS:          0  HIT:          0  MISS:          0  HIT %:       -nan  MISS %:       -nan   MPKI: 0
PSCL3 RFO       ACCESS:          0  HIT:          0  MISS:          0  HIT %:       -nan  MISS %:       -nan   MPKI: 0
PSCL3 PREFETCH  ACCESS:          0  HIT:          0  MISS:          0  HIT %:       -nan  MISS %:       -nan   MPKI: 0
PSCL3 WRITEBACK ACCESS:          0  HIT:          0  MISS:          0  HIT %:       -nan  MISS %:       -nan   MPKI: 0
PSCL2 TOTAL     ACCESS:     924154  HIT:     923674  MISS:        480  HIT %:    99.9481  MISS %:  0.0519394   MPKI: 0.00233875
PSCL2 LOAD      ACCESS:          0  HIT:          0  MISS:          0  HIT %:       -nan  MISS %:       -nan   MPKI: 0
PSCL2 RFO       ACCESS:          0  HIT:          0  MISS:          0  HIT %:       -nan  MISS %:       -nan   MPKI: 0
PSCL2 PREFETCH  ACCESS:          0  HIT:          0  MISS:          0  HIT %:       -nan  MISS %:       -nan   MPKI: 0
PSCL2 WRITEBACK ACCESS:          0  HIT:          0  MISS:          0  HIT %:       -nan  MISS %:       -nan   MPKI: 0
LLC TOTAL     ACCESS:   15687115  HIT:    3867794  MISS:   11819321  HIT %:    24.6559  MISS %:    75.3441   MPKI: 57.5883
LLC LOAD      ACCESS:     529672  HIT:      46617  MISS:     483055  HIT %:    8.80111  MISS %:    91.1989   MPKI: 2.35363
LLC RFO       ACCESS:     385467  HIT:        386  MISS:     385081  HIT %:   0.100138  MISS %:    99.8999   MPKI: 1.87626
LLC PREFETCH  ACCESS:   13869595  HIT:    2981999  MISS:   10887596  HIT %:    21.5003  MISS %:    78.4997   MPKI: 53.0486
LLC WRITEBACK ACCESS:     860742  HIT:     824485  MISS:      36257  HIT %:    95.7877  MISS %:     4.2123   MPKI: 0.176658

RAW hits: 2431841
Loads Generated: 70962526
Loads sent to L1D: 68530685
Stores Generated: 46247923
Stores sent to L1D: 46247929

CPU 1 cumulative IPC: 0.269965 instructions: 200597712 cycles: 743049953
ITLB TOTAL     ACCESS:   38012201  HIT:   38012201  MISS:          0  HIT %:        100  MISS %:          0   MPKI: 0
ITLB LOAD      ACCESS:          0  HIT:          0  MISS:          0  HIT %:       -nan  MISS %:       -nan   MPKI: 0
ITLB RFO       ACCESS:          0  HIT:          0  MISS:          0  HIT %:       -nan  MISS %:       -nan   MPKI: 0
ITLB PREFETCH  ACCESS:          0  HIT:          0  MISS:          0  HIT %:       -nan  MISS %:       -nan   MPKI: 0
ITLB WRITEBACK ACCESS:          0  HIT:          0  MISS:          0  HIT %:       -nan  MISS %:       -nan   MPKI: 0
DTLB TOTAL     ACCESS:   54346158  HIT:   53631703  MISS:     714455  HIT %:    98.6854  MISS %:    1.31464   MPKI: 3.56163
DTLB LOAD      ACCESS:          0  HIT:          0  MISS:          0  HIT %:       -nan  MISS %:       -nan   MPKI: 0
DTLB RFO       ACCESS:          0  HIT:          0  MISS:          0  HIT %:       -nan  MISS %:       -nan   MPKI: 0
DTLB PREFETCH  ACCESS:          0  HIT:          0  MISS:          0  HIT %:       -nan  MISS %:       -nan   MPKI: 0
DTLB WRITEBACK ACCESS:          0  HIT:          0  MISS:          0  HIT %:       -nan  MISS %:       -nan   MPKI: 0
STLB TOTAL     ACCESS:   21189852  HIT:   20929499  MISS:     260353  HIT %:    98.7713  MISS %:    1.22867   MPKI: 1.29789
STLB LOAD      ACCESS:          0  HIT:          0  MISS:          0  HIT %:       -nan  MISS %:       -nan   MPKI: 0
STLB RFO       ACCESS:          0  HIT:          0  MISS:          0  HIT %:       -nan  MISS %:       -nan   MPKI: 0
STLB PREFETCH  ACCESS:          0  HIT:          0  MISS:          0  HIT %:       -nan  MISS %:       -nan   MPKI: 0
STLB WRITEBACK ACCESS:          0  HIT:          0  MISS:          0  HIT %:       -nan  MISS %:       -nan   MPKI: 0
L1D TOTAL     ACCESS:  118746255  HIT:  107933065  MISS:   10813190  HIT %:    90.8939  MISS %:    9.10613   MPKI: 53.9049
L1D LOAD      ACCESS:   42638173  HIT:   36305671  MISS:    6332502  HIT %:    85.1483  MISS %:    14.8517   MPKI: 31.5682
L1D RFO       ACCESS:   43967701  HIT:   43537234  MISS:     430467  HIT %:    99.0209  MISS %:   0.979053   MPKI: 2.14592
L1D PREFETCH  ACCESS:   32140381  HIT:   28090160  MISS:    4050221  HIT %:    87.3983  MISS %:    12.6017   MPKI: 20.1908
L1D WRITEBACK ACCESS:          0  HIT:          0  MISS:          0  HIT %:       -nan  MISS %:       -nan   MPKI: 0
L1I TOTAL     ACCESS:   47185436  HIT:   47185430  MISS:          6  HIT %:        100  MISS %: 1.27158e-05   MPKI: 2.99106e-05
L1I LOAD      ACCESS:   47185436  HIT:   47185430  MISS:          6  HIT %:        100  MISS %: 1.27158e-05   MPKI: 2.99106e-05
L1I RFO       ACCESS:          0  HIT:          0  MISS:          0  HIT %:       -nan  MISS %:       -nan   MPKI: 0
L1I PREFETCH  ACCESS:          0  HIT:          0  MISS:          0  HIT %:       -nan  MISS %:       -nan   MPKI: 0
L1I WRITEBACK ACCESS:          0  HIT:          0  MISS:          0  HIT %:       -nan  MISS %:       -nan   MPKI: 0
L2C TOTAL     ACCESS:   51470086  HIT:   36949527  MISS:   14520559  HIT %:    71.7884  MISS %:    28.2116   MPKI: 72.3865
L2C LOAD      ACCESS:    5145505  HIT:    3023525  MISS:    2121980  HIT %:    58.7605  MISS %:    41.2395   MPKI: 10.5783
L2C RFO       ACCESS:     430309  HIT:      40174  MISS:     390135  HIT %:    9.33608  MISS %:    90.6639   MPKI: 1.94486
L2C PREFETCH  ACCESS:   43973010  HIT:   32098235  MISS:   11874775  HIT %:    72.9953  MISS %:    27.0047   MPKI: 59.197
L2C WRITEBACK ACCESS:     952174  HIT:     859705  MISS:      92469  HIT %:    90.2886  MISS %:    9.71136   MPKI: 0.460967
PSCL5 TOTAL     ACCESS:     905753  HIT:     905753  MISS:          0  HIT %:        100  MISS %:          0   MPKI: 0
PSCL5 LOAD      ACCESS:          0  HIT:          0  MISS:          0  HIT %:       -nan  MISS %:       -nan   MPKI: 0
PSCL5 RFO       ACCESS:          0  HIT:          0  MISS:          0  HIT %:       -nan  MISS %:       -nan   MPKI: 0
PSCL5 PREFETCH  ACCESS:          0  HIT:          0  MISS:          0  HIT %:       -nan  MISS %:       -nan   MPKI: 0
PSCL5 WRITEBACK ACCESS:          0  HIT:          0  MISS:          0  HIT %:       -nan  MISS %:       -nan   MPKI: 0
PSCL4 TOTAL     ACCESS:     905753  HIT:     905753  MISS:          0  HIT %:        100  MISS %:          0   MPKI: 0
PSCL4 LOAD      ACCESS:          0  HIT:          0  MISS:          0  HIT %:       -nan  MISS %:       -nan   MPKI: 0
PSCL4 RFO       ACCESS:          0  HIT:          0  MISS:          0  HIT %:       -nan  MISS %:       -nan   MPKI: 0
PSCL4 PREFETCH  ACCESS:          0  HIT:          0  MISS:          0  HIT %:       -nan  MISS %:       -nan   MPKI: 0
PSCL4 WRITEBACK ACCESS:          0  HIT:          0  MISS:          0  HIT %:       -nan  MISS %:       -nan   MPKI: 0
PSCL3 TOTAL     ACCESS:     898904  HIT:     898889  MISS:         15  HIT %:    99.9983  MISS %:  0.0016687   MPKI: 7.47765e-05
PSCL3 LOAD      ACCESS:          0  HIT:          0  MISS:          0  HIT %:       -nan  MISS %:       -nan   MPKI: 0
PSCL3 RFO       ACCESS:          0  HIT:          0  MISS:          0  HIT %:       -nan  MISS %:       -nan   MPKI: 0
PSCL3 PREFETCH  ACCESS:          0  HIT:          0  MISS:          0  HIT %:       -nan  MISS %:       -nan   MPKI: 0
PSCL3 WRITEBACK ACCESS:          0  HIT:          0  MISS:          0  HIT %:       -nan  MISS %:       -nan   MPKI: 0
PSCL2 TOTAL     ACCESS:     842183  HIT:     841738  MISS:        445  HIT %:    99.9472  MISS %:  0.0528389   MPKI: 0.00221837
PSCL2 LOAD      ACCESS:          0  HIT:          0  MISS:          0  HIT %:       -nan  MISS %:       -nan   MPKI: 0
PSCL2 RFO       ACCESS:          0  HIT:          0  MISS:          0  HIT %:       -nan  MISS %:       -nan   MPKI: 0
PSCL2 PREFETCH  ACCESS:          0  HIT:          0  MISS:          0  HIT %:       -nan  MISS %:       -nan   MPKI: 0
PSCL2 WRITEBACK ACCESS:          0  HIT:          0  MISS:          0  HIT %:       -nan  MISS %:       -nan   MPKI: 0
LLC TOTAL     ACCESS:   15289481  HIT:    1452043  MISS:   13837438  HIT %:    9.49701  MISS %:     90.503   MPKI: 68.981
LLC LOAD      ACCESS:     510110  HIT:      26665  MISS:     483445  HIT %:     5.2273  MISS %:    94.7727   MPKI: 2.41002
LLC RFO       ACCESS:     385456  HIT:        299  MISS:     385157  HIT %:  0.0775705  MISS %:    99.9224   MPKI: 1.92005
LLC PREFETCH  ACCESS:   13491322  HIT:     804170  MISS:   12687152  HIT %:    5.96065  MISS %:    94.0394   MPKI: 63.2467
LLC WRITEBACK ACCESS:     861393  HIT:     614401  MISS:     246992  HIT %:    71.3264  MISS %:    28.6736   MPKI: 1.23128

RAW hits: 2431484
Loads Generated: 69414840
Loads sent to L1D: 66983357
Stores Generated: 46247540
Stores sent to L1D: 46247545

CPU 2 cumulative IPC: 0.270165 instructions: 200745824 cycles: 743049953
ITLB TOTAL     ACCESS:   38152433  HIT:   38152433  MISS:          0  HIT %:        100  MISS %:          0   MPKI: 0
ITLB LOAD      ACCESS:          0  HIT:          0  MISS:          0  HIT %:       -nan  MISS %:       -nan   MPKI: 0
ITLB RFO       ACCESS:          0  HIT:          0  MISS:          0  HIT %:       -nan  MISS %:       -nan   MPKI: 0
ITLB PREFETCH  ACCESS:          0  HIT:          0  MISS:          0  HIT %:       -nan  MISS %:       -nan   MPKI: 0
ITLB WRITEBACK ACCESS:          0  HIT:          0  MISS:          0  HIT %:       -nan  MISS %:       -nan   MPKI: 0
DTLB TOTAL     ACCESS:   54291731  HIT:   53576920  MISS:     714811  HIT %:    98.6834  MISS %:    1.31661   MPKI: 3.56078
DTLB LOAD      ACCESS:          0  HIT:          0  MISS:          0  HIT %:       -nan  MISS %:       -nan   MPKI: 0
DTLB RFO       ACCESS:          0  HIT:          0  MISS:          0  HIT %:       -nan  MISS %:       -nan   MPKI: 0
DTLB PREFETCH  ACCESS:          0  HIT:          0  MISS:          0  HIT %:       -nan  MISS %:       -nan   MPKI: 0
DTLB WRITEBACK ACCESS:          0  HIT:          0  MISS:          0  HIT %:       -nan  MISS %:       -nan   MPKI: 0
STLB TOTAL     ACCESS:   21122261  HIT:   20860860  MISS:     261401  HIT %:    98.7624  MISS %:    1.23756   MPKI: 1.30215
STLB LOAD      ACCESS:          0  HIT:          0  MISS:          0  HIT %:       -nan  MISS %:       -nan   MPKI: 0
STLB RFO       ACCESS:          0  HIT:          0  MISS:          0  HIT %:       -nan  MISS %:       -nan   MPKI: 0
STLB PREFETCH  ACCESS:          0  HIT:          0  MISS:          0  HIT %:       -nan  MISS %:       -nan   MPKI: 0
STLB WRITEBACK ACCESS:          0  HIT:          0  MISS:          0  HIT %:       -nan  MISS %:       -nan   MPKI: 0
L1D TOTAL     ACCESS:  118581450  HIT:  107698138  MISS:   10883312  HIT %:    90.8221  MISS %:    9.17792   MPKI: 54.2144
L1D LOAD      ACCESS:   42692619  HIT:   36259180  MISS:    6433439  HIT %:    84.9308  MISS %:    15.0692   MPKI: 32.0477
L1D RFO       ACCESS:   43702494  HIT:   43272964  MISS:     429530  HIT %:    99.0171  MISS %:    0.98285   MPKI: 2.13967
L1D PREFETCH  ACCESS:   32186337  HIT:   28165994  MISS:    4020343  HIT %:    87.5092  MISS %:    12.4908   MPKI: 20.027
L1D WRITEBACK ACCESS:          0  HIT:          0  MISS:          0  HIT %:       -nan  MISS %:       -nan   MPKI: 0
L1I TOTAL     ACCESS:   47283910  HIT:   47283904  MISS:          6  HIT %:        100  MISS %: 1.26893e-05   MPKI: 2.98885e-05
L1I LOAD      ACCESS:   47283910  HIT:   47283904  MISS:          6  HIT %:        100  MISS %: 1.26893e-05   MPKI: 2.98885e-05
L1I RFO       ACCESS:          0  HIT:          0  MISS:          0  HIT %:       -nan  MISS %:       -nan   MPKI: 0
L1I PREFETCH  ACCESS:          0  HIT:          0  MISS:          0  HIT %:       -nan  MISS %:       -nan   MPKI: 0
L1I WRITEBACK ACCESS:          0  HIT:          0  MISS:          0  HIT %:       -nan  MISS %:       -nan   MPKI: 0
L2C TOTAL     ACCESS:   51153182  HIT:   36562667  MISS:   14590515  HIT %:    71.4768  MISS %:    28.5232   MPKI: 72.6815
L2C LOAD      ACCESS:    5220882  HIT:    3050227  MISS:    2170655  HIT %:    58.4236  MISS %:    41.5764   MPKI: 10.813
L2C RFO       ACCESS:     429389  HIT:      40181  MISS:     389208  HIT %:    9.35772  MISS %:    90.6423   MPKI: 1.93881
L2C PREFETCH  ACCESS:   43560528  HIT:   31662213  MISS:   11898315  HIT %:    72.6856  MISS %:    27.3144   MPKI: 59.2705
L2C WRITEBACK ACCESS:     949124  HIT:     857835  MISS:      91289  HIT %:    90.3818  MISS %:    9.61824   MPKI: 0.454749
PSCL5 TOTAL     ACCESS:     951257  HIT:     951257  MISS:          0  HIT %:        100  MISS %:          0   MPKI: 0
PSCL5 LOAD      ACCESS:          0  HIT:          0  MISS:          0  HIT %:       -nan  MISS %:       -nan   MPKI: 0
PSCL5 RFO       ACCESS:          0  HIT:          0  MISS:          0  HIT %:       -nan  MISS %:       -nan   MPKI: 0
PSCL5 PREFETCH  ACCESS:          0  HIT:          0  MISS:          0  HIT %:       -nan  MISS %:       -nan   MPKI: 0
PSCL5 WRITEBACK ACCESS:          0  HIT:          0  MISS:          0  HIT %:       -nan  MISS %:       -nan   MPKI: 0
PSCL4 TOTAL     ACCESS:     951257  HIT:     951257  MISS:          0  HIT %:        100  MISS %:          0   MPKI: 0
PSCL4 LOAD      ACCESS:          0  HIT:          0  MISS:          0  HIT %:       -nan  MISS %:       -nan   MPKI: 0
PSCL4 RFO       ACCESS:          0  HIT:          0  MISS:          0  HIT %:       -nan  MISS %:       -nan   MPKI: 0
PSCL4 PREFETCH  ACCESS:          0  HIT:          0  MISS:          0  HIT %:       -nan  MISS %:       -nan   MPKI: 0
PSCL4 WRITEBACK ACCESS:          0  HIT:          0  MISS:          0  HIT %:       -nan  MISS %:       -nan   MPKI: 0
PSCL3 TOTAL     ACCESS:     944181  HIT:     944166  MISS:         15  HIT %:    99.9984  MISS %: 0.00158868   MPKI: 7.47214e-05
PSCL3 LOAD      ACCESS:          0  HIT:          0  MISS:          0  HIT %:       -nan  MISS %:       -nan   MPKI: 0
PSCL3 RFO       ACCESS:          0  HIT:          0  MISS:          0  HIT %:       -nan  MISS %:       -nan   MPKI: 0
PSCL3 PREFETCH  ACCESS:          0  HIT:          0  MISS:          0  HIT %:       -nan  MISS %:       -nan   MPKI: 0
PSCL3 WRITEBACK ACCESS:          0  HIT:          0  MISS:          0  HIT %:       -nan  MISS %:       -nan   MPKI: 0
PSCL2 TOTAL     ACCESS:     908926  HIT:     908445  MISS:        481  HIT %:    99.9471  MISS %:  0.0529196   MPKI: 0.00239606
PSCL2 LOAD      ACCESS:          0  HIT:          0  MISS:          0  HIT %:       -nan  MISS %:       -nan   MPKI: 0
PSCL2 RFO       ACCESS:          0  HIT:          0  MISS:          0  HIT %:       -nan  MISS %:       -nan   MPKI: 0
PSCL2 PREFETCH  ACCESS:          0  HIT:          0  MISS:          0  HIT %:       -nan  MISS %:       -nan   MPKI: 0
PSCL2 WRITEBACK ACCESS:          0  HIT:          0  MISS:          0  HIT %:       -nan  MISS %:       -nan   MPKI: 0
LLC TOTAL     ACCESS:   15359241  HIT:     551199  MISS:   14808042  HIT %:    3.58871  MISS %:    96.4113   MPKI: 73.7651
LLC LOAD      ACCESS:     525747  HIT:      17899  MISS:     507848  HIT %:    3.40449  MISS %:    96.5955   MPKI: 2.52981
LLC RFO       ACCESS:     384427  HIT:        397  MISS:     384030  HIT %:   0.103271  MISS %:    99.8967   MPKI: 1.91302
LLC PREFETCH  ACCESS:   13548004  HIT:     438767  MISS:   13109237  HIT %:    3.23861  MISS %:    96.7614   MPKI: 65.3027
LLC WRITEBACK ACCESS:     860015  HIT:      91368  MISS:     768647  HIT %:     10.624  MISS %:     89.376   MPKI: 3.82896

RAW hits: 2429681
Loads Generated: 69487186
Loads sent to L1D: 67057507
Stores Generated: 45995557
Stores sent to L1D: 45995559

CPU 3 cumulative IPC: 0.269161 instructions: 200000001 cycles: 743049953
ITLB TOTAL     ACCESS:   37875908  HIT:   37875908  MISS:          0  HIT %:        100  MISS %:          0   MPKI: 0
ITLB LOAD      ACCESS:          0  HIT:          0  MISS:          0  HIT %:       -nan  MISS %:       -nan   MPKI: 0
ITLB RFO       ACCESS:          0  HIT:          0  MISS:          0  HIT %:       -nan  MISS %:       -nan   MPKI: 0
ITLB PREFETCH  ACCESS:          0  HIT:          0  MISS:          0  HIT %:       -nan  MISS %:       -nan   MPKI: 0
ITLB WRITEBACK ACCESS:          0  HIT:          0  MISS:          0  HIT %:       -nan  MISS %:       -nan   MPKI: 0
DTLB TOTAL     ACCESS:   54285721  HIT:   53572139  MISS:     713582  HIT %:    98.6855  MISS %:    1.31449   MPKI: 3.56791
DTLB LOAD      ACCESS:          0  HIT:          0  MISS:          0  HIT %:       -nan  MISS %:       -nan   MPKI: 0
DTLB RFO       ACCESS:          0  HIT:          0  MISS:          0  HIT %:       -nan  MISS %:       -nan   MPKI: 0
DTLB PREFETCH  ACCESS:          0  HIT:          0  MISS:          0  HIT %:       -nan  MISS %:       -nan   MPKI: 0
DTLB WRITEBACK ACCESS:          0  HIT:          0  MISS:          0  HIT %:       -nan  MISS %:       -nan   MPKI: 0
STLB TOTAL     ACCESS:   20983361  HIT:   20724031  MISS:     259330  HIT %:    98.7641  MISS %:    1.23588   MPKI: 1.29665
STLB LOAD      ACCESS:          0  HIT:          0  MISS:          0  HIT %:       -nan  MISS %:       -nan   MPKI: 0
STLB RFO       ACCESS:          0  HIT:          0  MISS:          0  HIT %:       -nan  MISS %:       -nan   MPKI: 0
STLB PREFETCH  ACCESS:          0  HIT:          0  MISS:          0  HIT %:       -nan  MISS %:       -nan   MPKI: 0
STLB WRITEBACK ACCESS:          0  HIT:          0  MISS:          0  HIT %:       -nan  MISS %:       -nan   MPKI: 0
L1D TOTAL     ACCESS:  118088933  HIT:  107346378  MISS:   10742555  HIT %:     90.903  MISS %:      9.097   MPKI: 53.7128
L1D LOAD      ACCESS:   42541895  HIT:   36135724  MISS:    6406171  HIT %:    84.9415  MISS %:    15.0585   MPKI: 32.0309
L1D RFO       ACCESS:   43958942  HIT:   43528325  MISS:     430617  HIT %:    99.0204  MISS %:   0.979589   MPKI: 2.15308
L1D PREFETCH  ACCESS:   31588096  HIT:   27682329  MISS:    3905767  HIT %:    87.6353  MISS %:    12.3647   MPKI: 19.5288
L1D WRITEBACK ACCESS:          0  HIT:          0  MISS:          0  HIT %:       -nan  MISS %:       -nan   MPKI: 0
L1I TOTAL     ACCESS:   47054358  HIT:   47054352  MISS:          6  HIT %:        100  MISS %: 1.27512e-05   MPKI: 3e-05
L1I LOAD      ACCESS:   47054358  HIT:   47054352  MISS:          6  HIT %:        100  MISS %: 1.27512e-05   MPKI: 3e-05
L1I RFO       ACCESS:          0  HIT:          0  MISS:          0  HIT %:       -nan  MISS %:       -nan   MPKI: 0
L1I PREFETCH  ACCESS:          0  HIT:          0  MISS:          0  HIT %:       -nan  MISS %:       -nan   MPKI: 0
L1I WRITEBACK ACCESS:          0  HIT:          0  MISS:          0  HIT %:       -nan  MISS %:       -nan   MPKI: 0
L2C TOTAL     ACCESS:   50440505  HIT:   35979673  MISS:   14460832  HIT %:    71.3309  MISS %:    28.6691   MPKI: 72.3042
L2C LOAD      ACCESS:    5222867  HIT:    3023278  MISS:    2199589  HIT %:    57.8854  MISS %:    42.1146   MPKI: 10.9979
L2C RFO       ACCESS:     430478  HIT:      40242  MISS:     390236  HIT %:    9.34821  MISS %:    90.6518   MPKI: 1.95118
L2C PREFETCH  ACCESS:   42866375  HIT:   31130168  MISS:   11736207  HIT %:    72.6214  MISS %:    27.3786   MPKI: 58.681
L2C WRITEBACK ACCESS:     951805  HIT:     858329  MISS:      93476  HIT %:    90.1791  MISS %:    9.82092   MPKI: 0.46738
PSCL5 TOTAL     ACCESS:     922281  HIT:     922281  MISS:          0  HIT %:        100  MISS %:          0   MPKI: 0
PSCL5 LOAD      ACCESS:          0  HIT:          0  MISS:          0  HIT %:       -nan  MISS %:       -nan   MPKI: 0
PSCL5 RFO       ACCESS:          0  HIT:          0  MISS:          0  HIT %:       -nan  MISS %:       -nan   MPKI: 0
PSCL5 PREFETCH  ACCESS:          0  HIT:          0  MISS:          0  HIT %:       -nan  MISS %:       -nan   MPKI: 0
PSCL5 WRITEBACK ACCESS:          0  HIT:          0  MISS:          0  HIT %:       -nan  MISS %:       -nan   MPKI: 0
PSCL4 TOTAL     ACCESS:     922281  HIT:     922281  MISS:          0  HIT %:        100  MISS %:          0   MPKI: 0
PSCL4 LOAD      ACCESS:          0  HIT:          0  MISS:          0  HIT %:       -nan  MISS %:       -nan   MPKI: 0
PSCL4 RFO       ACCESS:          0  HIT:          0  MISS:          0  HIT %:       -nan  MISS %:       -nan   MPKI: 0
PSCL4 PREFETCH  ACCESS:          0  HIT:          0  MISS:          0  HIT %:       -nan  MISS %:       -nan   MPKI: 0
PSCL4 WRITEBACK ACCESS:          0  HIT:          0  MISS:          0  HIT %:       -nan  MISS %:       -nan   MPKI: 0
PSCL3 TOTAL     ACCESS:     915914  HIT:     915899  MISS:         15  HIT %:    99.9984  MISS %: 0.00163771   MPKI: 7.5e-05
PSCL3 LOAD      ACCESS:          0  HIT:          0  MISS:          0  HIT %:       -nan  MISS %:       -nan   MPKI: 0
PSCL3 RFO       ACCESS:          0  HIT:          0  MISS:          0  HIT %:       -nan  MISS %:       -nan   MPKI: 0
PSCL3 PREFETCH  ACCESS:          0  HIT:          0  MISS:          0  HIT %:       -nan  MISS %:       -nan   MPKI: 0
PSCL3 WRITEBACK ACCESS:          0  HIT:          0  MISS:          0  HIT %:       -nan  MISS %:       -nan   MPKI: 0
PSCL2 TOTAL     ACCESS:     874665  HIT:     874205  MISS:        460  HIT %:    99.9474  MISS %:  0.0525916   MPKI: 0.0023
PSCL2 LOAD      ACCESS:          0  HIT:          0  MISS:          0  HIT %:       -nan  MISS %:       -nan   MPKI: 0
PSCL2 RFO       ACCESS:          0  HIT:          0  MISS:          0  HIT %:       -nan  MISS %:       -nan   MPKI: 0
PSCL2 PREFETCH  ACCESS:          0  HIT:          0  MISS:          0  HIT %:       -nan  MISS %:       -nan   MPKI: 0
PSCL2 WRITEBACK ACCESS:          0  HIT:          0  MISS:          0  HIT %:       -nan  MISS %:       -nan   MPKI: 0
LLC TOTAL     ACCESS:   15229215  HIT:     319556  MISS:   14909659  HIT %:    2.09831  MISS %:    97.9017   MPKI: 74.5483
LLC LOAD      ACCESS:     515901  HIT:      16250  MISS:     499651  HIT %:    3.14983  MISS %:    96.8502   MPKI: 2.49825
LLC RFO       ACCESS:     385414  HIT:        377  MISS:     385037  HIT %:  0.0978169  MISS %:    99.9022   MPKI: 1.92518
LLC PREFETCH  ACCESS:   13424715  HIT:     215739  MISS:   13208976  HIT %:    1.60703  MISS %:     98.393   MPKI: 66.0449
LLC WRITEBACK ACCESS:     861861  HIT:      84764  MISS:     777097  HIT %:      9.835  MISS %:     90.165   MPKI: 3.88548

RAW hits: 2432386
Loads Generated: 69218439
Loads sent to L1D: 66786047
Stores Generated: 46248413
Stores sent to L1D: 46248418

Region of Interest Statistics

CPU 0 cumulative IPC: 0.274267 instructions: 200000000 cycles: 729217025
ITLB TOTAL     ACCESS:   37727560  HIT:   37727560  MISS:          0  HIT %:        100  MISS %:          0   MPKI: 0
ITLB LOAD TRANSLATION ACCESS:   37727560  HIT:   37727560  MISS:          0  HIT %:        100  MISS %:          0   MPKI: 0
ITLB PREFETCH  REQUESTED:          0  ISSUED:          0  USEFUL:          0  USELESS:          0
ITLB USEFUL LOAD PREFETCHES:          0 PREFETCH ISSUED TO LOWER LEVEL:          0  ACCURACY: -nan
ITLB TIMELY PREFETCHES:          0 LATE PREFETCHES: 0 DROPPED PREFETCHES: 0
ITLB PREFETCHES SAME FILL-ORIGIN LEVEL: 0 DIFFERENT FILL-ORIGIN LEVEL: 0
ITLB AVERAGE MISS LATENCY: -nan cycles
ITLB RQ	ACCESS:   48350411	FORWARD:          0	MERGED:    9168313	TO_CACHE:   39182098

DTLB TOTAL     ACCESS:   54156606  HIT:   53443043  MISS:     713563  HIT %:    98.6824  MISS %:    1.31759   MPKI: 3.56781
DTLB LOAD TRANSLATION ACCESS:   54156606  HIT:   53443043  MISS:     713563  HIT %:    98.6824  MISS %:    1.31759   MPKI: 3.56781
DTLB PREFETCH  REQUESTED:          0  ISSUED:          0  USEFUL:          0  USELESS:          0
DTLB USEFUL LOAD PREFETCHES:          0 PREFETCH ISSUED TO LOWER LEVEL:          0  ACCURACY: -nan
DTLB TIMELY PREFETCHES:          0 LATE PREFETCHES: 0 DROPPED PREFETCHES: 0
DTLB PREFETCHES SAME FILL-ORIGIN LEVEL: 0 DIFFERENT FILL-ORIGIN LEVEL: 0
DTLB AVERAGE MISS LATENCY: 37.0037 cycles
DTLB RQ	ACCESS:   89489749	FORWARD:          0	MERGED:   34413697	TO_CACHE:   55076052

STLB TOTAL     ACCESS:   21272484  HIT:   21013111  MISS:     259373  HIT %:    98.7807  MISS %:    1.21929   MPKI: 1.29686
STLB LOAD TRANSLATION ACCESS:     713563  HIT:     651767  MISS:      61796  HIT %:    91.3398  MISS %:     8.6602   MPKI: 0.30898
STLB TRANSLATION FROM L1D PREFETCHER ACCESS:   20558921  HIT:   20361344  MISS:     197577  HIT %:     99.039  MISS %:   0.961028   MPKI: 0.987885
STLB PREFETCH  REQUESTED:          0  ISSUED:          0  USEFUL:     197466  USELESS:        111
STLB USEFUL LOAD PREFETCHES:     197466 PREFETCH ISSUED TO LOWER LEVEL:          0  ACCURACY: inf
STLB TIMELY PREFETCHES:     197466 LATE PREFETCHES: 21088 DROPPED PREFETCHES: 696819
STLB PREFETCHES SAME FILL-ORIGIN LEVEL: 0 DIFFERENT FILL-ORIGIN LEVEL: 0
STLB AVERAGE MISS LATENCY: 147.857 cycles
STLB RQ	ACCESS:  100433854	FORWARD:          0	MERGED:   77917706	TO_CACHE:   22516148

STLB Hit, L1D data hit: 0
STLB Hit, L2C data hit: 0
STLB Hit, LLC data hit: 0
STLB Hit, LLC data miss: 0
STLB STLB hints to L2: 0
L1D TOTAL     ACCESS:  120639571  HIT:  109838204  MISS:   10801367  HIT %:    91.0466  MISS %:    8.95342   MPKI: 54.0068
L1D LOAD      ACCESS:   42479970  HIT:   36717521  MISS:    5762449  HIT %:    86.4349  MISS %:    13.5651   MPKI: 28.8122
L1D RFO       ACCESS:   43977699  HIT:   43547191  MISS:     430508  HIT %:    99.0211  MISS %:   0.978923   MPKI: 2.15254
L1D PREFETCH  ACCESS:   34181902  HIT:   29573492  MISS:    4608410  HIT %:     86.518  MISS %:     13.482   MPKI: 23.042
L1D PREFETCH  REQUESTED:  327797506  ISSUED:  244854119  USEFUL:    4365140  USELESS:     324831
L1D USEFUL LOAD PREFETCHES:    4365140 PREFETCH ISSUED TO LOWER LEVEL:  212303599  ACCURACY: 2.05608
L1D TIMELY PREFETCHES:    4365140 LATE PREFETCHES: 1208366 DROPPED PREFETCHES: 1763368
L1D PREFETCHES SAME FILL-ORIGIN LEVEL: 16409477 DIFFERENT FILL-ORIGIN LEVEL: 195894122
L1D AVERAGE MISS LATENCY: 329.126 cycles
L1D RQ	ACCESS:   68530685	FORWARD:          0	MERGED:   24672932	TO_CACHE:   43843285
L1D WQ	ACCESS:   46247929	FORWARD:      29762	MERGED:     601465	TO_CACHE:   45646464
L1D PQ	ACCESS:  145141513	FORWARD:          0	MERGED:   45413613	TO_CACHE:   99712606

L1D UNIQUE REGIONS ACCESSED: 0
L1D REGIONS CONFLICTS: 0
L1D Cross Page Prefetch Requests: 22290419
L1D Same Page Prefetch Requests: 148752038
L1D ROI Sum of L1D PQ occupancy: 2922092060
L1D PREFETCHES PUSHED FROM L2C: 0
L1I TOTAL     ACCESS:   46895871  HIT:   46895865  MISS:          6  HIT %:        100  MISS %: 1.27943e-05   MPKI: 3e-05
L1I LOAD      ACCESS:   46895871  HIT:   46895865  MISS:          6  HIT %:        100  MISS %: 1.27943e-05   MPKI: 3e-05
L1I PREFETCH  REQUESTED:          0  ISSUED:          0  USEFUL:          0  USELESS:          0
L1I USEFUL LOAD PREFETCHES:          0 PREFETCH ISSUED TO LOWER LEVEL:          0  ACCURACY: -nan
L1I TIMELY PREFETCHES:          0 LATE PREFETCHES: 0 DROPPED PREFETCHES: 0
L1I PREFETCHES SAME FILL-ORIGIN LEVEL: 0 DIFFERENT FILL-ORIGIN LEVEL: 0
L1I AVERAGE MISS LATENCY: 1210.67 cycles
L1I RQ	ACCESS:   65689980	FORWARD:          0	MERGED:   17339569	TO_CACHE:   48350411

BTB TOTAL     ACCESS:   25429243  HIT:   25429207  MISS:         36  HIT %:    99.9999  MISS %: 0.000141569   MPKI: 0.00018
BTB BRANCH_DIRECT_JUMP	ACCESS:    2119892  HIT:    2119887  MISS:          5
BTB BRANCH_INDIRECT	ACCESS:          0  HIT:          0  MISS:          0
BTB BRANCH_CONDITIONAL	ACCESS:   23308870  HIT:   23308844  MISS:         26
BTB BRANCH_DIRECT_CALL	ACCESS:        241  HIT:        238  MISS:          3
BTB BRANCH_INDIRECT_CALL	ACCESS:          0  HIT:          0  MISS:          0
BTB BRANCH_RETURN	ACCESS:        240  HIT:        238  MISS:          2
BTB BRANCH_OTHER ACCESS:          0  HIT:          0  MISS:          0

L2C TOTAL     ACCESS:   51978215  HIT:   37553090  MISS:   14425125  HIT %:    72.2477  MISS %:    27.7523   MPKI: 72.1256
L2C LOAD      ACCESS:    4637457  HIT:    2884262  MISS:    1753195  HIT %:    62.1949  MISS %:    37.8051   MPKI: 8.76597
L2C DATA LOAD MPKI: 8.76595
L2C INSTRUCTION LOAD MPKI: 3e-05
L2C RFO       ACCESS:     430373  HIT:      40181  MISS:     390192  HIT %:    9.33632  MISS %:    90.6637   MPKI: 1.95096
L2C PREFETCH  ACCESS:   44960587  HIT:   32811028  MISS:   12149559  HIT %:    72.9773  MISS %:    27.0227   MPKI: 60.7478
L2C DATA PREFETCH MPKI: 60.7478
L2C INSTRUCTION PREFETCH MPKI: 0
L2C WRITEBACK ACCESS:     953298  HIT:     861782  MISS:      91516  HIT %:    90.4001  MISS %:    9.59994   MPKI: 0.45758
L2C LOAD TRANSLATION ACCESS:      54577  HIT:      48534  MISS:       6043  HIT %:    88.9276  MISS %:    11.0724   MPKI: 0.030215
L2C TRANSLATION FROM L1D PREFETCHER ACCESS:     941923  HIT:     907303  MISS:      34620  HIT %:    96.3245  MISS %:    3.67546   MPKI: 0.1731
L2C PREFETCH  REQUESTED:          0  ISSUED:          0  USEFUL:    2942416  USELESS:    9522953
L2C USEFUL LOAD PREFETCHES:    2942416 PREFETCH ISSUED TO LOWER LEVEL:   13869593  ACCURACY: 21.2149
L2C TIMELY PREFETCHES:    2942416 LATE PREFETCHES: 1441986 DROPPED PREFETCHES: 0
L2C PREFETCHES SAME FILL-ORIGIN LEVEL: 11118588 DIFFERENT FILL-ORIGIN LEVEL: 0
L2C AVERAGE MISS LATENCY: 797.96 cycles
L2C RQ	ACCESS:    6424429	FORWARD:          0	MERGED:          0	TO_CACHE:    6424368
L2C WQ	ACCESS:     953298	FORWARD:        126	MERGED:          0	TO_CACHE:     953298
L2C PQ	ACCESS:   59708815	FORWARD:          0	MERGED:    2110000	TO_CACHE:   57598750

L2C Instructions Evicting Data 6
L2C Translations Evicting Data 41521
L2C Data Evicting Data 14743599
L2C Instructions Evicting Instructions 0
L2C Translations Evicting Instructions 0
L2C Data Evicting Instructions 6
L2C Instructions Evicting Translations 0
L2C Translations Evicting Translations 118
L2C Data Evicting Translations 41126
L2C Dense regions hint from L2: 0
PSCL5 TOTAL     ACCESS:     944234  HIT:     944234  MISS:          0  HIT %:        100  MISS %:          0   MPKI: 0
PSCL5 LOAD TRANSLATION ACCESS:      54329  HIT:      54329  MISS:          0  HIT %:        100  MISS %:          0   MPKI: 0
PSCL5 TRANSLATION FROM L1D PREFETCHER ACCESS:     889905  HIT:     889905  MISS:          0  HIT %:        100  MISS %:          0   MPKI: 0
PSCL5 PREFETCH  REQUESTED:          0  ISSUED:          0  USEFUL:          0  USELESS:          0
PSCL5 USEFUL LOAD PREFETCHES:          0 PREFETCH ISSUED TO LOWER LEVEL:          0  ACCURACY: -nan
PSCL5 TIMELY PREFETCHES:          0 LATE PREFETCHES: 0 DROPPED PREFETCHES: 0
PSCL5 PREFETCHES SAME FILL-ORIGIN LEVEL: 0 DIFFERENT FILL-ORIGIN LEVEL: 0

PSCL4 TOTAL     ACCESS:     944234  HIT:     944234  MISS:          0  HIT %:        100  MISS %:          0   MPKI: 0
PSCL4 LOAD TRANSLATION ACCESS:      54329  HIT:      54329  MISS:          0  HIT %:        100  MISS %:          0   MPKI: 0
PSCL4 TRANSLATION FROM L1D PREFETCHER ACCESS:     889905  HIT:     889905  MISS:          0  HIT %:        100  MISS %:          0   MPKI: 0
PSCL4 PREFETCH  REQUESTED:          0  ISSUED:          0  USEFUL:          0  USELESS:          0
PSCL4 USEFUL LOAD PREFETCHES:          0 PREFETCH ISSUED TO LOWER LEVEL:          0  ACCURACY: -nan
PSCL4 TIMELY PREFETCHES:          0 LATE PREFETCHES: 0 DROPPED PREFETCHES: 0
PSCL4 PREFETCHES SAME FILL-ORIGIN LEVEL: 0 DIFFERENT FILL-ORIGIN LEVEL: 0

PSCL3 TOTAL     ACCESS:     937565  HIT:     937550  MISS:         15  HIT %:    99.9984  MISS %: 0.00159989   MPKI: 7.5e-05
PSCL3 LOAD TRANSLATION ACCESS:      53314  HIT:      53299  MISS:         15  HIT %:    99.9719  MISS %:  0.0281352   MPKI: 7.5e-05
PSCL3 TRANSLATION FROM L1D PREFETCHER ACCESS:     884251  HIT:     884251  MISS:          0  HIT %:        100  MISS %:          0   MPKI: 0
PSCL3 PREFETCH  REQUESTED:          0  ISSUED:          0  USEFUL:          0  USELESS:          0
PSCL3 USEFUL LOAD PREFETCHES:          0 PREFETCH ISSUED TO LOWER LEVEL:          0  ACCURACY: -nan
PSCL3 TIMELY PREFETCHES:          0 LATE PREFETCHES: 0 DROPPED PREFETCHES: 0
PSCL3 PREFETCHES SAME FILL-ORIGIN LEVEL: 0 DIFFERENT FILL-ORIGIN LEVEL: 0

PSCL2 TOTAL     ACCESS:     890941  HIT:     890476  MISS:        465  HIT %:    99.9478  MISS %:   0.052192   MPKI: 0.002325
PSCL2 LOAD TRANSLATION ACCESS:      54423  HIT:      53958  MISS:        465  HIT %:    99.1456  MISS %:   0.854418   MPKI: 0.002325
PSCL2 TRANSLATION FROM L1D PREFETCHER ACCESS:     836518  HIT:     836518  MISS:          0  HIT %:        100  MISS %:          0   MPKI: 0
PSCL2 PREFETCH  REQUESTED:          0  ISSUED:          0  USEFUL:          0  USELESS:          0
PSCL2 USEFUL LOAD PREFETCHES:          0 PREFETCH ISSUED TO LOWER LEVEL:          0  ACCURACY: -nan
PSCL2 TIMELY PREFETCHES:          0 LATE PREFETCHES: 0 DROPPED PREFETCHES: 0
PSCL2 PREFETCHES SAME FILL-ORIGIN LEVEL: 0 DIFFERENT FILL-ORIGIN LEVEL: 0

LLC TOTAL     ACCESS:   15194348  HIT:    3867781  MISS:   11326567  HIT %:    25.4554  MISS %:    74.5446   MPKI: 56.6328
LLC LOAD      ACCESS:     460975  HIT:      46617  MISS:     414358  HIT %:    10.1127  MISS %:    89.8873   MPKI: 2.07179
LLC RFO       ACCESS:     385467  HIT:        386  MISS:     385081  HIT %:   0.100138  MISS %:    99.8999   MPKI: 1.92541
LLC PREFETCH  ACCESS:   13446501  HIT:    2981999  MISS:   10464502  HIT %:    22.1768  MISS %:    77.8232   MPKI: 52.3225
LLC WRITEBACK ACCESS:     860742  HIT:     824485  MISS:      36257  HIT %:    95.7877  MISS %:     4.2123   MPKI: 0.181285
LLC LOAD TRANSLATION ACCESS:       6043  HIT:       1480  MISS:       4563  HIT %:    24.4911  MISS %:    75.5089   MPKI: 0.022815
LLC TRANSLATION FROM L1D PREFETCHER ACCESS:      34620  HIT:      12814  MISS:      21806  HIT %:    37.0133  MISS %:    62.9867   MPKI: 0.10903
LLC PREFETCH  REQUESTED:          0  ISSUED:          0  USEFUL:      44094  USELESS:   49974229
LLC USEFUL LOAD PREFETCHES:      44094 PREFETCH ISSUED TO LOWER LEVEL: 1599938217  ACCURACY: 0.00275598
LLC TIMELY PREFETCHES:      44094 LATE PREFETCHES: 0 DROPPED PREFETCHES: 0
LLC PREFETCHES SAME FILL-ORIGIN LEVEL: 0 DIFFERENT FILL-ORIGIN LEVEL: 0
LLC AVERAGE MISS LATENCY: 3549.75 cycles
LLC RQ	ACCESS:    3787411	FORWARD:          0	MERGED:          0	TO_CACHE:    3787411
LLC WQ	ACCESS:    3444011	FORWARD:          7	MERGED:          0	TO_CACHE:    3444011
LLC PQ	ACCESS:   54333605	FORWARD:          0	MERGED:          0	TO_CACHE:   54333598

LLC Dense regions hint to LLC: 0

RAW hits: 2431841
Loads Generated: 69216970
Loads sent to L1D: 66785129
Stores Generated: 46247923
Stores sent to L1D: 46247929
Major fault: 0 Minor fault: 71589
Allocated PAGES: 266466

CPU 1 cumulative IPC: 0.269748 instructions: 200000000 cycles: 741433002
ITLB TOTAL     ACCESS:   37847299  HIT:   37847299  MISS:          0  HIT %:        100  MISS %:          0   MPKI: 0
ITLB LOAD TRANSLATION ACCESS:   37847299  HIT:   37847299  MISS:          0  HIT %:        100  MISS %:          0   MPKI: 0
ITLB PREFETCH  REQUESTED:          0  ISSUED:          0  USEFUL:          0  USELESS:          0
ITLB USEFUL LOAD PREFETCHES:          0 PREFETCH ISSUED TO LOWER LEVEL:          0  ACCURACY: -nan
ITLB TIMELY PREFETCHES:          0 LATE PREFETCHES: 0 DROPPED PREFETCHES: 0
ITLB PREFETCHES SAME FILL-ORIGIN LEVEL: 0 DIFFERENT FILL-ORIGIN LEVEL: 0
ITLB AVERAGE MISS LATENCY: -nan cycles
ITLB RQ	ACCESS:   47185436	FORWARD:          0	MERGED:    9173235	TO_CACHE:   38012201

DTLB TOTAL     ACCESS:   54251813  HIT:   53538238  MISS:     713575  HIT %:    98.6847  MISS %:     1.3153   MPKI: 3.56787
DTLB LOAD TRANSLATION ACCESS:   54251813  HIT:   53538238  MISS:     713575  HIT %:    98.6847  MISS %:     1.3153   MPKI: 3.56787
DTLB PREFETCH  REQUESTED:          0  ISSUED:          0  USEFUL:          0  USELESS:          0
DTLB USEFUL LOAD PREFETCHES:          0 PREFETCH ISSUED TO LOWER LEVEL:          0  ACCURACY: -nan
DTLB TIMELY PREFETCHES:          0 LATE PREFETCHES: 0 DROPPED PREFETCHES: 0
DTLB PREFETCHES SAME FILL-ORIGIN LEVEL: 0 DIFFERENT FILL-ORIGIN LEVEL: 0
DTLB AVERAGE MISS LATENCY: 38.7446 cycles
DTLB RQ	ACCESS:   88627622	FORWARD:          0	MERGED:   34189046	TO_CACHE:   54438576

STLB TOTAL     ACCESS:   21165037  HIT:   20905564  MISS:     259473  HIT %:     98.774  MISS %:    1.22595   MPKI: 1.29737
STLB LOAD TRANSLATION ACCESS:     713575  HIT:     648544  MISS:      65031  HIT %:    90.8866  MISS %:    9.11341   MPKI: 0.325155
STLB TRANSLATION FROM L1D PREFETCHER ACCESS:   20451462  HIT:   20257020  MISS:     194442  HIT %:    99.0493  MISS %:   0.950749   MPKI: 0.97221
STLB PREFETCH  REQUESTED:          0  ISSUED:          0  USEFUL:     194303  USELESS:        141
STLB USEFUL LOAD PREFETCHES:     194303 PREFETCH ISSUED TO LOWER LEVEL:          0  ACCURACY: inf
STLB TIMELY PREFETCHES:     194303 LATE PREFETCHES: 20854 DROPPED PREFETCHES: 634896
STLB PREFETCHES SAME FILL-ORIGIN LEVEL: 0 DIFFERENT FILL-ORIGIN LEVEL: 0
STLB AVERAGE MISS LATENCY: 173.781 cycles
STLB RQ	ACCESS:   99322148	FORWARD:          0	MERGED:   77190543	TO_CACHE:   22131605

STLB Hit, L1D data hit: 0
STLB Hit, L2C data hit: 0
STLB Hit, LLC data hit: 0
STLB Hit, LLC data miss: 0
STLB STLB hints to L2: 0
L1D TOTAL     ACCESS:  118597778  HIT:  107840900  MISS:   10756878  HIT %:    90.9299  MISS %:    9.07005   MPKI: 53.7844
L1D LOAD      ACCESS:   42521334  HIT:   36235021  MISS:    6286313  HIT %:    85.2161  MISS %:    14.7839   MPKI: 31.4316
L1D RFO       ACCESS:   43967701  HIT:   43537234  MISS:     430467  HIT %:    99.0209  MISS %:   0.979053   MPKI: 2.15233
L1D PREFETCH  ACCESS:   32108743  HIT:   28068645  MISS:    4040098  HIT %:    87.4175  MISS %:    12.5825   MPKI: 20.2005
L1D PREFETCH  REQUESTED:  321217659  ISSUED:  240756063  USEFUL:    3768063  USELESS:     282173
L1D USEFUL LOAD PREFETCHES:    3768063 PREFETCH ISSUED TO LOWER LEVEL:  256870369  ACCURACY: 1.46691
L1D TIMELY PREFETCHES:    3768063 LATE PREFETCHES: 1186949 DROPPED PREFETCHES: 1564091
L1D PREFETCHES SAME FILL-ORIGIN LEVEL: 18299497 DIFFERENT FILL-ORIGIN LEVEL: 238570872
L1D AVERAGE MISS LATENCY: 360.877 cycles
L1D RQ	ACCESS:   66983357	FORWARD:          0	MERGED:   23974051	TO_CACHE:   42994939
L1D WQ	ACCESS:   46247545	FORWARD:      29450	MERGED:     614862	TO_CACHE:   45632683
L1D PQ	ACCESS:  142148371	FORWARD:          0	MERGED:   43525596	TO_CACHE:   98607692

L1D UNIQUE REGIONS ACCESSED: 0
L1D REGIONS CONFLICTS: 0
L1D Cross Page Prefetch Requests: 21379357
L1D Same Page Prefetch Requests: 147017156
L1D ROI Sum of L1D PQ occupancy: 3321622662
L1D PREFETCHES PUSHED FROM L2C: 0
L1I TOTAL     ACCESS:   47020533  HIT:   47020527  MISS:          6  HIT %:        100  MISS %: 1.27604e-05   MPKI: 3e-05
L1I LOAD      ACCESS:   47020533  HIT:   47020527  MISS:          6  HIT %:        100  MISS %: 1.27604e-05   MPKI: 3e-05
L1I PREFETCH  REQUESTED:          0  ISSUED:          0  USEFUL:          0  USELESS:          0
L1I USEFUL LOAD PREFETCHES:          0 PREFETCH ISSUED TO LOWER LEVEL:          0  ACCURACY: -nan
L1I TIMELY PREFETCHES:          0 LATE PREFETCHES: 0 DROPPED PREFETCHES: 0
L1I PREFETCHES SAME FILL-ORIGIN LEVEL: 0 DIFFERENT FILL-ORIGIN LEVEL: 0
L1I AVERAGE MISS LATENCY: 813.333 cycles
L1I RQ	ACCESS:   64168348	FORWARD:          0	MERGED:   16982912	TO_CACHE:   47185436

BTB TOTAL     ACCESS:   25430788  HIT:   25430752  MISS:         36  HIT %:    99.9999  MISS %: 0.000141561   MPKI: 0.00018
BTB BRANCH_DIRECT_JUMP	ACCESS:    2119508  HIT:    2119503  MISS:          5
BTB BRANCH_INDIRECT	ACCESS:          0  HIT:          0  MISS:          0
BTB BRANCH_CONDITIONAL	ACCESS:   23310799  HIT:   23310773  MISS:         26
BTB BRANCH_DIRECT_CALL	ACCESS:        241  HIT:        238  MISS:          3
BTB BRANCH_INDIRECT_CALL	ACCESS:          0  HIT:          0  MISS:          0
BTB BRANCH_RETURN	ACCESS:        240  HIT:        238  MISS:          2
BTB BRANCH_OTHER ACCESS:          0  HIT:          0  MISS:          0

L2C TOTAL     ACCESS:   51383561  HIT:   36919440  MISS:   14464121  HIT %:    71.8507  MISS %:    28.1493   MPKI: 72.3206
L2C LOAD      ACCESS:    5108769  HIT:    3010567  MISS:    2098202  HIT %:    58.9294  MISS %:    41.0706   MPKI: 10.491
L2C DATA LOAD MPKI: 10.491
L2C INSTRUCTION LOAD MPKI: 3e-05
L2C RFO       ACCESS:     430309  HIT:      40174  MISS:     390135  HIT %:    9.33608  MISS %:    90.6639   MPKI: 1.95067
L2C PREFETCH  ACCESS:   43927030  HIT:   32084803  MISS:   11842227  HIT %:    73.0411  MISS %:    26.9589   MPKI: 59.2111
L2C DATA PREFETCH MPKI: 59.2111
L2C INSTRUCTION PREFETCH MPKI: 0
L2C WRITEBACK ACCESS:     952174  HIT:     859705  MISS:      92469  HIT %:    90.2886  MISS %:    9.71136   MPKI: 0.462345
L2C LOAD TRANSLATION ACCESS:      54916  HIT:      48860  MISS:       6056  HIT %:    88.9722  MISS %:    11.0278   MPKI: 0.03028
L2C TRANSLATION FROM L1D PREFETCHER ACCESS:     910363  HIT:     875331  MISS:      35032  HIT %:    96.1519  MISS %:    3.84814   MPKI: 0.17516
L2C PREFETCH  REQUESTED:          0  ISSUED:          0  USEFUL:    2969523  USELESS:    8942336
L2C USEFUL LOAD PREFETCHES:    2969523 PREFETCH ISSUED TO LOWER LEVEL:   13491300  ACCURACY: 22.0107
L2C TIMELY PREFETCHES:    2969523 LATE PREFETCHES: 1616548 DROPPED PREFETCHES: 0
L2C PREFETCHES SAME FILL-ORIGIN LEVEL: 11118575 DIFFERENT FILL-ORIGIN LEVEL: 0
L2C AVERAGE MISS LATENCY: 875.271 cycles
L2C RQ	ACCESS:    6544957	FORWARD:          0	MERGED:          0	TO_CACHE:    6544900
L2C WQ	ACCESS:     952174	FORWARD:        125	MERGED:          0	TO_CACHE:     952174
L2C PQ	ACCESS:   60251617	FORWARD:          0	MERGED:    2601930	TO_CACHE:   57649619

L2C Instructions Evicting Data 6
L2C Translations Evicting Data 41056
L2C Data Evicting Data 14346141
L2C Instructions Evicting Instructions 0
L2C Translations Evicting Instructions 0
L2C Data Evicting Instructions 6
L2C Instructions Evicting Translations 0
L2C Translations Evicting Translations 144
L2C Data Evicting Translations 40737
L2C Dense regions hint from L2: 0
PSCL5 TOTAL     ACCESS:     901944  HIT:     901944  MISS:          0  HIT %:        100  MISS %:          0   MPKI: 0
PSCL5 LOAD TRANSLATION ACCESS:      54681  HIT:      54681  MISS:          0  HIT %:        100  MISS %:          0   MPKI: 0
PSCL5 TRANSLATION FROM L1D PREFETCHER ACCESS:     847263  HIT:     847263  MISS:          0  HIT %:        100  MISS %:          0   MPKI: 0
PSCL5 PREFETCH  REQUESTED:          0  ISSUED:          0  USEFUL:          0  USELESS:          0
PSCL5 USEFUL LOAD PREFETCHES:          0 PREFETCH ISSUED TO LOWER LEVEL:          0  ACCURACY: -nan
PSCL5 TIMELY PREFETCHES:          0 LATE PREFETCHES: 0 DROPPED PREFETCHES: 0
PSCL5 PREFETCHES SAME FILL-ORIGIN LEVEL: 0 DIFFERENT FILL-ORIGIN LEVEL: 0

PSCL4 TOTAL     ACCESS:     901944  HIT:     901944  MISS:          0  HIT %:        100  MISS %:          0   MPKI: 0
PSCL4 LOAD TRANSLATION ACCESS:      54681  HIT:      54681  MISS:          0  HIT %:        100  MISS %:          0   MPKI: 0
PSCL4 TRANSLATION FROM L1D PREFETCHER ACCESS:     847263  HIT:     847263  MISS:          0  HIT %:        100  MISS %:          0   MPKI: 0
PSCL4 PREFETCH  REQUESTED:          0  ISSUED:          0  USEFUL:          0  USELESS:          0
PSCL4 USEFUL LOAD PREFETCHES:          0 PREFETCH ISSUED TO LOWER LEVEL:          0  ACCURACY: -nan
PSCL4 TIMELY PREFETCHES:          0 LATE PREFETCHES: 0 DROPPED PREFETCHES: 0
PSCL4 PREFETCHES SAME FILL-ORIGIN LEVEL: 0 DIFFERENT FILL-ORIGIN LEVEL: 0

PSCL3 TOTAL     ACCESS:     895095  HIT:     895080  MISS:         15  HIT %:    99.9983  MISS %:  0.0016758   MPKI: 7.5e-05
PSCL3 LOAD TRANSLATION ACCESS:      53632  HIT:      53617  MISS:         15  HIT %:     99.972  MISS %:  0.0279684   MPKI: 7.5e-05
PSCL3 TRANSLATION FROM L1D PREFETCHER ACCESS:     841463  HIT:     841463  MISS:          0  HIT %:        100  MISS %:          0   MPKI: 0
PSCL3 PREFETCH  REQUESTED:          0  ISSUED:          0  USEFUL:          0  USELESS:          0
PSCL3 USEFUL LOAD PREFETCHES:          0 PREFETCH ISSUED TO LOWER LEVEL:          0  ACCURACY: -nan
PSCL3 TIMELY PREFETCHES:          0 LATE PREFETCHES: 0 DROPPED PREFETCHES: 0
PSCL3 PREFETCHES SAME FILL-ORIGIN LEVEL: 0 DIFFERENT FILL-ORIGIN LEVEL: 0

PSCL2 TOTAL     ACCESS:     838376  HIT:     837933  MISS:        443  HIT %:    99.9472  MISS %:  0.0528403   MPKI: 0.002215
PSCL2 LOAD TRANSLATION ACCESS:      54766  HIT:      54323  MISS:        443  HIT %:    99.1911  MISS %:   0.808896   MPKI: 0.002215
PSCL2 TRANSLATION FROM L1D PREFETCHER ACCESS:     783610  HIT:     783610  MISS:          0  HIT %:        100  MISS %:          0   MPKI: 0
PSCL2 PREFETCH  REQUESTED:          0  ISSUED:          0  USEFUL:          0  USELESS:          0
PSCL2 USEFUL LOAD PREFETCHES:          0 PREFETCH ISSUED TO LOWER LEVEL:          0  ACCURACY: -nan
PSCL2 TIMELY PREFETCHES:          0 LATE PREFETCHES: 0 DROPPED PREFETCHES: 0
PSCL2 PREFETCHES SAME FILL-ORIGIN LEVEL: 0 DIFFERENT FILL-ORIGIN LEVEL: 0

LLC TOTAL     ACCESS:   15233043  HIT:    1452043  MISS:   13781000  HIT %:    9.53219  MISS %:    90.4678   MPKI: 68.905
LLC LOAD      ACCESS:     502626  HIT:      26665  MISS:     475961  HIT %:    5.30514  MISS %:    94.6949   MPKI: 2.37981
LLC RFO       ACCESS:     385456  HIT:        299  MISS:     385157  HIT %:  0.0775705  MISS %:    99.9224   MPKI: 1.92579
LLC PREFETCH  ACCESS:   13442480  HIT:     804170  MISS:   12638310  HIT %:     5.9823  MISS %:    94.0177   MPKI: 63.1915
LLC WRITEBACK ACCESS:     861393  HIT:     614401  MISS:     246992  HIT %:    71.3264  MISS %:    28.6736   MPKI: 1.23496
LLC LOAD TRANSLATION ACCESS:       6056  HIT:       1051  MISS:       5005  HIT %:    17.3547  MISS %:    82.6453   MPKI: 0.025025
LLC TRANSLATION FROM L1D PREFETCHER ACCESS:      35032  HIT:       5457  MISS:      29575  HIT %:    15.5772  MISS %:    84.4228   MPKI: 0.147875
LLC PREFETCH  REQUESTED:          0  ISSUED:          0  USEFUL:      44094  USELESS:   49974229
LLC USEFUL LOAD PREFETCHES:      44094 PREFETCH ISSUED TO LOWER LEVEL: 1599938217  ACCURACY: 0.00275598
LLC TIMELY PREFETCHES:      44094 LATE PREFETCHES: 0 DROPPED PREFETCHES: 0
LLC PREFETCHES SAME FILL-ORIGIN LEVEL: 0 DIFFERENT FILL-ORIGIN LEVEL: 0
LLC AVERAGE MISS LATENCY: 2917.53 cycles
LLC RQ	ACCESS:    3787411	FORWARD:          0	MERGED:          0	TO_CACHE:    3787411
LLC WQ	ACCESS:    3444011	FORWARD:          7	MERGED:          0	TO_CACHE:    3444011
LLC PQ	ACCESS:   54333605	FORWARD:          0	MERGED:          0	TO_CACHE:   54333598

LLC Dense regions hint to LLC: 0

RAW hits: 2431484
Loads Generated: 69215831
Loads sent to L1D: 66784348
Stores Generated: 46247540
Stores sent to L1D: 46247545
Major fault: 0 Minor fault: 64783
Allocated PAGES: 266466

CPU 2 cumulative IPC: 0.269862 instructions: 200000000 cycles: 741118698
ITLB TOTAL     ACCESS:   37945264  HIT:   37945264  MISS:          0  HIT %:        100  MISS %:          0   MPKI: 0
ITLB LOAD TRANSLATION ACCESS:   37945264  HIT:   37945264  MISS:          0  HIT %:        100  MISS %:          0   MPKI: 0
ITLB PREFETCH  REQUESTED:          0  ISSUED:          0  USEFUL:          0  USELESS:          0
ITLB USEFUL LOAD PREFETCHES:          0 PREFETCH ISSUED TO LOWER LEVEL:          0  ACCURACY: -nan
ITLB TIMELY PREFETCHES:          0 LATE PREFETCHES: 0 DROPPED PREFETCHES: 0
ITLB PREFETCHES SAME FILL-ORIGIN LEVEL: 0 DIFFERENT FILL-ORIGIN LEVEL: 0
ITLB AVERAGE MISS LATENCY: -nan cycles
ITLB RQ	ACCESS:   47283908	FORWARD:          0	MERGED:    9131476	TO_CACHE:   38152432

DTLB TOTAL     ACCESS:   54174431  HIT:   53460714  MISS:     713717  HIT %:    98.6826  MISS %:    1.31744   MPKI: 3.56859
DTLB LOAD TRANSLATION ACCESS:   54174431  HIT:   53460714  MISS:     713717  HIT %:    98.6826  MISS %:    1.31744   MPKI: 3.56859
DTLB PREFETCH  REQUESTED:          0  ISSUED:          0  USEFUL:          0  USELESS:          0
DTLB USEFUL LOAD PREFETCHES:          0 PREFETCH ISSUED TO LOWER LEVEL:          0  ACCURACY: -nan
DTLB TIMELY PREFETCHES:          0 LATE PREFETCHES: 0 DROPPED PREFETCHES: 0
DTLB PREFETCHES SAME FILL-ORIGIN LEVEL: 0 DIFFERENT FILL-ORIGIN LEVEL: 0
DTLB AVERAGE MISS LATENCY: 39.7172 cycles
DTLB RQ	ACCESS:   88436821	FORWARD:          0	MERGED:   34049813	TO_CACHE:   54387008

STLB TOTAL     ACCESS:   21091731  HIT:   20831424  MISS:     260307  HIT %:    98.7658  MISS %:    1.23417   MPKI: 1.30154
STLB LOAD TRANSLATION ACCESS:     713717  HIT:     647514  MISS:      66203  HIT %:    90.7242  MISS %:    9.27581   MPKI: 0.331015
STLB TRANSLATION FROM L1D PREFETCHER ACCESS:   20378014  HIT:   20183910  MISS:     194104  HIT %:    99.0475  MISS %:   0.952517   MPKI: 0.97052
STLB PREFETCH  REQUESTED:          0  ISSUED:          0  USEFUL:     193964  USELESS:        144
STLB USEFUL LOAD PREFETCHES:     193964 PREFETCH ISSUED TO LOWER LEVEL:          0  ACCURACY: inf
STLB TIMELY PREFETCHES:     193964 LATE PREFETCHES: 21440 DROPPED PREFETCHES: 678731
STLB PREFETCHES SAME FILL-ORIGIN LEVEL: 0 DIFFERENT FILL-ORIGIN LEVEL: 0
STLB AVERAGE MISS LATENCY: 176.623 cycles
STLB RQ	ACCESS:   99594644	FORWARD:          0	MERGED:   77473591	TO_CACHE:   22121053

STLB Hit, L1D data hit: 0
STLB Hit, L2C data hit: 0
STLB Hit, LLC data hit: 0
STLB Hit, LLC data miss: 0
STLB STLB hints to L2: 0
L1D TOTAL     ACCESS:  118401810  HIT:  107588465  MISS:   10813345  HIT %:    90.8672  MISS %:    9.13275   MPKI: 54.0667
L1D LOAD      ACCESS:   42548130  HIT:   36173404  MISS:    6374726  HIT %:    85.0176  MISS %:    14.9824   MPKI: 31.8736
L1D RFO       ACCESS:   43702494  HIT:   43272964  MISS:     429530  HIT %:    99.0171  MISS %:    0.98285   MPKI: 2.14765
L1D PREFETCH  ACCESS:   32151186  HIT:   28142097  MISS:    4009089  HIT %:    87.5305  MISS %:    12.4695   MPKI: 20.0454
L1D PREFETCH  REQUESTED:  324030613  ISSUED:  242258971  USEFUL:    3747355  USELESS:     273057
L1D USEFUL LOAD PREFETCHES:    3747355 PREFETCH ISSUED TO LOWER LEVEL:  246231948  ACCURACY: 1.52188
L1D TIMELY PREFETCHES:    3747355 LATE PREFETCHES: 1212495 DROPPED PREFETCHES: 1708805
L1D PREFETCHES SAME FILL-ORIGIN LEVEL: 17758067 DIFFERENT FILL-ORIGIN LEVEL: 228473881
L1D AVERAGE MISS LATENCY: 353.547 cycles
L1D RQ	ACCESS:   67057507	FORWARD:          0	MERGED:   23985801	TO_CACHE:   43057382
L1D WQ	ACCESS:   45995559	FORWARD:      29403	MERGED:     616120	TO_CACHE:   45379439
L1D PQ	ACCESS:  143379138	FORWARD:          0	MERGED:   44484226	TO_CACHE:   98879833

L1D UNIQUE REGIONS ACCESSED: 0
L1D REGIONS CONFLICTS: 0
L1D Cross Page Prefetch Requests: 21873061
L1D Same Page Prefetch Requests: 147416087
L1D ROI Sum of L1D PQ occupancy: 3273498026
L1D PREFETCHES PUSHED FROM L2C: 0
L1I TOTAL     ACCESS:   47076741  HIT:   47076735  MISS:          6  HIT %:        100  MISS %: 1.27451e-05   MPKI: 3e-05
L1I LOAD      ACCESS:   47076741  HIT:   47076735  MISS:          6  HIT %:        100  MISS %: 1.27451e-05   MPKI: 3e-05
L1I PREFETCH  REQUESTED:          0  ISSUED:          0  USEFUL:          0  USELESS:          0
L1I USEFUL LOAD PREFETCHES:          0 PREFETCH ISSUED TO LOWER LEVEL:          0  ACCURACY: -nan
L1I TIMELY PREFETCHES:          0 LATE PREFETCHES: 0 DROPPED PREFETCHES: 0
L1I PREFETCHES SAME FILL-ORIGIN LEVEL: 0 DIFFERENT FILL-ORIGIN LEVEL: 0
L1I AVERAGE MISS LATENCY: 694.167 cycles
L1I RQ	ACCESS:   64300579	FORWARD:          0	MERGED:   17016671	TO_CACHE:   47283908

BTB TOTAL     ACCESS:   25633155  HIT:   25633150  MISS:          5  HIT %:        100  MISS %: 1.9506e-05   MPKI: 2.5e-05
BTB BRANCH_DIRECT_JUMP	ACCESS:    2117733  HIT:    2117733  MISS:          0
BTB BRANCH_INDIRECT	ACCESS:          0  HIT:          0  MISS:          0
BTB BRANCH_CONDITIONAL	ACCESS:   23514945  HIT:   23514941  MISS:          4
BTB BRANCH_DIRECT_CALL	ACCESS:        239  HIT:        238  MISS:          1
BTB BRANCH_INDIRECT_CALL	ACCESS:          0  HIT:          0  MISS:          0
BTB BRANCH_RETURN	ACCESS:        238  HIT:        238  MISS:          0
BTB BRANCH_OTHER ACCESS:          0  HIT:          0  MISS:          0

L2C TOTAL     ACCESS:   51046129  HIT:   36525724  MISS:   14520405  HIT %:    71.5543  MISS %:    28.4457   MPKI: 72.602
L2C LOAD      ACCESS:    5173781  HIT:    3033900  MISS:    2139881  HIT %:    58.6399  MISS %:    41.3601   MPKI: 10.6994
L2C DATA LOAD MPKI: 10.6994
L2C INSTRUCTION LOAD MPKI: 3e-05
L2C RFO       ACCESS:     429389  HIT:      40181  MISS:     389208  HIT %:    9.35772  MISS %:    90.6423   MPKI: 1.94604
L2C PREFETCH  ACCESS:   43505280  HIT:   31646162  MISS:   11859118  HIT %:     72.741  MISS %:     27.259   MPKI: 59.2956
L2C DATA PREFETCH MPKI: 59.2956
L2C INSTRUCTION PREFETCH MPKI: 0
L2C WRITEBACK ACCESS:     949124  HIT:     857835  MISS:      91289  HIT %:    90.3818  MISS %:    9.61824   MPKI: 0.456445
L2C LOAD TRANSLATION ACCESS:      56141  HIT:      50070  MISS:       6071  HIT %:    89.1862  MISS %:    10.8138   MPKI: 0.030355
L2C TRANSLATION FROM L1D PREFETCHER ACCESS:     932414  HIT:     897576  MISS:      34838  HIT %:    96.2637  MISS %:    3.73632   MPKI: 0.17419
L2C PREFETCH  REQUESTED:          0  ISSUED:          0  USEFUL:    2995893  USELESS:    8939853
L2C USEFUL LOAD PREFETCHES:    2995893 PREFETCH ISSUED TO LOWER LEVEL:   13548012  ACCURACY: 22.1132
L2C TIMELY PREFETCHES:    2995893 LATE PREFETCHES: 1649691 DROPPED PREFETCHES: 0
L2C PREFETCHES SAME FILL-ORIGIN LEVEL: 11168337 DIFFERENT FILL-ORIGIN LEVEL: 0
L2C AVERAGE MISS LATENCY: 852.497 cycles
L2C RQ	ACCESS:    6643606	FORWARD:          0	MERGED:          0	TO_CACHE:    6643536
L2C WQ	ACCESS:     949124	FORWARD:        136	MERGED:          0	TO_CACHE:     949124
L2C PQ	ACCESS:   60160916	FORWARD:          0	MERGED:    2652468	TO_CACHE:   57508382

L2C Instructions Evicting Data 6
L2C Translations Evicting Data 40952
L2C Data Evicting Data 14417584
L2C Instructions Evicting Instructions 0
L2C Translations Evicting Instructions 0
L2C Data Evicting Instructions 6
L2C Instructions Evicting Translations 0
L2C Translations Evicting Translations 96
L2C Data Evicting Translations 40582
L2C Dense regions hint from L2: 0
PSCL5 TOTAL     ACCESS:     946553  HIT:     946553  MISS:          0  HIT %:        100  MISS %:          0   MPKI: 0
PSCL5 LOAD TRANSLATION ACCESS:      55888  HIT:      55888  MISS:          0  HIT %:        100  MISS %:          0   MPKI: 0
PSCL5 TRANSLATION FROM L1D PREFETCHER ACCESS:     890665  HIT:     890665  MISS:          0  HIT %:        100  MISS %:          0   MPKI: 0
PSCL5 PREFETCH  REQUESTED:          0  ISSUED:          0  USEFUL:          0  USELESS:          0
PSCL5 USEFUL LOAD PREFETCHES:          0 PREFETCH ISSUED TO LOWER LEVEL:          0  ACCURACY: -nan
PSCL5 TIMELY PREFETCHES:          0 LATE PREFETCHES: 0 DROPPED PREFETCHES: 0
PSCL5 PREFETCHES SAME FILL-ORIGIN LEVEL: 0 DIFFERENT FILL-ORIGIN LEVEL: 0

PSCL4 TOTAL     ACCESS:     946553  HIT:     946553  MISS:          0  HIT %:        100  MISS %:          0   MPKI: 0
PSCL4 LOAD TRANSLATION ACCESS:      55888  HIT:      55888  MISS:          0  HIT %:        100  MISS %:          0   MPKI: 0
PSCL4 TRANSLATION FROM L1D PREFETCHER ACCESS:     890665  HIT:     890665  MISS:          0  HIT %:        100  MISS %:          0   MPKI: 0
PSCL4 PREFETCH  REQUESTED:          0  ISSUED:          0  USEFUL:          0  USELESS:          0
PSCL4 USEFUL LOAD PREFETCHES:          0 PREFETCH ISSUED TO LOWER LEVEL:          0  ACCURACY: -nan
PSCL4 TIMELY PREFETCHES:          0 LATE PREFETCHES: 0 DROPPED PREFETCHES: 0
PSCL4 PREFETCHES SAME FILL-ORIGIN LEVEL: 0 DIFFERENT FILL-ORIGIN LEVEL: 0

PSCL3 TOTAL     ACCESS:     939477  HIT:     939462  MISS:         15  HIT %:    99.9984  MISS %: 0.00159663   MPKI: 7.5e-05
PSCL3 LOAD TRANSLATION ACCESS:      54887  HIT:      54872  MISS:         15  HIT %:    99.9727  MISS %:  0.0273289   MPKI: 7.5e-05
PSCL3 TRANSLATION FROM L1D PREFETCHER ACCESS:     884590  HIT:     884590  MISS:          0  HIT %:        100  MISS %:          0   MPKI: 0
PSCL3 PREFETCH  REQUESTED:          0  ISSUED:          0  USEFUL:          0  USELESS:          0
PSCL3 USEFUL LOAD PREFETCHES:          0 PREFETCH ISSUED TO LOWER LEVEL:          0  ACCURACY: -nan
PSCL3 TIMELY PREFETCHES:          0 LATE PREFETCHES: 0 DROPPED PREFETCHES: 0
PSCL3 PREFETCHES SAME FILL-ORIGIN LEVEL: 0 DIFFERENT FILL-ORIGIN LEVEL: 0

PSCL2 TOTAL     ACCESS:     904224  HIT:     903745  MISS:        479  HIT %:     99.947  MISS %:  0.0529736   MPKI: 0.002395
PSCL2 LOAD TRANSLATION ACCESS:      55989  HIT:      55510  MISS:        479  HIT %:    99.1445  MISS %:   0.855525   MPKI: 0.002395
PSCL2 TRANSLATION FROM L1D PREFETCHER ACCESS:     848235  HIT:     848235  MISS:          0  HIT %:        100  MISS %:          0   MPKI: 0
PSCL2 PREFETCH  REQUESTED:          0  ISSUED:          0  USEFUL:          0  USELESS:          0
PSCL2 USEFUL LOAD PREFETCHES:          0 PREFETCH ISSUED TO LOWER LEVEL:          0  ACCURACY: -nan
PSCL2 TIMELY PREFETCHES:          0 LATE PREFETCHES: 0 DROPPED PREFETCHES: 0
PSCL2 PREFETCHES SAME FILL-ORIGIN LEVEL: 0 DIFFERENT FILL-ORIGIN LEVEL: 0

LLC TOTAL     ACCESS:   15289131  HIT:     551199  MISS:   14737932  HIT %:    3.60517  MISS %:    96.3948   MPKI: 73.6897
LLC LOAD      ACCESS:     515973  HIT:      17899  MISS:     498074  HIT %:    3.46898  MISS %:     96.531   MPKI: 2.49037
LLC RFO       ACCESS:     384427  HIT:        397  MISS:     384030  HIT %:   0.103271  MISS %:    99.8967   MPKI: 1.92015
LLC PREFETCH  ACCESS:   13487807  HIT:     438767  MISS:   13049040  HIT %:    3.25306  MISS %:    96.7469   MPKI: 65.2452
LLC WRITEBACK ACCESS:     860015  HIT:      91368  MISS:     768647  HIT %:     10.624  MISS %:     89.376   MPKI: 3.84323
LLC LOAD TRANSLATION ACCESS:       6071  HIT:        261  MISS:       5810  HIT %:    4.29913  MISS %:    95.7009   MPKI: 0.02905
LLC TRANSLATION FROM L1D PREFETCHER ACCESS:      34838  HIT:       2507  MISS:      32331  HIT %:    7.19617  MISS %:    92.8038   MPKI: 0.161655
LLC PREFETCH  REQUESTED:          0  ISSUED:          0  USEFUL:      44094  USELESS:   49974229
LLC USEFUL LOAD PREFETCHES:      44094 PREFETCH ISSUED TO LOWER LEVEL: 1599938217  ACCURACY: 0.00275598
LLC TIMELY PREFETCHES:      44094 LATE PREFETCHES: 0 DROPPED PREFETCHES: 0
LLC PREFETCHES SAME FILL-ORIGIN LEVEL: 0 DIFFERENT FILL-ORIGIN LEVEL: 0
LLC AVERAGE MISS LATENCY: 2728.09 cycles
LLC RQ	ACCESS:    3787411	FORWARD:          0	MERGED:          0	TO_CACHE:    3787411
LLC WQ	ACCESS:    3444011	FORWARD:          7	MERGED:          0	TO_CACHE:    3444011
LLC PQ	ACCESS:   54333605	FORWARD:          0	MERGED:          0	TO_CACHE:   54333598

LLC Dense regions hint to LLC: 0

RAW hits: 2429681
Loads Generated: 69238613
Loads sent to L1D: 66808923
Stores Generated: 45995557
Stores sent to L1D: 45995559
Major fault: 0 Minor fault: 66220
Allocated PAGES: 266466

CPU 3 cumulative IPC: 0.269161 instructions: 200000001 cycles: 743049953
ITLB TOTAL     ACCESS:   37875908  HIT:   37875908  MISS:          0  HIT %:        100  MISS %:          0   MPKI: 0
ITLB LOAD TRANSLATION ACCESS:   37875908  HIT:   37875908  MISS:          0  HIT %:        100  MISS %:          0   MPKI: 0
ITLB PREFETCH  REQUESTED:          0  ISSUED:          0  USEFUL:          0  USELESS:          0
ITLB USEFUL LOAD PREFETCHES:          0 PREFETCH ISSUED TO LOWER LEVEL:          0  ACCURACY: -nan
ITLB TIMELY PREFETCHES:          0 LATE PREFETCHES: 0 DROPPED PREFETCHES: 0
ITLB PREFETCHES SAME FILL-ORIGIN LEVEL: 0 DIFFERENT FILL-ORIGIN LEVEL: 0
ITLB AVERAGE MISS LATENCY: -nan cycles
ITLB RQ	ACCESS:   47054358	FORWARD:          0	MERGED:    9178451	TO_CACHE:   37875907

DTLB TOTAL     ACCESS:   54285721  HIT:   53572139  MISS:     713582  HIT %:    98.6855  MISS %:    1.31449   MPKI: 3.56791
DTLB LOAD TRANSLATION ACCESS:   54285721  HIT:   53572139  MISS:     713582  HIT %:    98.6855  MISS %:    1.31449   MPKI: 3.56791
DTLB PREFETCH  REQUESTED:          0  ISSUED:          0  USEFUL:          0  USELESS:          0
DTLB USEFUL LOAD PREFETCHES:          0 PREFETCH ISSUED TO LOWER LEVEL:          0  ACCURACY: -nan
DTLB TIMELY PREFETCHES:          0 LATE PREFETCHES: 0 DROPPED PREFETCHES: 0
DTLB PREFETCHES SAME FILL-ORIGIN LEVEL: 0 DIFFERENT FILL-ORIGIN LEVEL: 0
DTLB AVERAGE MISS LATENCY: 39.4254 cycles
DTLB RQ	ACCESS:   88532067	FORWARD:          0	MERGED:   34153581	TO_CACHE:   54378486

STLB TOTAL     ACCESS:   20983361  HIT:   20724031  MISS:     259330  HIT %:    98.7641  MISS %:    1.23588   MPKI: 1.29665
STLB LOAD TRANSLATION ACCESS:     713582  HIT:     647960  MISS:      65622  HIT %:    90.8039  MISS %:    9.19614   MPKI: 0.32811
STLB TRANSLATION FROM L1D PREFETCHER ACCESS:   20269779  HIT:   20076071  MISS:     193708  HIT %:    99.0444  MISS %:   0.955649   MPKI: 0.96854
STLB PREFETCH  REQUESTED:          0  ISSUED:          0  USEFUL:     193608  USELESS:        102
STLB USEFUL LOAD PREFETCHES:     193608 PREFETCH ISSUED TO LOWER LEVEL:          0  ACCURACY: inf
STLB TIMELY PREFETCHES:     193608 LATE PREFETCHES: 21076 DROPPED PREFETCHES: 652703
STLB PREFETCHES SAME FILL-ORIGIN LEVEL: 0 DIFFERENT FILL-ORIGIN LEVEL: 0
STLB AVERAGE MISS LATENCY: 178.446 cycles
STLB RQ	ACCESS:   98493699	FORWARD:          0	MERGED:   76549080	TO_CACHE:   21944619

STLB Hit, L1D data hit: 0
STLB Hit, L2C data hit: 0
STLB Hit, LLC data hit: 0
STLB Hit, LLC data miss: 0
STLB STLB hints to L2: 0
L1D TOTAL     ACCESS:  118088933  HIT:  107346378  MISS:   10742555  HIT %:     90.903  MISS %:      9.097   MPKI: 53.7128
L1D LOAD      ACCESS:   42541895  HIT:   36135724  MISS:    6406171  HIT %:    84.9415  MISS %:    15.0585   MPKI: 32.0309
L1D RFO       ACCESS:   43958942  HIT:   43528325  MISS:     430617  HIT %:    99.0204  MISS %:   0.979589   MPKI: 2.15308
L1D PREFETCH  ACCESS:   31588096  HIT:   27682329  MISS:    3905767  HIT %:    87.6353  MISS %:    12.3647   MPKI: 19.5288
L1D PREFETCH  REQUESTED:  319858639  ISSUED:  238799216  USEFUL:    3638702  USELESS:     267082
L1D USEFUL LOAD PREFETCHES:    3638702 PREFETCH ISSUED TO LOWER LEVEL:  262362093  ACCURACY: 1.3869
L1D TIMELY PREFETCHES:    3638702 LATE PREFETCHES: 1183264 DROPPED PREFETCHES: 1593374
L1D PREFETCHES SAME FILL-ORIGIN LEVEL: 18816406 DIFFERENT FILL-ORIGIN LEVEL: 243545687
L1D AVERAGE MISS LATENCY: 366.473 cycles
L1D RQ	ACCESS:   66786047	FORWARD:          0	MERGED:   23867693	TO_CACHE:   42903984
L1D WQ	ACCESS:   46248418	FORWARD:      30894	MERGED:     620335	TO_CACHE:   45628083
L1D PQ	ACCESS:  141019099	FORWARD:          0	MERGED:   43222458	TO_CACHE:   97780117

L1D UNIQUE REGIONS ACCESSED: 0
L1D REGIONS CONFLICTS: 0
L1D Cross Page Prefetch Requests: 21002618
L1D Same Page Prefetch Requests: 146083146
L1D ROI Sum of L1D PQ occupancy: 3392188068
L1D PREFETCHES PUSHED FROM L2C: 0
L1I TOTAL     ACCESS:   47054358  HIT:   47054352  MISS:          6  HIT %:        100  MISS %: 1.27512e-05   MPKI: 3e-05
L1I LOAD      ACCESS:   47054358  HIT:   47054352  MISS:          6  HIT %:        100  MISS %: 1.27512e-05   MPKI: 3e-05
L1I PREFETCH  REQUESTED:          0  ISSUED:          0  USEFUL:          0  USELESS:          0
L1I USEFUL LOAD PREFETCHES:          0 PREFETCH ISSUED TO LOWER LEVEL:          0  ACCURACY: -nan
L1I TIMELY PREFETCHES:          0 LATE PREFETCHES: 0 DROPPED PREFETCHES: 0
L1I PREFETCHES SAME FILL-ORIGIN LEVEL: 0 DIFFERENT FILL-ORIGIN LEVEL: 0
L1I AVERAGE MISS LATENCY: 734.167 cycles
L1I RQ	ACCESS:   64015404	FORWARD:          0	MERGED:   16961046	TO_CACHE:   47054358

BTB TOTAL     ACCESS:   25427285  HIT:   25427246  MISS:         39  HIT %:    99.9998  MISS %: 0.000153379   MPKI: 0.000195
BTB BRANCH_DIRECT_JUMP	ACCESS:    2120381  HIT:    2120375  MISS:          6
BTB BRANCH_INDIRECT	ACCESS:          0  HIT:          0  MISS:          0
BTB BRANCH_CONDITIONAL	ACCESS:   23306423  HIT:   23306395  MISS:         28
BTB BRANCH_DIRECT_CALL	ACCESS:        241  HIT:        238  MISS:          3
BTB BRANCH_INDIRECT_CALL	ACCESS:          0  HIT:          0  MISS:          0
BTB BRANCH_RETURN	ACCESS:        240  HIT:        238  MISS:          2
BTB BRANCH_OTHER ACCESS:          0  HIT:          0  MISS:          0

L2C TOTAL     ACCESS:   50440505  HIT:   35979673  MISS:   14460832  HIT %:    71.3309  MISS %:    28.6691   MPKI: 72.3042
L2C LOAD      ACCESS:    5222867  HIT:    3023278  MISS:    2199589  HIT %:    57.8854  MISS %:    42.1146   MPKI: 10.9979
L2C DATA LOAD MPKI: 10.9979
L2C INSTRUCTION LOAD MPKI: 3e-05
L2C RFO       ACCESS:     430478  HIT:      40242  MISS:     390236  HIT %:    9.34821  MISS %:    90.6518   MPKI: 1.95118
L2C PREFETCH  ACCESS:   42866375  HIT:   31130168  MISS:   11736207  HIT %:    72.6214  MISS %:    27.3786   MPKI: 58.681
L2C DATA PREFETCH MPKI: 58.681
L2C INSTRUCTION PREFETCH MPKI: 0
L2C WRITEBACK ACCESS:     951805  HIT:     858329  MISS:      93476  HIT %:    90.1791  MISS %:    9.82092   MPKI: 0.46738
L2C LOAD TRANSLATION ACCESS:      55035  HIT:      48979  MISS:       6056  HIT %:    88.9961  MISS %:    11.0039   MPKI: 0.03028
L2C TRANSLATION FROM L1D PREFETCHER ACCESS:     913945  HIT:     878677  MISS:      35268  HIT %:    96.1411  MISS %:    3.85888   MPKI: 0.17634
L2C PREFETCH  REQUESTED:          0  ISSUED:          0  USEFUL:    2970067  USELESS:    8803445
L2C USEFUL LOAD PREFETCHES:    2970067 PREFETCH ISSUED TO LOWER LEVEL:   13424700  ACCURACY: 22.1239
L2C TIMELY PREFETCHES:    2970067 LATE PREFETCHES: 1688510 DROPPED PREFETCHES: 0
L2C PREFETCHES SAME FILL-ORIGIN LEVEL: 11133477 DIFFERENT FILL-ORIGIN LEVEL: 0
L2C AVERAGE MISS LATENCY: 878.735 cycles
L2C RQ	ACCESS:    6622379	FORWARD:          0	MERGED:          0	TO_CACHE:    6622328
L2C WQ	ACCESS:     951805	FORWARD:        113	MERGED:          0	TO_CACHE:     951805
L2C PQ	ACCESS:   59696120	FORWARD:          0	MERGED:    2789507	TO_CACHE:   56906551

L2C Instructions Evicting Data 6
L2C Translations Evicting Data 41268
L2C Data Evicting Data 14285115
L2C Instructions Evicting Instructions 0
L2C Translations Evicting Instructions 0
L2C Data Evicting Instructions 5
L2C Instructions Evicting Translations 0
L2C Translations Evicting Translations 56
L2C Data Evicting Translations 40906
L2C Dense regions hint from L2: 0
PSCL5 TOTAL     ACCESS:     922281  HIT:     922281  MISS:          0  HIT %:        100  MISS %:          0   MPKI: 0
PSCL5 LOAD TRANSLATION ACCESS:      54794  HIT:      54794  MISS:          0  HIT %:        100  MISS %:          0   MPKI: 0
PSCL5 TRANSLATION FROM L1D PREFETCHER ACCESS:     867487  HIT:     867487  MISS:          0  HIT %:        100  MISS %:          0   MPKI: 0
PSCL5 PREFETCH  REQUESTED:          0  ISSUED:          0  USEFUL:          0  USELESS:          0
PSCL5 USEFUL LOAD PREFETCHES:          0 PREFETCH ISSUED TO LOWER LEVEL:          0  ACCURACY: -nan
PSCL5 TIMELY PREFETCHES:          0 LATE PREFETCHES: 0 DROPPED PREFETCHES: 0
PSCL5 PREFETCHES SAME FILL-ORIGIN LEVEL: 0 DIFFERENT FILL-ORIGIN LEVEL: 0

PSCL4 TOTAL     ACCESS:     922281  HIT:     922281  MISS:          0  HIT %:        100  MISS %:          0   MPKI: 0
PSCL4 LOAD TRANSLATION ACCESS:      54794  HIT:      54794  MISS:          0  HIT %:        100  MISS %:          0   MPKI: 0
PSCL4 TRANSLATION FROM L1D PREFETCHER ACCESS:     867487  HIT:     867487  MISS:          0  HIT %:        100  MISS %:          0   MPKI: 0
PSCL4 PREFETCH  REQUESTED:          0  ISSUED:          0  USEFUL:          0  USELESS:          0
PSCL4 USEFUL LOAD PREFETCHES:          0 PREFETCH ISSUED TO LOWER LEVEL:          0  ACCURACY: -nan
PSCL4 TIMELY PREFETCHES:          0 LATE PREFETCHES: 0 DROPPED PREFETCHES: 0
PSCL4 PREFETCHES SAME FILL-ORIGIN LEVEL: 0 DIFFERENT FILL-ORIGIN LEVEL: 0

PSCL3 TOTAL     ACCESS:     915914  HIT:     915899  MISS:         15  HIT %:    99.9984  MISS %: 0.00163771   MPKI: 7.5e-05
PSCL3 LOAD TRANSLATION ACCESS:      53775  HIT:      53760  MISS:         15  HIT %:    99.9721  MISS %:   0.027894   MPKI: 7.5e-05
PSCL3 TRANSLATION FROM L1D PREFETCHER ACCESS:     862139  HIT:     862139  MISS:          0  HIT %:        100  MISS %:          0   MPKI: 0
PSCL3 PREFETCH  REQUESTED:          0  ISSUED:          0  USEFUL:          0  USELESS:          0
PSCL3 USEFUL LOAD PREFETCHES:          0 PREFETCH ISSUED TO LOWER LEVEL:          0  ACCURACY: -nan
PSCL3 TIMELY PREFETCHES:          0 LATE PREFETCHES: 0 DROPPED PREFETCHES: 0
PSCL3 PREFETCHES SAME FILL-ORIGIN LEVEL: 0 DIFFERENT FILL-ORIGIN LEVEL: 0

PSCL2 TOTAL     ACCESS:     874665  HIT:     874205  MISS:        460  HIT %:    99.9474  MISS %:  0.0525916   MPKI: 0.0023
PSCL2 LOAD TRANSLATION ACCESS:      54890  HIT:      54430  MISS:        460  HIT %:     99.162  MISS %:    0.83804   MPKI: 0.0023
PSCL2 TRANSLATION FROM L1D PREFETCHER ACCESS:     819775  HIT:     819775  MISS:          0  HIT %:        100  MISS %:          0   MPKI: 0
PSCL2 PREFETCH  REQUESTED:          0  ISSUED:          0  USEFUL:          0  USELESS:          0
PSCL2 USEFUL LOAD PREFETCHES:          0 PREFETCH ISSUED TO LOWER LEVEL:          0  ACCURACY: -nan
PSCL2 TIMELY PREFETCHES:          0 LATE PREFETCHES: 0 DROPPED PREFETCHES: 0
PSCL2 PREFETCHES SAME FILL-ORIGIN LEVEL: 0 DIFFERENT FILL-ORIGIN LEVEL: 0

LLC TOTAL     ACCESS:   15229215  HIT:     319556  MISS:   14909659  HIT %:    2.09831  MISS %:    97.9017   MPKI: 74.5483
LLC LOAD      ACCESS:     515901  HIT:      16250  MISS:     499651  HIT %:    3.14983  MISS %:    96.8502   MPKI: 2.49825
LLC RFO       ACCESS:     385414  HIT:        377  MISS:     385037  HIT %:  0.0978169  MISS %:    99.9022   MPKI: 1.92518
LLC PREFETCH  ACCESS:   13424715  HIT:     215739  MISS:   13208976  HIT %:    1.60703  MISS %:     98.393   MPKI: 66.0449
LLC WRITEBACK ACCESS:     861861  HIT:      84764  MISS:     777097  HIT %:      9.835  MISS %:     90.165   MPKI: 3.88548
LLC LOAD TRANSLATION ACCESS:       6056  HIT:        263  MISS:       5793  HIT %:     4.3428  MISS %:    95.6572   MPKI: 0.028965
LLC TRANSLATION FROM L1D PREFETCHER ACCESS:      35268  HIT:       2163  MISS:      33105  HIT %:    6.13304  MISS %:     93.867   MPKI: 0.165525
LLC PREFETCH  REQUESTED:          0  ISSUED:          0  USEFUL:      44094  USELESS:   49974229
LLC USEFUL LOAD PREFETCHES:      44094 PREFETCH ISSUED TO LOWER LEVEL: 1599938217  ACCURACY: 0.00275598
LLC TIMELY PREFETCHES:      44094 LATE PREFETCHES: 0 DROPPED PREFETCHES: 0
LLC PREFETCHES SAME FILL-ORIGIN LEVEL: 0 DIFFERENT FILL-ORIGIN LEVEL: 0
LLC AVERAGE MISS LATENCY: 2696.67 cycles
LLC RQ	ACCESS:    3787411	FORWARD:          0	MERGED:          0	TO_CACHE:    3787411
LLC WQ	ACCESS:    3444011	FORWARD:          7	MERGED:          0	TO_CACHE:    3444011
LLC PQ	ACCESS:   54333605	FORWARD:          0	MERGED:          0	TO_CACHE:   54333598

LLC Dense regions hint to LLC: 0

RAW hits: 2432386
Loads Generated: 69218439
Loads sent to L1D: 66786047
Stores Generated: 46248413
Stores sent to L1D: 46248418
Major fault: 0 Minor fault: 63874
Allocated PAGES: 266466

DRAM Statistics
 CHANNEL 0
 RQ ROW_BUFFER_HIT:   31229274  ROW_BUFFER_MISS:   22315946
 DBUS_CONGESTED:         17
 WQ ROW_BUFFER_HIT:     347835  ROW_BUFFER_MISS:    3021694  FULL:          0

 AVG_CONGESTED_CYCLE: 5
 All warmup complete: 5
Channel 0 Bank busy for read cycles: 0
Channel 0 Bank busy for write cycles: 0
Channel 0
Rank 0
0banks busy for read cycles: 9907
0banks busy for write cycles: 0
1banks busy for read cycles: 1374719
1banks busy for write cycles: 368560
2banks busy for read cycles: 2548082
2banks busy for write cycles: 368707
3banks busy for read cycles: 4051123
3banks busy for write cycles: 368667
4banks busy for read cycles: 6220399
4banks busy for write cycles: 368967
5banks busy for read cycles: 9607340
5banks busy for write cycles: 405770
6banks busy for read cycles: 16298888
6banks busy for write cycles: 1527022
7banks busy for read cycles: 79935217
7banks busy for write cycles: 14946074
8banks busy for read cycles: 538359498
8banks busy for write cycles: 66291014

CPU 0 Branch Prediction Accuracy: 99.1907% MPKI: 1.0852 Average ROB Occupancy at Mispredict: 232.486
Branch types
NOT_BRANCH: 177715777 86.59%
BRANCH_DIRECT_JUMP: 2119892 1.03289%
BRANCH_INDIRECT: 0 0%
BRANCH_CONDITIONAL: 25402052 12.3769%
BRANCH_DIRECT_CALL: 241 0.000117425%
BRANCH_INDIRECT_CALL: 0 0%
BRANCH_RETURN: 240 0.000116937%
BRANCH_OTHER: 0 0%


CPU 1 Branch Prediction Accuracy: 99.1459% MPKI: 1.10596 Average ROB Occupancy at Mispredict: 232.74
Branch types
NOT_BRANCH: 174620677 87.0502%
BRANCH_DIRECT_JUMP: 2119508 1.0566%
BRANCH_INDIRECT: 0 0%
BRANCH_CONDITIONAL: 23857046 11.893%
BRANCH_DIRECT_CALL: 241 0.000120141%
BRANCH_INDIRECT_CALL: 0 0%
BRANCH_RETURN: 240 0.000119642%
BRANCH_OTHER: 0 0%


CPU 2 Branch Prediction Accuracy: 99.1571% MPKI: 1.09659 Average ROB Occupancy at Mispredict: 232.661
Branch types
NOT_BRANCH: 174519025 86.9353%
BRANCH_DIRECT_JUMP: 2117733 1.05493%
BRANCH_INDIRECT: 0 0%
BRANCH_CONDITIONAL: 24108892 12.0097%
BRANCH_DIRECT_CALL: 239 0.000119056%
BRANCH_INDIRECT_CALL: 0 0%
BRANCH_RETURN: 238 0.000118558%
BRANCH_OTHER: 0 0%


CPU 3 Branch Prediction Accuracy: 99.1418% MPKI: 1.10599 Average ROB Occupancy at Mispredict: 233.276
Branch types
NOT_BRANCH: 174224588 87.1123%
BRANCH_DIRECT_JUMP: 2120381 1.06019%
BRANCH_INDIRECT: 0 0%
BRANCH_CONDITIONAL: 23654524 11.8273%
BRANCH_DIRECT_CALL: 241 0.0001205%
BRANCH_INDIRECT_CALL: 0 0%
BRANCH_RETURN: 240 0.00012%
BRANCH_OTHER: 0 0%

DRAM PAGES: 1048576
Allocated PAGES: 266466
