
*** ChampSim Multicore Out-of-Order Simulator ***

Warmup Instructions: 50000000
Simulation Instructions: 200000000
Number of CPUs: 4
LLC sets: 8192
LLC ways: 16
Off-chip DRAM Size: 4096 MB Channels: 1 Width: 64-bit Data Rate: 6400 MT/s
CPU 0 runs ./traces/cs/cloud9_phase1_core0.trace.xz
.xz
CPU 1 runs ./traces/cs/cloud9_phase1_core1.trace.xz
.xz
CPU 2 runs ./traces/cs/cloud9_phase1_core2.trace.xz
.xz
CPU 3 runs ./traces/cs/cloud9_phase1_core3.trace.xz
.xz
BTB has LRU replacement policy
ITLB has LRU replacement policy
DTLB has LRU replacement policy
STLB has LRU replacement policy
L1I has LRU replacement policy
History Sets: 8
History Ways: 16
BERTI Size: 16
BERTI Stride Size: 8
L1D has LRU replacement policy
Initialize SRRIP state for L2C
Initialize DRRIP state for LLC
BTB has LRU replacement policy
ITLB has LRU replacement policy
DTLB has LRU replacement policy
STLB has LRU replacement policy
L1I has LRU replacement policy
History Sets: 8
History Ways: 16
BERTI Size: 16
BERTI Stride Size: 8
L1D has LRU replacement policy
Initialize SRRIP state for L2C
Initialize DRRIP state for LLC
BTB has LRU replacement policy
ITLB has LRU replacement policy
DTLB has LRU replacement policy
STLB has LRU replacement policy
L1I has LRU replacement policy
History Sets: 8
History Ways: 16
BERTI Size: 16
BERTI Stride Size: 8
L1D has LRU replacement policy
Initialize SRRIP state for L2C
Initialize DRRIP state for LLC
BTB has LRU replacement policy
ITLB has LRU replacement policy
DTLB has LRU replacement policy
STLB has LRU replacement policy
L1I has LRU replacement policy
History Sets: 8
History Ways: 16
BERTI Size: 16
BERTI Stride Size: 8
L1D has LRU replacement policy
Initialize SRRIP state for L2C
Initialize DRRIP state for LLC
UNIQUE_ASID[0] = €
UNIQUE_ASID[1] = 
Heartbeat CPU 0 instructions: 10000000 cycles: 3263327 heartbeat IPC: 3.06436 cumulative IPC: 3.06436 (Simulation time: 0 hr 1 min 53 sec) 
Heartbeat CPU 1 instructions: 10000003 cycles: 3359931 heartbeat IPC: 2.97625 cumulative IPC: 2.97625 (Simulation time: 0 hr 1 min 56 sec) 
Heartbeat CPU 2 instructions: 10000003 cycles: 3360735 heartbeat IPC: 2.97554 cumulative IPC: 2.97554 (Simulation time: 0 hr 1 min 56 sec) 
Heartbeat CPU 3 instructions: 10000000 cycles: 3884767 heartbeat IPC: 2.57416 cumulative IPC: 2.57416 (Simulation time: 0 hr 2 min 13 sec) 
Heartbeat CPU 0 instructions: 20000002 cycles: 6673152 heartbeat IPC: 2.9327 cumulative IPC: 2.99708 (Simulation time: 0 hr 3 min 41 sec) 
Heartbeat CPU 1 instructions: 20000000 cycles: 6707990 heartbeat IPC: 2.9868 cumulative IPC: 2.98152 (Simulation time: 0 hr 3 min 42 sec) 
Heartbeat CPU 2 instructions: 20000001 cycles: 6712117 heartbeat IPC: 2.98384 cumulative IPC: 2.97969 (Simulation time: 0 hr 3 min 43 sec) 
Heartbeat CPU 3 instructions: 20000000 cycles: 7677898 heartbeat IPC: 2.63634 cumulative IPC: 2.60488 (Simulation time: 0 hr 4 min 9 sec) 
Heartbeat CPU 1 instructions: 30000000 cycles: 10049430 heartbeat IPC: 2.99272 cumulative IPC: 2.98524 (Simulation time: 0 hr 5 min 22 sec) 
Heartbeat CPU 2 instructions: 30000000 cycles: 10075722 heartbeat IPC: 2.973 cumulative IPC: 2.97745 (Simulation time: 0 hr 5 min 23 sec) 
Heartbeat CPU 0 instructions: 30000002 cycles: 10088173 heartbeat IPC: 2.92824 cumulative IPC: 2.97378 (Simulation time: 0 hr 5 min 23 sec) 
Heartbeat CPU 3 instructions: 30000002 cycles: 11577546 heartbeat IPC: 2.56433 cumulative IPC: 2.59122 (Simulation time: 0 hr 6 min 21 sec) 
Heartbeat CPU 1 instructions: 40000000 cycles: 13383609 heartbeat IPC: 2.99924 cumulative IPC: 2.98873 (Simulation time: 0 hr 7 min 34 sec) 
Heartbeat CPU 2 instructions: 40000003 cycles: 13417639 heartbeat IPC: 2.9923 cumulative IPC: 2.98115 (Simulation time: 0 hr 7 min 35 sec) 
Heartbeat CPU 0 instructions: 40000001 cycles: 13462424 heartbeat IPC: 2.96362 cumulative IPC: 2.97123 (Simulation time: 0 hr 7 min 37 sec) 
Heartbeat CPU 3 instructions: 40000001 cycles: 15412715 heartbeat IPC: 2.60745 cumulative IPC: 2.59526 (Simulation time: 0 hr 8 min 55 sec) 
Heartbeat CPU 1 instructions: 50000003 cycles: 16707885 heartbeat IPC: 3.00817 cumulative IPC: 2.9926 (Simulation time: 0 hr 9 min 46 sec) 
Heartbeat CPU 2 instructions: 50000001 cycles: 16796031 heartbeat IPC: 2.95999 cumulative IPC: 2.97689 (Simulation time: 0 hr 9 min 49 sec) 
Heartbeat CPU 0 instructions: 50000003 cycles: 16908584 heartbeat IPC: 2.90178 cumulative IPC: 2.95708 (Simulation time: 0 hr 9 min 54 sec) 
Heartbeat CPU 3 instructions: 50000000 cycles: 19260658 heartbeat IPC: 2.59879 cumulative IPC: 2.59597 (Simulation time: 0 hr 11 min 20 sec) 

Warmup complete CPU 0 instructions: 56878086 cycles: 19260659 (Simulation time: 0 hr 11 min 20 sec) 
Warmup complete CPU 1 instructions: 57569554 cycles: 19260659 (Simulation time: 0 hr 11 min 20 sec) 
Warmup complete CPU 2 instructions: 57030234 cycles: 19260659 (Simulation time: 0 hr 11 min 20 sec) 
Warmup complete CPU 3 instructions: 50000004 cycles: 19260659 (Simulation time: 0 hr 11 min 20 sec) 

Heartbeat CPU 1 instructions: 60000000 cycles: 22523542 heartbeat IPC: 1.7195 cumulative IPC: 0.744877 (Simulation time: 0 hr 12 min 8 sec) 
Heartbeat CPU 0 instructions: 60000001 cycles: 23372485 heartbeat IPC: 1.54705 cumulative IPC: 0.759253 (Simulation time: 0 hr 12 min 24 sec) 
Heartbeat CPU 2 instructions: 60000002 cycles: 23620797 heartbeat IPC: 1.46525 cumulative IPC: 0.681118 (Simulation time: 0 hr 12 min 28 sec) 
Heartbeat CPU 1 instructions: 70000002 cycles: 35916313 heartbeat IPC: 0.746672 cumulative IPC: 0.74632 (Simulation time: 0 hr 15 min 43 sec) 
Heartbeat CPU 3 instructions: 60000000 cycles: 36285346 heartbeat IPC: 0.587382 cumulative IPC: 0.587382 (Simulation time: 0 hr 15 min 48 sec) 
Heartbeat CPU 0 instructions: 70000001 cycles: 36412364 heartbeat IPC: 0.766878 cumulative IPC: 0.76505 (Simulation time: 0 hr 15 min 49 sec) 
Heartbeat CPU 2 instructions: 70000000 cycles: 38632593 heartbeat IPC: 0.666143 cumulative IPC: 0.669513 (Simulation time: 0 hr 16 min 15 sec) 
Heartbeat CPU 1 instructions: 80000001 cycles: 49260183 heartbeat IPC: 0.749408 cumulative IPC: 0.747693 (Simulation time: 0 hr 18 min 19 sec) 
Heartbeat CPU 0 instructions: 80000000 cycles: 49636452 heartbeat IPC: 0.756196 cumulative IPC: 0.761195 (Simulation time: 0 hr 18 min 24 sec) 
Heartbeat CPU 3 instructions: 70000003 cycles: 52952815 heartbeat IPC: 0.599971 cumulative IPC: 0.59361 (Simulation time: 0 hr 19 min 3 sec) 
Heartbeat CPU 2 instructions: 80000000 cycles: 53927147 heartbeat IPC: 0.653827 cumulative IPC: 0.662593 (Simulation time: 0 hr 19 min 14 sec) 
Heartbeat CPU 1 instructions: 90000000 cycles: 62598757 heartbeat IPC: 0.749705 cumulative IPC: 0.748313 (Simulation time: 0 hr 21 min 2 sec) 
Heartbeat CPU 0 instructions: 90000000 cycles: 66372648 heartbeat IPC: 0.597507 cumulative IPC: 0.703046 (Simulation time: 0 hr 21 min 46 sec) 
Heartbeat CPU 2 instructions: 90000000 cycles: 69257028 heartbeat IPC: 0.652321 cumulative IPC: 0.659443 (Simulation time: 0 hr 22 min 25 sec) 
Heartbeat CPU 3 instructions: 80000000 cycles: 70226803 heartbeat IPC: 0.578905 cumulative IPC: 0.588626 (Simulation time: 0 hr 22 min 42 sec) 
Heartbeat CPU 1 instructions: 100000002 cycles: 75882469 heartbeat IPC: 0.752802 cumulative IPC: 0.749366 (Simulation time: 0 hr 24 min 17 sec) 
Heartbeat CPU 0 instructions: 100000002 cycles: 83209595 heartbeat IPC: 0.593932 cumulative IPC: 0.674318 (Simulation time: 0 hr 26 min 19 sec) 
Heartbeat CPU 2 instructions: 100000000 cycles: 84852265 heartbeat IPC: 0.641221 cumulative IPC: 0.655111 (Simulation time: 0 hr 26 min 46 sec) 
Heartbeat CPU 3 instructions: 90000002 cycles: 87795526 heartbeat IPC: 0.569193 cumulative IPC: 0.583645 (Simulation time: 0 hr 27 min 25 sec) 
Heartbeat CPU 1 instructions: 110000000 cycles: 89340615 heartbeat IPC: 0.743044 cumulative IPC: 0.748152 (Simulation time: 0 hr 27 min 43 sec) 
Heartbeat CPU 2 instructions: 110000000 cycles: 99499652 heartbeat IPC: 0.682716 cumulative IPC: 0.66015 (Simulation time: 0 hr 30 min 23 sec) 
Heartbeat CPU 1 instructions: 120000001 cycles: 102770564 heartbeat IPC: 0.744605 cumulative IPC: 0.747581 (Simulation time: 0 hr 30 min 57 sec) 
Heartbeat CPU 3 instructions: 100000000 cycles: 104367160 heartbeat IPC: 0.603441 cumulative IPC: 0.587499 (Simulation time: 0 hr 31 min 13 sec) 
Heartbeat CPU 0 instructions: 110000000 cycles: 104655519 heartbeat IPC: 0.466289 cumulative IPC: 0.622074 (Simulation time: 0 hr 31 min 16 sec) 
Heartbeat CPU 2 instructions: 120000000 cycles: 114277645 heartbeat IPC: 0.676682 cumulative IPC: 0.662721 (Simulation time: 0 hr 33 min 37 sec) 
Heartbeat CPU 1 instructions: 130000000 cycles: 116386599 heartbeat IPC: 0.734428 cumulative IPC: 0.745737 (Simulation time: 0 hr 34 min 9 sec) 
Heartbeat CPU 3 instructions: 110000000 cycles: 120371270 heartbeat IPC: 0.624839 cumulative IPC: 0.593409 (Simulation time: 0 hr 35 min 13 sec) 
Heartbeat CPU 0 instructions: 120000003 cycles: 127549425 heartbeat IPC: 0.436798 cumulative IPC: 0.582904 (Simulation time: 0 hr 36 min 53 sec) 
Heartbeat CPU 2 instructions: 130000000 cycles: 129045772 heartbeat IPC: 0.677134 cumulative IPC: 0.66466 (Simulation time: 0 hr 37 min 15 sec) 
Heartbeat CPU 1 instructions: 140000002 cycles: 129586329 heartbeat IPC: 0.757591 cumulative IPC: 0.747156 (Simulation time: 0 hr 37 min 22 sec) 
Heartbeat CPU 3 instructions: 120000000 cycles: 137563829 heartbeat IPC: 0.581647 cumulative IPC: 0.5917 (Simulation time: 0 hr 39 min 3 sec) 
Heartbeat CPU 1 instructions: 150000001 cycles: 142710853 heartbeat IPC: 0.761932 cumulative IPC: 0.748727 (Simulation time: 0 hr 40 min 1 sec) 
Heartbeat CPU 2 instructions: 140000002 cycles: 143758161 heartbeat IPC: 0.679699 cumulative IPC: 0.666437 (Simulation time: 0 hr 40 min 13 sec) 
Heartbeat CPU 0 instructions: 130000000 cycles: 150631892 heartbeat IPC: 0.433229 cumulative IPC: 0.556605 (Simulation time: 0 hr 41 min 35 sec) 
Heartbeat CPU 3 instructions: 130000003 cycles: 154556255 heartbeat IPC: 0.588498 cumulative IPC: 0.591298 (Simulation time: 0 hr 42 min 24 sec) 
Heartbeat CPU 1 instructions: 160000000 cycles: 156183573 heartbeat IPC: 0.742241 cumulative IPC: 0.748088 (Simulation time: 0 hr 42 min 46 sec) 
Heartbeat CPU 2 instructions: 150000003 cycles: 158680009 heartbeat IPC: 0.670158 cumulative IPC: 0.666835 (Simulation time: 0 hr 43 min 23 sec) 
Heartbeat CPU 1 instructions: 170000000 cycles: 169620150 heartbeat IPC: 0.744237 cumulative IPC: 0.747744 (Simulation time: 0 hr 46 min 7 sec) 
Heartbeat CPU 0 instructions: 140000003 cycles: 170889787 heartbeat IPC: 0.493635 cumulative IPC: 0.548192 (Simulation time: 0 hr 46 min 26 sec) 
Heartbeat CPU 3 instructions: 140000000 cycles: 171626538 heartbeat IPC: 0.585813 cumulative IPC: 0.590683 (Simulation time: 0 hr 46 min 37 sec) 
Heartbeat CPU 2 instructions: 160000002 cycles: 173538021 heartbeat IPC: 0.673037 cumulative IPC: 0.667433 (Simulation time: 0 hr 47 min 2 sec) 
Heartbeat CPU 1 instructions: 180000003 cycles: 183090984 heartbeat IPC: 0.742345 cumulative IPC: 0.7473 (Simulation time: 0 hr 48 min 53 sec) 
Heartbeat CPU 2 instructions: 170000000 cycles: 188682820 heartbeat IPC: 0.660293 cumulative IPC: 0.666794 (Simulation time: 0 hr 49 min 52 sec) 
Heartbeat CPU 3 instructions: 150000002 cycles: 189207740 heartbeat IPC: 0.568789 cumulative IPC: 0.588418 (Simulation time: 0 hr 49 min 58 sec) 
Heartbeat CPU 0 instructions: 150000002 cycles: 192893656 heartbeat IPC: 0.454465 cumulative IPC: 0.536315 (Simulation time: 0 hr 50 min 40 sec) 
Heartbeat CPU 1 instructions: 190000002 cycles: 196472976 heartbeat IPC: 0.747273 cumulative IPC: 0.747298 (Simulation time: 0 hr 51 min 21 sec) 
Heartbeat CPU 2 instructions: 180000000 cycles: 204039573 heartbeat IPC: 0.651179 cumulative IPC: 0.665497 (Simulation time: 0 hr 52 min 53 sec) 
Heartbeat CPU 0 instructions: 160000001 cycles: 206222682 heartbeat IPC: 0.750242 cumulative IPC: 0.551566 (Simulation time: 0 hr 53 min 29 sec) 
Heartbeat CPU 3 instructions: 160000001 cycles: 206236119 heartbeat IPC: 0.587255 cumulative IPC: 0.588313 (Simulation time: 0 hr 53 min 30 sec) 
Heartbeat CPU 1 instructions: 200000002 cycles: 209735512 heartbeat IPC: 0.754004 cumulative IPC: 0.747765 (Simulation time: 0 hr 54 min 30 sec) 
Heartbeat CPU 0 instructions: 170000003 cycles: 219224731 heartbeat IPC: 0.76911 cumulative IPC: 0.565711 (Simulation time: 0 hr 56 min 27 sec) 
Heartbeat CPU 2 instructions: 190000000 cycles: 219297508 heartbeat IPC: 0.655397 cumulative IPC: 0.664726 (Simulation time: 0 hr 56 min 28 sec) 
Heartbeat CPU 3 instructions: 170000000 cycles: 222826179 heartbeat IPC: 0.602771 cumulative IPC: 0.589491 (Simulation time: 0 hr 57 min 17 sec) 
Heartbeat CPU 1 instructions: 210000000 cycles: 223159482 heartbeat IPC: 0.744936 cumulative IPC: 0.747579 (Simulation time: 0 hr 57 min 23 sec) 
Heartbeat CPU 0 instructions: 180000003 cycles: 232400820 heartbeat IPC: 0.758951 cumulative IPC: 0.577657 (Simulation time: 0 hr 59 min 49 sec) 
Heartbeat CPU 2 instructions: 200000000 cycles: 234773456 heartbeat IPC: 0.646164 cumulative IPC: 0.663393 (Simulation time: 1 hr 0 min 17 sec) 
Heartbeat CPU 1 instructions: 220000000 cycles: 236513297 heartbeat IPC: 0.74885 cumulative IPC: 0.747657 (Simulation time: 1 hr 0 min 38 sec) 
Heartbeat CPU 3 instructions: 180000000 cycles: 239900610 heartbeat IPC: 0.585671 cumulative IPC: 0.589195 (Simulation time: 1 hr 1 min 19 sec) 
Heartbeat CPU 0 instructions: 190000000 cycles: 249089274 heartbeat IPC: 0.599217 cumulative IPC: 0.579223 (Simulation time: 1 hr 3 min 6 sec) 
Heartbeat CPU 2 instructions: 210000000 cycles: 249335019 heartbeat IPC: 0.686739 cumulative IPC: 0.664871 (Simulation time: 1 hr 3 min 8 sec) 
Heartbeat CPU 1 instructions: 230000001 cycles: 249999090 heartbeat IPC: 0.741521 cumulative IPC: 0.747298 (Simulation time: 1 hr 3 min 18 sec) 
Heartbeat CPU 3 instructions: 190000001 cycles: 257341094 heartbeat IPC: 0.573379 cumulative IPC: 0.588037 (Simulation time: 1 hr 5 min 21 sec) 
Heartbeat CPU 1 instructions: 240000001 cycles: 263153760 heartbeat IPC: 0.760186 cumulative IPC: 0.747993 (Simulation time: 1 hr 6 min 58 sec) 
Heartbeat CPU 2 instructions: 220000000 cycles: 264028593 heartbeat IPC: 0.68057 cumulative IPC: 0.665813 (Simulation time: 1 hr 7 min 13 sec) 
Heartbeat CPU 0 instructions: 200000001 cycles: 265972638 heartbeat IPC: 0.592299 cumulative IPC: 0.580117 (Simulation time: 1 hr 7 min 46 sec) 
Heartbeat CPU 3 instructions: 200000002 cycles: 273851341 heartbeat IPC: 0.605685 cumulative IPC: 0.589181 (Simulation time: 1 hr 9 min 37 sec) 
Heartbeat CPU 1 instructions: 250000000 cycles: 276280375 heartbeat IPC: 0.761811 cumulative IPC: 0.748699 (Simulation time: 1 hr 10 min 17 sec) 
Heartbeat CPU 2 instructions: 230000000 cycles: 278768945 heartbeat IPC: 0.67841 cumulative IPC: 0.666529 (Simulation time: 1 hr 10 min 56 sec) 
Finished CPU 1 instructions: 200000000 cycles: 267174068 cumulative IPC: 0.748576 (Simulation time: 1 hr 12 min 44 sec) 
Heartbeat CPU 0 instructions: 210000003 cycles: 287346058 heartbeat IPC: 0.467871 cumulative IPC: 0.571168 (Simulation time: 1 hr 12 min 59 sec) 
Heartbeat CPU 1 instructions: 260000003 cycles: 289696678 heartbeat IPC: 0.745362 cumulative IPC: 0.748534 (Simulation time: 1 hr 13 min 36 sec) 
Heartbeat CPU 3 instructions: 210000002 cycles: 290016612 heartbeat IPC: 0.61861 cumulative IPC: 0.590938 (Simulation time: 1 hr 13 min 42 sec) 
Heartbeat CPU 2 instructions: 240000001 cycles: 293422316 heartbeat IPC: 0.682437 cumulative IPC: 0.667379 (Simulation time: 1 hr 14 min 35 sec) 
Heartbeat CPU 1 instructions: 270000002 cycles: 303134002 heartbeat IPC: 0.744196 cumulative IPC: 0.748328 (Simulation time: 1 hr 16 min 55 sec) 
Heartbeat CPU 3 instructions: 220000000 cycles: 307155321 heartbeat IPC: 0.583474 cumulative IPC: 0.590494 (Simulation time: 1 hr 17 min 58 sec) 
Heartbeat CPU 2 instructions: 250000003 cycles: 308336982 heartbeat IPC: 0.670481 cumulative IPC: 0.667539 (Simulation time: 1 hr 18 min 15 sec) 
Heartbeat CPU 0 instructions: 220000000 cycles: 310241639 heartbeat IPC: 0.436765 cumulative IPC: 0.560593 (Simulation time: 1 hr 18 min 37 sec) 
Heartbeat CPU 1 instructions: 280000000 cycles: 316583258 heartbeat IPC: 0.743535 cumulative IPC: 0.748111 (Simulation time: 1 hr 19 min 48 sec) 
Finished CPU 2 instructions: 200000003 cycles: 299501701 cumulative IPC: 0.667776 (Simulation time: 1 hr 20 min 20 sec) 
Heartbeat CPU 2 instructions: 260000002 cycles: 323163316 heartbeat IPC: 0.674475 cumulative IPC: 0.667878 (Simulation time: 1 hr 21 min 32 sec) 
Heartbeat CPU 3 instructions: 230000000 cycles: 324135065 heartbeat IPC: 0.588937 cumulative IPC: 0.590407 (Simulation time: 1 hr 21 min 48 sec) 
Heartbeat CPU 1 instructions: 290000000 cycles: 329969161 heartbeat IPC: 0.747055 cumulative IPC: 0.748066 (Simulation time: 1 hr 23 min 23 sec) 
Heartbeat CPU 0 instructions: 230000001 cycles: 333388946 heartbeat IPC: 0.432016 cumulative IPC: 0.551118 (Simulation time: 1 hr 24 min 7 sec) 
Heartbeat CPU 2 instructions: 270000000 cycles: 338260511 heartbeat IPC: 0.662375 cumulative IPC: 0.667617 (Simulation time: 1 hr 25 min 4 sec) 
Heartbeat CPU 3 instructions: 240000000 cycles: 341172807 heartbeat IPC: 0.586932 cumulative IPC: 0.590223 (Simulation time: 1 hr 25 min 40 sec) 
Heartbeat CPU 1 instructions: 300000002 cycles: 343271549 heartbeat IPC: 0.751745 cumulative IPC: 0.748217 (Simulation time: 1 hr 26 min 6 sec) 
Heartbeat CPU 0 instructions: 240000002 cycles: 353641291 heartbeat IPC: 0.49377 cumulative IPC: 0.547645 (Simulation time: 1 hr 28 min 43 sec) 
Heartbeat CPU 2 instructions: 280000002 cycles: 353694128 heartbeat IPC: 0.647936 cumulative IPC: 0.666709 (Simulation time: 1 hr 28 min 44 sec) 
Heartbeat CPU 1 instructions: 310000002 cycles: 356738197 heartbeat IPC: 0.742575 cumulative IPC: 0.747992 (Simulation time: 1 hr 29 min 16 sec) 
Heartbeat CPU 3 instructions: 250000000 cycles: 358743637 heartbeat IPC: 0.569125 cumulative IPC: 0.589131 (Simulation time: 1 hr 29 min 37 sec) 
Finished CPU 3 instructions: 200000001 cycles: 339482980 cumulative IPC: 0.589131 (Simulation time: 1 hr 29 min 37 sec) 
Heartbeat CPU 2 instructions: 290000000 cycles: 369079066 heartbeat IPC: 0.649986 cumulative IPC: 0.665973 (Simulation time: 1 hr 31 min 48 sec) 
Heartbeat CPU 1 instructions: 320000001 cycles: 370162675 heartbeat IPC: 0.744908 cumulative IPC: 0.747874 (Simulation time: 1 hr 32 min 5 sec) 
Heartbeat CPU 0 instructions: 250000002 cycles: 375499785 heartbeat IPC: 0.457488 cumulative IPC: 0.542113 (Simulation time: 1 hr 33 min 28 sec) 
Heartbeat CPU 3 instructions: 260000001 cycles: 375864102 heartbeat IPC: 0.584096 cumulative IPC: 0.588889 (Simulation time: 1 hr 33 min 34 sec) 
Heartbeat CPU 1 instructions: 330000000 cycles: 383725804 heartbeat IPC: 0.737293 cumulative IPC: 0.74748 (Simulation time: 1 hr 35 min 19 sec) 
Heartbeat CPU 2 instructions: 300000000 cycles: 384651932 heartbeat IPC: 0.642143 cumulative IPC: 0.664958 (Simulation time: 1 hr 35 min 30 sec) 
Finished CPU 0 instructions: 200000000 cycles: 365399821 cumulative IPC: 0.547346 (Simulation time: 1 hr 35 min 30 sec) 

ChampSim completed all CPUs

Total Simulation Statistics (not including warmup)

CPU 0 cumulative IPC: 0.547346 instructions: 200000000 cycles: 365399821
ITLB TOTAL     ACCESS:   37917873  HIT:   29572403  MISS:    8345470  HIT %:    77.9907  MISS %:    22.0093   MPKI: 41.7274
ITLB LOAD      ACCESS:          0  HIT:          0  MISS:          0  HIT %:       -nan  MISS %:       -nan   MPKI: 0
ITLB RFO       ACCESS:          0  HIT:          0  MISS:          0  HIT %:       -nan  MISS %:       -nan   MPKI: 0
ITLB PREFETCH  ACCESS:          0  HIT:          0  MISS:          0  HIT %:       -nan  MISS %:       -nan   MPKI: 0
ITLB WRITEBACK ACCESS:          0  HIT:          0  MISS:          0  HIT %:       -nan  MISS %:       -nan   MPKI: 0
DTLB TOTAL     ACCESS:   26350890  HIT:   15479153  MISS:   10871737  HIT %:    58.7424  MISS %:    41.2576   MPKI: 54.3587
DTLB LOAD      ACCESS:          0  HIT:          0  MISS:          0  HIT %:       -nan  MISS %:       -nan   MPKI: 0
DTLB RFO       ACCESS:          0  HIT:          0  MISS:          0  HIT %:       -nan  MISS %:       -nan   MPKI: 0
DTLB PREFETCH  ACCESS:          0  HIT:          0  MISS:          0  HIT %:       -nan  MISS %:       -nan   MPKI: 0
DTLB WRITEBACK ACCESS:          0  HIT:          0  MISS:          0  HIT %:       -nan  MISS %:       -nan   MPKI: 0
STLB TOTAL     ACCESS:   23727771  HIT:    8143732  MISS:   15584039  HIT %:    34.3215  MISS %:    65.6785   MPKI: 77.9202
STLB LOAD      ACCESS:          0  HIT:          0  MISS:          0  HIT %:       -nan  MISS %:       -nan   MPKI: 0
STLB RFO       ACCESS:          0  HIT:          0  MISS:          0  HIT %:       -nan  MISS %:       -nan   MPKI: 0
STLB PREFETCH  ACCESS:          0  HIT:          0  MISS:          0  HIT %:       -nan  MISS %:       -nan   MPKI: 0
STLB WRITEBACK ACCESS:          0  HIT:          0  MISS:          0  HIT %:       -nan  MISS %:       -nan   MPKI: 0
L1D TOTAL     ACCESS:   41673841  HIT:   39567616  MISS:    2106225  HIT %:    94.9459  MISS %:    5.05407   MPKI: 10.5311
L1D LOAD      ACCESS:   19192004  HIT:   17787102  MISS:    1404902  HIT %:    92.6798  MISS %:    7.32025   MPKI: 7.02451
L1D RFO       ACCESS:   13035379  HIT:   12659437  MISS:     375942  HIT %:     97.116  MISS %:    2.88401   MPKI: 1.87971
L1D PREFETCH  ACCESS:    9446458  HIT:    9121077  MISS:     325381  HIT %:    96.5555  MISS %:    3.44448   MPKI: 1.62691
L1D WRITEBACK ACCESS:          0  HIT:          0  MISS:          0  HIT %:       -nan  MISS %:       -nan   MPKI: 0
L1I TOTAL     ACCESS:   45997170  HIT:   45953866  MISS:      43304  HIT %:    99.9059  MISS %:  0.0941449   MPKI: 0.21652
L1I LOAD      ACCESS:   45997170  HIT:   45953866  MISS:      43304  HIT %:    99.9059  MISS %:  0.0941449   MPKI: 0.21652
L1I RFO       ACCESS:          0  HIT:          0  MISS:          0  HIT %:       -nan  MISS %:       -nan   MPKI: 0
L1I PREFETCH  ACCESS:          0  HIT:          0  MISS:          0  HIT %:       -nan  MISS %:       -nan   MPKI: 0
L1I WRITEBACK ACCESS:          0  HIT:          0  MISS:          0  HIT %:       -nan  MISS %:       -nan   MPKI: 0
L2C TOTAL     ACCESS:   23790183  HIT:   22354568  MISS:    1435615  HIT %:    93.9655  MISS %:    6.03448   MPKI: 7.17807
L2C LOAD      ACCESS:    1447620  HIT:     628807  MISS:     818813  HIT %:    43.4373  MISS %:    56.5627   MPKI: 4.09406
L2C RFO       ACCESS:     375926  HIT:     275099  MISS:     100827  HIT %:     73.179  MISS %:     26.821   MPKI: 0.504135
L2C PREFETCH  ACCESS:    4367404  HIT:    3980202  MISS:     387202  HIT %:    91.1343  MISS %:    8.86572   MPKI: 1.93601
L2C WRITEBACK ACCESS:    1357690  HIT:    1293148  MISS:      64542  HIT %:    95.2462  MISS %:    4.75381   MPKI: 0.32271
PSCL5 TOTAL     ACCESS:   15678580  HIT:   15678580  MISS:          0  HIT %:        100  MISS %:          0   MPKI: 0
PSCL5 LOAD      ACCESS:          0  HIT:          0  MISS:          0  HIT %:       -nan  MISS %:       -nan   MPKI: 0
PSCL5 RFO       ACCESS:          0  HIT:          0  MISS:          0  HIT %:       -nan  MISS %:       -nan   MPKI: 0
PSCL5 PREFETCH  ACCESS:          0  HIT:          0  MISS:          0  HIT %:       -nan  MISS %:       -nan   MPKI: 0
PSCL5 WRITEBACK ACCESS:          0  HIT:          0  MISS:          0  HIT %:       -nan  MISS %:       -nan   MPKI: 0
PSCL4 TOTAL     ACCESS:   15678580  HIT:   15678580  MISS:          0  HIT %:        100  MISS %:          0   MPKI: 0
PSCL4 LOAD      ACCESS:          0  HIT:          0  MISS:          0  HIT %:       -nan  MISS %:       -nan   MPKI: 0
PSCL4 RFO       ACCESS:          0  HIT:          0  MISS:          0  HIT %:       -nan  MISS %:       -nan   MPKI: 0
PSCL4 PREFETCH  ACCESS:          0  HIT:          0  MISS:          0  HIT %:       -nan  MISS %:       -nan   MPKI: 0
PSCL4 WRITEBACK ACCESS:          0  HIT:          0  MISS:          0  HIT %:       -nan  MISS %:       -nan   MPKI: 0
PSCL3 TOTAL     ACCESS:   15667411  HIT:   15667341  MISS:         70  HIT %:    99.9996  MISS %: 0.000446787   MPKI: 0.00035
PSCL3 LOAD      ACCESS:          0  HIT:          0  MISS:          0  HIT %:       -nan  MISS %:       -nan   MPKI: 0
PSCL3 RFO       ACCESS:          0  HIT:          0  MISS:          0  HIT %:       -nan  MISS %:       -nan   MPKI: 0
PSCL3 PREFETCH  ACCESS:          0  HIT:          0  MISS:          0  HIT %:       -nan  MISS %:       -nan   MPKI: 0
PSCL3 WRITEBACK ACCESS:          0  HIT:          0  MISS:          0  HIT %:       -nan  MISS %:       -nan   MPKI: 0
PSCL2 TOTAL     ACCESS:   15667300  HIT:   15104645  MISS:     562655  HIT %:    96.4087  MISS %:    3.59127   MPKI: 2.81327
PSCL2 LOAD      ACCESS:          0  HIT:          0  MISS:          0  HIT %:       -nan  MISS %:       -nan   MPKI: 0
PSCL2 RFO       ACCESS:          0  HIT:          0  MISS:          0  HIT %:       -nan  MISS %:       -nan   MPKI: 0
PSCL2 PREFETCH  ACCESS:          0  HIT:          0  MISS:          0  HIT %:       -nan  MISS %:       -nan   MPKI: 0
PSCL2 WRITEBACK ACCESS:          0  HIT:          0  MISS:          0  HIT %:       -nan  MISS %:       -nan   MPKI: 0
LLC TOTAL     ACCESS:    2181377  HIT:    1342073  MISS:     839304  HIT %:    61.5241  MISS %:    38.4759   MPKI: 4.19652
LLC LOAD      ACCESS:     817272  HIT:     280255  MISS:     537017  HIT %:    34.2915  MISS %:    65.7085   MPKI: 2.68508
LLC RFO       ACCESS:     100660  HIT:      61521  MISS:      39139  HIT %:    61.1176  MISS %:    38.8824   MPKI: 0.195695
LLC PREFETCH  ACCESS:     388908  HIT:     147212  MISS:     241696  HIT %:    37.8527  MISS %:    62.1473   MPKI: 1.20848
LLC WRITEBACK ACCESS:     810306  HIT:     795324  MISS:      14982  HIT %:    98.1511  MISS %:    1.84893   MPKI: 0.07491

RAW hits: 4522753
Loads Generated: 34933533
Loads sent to L1D: 30410779
Stores Generated: 14777102
Stores sent to L1D: 14777107

CPU 1 cumulative IPC: 0.747507 instructions: 273138944 cycles: 365399821
ITLB TOTAL     ACCESS:   51585686  HIT:   39382803  MISS:   12202883  HIT %:    76.3444  MISS %:    23.6556   MPKI: 44.6765
ITLB LOAD      ACCESS:          0  HIT:          0  MISS:          0  HIT %:       -nan  MISS %:       -nan   MPKI: 0
ITLB RFO       ACCESS:          0  HIT:          0  MISS:          0  HIT %:       -nan  MISS %:       -nan   MPKI: 0
ITLB PREFETCH  ACCESS:          0  HIT:          0  MISS:          0  HIT %:       -nan  MISS %:       -nan   MPKI: 0
ITLB WRITEBACK ACCESS:          0  HIT:          0  MISS:          0  HIT %:       -nan  MISS %:       -nan   MPKI: 0
DTLB TOTAL     ACCESS:   32709559  HIT:   19174924  MISS:   13534635  HIT %:    58.6218  MISS %:    41.3782   MPKI: 49.5522
DTLB LOAD      ACCESS:          0  HIT:          0  MISS:          0  HIT %:       -nan  MISS %:       -nan   MPKI: 0
DTLB RFO       ACCESS:          0  HIT:          0  MISS:          0  HIT %:       -nan  MISS %:       -nan   MPKI: 0
DTLB PREFETCH  ACCESS:          0  HIT:          0  MISS:          0  HIT %:       -nan  MISS %:       -nan   MPKI: 0
DTLB WRITEBACK ACCESS:          0  HIT:          0  MISS:          0  HIT %:       -nan  MISS %:       -nan   MPKI: 0
STLB TOTAL     ACCESS:   31398675  HIT:   10297133  MISS:   21101542  HIT %:    32.7948  MISS %:    67.2052   MPKI: 77.2557
STLB LOAD      ACCESS:          0  HIT:          0  MISS:          0  HIT %:       -nan  MISS %:       -nan   MPKI: 0
STLB RFO       ACCESS:          0  HIT:          0  MISS:          0  HIT %:       -nan  MISS %:       -nan   MPKI: 0
STLB PREFETCH  ACCESS:          0  HIT:          0  MISS:          0  HIT %:       -nan  MISS %:       -nan   MPKI: 0
STLB WRITEBACK ACCESS:          0  HIT:          0  MISS:          0  HIT %:       -nan  MISS %:       -nan   MPKI: 0
L1D TOTAL     ACCESS:   50550257  HIT:   49976415  MISS:     573842  HIT %:    98.8648  MISS %:    1.13519   MPKI: 2.10092
L1D LOAD      ACCESS:   24298373  HIT:   23981841  MISS:     316532  HIT %:    98.6973  MISS %:    1.30269   MPKI: 1.15887
L1D RFO       ACCESS:   15533598  HIT:   15526086  MISS:       7512  HIT %:    99.9516  MISS %:  0.0483597   MPKI: 0.0275025
L1D PREFETCH  ACCESS:   10718286  HIT:   10468488  MISS:     249798  HIT %:    97.6694  MISS %:    2.33058   MPKI: 0.914546
L1D WRITEBACK ACCESS:          0  HIT:          0  MISS:          0  HIT %:       -nan  MISS %:       -nan   MPKI: 0
L1I TOTAL     ACCESS:   62729315  HIT:   62729226  MISS:         89  HIT %:    99.9999  MISS %: 0.000141879   MPKI: 0.000325841
L1I LOAD      ACCESS:   62729315  HIT:   62729226  MISS:         89  HIT %:    99.9999  MISS %: 0.000141879   MPKI: 0.000325841
L1I RFO       ACCESS:          0  HIT:          0  MISS:          0  HIT %:       -nan  MISS %:       -nan   MPKI: 0
L1I PREFETCH  ACCESS:          0  HIT:          0  MISS:          0  HIT %:       -nan  MISS %:       -nan   MPKI: 0
L1I WRITEBACK ACCESS:          0  HIT:          0  MISS:          0  HIT %:       -nan  MISS %:       -nan   MPKI: 0
L2C TOTAL     ACCESS:   29504822  HIT:   28854828  MISS:     649994  HIT %:     97.797  MISS %:    2.20301   MPKI: 2.37972
L2C LOAD      ACCESS:     316564  HIT:     130561  MISS:     186003  HIT %:    41.2432  MISS %:    58.7568   MPKI: 0.680983
L2C RFO       ACCESS:       7512  HIT:       1364  MISS:       6148  HIT %:    18.1576  MISS %:    81.8424   MPKI: 0.0225087
L2C PREFETCH  ACCESS:    7621774  HIT:    7203200  MISS:     418574  HIT %:    94.5082  MISS %:    5.49182   MPKI: 1.53246
L2C WRITEBACK ACCESS:     304771  HIT:     280983  MISS:      23788  HIT %:    92.1948  MISS %:     7.8052   MPKI: 0.0870912
PSCL5 TOTAL     ACCESS:   21235332  HIT:   21235332  MISS:          0  HIT %:        100  MISS %:          0   MPKI: 0
PSCL5 LOAD      ACCESS:          0  HIT:          0  MISS:          0  HIT %:       -nan  MISS %:       -nan   MPKI: 0
PSCL5 RFO       ACCESS:          0  HIT:          0  MISS:          0  HIT %:       -nan  MISS %:       -nan   MPKI: 0
PSCL5 PREFETCH  ACCESS:          0  HIT:          0  MISS:          0  HIT %:       -nan  MISS %:       -nan   MPKI: 0
PSCL5 WRITEBACK ACCESS:          0  HIT:          0  MISS:          0  HIT %:       -nan  MISS %:       -nan   MPKI: 0
PSCL4 TOTAL     ACCESS:   21235332  HIT:   21235332  MISS:          0  HIT %:        100  MISS %:          0   MPKI: 0
PSCL4 LOAD      ACCESS:          0  HIT:          0  MISS:          0  HIT %:       -nan  MISS %:       -nan   MPKI: 0
PSCL4 RFO       ACCESS:          0  HIT:          0  MISS:          0  HIT %:       -nan  MISS %:       -nan   MPKI: 0
PSCL4 PREFETCH  ACCESS:          0  HIT:          0  MISS:          0  HIT %:       -nan  MISS %:       -nan   MPKI: 0
PSCL4 WRITEBACK ACCESS:          0  HIT:          0  MISS:          0  HIT %:       -nan  MISS %:       -nan   MPKI: 0
PSCL3 TOTAL     ACCESS:   21235105  HIT:   21235035  MISS:         70  HIT %:    99.9997  MISS %: 0.000329643   MPKI: 0.00025628
PSCL3 LOAD      ACCESS:          0  HIT:          0  MISS:          0  HIT %:       -nan  MISS %:       -nan   MPKI: 0
PSCL3 RFO       ACCESS:          0  HIT:          0  MISS:          0  HIT %:       -nan  MISS %:       -nan   MPKI: 0
PSCL3 PREFETCH  ACCESS:          0  HIT:          0  MISS:          0  HIT %:       -nan  MISS %:       -nan   MPKI: 0
PSCL3 WRITEBACK ACCESS:          0  HIT:          0  MISS:          0  HIT %:       -nan  MISS %:       -nan   MPKI: 0
PSCL2 TOTAL     ACCESS:   21235322  HIT:   21216526  MISS:      18796  HIT %:    99.9115  MISS %:  0.0885129   MPKI: 0.0688148
PSCL2 LOAD      ACCESS:          0  HIT:          0  MISS:          0  HIT %:       -nan  MISS %:       -nan   MPKI: 0
PSCL2 RFO       ACCESS:          0  HIT:          0  MISS:          0  HIT %:       -nan  MISS %:       -nan   MPKI: 0
PSCL2 PREFETCH  ACCESS:          0  HIT:          0  MISS:          0  HIT %:       -nan  MISS %:       -nan   MPKI: 0
PSCL2 WRITEBACK ACCESS:          0  HIT:          0  MISS:          0  HIT %:       -nan  MISS %:       -nan   MPKI: 0
LLC TOTAL     ACCESS:     913931  HIT:     414166  MISS:     499765  HIT %:     45.317  MISS %:     54.683   MPKI: 1.82971
LLC LOAD      ACCESS:     185281  HIT:      49857  MISS:     135424  HIT %:    26.9089  MISS %:    73.0911   MPKI: 0.495806
LLC RFO       ACCESS:       6069  HIT:        972  MISS:       5097  HIT %:    16.0158  MISS %:    83.9842   MPKI: 0.0186608
LLC PREFETCH  ACCESS:     419375  HIT:      94009  MISS:     325366  HIT %:    22.4165  MISS %:    77.5835   MPKI: 1.19121
LLC WRITEBACK ACCESS:     287725  HIT:     257615  MISS:      30110  HIT %:    89.5351  MISS %:    10.4649   MPKI: 0.110237

RAW hits: 9231804
Loads Generated: 46003784
Loads sent to L1D: 36771977
Stores Generated: 16739121
Stores sent to L1D: 16739121

CPU 2 cumulative IPC: 0.664953 instructions: 242973704 cycles: 365399821
ITLB TOTAL     ACCESS:   45686150  HIT:   35101635  MISS:   10584515  HIT %:    76.8321  MISS %:    23.1679   MPKI: 43.5624
ITLB LOAD      ACCESS:          0  HIT:          0  MISS:          0  HIT %:       -nan  MISS %:       -nan   MPKI: 0
ITLB RFO       ACCESS:          0  HIT:          0  MISS:          0  HIT %:       -nan  MISS %:       -nan   MPKI: 0
ITLB PREFETCH  ACCESS:          0  HIT:          0  MISS:          0  HIT %:       -nan  MISS %:       -nan   MPKI: 0
ITLB WRITEBACK ACCESS:          0  HIT:          0  MISS:          0  HIT %:       -nan  MISS %:       -nan   MPKI: 0
DTLB TOTAL     ACCESS:   30623595  HIT:   17875692  MISS:   12747903  HIT %:    58.3723  MISS %:    41.6277   MPKI: 52.4662
DTLB LOAD      ACCESS:          0  HIT:          0  MISS:          0  HIT %:       -nan  MISS %:       -nan   MPKI: 0
DTLB RFO       ACCESS:          0  HIT:          0  MISS:          0  HIT %:       -nan  MISS %:       -nan   MPKI: 0
DTLB PREFETCH  ACCESS:          0  HIT:          0  MISS:          0  HIT %:       -nan  MISS %:       -nan   MPKI: 0
DTLB WRITEBACK ACCESS:          0  HIT:          0  MISS:          0  HIT %:       -nan  MISS %:       -nan   MPKI: 0
STLB TOTAL     ACCESS:   28051086  HIT:    9042641  MISS:   19008445  HIT %:    32.2363  MISS %:    67.7637   MPKI: 78.2325
STLB LOAD      ACCESS:          0  HIT:          0  MISS:          0  HIT %:       -nan  MISS %:       -nan   MPKI: 0
STLB RFO       ACCESS:          0  HIT:          0  MISS:          0  HIT %:       -nan  MISS %:       -nan   MPKI: 0
STLB PREFETCH  ACCESS:          0  HIT:          0  MISS:          0  HIT %:       -nan  MISS %:       -nan   MPKI: 0
STLB WRITEBACK ACCESS:          0  HIT:          0  MISS:          0  HIT %:       -nan  MISS %:       -nan   MPKI: 0
L1D TOTAL     ACCESS:   44391058  HIT:   43628356  MISS:     762702  HIT %:    98.2819  MISS %:    1.71814   MPKI: 3.13903
L1D LOAD      ACCESS:   23352803  HIT:   22781423  MISS:     571380  HIT %:    97.5533  MISS %:    2.44673   MPKI: 2.35161
L1D RFO       ACCESS:   14012375  HIT:   14011916  MISS:        459  HIT %:    99.9967  MISS %: 0.00327568   MPKI: 0.00188909
L1D PREFETCH  ACCESS:    7025880  HIT:    6835017  MISS:     190863  HIT %:    97.2834  MISS %:    2.71657   MPKI: 0.785529
L1D WRITEBACK ACCESS:          0  HIT:          0  MISS:          0  HIT %:       -nan  MISS %:       -nan   MPKI: 0
L1I TOTAL     ACCESS:   55233638  HIT:   55233541  MISS:         97  HIT %:    99.9998  MISS %: 0.000175618   MPKI: 0.00039922
L1I LOAD      ACCESS:   55233638  HIT:   55233541  MISS:         97  HIT %:    99.9998  MISS %: 0.000175618   MPKI: 0.00039922
L1I RFO       ACCESS:          0  HIT:          0  MISS:          0  HIT %:       -nan  MISS %:       -nan   MPKI: 0
L1I PREFETCH  ACCESS:          0  HIT:          0  MISS:          0  HIT %:       -nan  MISS %:       -nan   MPKI: 0
L1I WRITEBACK ACCESS:          0  HIT:          0  MISS:          0  HIT %:       -nan  MISS %:       -nan   MPKI: 0
L2C TOTAL     ACCESS:   27256663  HIT:   26387679  MISS:     868984  HIT %:    96.8118  MISS %:    3.18815   MPKI: 3.57645
L2C LOAD      ACCESS:     571450  HIT:     210467  MISS:     360983  HIT %:    36.8303  MISS %:    63.1697   MPKI: 1.48569
L2C RFO       ACCESS:        459  HIT:        119  MISS:        340  HIT %:    25.9259  MISS %:    74.0741   MPKI: 0.00139933
L2C PREFETCH  ACCESS:    7023615  HIT:    6589387  MISS:     434228  HIT %:    93.8176  MISS %:     6.1824   MPKI: 1.78714
L2C WRITEBACK ACCESS:     239393  HIT:     221133  MISS:      18260  HIT %:    92.3724  MISS %:    7.62762   MPKI: 0.0751522
PSCL5 TOTAL     ACCESS:   19210030  HIT:   19210030  MISS:          0  HIT %:        100  MISS %:          0   MPKI: 0
PSCL5 LOAD      ACCESS:          0  HIT:          0  MISS:          0  HIT %:       -nan  MISS %:       -nan   MPKI: 0
PSCL5 RFO       ACCESS:          0  HIT:          0  MISS:          0  HIT %:       -nan  MISS %:       -nan   MPKI: 0
PSCL5 PREFETCH  ACCESS:          0  HIT:          0  MISS:          0  HIT %:       -nan  MISS %:       -nan   MPKI: 0
PSCL5 WRITEBACK ACCESS:          0  HIT:          0  MISS:          0  HIT %:       -nan  MISS %:       -nan   MPKI: 0
PSCL4 TOTAL     ACCESS:   19210030  HIT:   19210030  MISS:          0  HIT %:        100  MISS %:          0   MPKI: 0
PSCL4 LOAD      ACCESS:          0  HIT:          0  MISS:          0  HIT %:       -nan  MISS %:       -nan   MPKI: 0
PSCL4 RFO       ACCESS:          0  HIT:          0  MISS:          0  HIT %:       -nan  MISS %:       -nan   MPKI: 0
PSCL4 PREFETCH  ACCESS:          0  HIT:          0  MISS:          0  HIT %:       -nan  MISS %:       -nan   MPKI: 0
PSCL4 WRITEBACK ACCESS:          0  HIT:          0  MISS:          0  HIT %:       -nan  MISS %:       -nan   MPKI: 0
PSCL3 TOTAL     ACCESS:   19209443  HIT:   19209383  MISS:         60  HIT %:    99.9997  MISS %: 0.000312346   MPKI: 0.00024694
PSCL3 LOAD      ACCESS:          0  HIT:          0  MISS:          0  HIT %:       -nan  MISS %:       -nan   MPKI: 0
PSCL3 RFO       ACCESS:          0  HIT:          0  MISS:          0  HIT %:       -nan  MISS %:       -nan   MPKI: 0
PSCL3 PREFETCH  ACCESS:          0  HIT:          0  MISS:          0  HIT %:       -nan  MISS %:       -nan   MPKI: 0
PSCL3 WRITEBACK ACCESS:          0  HIT:          0  MISS:          0  HIT %:       -nan  MISS %:       -nan   MPKI: 0
PSCL2 TOTAL     ACCESS:   19209982  HIT:   18998372  MISS:     211610  HIT %:    98.8984  MISS %:    1.10156   MPKI: 0.870917
PSCL2 LOAD      ACCESS:          0  HIT:          0  MISS:          0  HIT %:       -nan  MISS %:       -nan   MPKI: 0
PSCL2 RFO       ACCESS:          0  HIT:          0  MISS:          0  HIT %:       -nan  MISS %:       -nan   MPKI: 0
PSCL2 PREFETCH  ACCESS:          0  HIT:          0  MISS:          0  HIT %:       -nan  MISS %:       -nan   MPKI: 0
PSCL2 WRITEBACK ACCESS:          0  HIT:          0  MISS:          0  HIT %:       -nan  MISS %:       -nan   MPKI: 0
LLC TOTAL     ACCESS:    1078190  HIT:     488445  MISS:     589745  HIT %:    45.3023  MISS %:    54.6977   MPKI: 2.4272
LLC LOAD      ACCESS:     360075  HIT:     116214  MISS:     243861  HIT %:    32.2749  MISS %:    67.7251   MPKI: 1.00365
LLC RFO       ACCESS:        337  HIT:         89  MISS:        248  HIT %:    26.4095  MISS %:    73.5905   MPKI: 0.00102069
LLC PREFETCH  ACCESS:     435139  HIT:     107804  MISS:     327335  HIT %:    24.7746  MISS %:    75.2254   MPKI: 1.3472
LLC WRITEBACK ACCESS:     227466  HIT:     213114  MISS:      14352  HIT %:    93.6905  MISS %:    6.30951   MPKI: 0.0590681

RAW hits: 8263622
Loads Generated: 42121213
Loads sent to L1D: 33857591
Stores Generated: 15194312
Stores sent to L1D: 15194312

CPU 3 cumulative IPC: 0.589052 instructions: 215239560 cycles: 365399821
ITLB TOTAL     ACCESS:   43927588  HIT:   33338457  MISS:   10589131  HIT %:    75.8941  MISS %:    24.1059   MPKI: 49.197
ITLB LOAD      ACCESS:          0  HIT:          0  MISS:          0  HIT %:       -nan  MISS %:       -nan   MPKI: 0
ITLB RFO       ACCESS:          0  HIT:          0  MISS:          0  HIT %:       -nan  MISS %:       -nan   MPKI: 0
ITLB PREFETCH  ACCESS:          0  HIT:          0  MISS:          0  HIT %:       -nan  MISS %:       -nan   MPKI: 0
ITLB WRITEBACK ACCESS:          0  HIT:          0  MISS:          0  HIT %:       -nan  MISS %:       -nan   MPKI: 0
DTLB TOTAL     ACCESS:   30493524  HIT:   18009913  MISS:   12483611  HIT %:    59.0614  MISS %:    40.9386   MPKI: 57.9987
DTLB LOAD      ACCESS:          0  HIT:          0  MISS:          0  HIT %:       -nan  MISS %:       -nan   MPKI: 0
DTLB RFO       ACCESS:          0  HIT:          0  MISS:          0  HIT %:       -nan  MISS %:       -nan   MPKI: 0
DTLB PREFETCH  ACCESS:          0  HIT:          0  MISS:          0  HIT %:       -nan  MISS %:       -nan   MPKI: 0
DTLB WRITEBACK ACCESS:          0  HIT:          0  MISS:          0  HIT %:       -nan  MISS %:       -nan   MPKI: 0
STLB TOTAL     ACCESS:   31560474  HIT:   10257301  MISS:   21303173  HIT %:    32.5005  MISS %:    67.4995   MPKI: 98.9742
STLB LOAD      ACCESS:          0  HIT:          0  MISS:          0  HIT %:       -nan  MISS %:       -nan   MPKI: 0
STLB RFO       ACCESS:          0  HIT:          0  MISS:          0  HIT %:       -nan  MISS %:       -nan   MPKI: 0
STLB PREFETCH  ACCESS:          0  HIT:          0  MISS:          0  HIT %:       -nan  MISS %:       -nan   MPKI: 0
STLB WRITEBACK ACCESS:          0  HIT:          0  MISS:          0  HIT %:       -nan  MISS %:       -nan   MPKI: 0
L1D TOTAL     ACCESS:   56442622  HIT:   54801845  MISS:    1640777  HIT %:     97.093  MISS %:    2.90698   MPKI: 7.62303
L1D LOAD      ACCESS:   21540145  HIT:   20704865  MISS:     835280  HIT %:    96.1222  MISS %:    3.87778   MPKI: 3.8807
L1D RFO       ACCESS:   13730156  HIT:   13658269  MISS:      71887  HIT %:    99.4764  MISS %:    0.52357   MPKI: 0.333986
L1D PREFETCH  ACCESS:   21172321  HIT:   20438711  MISS:     733610  HIT %:    96.5351  MISS %:    3.46495   MPKI: 3.40834
L1D WRITEBACK ACCESS:          0  HIT:          0  MISS:          0  HIT %:       -nan  MISS %:       -nan   MPKI: 0
L1I TOTAL     ACCESS:   52611511  HIT:   52594006  MISS:      17505  HIT %:    99.9667  MISS %:  0.0332722   MPKI: 0.081328
L1I LOAD      ACCESS:   52611511  HIT:   52594006  MISS:      17505  HIT %:    99.9667  MISS %:  0.0332722   MPKI: 0.081328
L1I RFO       ACCESS:          0  HIT:          0  MISS:          0  HIT %:       -nan  MISS %:       -nan   MPKI: 0
L1I PREFETCH  ACCESS:          0  HIT:          0  MISS:          0  HIT %:       -nan  MISS %:       -nan   MPKI: 0
L1I WRITEBACK ACCESS:          0  HIT:          0  MISS:          0  HIT %:       -nan  MISS %:       -nan   MPKI: 0
L2C TOTAL     ACCESS:   31695197  HIT:   30201879  MISS:    1493318  HIT %:    95.2885  MISS %:     4.7115   MPKI: 6.93793
L2C LOAD      ACCESS:     852473  HIT:     404301  MISS:     448172  HIT %:    47.4268  MISS %:    52.5732   MPKI: 2.0822
L2C RFO       ACCESS:      71885  HIT:      15303  MISS:      56582  HIT %:    21.2882  MISS %:    78.7118   MPKI: 0.262879
L2C PREFETCH  ACCESS:    7642317  HIT:    6719409  MISS:     922908  HIT %:    87.9237  MISS %:    12.0763   MPKI: 4.28782
L2C WRITEBACK ACCESS:     971886  HIT:     922920  MISS:      48966  HIT %:    94.9618  MISS %:    5.03825   MPKI: 0.227495
PSCL5 TOTAL     ACCESS:   22116562  HIT:   22116562  MISS:          0  HIT %:        100  MISS %:          0   MPKI: 0
PSCL5 LOAD      ACCESS:          0  HIT:          0  MISS:          0  HIT %:       -nan  MISS %:       -nan   MPKI: 0
PSCL5 RFO       ACCESS:          0  HIT:          0  MISS:          0  HIT %:       -nan  MISS %:       -nan   MPKI: 0
PSCL5 PREFETCH  ACCESS:          0  HIT:          0  MISS:          0  HIT %:       -nan  MISS %:       -nan   MPKI: 0
PSCL5 WRITEBACK ACCESS:          0  HIT:          0  MISS:          0  HIT %:       -nan  MISS %:       -nan   MPKI: 0
PSCL4 TOTAL     ACCESS:   22116562  HIT:   22116562  MISS:          0  HIT %:        100  MISS %:          0   MPKI: 0
PSCL4 LOAD      ACCESS:          0  HIT:          0  MISS:          0  HIT %:       -nan  MISS %:       -nan   MPKI: 0
PSCL4 RFO       ACCESS:          0  HIT:          0  MISS:          0  HIT %:       -nan  MISS %:       -nan   MPKI: 0
PSCL4 PREFETCH  ACCESS:          0  HIT:          0  MISS:          0  HIT %:       -nan  MISS %:       -nan   MPKI: 0
PSCL4 WRITEBACK ACCESS:          0  HIT:          0  MISS:          0  HIT %:       -nan  MISS %:       -nan   MPKI: 0
PSCL3 TOTAL     ACCESS:   22115310  HIT:   22115240  MISS:         70  HIT %:    99.9997  MISS %: 0.000316523   MPKI: 0.000325219
PSCL3 LOAD      ACCESS:          0  HIT:          0  MISS:          0  HIT %:       -nan  MISS %:       -nan   MPKI: 0
PSCL3 RFO       ACCESS:          0  HIT:          0  MISS:          0  HIT %:       -nan  MISS %:       -nan   MPKI: 0
PSCL3 PREFETCH  ACCESS:          0  HIT:          0  MISS:          0  HIT %:       -nan  MISS %:       -nan   MPKI: 0
PSCL3 WRITEBACK ACCESS:          0  HIT:          0  MISS:          0  HIT %:       -nan  MISS %:       -nan   MPKI: 0
PSCL2 TOTAL     ACCESS:   22116524  HIT:   22076555  MISS:      39969  HIT %:    99.8193  MISS %:    0.18072   MPKI: 0.185695
PSCL2 LOAD      ACCESS:          0  HIT:          0  MISS:          0  HIT %:       -nan  MISS %:       -nan   MPKI: 0
PSCL2 RFO       ACCESS:          0  HIT:          0  MISS:          0  HIT %:       -nan  MISS %:       -nan   MPKI: 0
PSCL2 PREFETCH  ACCESS:          0  HIT:          0  MISS:          0  HIT %:       -nan  MISS %:       -nan   MPKI: 0
PSCL2 WRITEBACK ACCESS:          0  HIT:          0  MISS:          0  HIT %:       -nan  MISS %:       -nan   MPKI: 0
LLC TOTAL     ACCESS:    2158249  HIT:    1572499  MISS:     585750  HIT %:    72.8599  MISS %:    27.1401   MPKI: 2.72139
LLC LOAD      ACCESS:     447091  HIT:     291656  MISS:     155435  HIT %:    65.2341  MISS %:    34.7659   MPKI: 0.722149
LLC RFO       ACCESS:      56467  HIT:      28306  MISS:      28161  HIT %:    50.1284  MISS %:    49.8716   MPKI: 0.130836
LLC PREFETCH  ACCESS:     924099  HIT:     530845  MISS:     393254  HIT %:    57.4446  MISS %:    42.5554   MPKI: 1.82705
LLC WRITEBACK ACCESS:     713902  HIT:     707325  MISS:       6577  HIT %:    99.0787  MISS %:   0.921275   MPKI: 0.0305567

RAW hits: 7670215
Loads Generated: 39990258
Loads sent to L1D: 32320043
Stores Generated: 16189270
Stores sent to L1D: 16189269

Region of Interest Statistics

CPU 0 cumulative IPC: 0.547346 instructions: 200000000 cycles: 365399821
ITLB TOTAL     ACCESS:   37917873  HIT:   29572403  MISS:    8345470  HIT %:    77.9907  MISS %:    22.0093   MPKI: 41.7274
ITLB LOAD TRANSLATION ACCESS:   37917873  HIT:   29572403  MISS:    8345470  HIT %:    77.9907  MISS %:    22.0093   MPKI: 41.7274
ITLB PREFETCH  REQUESTED:          0  ISSUED:          0  USEFUL:          0  USELESS:          0
ITLB USEFUL LOAD PREFETCHES:          0 PREFETCH ISSUED TO LOWER LEVEL:          0  ACCURACY: -nan
ITLB TIMELY PREFETCHES:          0 LATE PREFETCHES: 0 DROPPED PREFETCHES: 0
ITLB PREFETCHES SAME FILL-ORIGIN LEVEL: 0 DIFFERENT FILL-ORIGIN LEVEL: 0
ITLB AVERAGE MISS LATENCY: 35.5551 cycles
ITLB RQ	ACCESS:   46008756	FORWARD:          0	MERGED:    5455211	TO_CACHE:   40553545

DTLB TOTAL     ACCESS:   26350890  HIT:   15479153  MISS:   10871737  HIT %:    58.7424  MISS %:    41.2576   MPKI: 54.3587
DTLB LOAD TRANSLATION ACCESS:   26350890  HIT:   15479153  MISS:   10871737  HIT %:    58.7424  MISS %:    41.2576   MPKI: 54.3587
DTLB PREFETCH  REQUESTED:          0  ISSUED:          0  USEFUL:          0  USELESS:          0
DTLB USEFUL LOAD PREFETCHES:          0 PREFETCH ISSUED TO LOWER LEVEL:          0  ACCURACY: -nan
DTLB TIMELY PREFETCHES:          0 LATE PREFETCHES: 0 DROPPED PREFETCHES: 0
DTLB PREFETCHES SAME FILL-ORIGIN LEVEL: 0 DIFFERENT FILL-ORIGIN LEVEL: 0
DTLB AVERAGE MISS LATENCY: 33.5653 cycles
DTLB RQ	ACCESS:   33227227	FORWARD:          0	MERGED:    5616987	TO_CACHE:   27610240

STLB TOTAL     ACCESS:   23727771  HIT:    8143732  MISS:   15584039  HIT %:    34.3215  MISS %:    65.6785   MPKI: 77.9202
STLB LOAD TRANSLATION ACCESS:   19217206  HIT:    4426143  MISS:   14791063  HIT %:    23.0322  MISS %:    76.9678   MPKI: 73.9553
STLB TRANSLATION FROM L1D PREFETCHER ACCESS:    4510565  HIT:    3717589  MISS:     792976  HIT %:    82.4196  MISS %:    17.5804   MPKI: 3.96488
STLB PREFETCH  REQUESTED:          0  ISSUED:          0  USEFUL:     331521  USELESS:     461454
STLB USEFUL LOAD PREFETCHES:     331521 PREFETCH ISSUED TO LOWER LEVEL:          0  ACCURACY: inf
STLB TIMELY PREFETCHES:     331521 LATE PREFETCHES: 0 DROPPED PREFETCHES: 94541
STLB PREFETCHES SAME FILL-ORIGIN LEVEL: 0 DIFFERENT FILL-ORIGIN LEVEL: 0
STLB AVERAGE MISS LATENCY: 33.4536 cycles
STLB RQ	ACCESS:   33012183	FORWARD:          0	MERGED:    9151754	TO_CACHE:   23860429

STLB Hit, L1D data hit: 0
STLB Hit, L2C data hit: 0
STLB Hit, LLC data hit: 0
STLB Hit, LLC data miss: 0
STLB STLB hints to L2: 0
L1D TOTAL     ACCESS:   41673841  HIT:   39567616  MISS:    2106225  HIT %:    94.9459  MISS %:    5.05407   MPKI: 10.5311
L1D LOAD      ACCESS:   19192004  HIT:   17787102  MISS:    1404902  HIT %:    92.6798  MISS %:    7.32025   MPKI: 7.02451
L1D RFO       ACCESS:   13035379  HIT:   12659437  MISS:     375942  HIT %:     97.116  MISS %:    2.88401   MPKI: 1.87971
L1D PREFETCH  ACCESS:    9446458  HIT:    9121077  MISS:     325381  HIT %:    96.5555  MISS %:    3.44448   MPKI: 1.62691
L1D PREFETCH  REQUESTED:   33992421  ISSUED:   32428898  USEFUL:     292055  USELESS:      33326
L1D USEFUL LOAD PREFETCHES:     292055 PREFETCH ISSUED TO LOWER LEVEL:    4455929  ACCURACY: 6.5543
L1D TIMELY PREFETCHES:     292055 LATE PREFETCHES: 580 DROPPED PREFETCHES: 143063
L1D PREFETCHES SAME FILL-ORIGIN LEVEL: 325967 DIFFERENT FILL-ORIGIN LEVEL: 4129962
L1D AVERAGE MISS LATENCY: 77.6317 cycles
L1D RQ	ACCESS:   30410779	FORWARD:          0	MERGED:   10871133	TO_CACHE:   19329088
L1D WQ	ACCESS:   14777107	FORWARD:     213118	MERGED:     878968	TO_CACHE:   13898139
L1D PQ	ACCESS:   18633921	FORWARD:          0	MERGED:    4836384	TO_CACHE:   13794977

L1D UNIQUE REGIONS ACCESSED: 0
L1D REGIONS CONFLICTS: 0
L1D Cross Page Prefetch Requests: 4713864
L1D Same Page Prefetch Requests: 17937877
L1D ROI Sum of L1D PQ occupancy: 302624204
L1D PREFETCHES PUSHED FROM L2C: 0
L1I TOTAL     ACCESS:   45997170  HIT:   45953866  MISS:      43304  HIT %:    99.9059  MISS %:  0.0941449   MPKI: 0.21652
L1I LOAD      ACCESS:   45997170  HIT:   45953866  MISS:      43304  HIT %:    99.9059  MISS %:  0.0941449   MPKI: 0.21652
L1I PREFETCH  REQUESTED:          0  ISSUED:          0  USEFUL:          0  USELESS:          0
L1I USEFUL LOAD PREFETCHES:          0 PREFETCH ISSUED TO LOWER LEVEL:          0  ACCURACY: -nan
L1I TIMELY PREFETCHES:          0 LATE PREFETCHES: 0 DROPPED PREFETCHES: 0
L1I PREFETCHES SAME FILL-ORIGIN LEVEL: 0 DIFFERENT FILL-ORIGIN LEVEL: 0
L1I AVERAGE MISS LATENCY: 47.4771 cycles
L1I RQ	ACCESS:   86306013	FORWARD:          0	MERGED:   40297257	TO_CACHE:   46008756

BTB BRANCH_DIRECT_JUMP	ACCESS:          0  HIT:          0  MISS:          0
BTB BRANCH_INDIRECT	ACCESS:          0  HIT:          0  MISS:          0
BTB BRANCH_CONDITIONAL	ACCESS:          0  HIT:          0  MISS:          0
BTB BRANCH_DIRECT_CALL	ACCESS:          0  HIT:          0  MISS:          0
BTB BRANCH_INDIRECT_CALL	ACCESS:          0  HIT:          0  MISS:          0
BTB BRANCH_RETURN	ACCESS:          0  HIT:          0  MISS:          0
BTB BRANCH_OTHER ACCESS:          0  HIT:          0  MISS:          0

L2C TOTAL     ACCESS:   23790183  HIT:   22354568  MISS:    1435615  HIT %:    93.9655  MISS %:    6.03448   MPKI: 7.17807
L2C LOAD      ACCESS:    1447620  HIT:     628807  MISS:     818813  HIT %:    43.4373  MISS %:    56.5627   MPKI: 4.09406
L2C DATA LOAD MPKI: 4.05129
L2C INSTRUCTION LOAD MPKI: 0.04277
L2C RFO       ACCESS:     375926  HIT:     275099  MISS:     100827  HIT %:     73.179  MISS %:     26.821   MPKI: 0.504135
L2C PREFETCH  ACCESS:    4367404  HIT:    3980202  MISS:     387202  HIT %:    91.1343  MISS %:    8.86572   MPKI: 1.93601
L2C DATA PREFETCH MPKI: 1.93601
L2C INSTRUCTION PREFETCH MPKI: 0
L2C WRITEBACK ACCESS:    1357690  HIT:    1293148  MISS:      64542  HIT %:    95.2462  MISS %:    4.75381   MPKI: 0.32271
L2C LOAD TRANSLATION ACCESS:   15352423  HIT:   15289431  MISS:      62992  HIT %:    99.5897  MISS %:   0.410307   MPKI: 0.31496
L2C TRANSLATION FROM L1D PREFETCHER ACCESS:     889120  HIT:     887881  MISS:       1239  HIT %:    99.8606  MISS %:   0.139351   MPKI: 0.006195
L2C PREFETCH  REQUESTED:          0  ISSUED:          0  USEFUL:      92091  USELESS:     296571
L2C USEFUL LOAD PREFETCHES:      92091 PREFETCH ISSUED TO LOWER LEVEL:     388909  ACCURACY: 23.6793
L2C TIMELY PREFETCHES:      92091 LATE PREFETCHES: 1707 DROPPED PREFETCHES: 0
L2C PREFETCHES SAME FILL-ORIGIN LEVEL: 340873 DIFFERENT FILL-ORIGIN LEVEL: 0
L2C AVERAGE MISS LATENCY: 134.271 cycles
L2C RQ	ACCESS:   18065106	FORWARD:          0	MERGED:          0	TO_CACHE:   18065090
L2C WQ	ACCESS:    1357690	FORWARD:         24	MERGED:          0	TO_CACHE:    1357690
L2C PQ	ACCESS:    4455923	FORWARD:          0	MERGED:       4755	TO_CACHE:    4451160

L2C Instructions Evicting Data 7740
L2C Translations Evicting Data 60946
L2C Data Evicting Data 1233291
L2C Instructions Evicting Instructions 447
L2C Translations Evicting Instructions 244
L2C Data Evicting Instructions 7482
L2C Instructions Evicting Translations 367
L2C Translations Evicting Translations 3041
L2C Data Evicting Translations 57506
L2C Dense regions hint from L2: 0
PSCL5 TOTAL     ACCESS:   15678580  HIT:   15678580  MISS:          0  HIT %:        100  MISS %:          0   MPKI: 0
PSCL5 LOAD TRANSLATION ACCESS:   14791063  HIT:   14791063  MISS:          0  HIT %:        100  MISS %:          0   MPKI: 0
PSCL5 TRANSLATION FROM L1D PREFETCHER ACCESS:     887517  HIT:     887517  MISS:          0  HIT %:        100  MISS %:          0   MPKI: 0
PSCL5 PREFETCH  REQUESTED:          0  ISSUED:          0  USEFUL:          0  USELESS:          0
PSCL5 USEFUL LOAD PREFETCHES:          0 PREFETCH ISSUED TO LOWER LEVEL:          0  ACCURACY: -nan
PSCL5 TIMELY PREFETCHES:          0 LATE PREFETCHES: 0 DROPPED PREFETCHES: 0
PSCL5 PREFETCHES SAME FILL-ORIGIN LEVEL: 0 DIFFERENT FILL-ORIGIN LEVEL: 0

PSCL4 TOTAL     ACCESS:   15678580  HIT:   15678580  MISS:          0  HIT %:        100  MISS %:          0   MPKI: 0
PSCL4 LOAD TRANSLATION ACCESS:   14791063  HIT:   14791063  MISS:          0  HIT %:        100  MISS %:          0   MPKI: 0
PSCL4 TRANSLATION FROM L1D PREFETCHER ACCESS:     887517  HIT:     887517  MISS:          0  HIT %:        100  MISS %:          0   MPKI: 0
PSCL4 PREFETCH  REQUESTED:          0  ISSUED:          0  USEFUL:          0  USELESS:          0
PSCL4 USEFUL LOAD PREFETCHES:          0 PREFETCH ISSUED TO LOWER LEVEL:          0  ACCURACY: -nan
PSCL4 TIMELY PREFETCHES:          0 LATE PREFETCHES: 0 DROPPED PREFETCHES: 0
PSCL4 PREFETCHES SAME FILL-ORIGIN LEVEL: 0 DIFFERENT FILL-ORIGIN LEVEL: 0

PSCL3 TOTAL     ACCESS:   15667411  HIT:   15667341  MISS:         70  HIT %:    99.9996  MISS %: 0.000446787   MPKI: 0.00035
PSCL3 LOAD TRANSLATION ACCESS:   14790953  HIT:   14790883  MISS:         70  HIT %:    99.9995  MISS %: 0.000473262   MPKI: 0.00035
PSCL3 TRANSLATION FROM L1D PREFETCHER ACCESS:     876458  HIT:     876458  MISS:          0  HIT %:        100  MISS %:          0   MPKI: 0
PSCL3 PREFETCH  REQUESTED:          0  ISSUED:          0  USEFUL:          0  USELESS:          0
PSCL3 USEFUL LOAD PREFETCHES:          0 PREFETCH ISSUED TO LOWER LEVEL:          0  ACCURACY: -nan
PSCL3 TIMELY PREFETCHES:          0 LATE PREFETCHES: 0 DROPPED PREFETCHES: 0
PSCL3 PREFETCHES SAME FILL-ORIGIN LEVEL: 0 DIFFERENT FILL-ORIGIN LEVEL: 0

PSCL2 TOTAL     ACCESS:   15667300  HIT:   15104645  MISS:     562655  HIT %:    96.4087  MISS %:    3.59127   MPKI: 2.81327
PSCL2 LOAD TRANSLATION ACCESS:   14792416  HIT:   14229761  MISS:     562655  HIT %:    96.1963  MISS %:    3.80367   MPKI: 2.81327
PSCL2 TRANSLATION FROM L1D PREFETCHER ACCESS:     874884  HIT:     874884  MISS:          0  HIT %:        100  MISS %:          0   MPKI: 0
PSCL2 PREFETCH  REQUESTED:          0  ISSUED:          0  USEFUL:          0  USELESS:          0
PSCL2 USEFUL LOAD PREFETCHES:          0 PREFETCH ISSUED TO LOWER LEVEL:          0  ACCURACY: -nan
PSCL2 TIMELY PREFETCHES:          0 LATE PREFETCHES: 0 DROPPED PREFETCHES: 0
PSCL2 PREFETCHES SAME FILL-ORIGIN LEVEL: 0 DIFFERENT FILL-ORIGIN LEVEL: 0

LLC TOTAL     ACCESS:    2181377  HIT:    1342073  MISS:     839304  HIT %:    61.5241  MISS %:    38.4759   MPKI: 4.19652
LLC LOAD      ACCESS:     817272  HIT:     280255  MISS:     537017  HIT %:    34.2915  MISS %:    65.7085   MPKI: 2.68508
LLC RFO       ACCESS:     100660  HIT:      61521  MISS:      39139  HIT %:    61.1176  MISS %:    38.8824   MPKI: 0.195695
LLC PREFETCH  ACCESS:     388908  HIT:     147212  MISS:     241696  HIT %:    37.8527  MISS %:    62.1473   MPKI: 1.20848
LLC WRITEBACK ACCESS:     810306  HIT:     795324  MISS:      14982  HIT %:    98.1511  MISS %:    1.84893   MPKI: 0.07491
LLC LOAD TRANSLATION ACCESS:      62992  HIT:      57015  MISS:       5977  HIT %:    90.5115  MISS %:    9.48851   MPKI: 0.029885
LLC TRANSLATION FROM L1D PREFETCHER ACCESS:       1239  HIT:        746  MISS:        493  HIT %:    60.2098  MISS %:    39.7902   MPKI: 0.002465
LLC PREFETCH  REQUESTED:          0  ISSUED:          0  USEFUL:      76488  USELESS:    1216515
LLC USEFUL LOAD PREFETCHES:      76488 PREFETCH ISSUED TO LOWER LEVEL:    1287651  ACCURACY: 5.94012
LLC TIMELY PREFETCHES:      76488 LATE PREFETCHES: 0 DROPPED PREFETCHES: 0
LLC PREFETCHES SAME FILL-ORIGIN LEVEL: 0 DIFFERENT FILL-ORIGIN LEVEL: 0
LLC AVERAGE MISS LATENCY: 548.458 cycles
LLC RQ	ACCESS:    2124831	FORWARD:          0	MERGED:          0	TO_CACHE:    2124827
LLC WQ	ACCESS:    2039399	FORWARD:          7	MERGED:          0	TO_CACHE:    2039399
LLC PQ	ACCESS:    2167524	FORWARD:          0	MERGED:          0	TO_CACHE:    2167521

LLC Dense regions hint to LLC: 0

RAW hits: 4522753
Loads Generated: 34933533
Loads sent to L1D: 30410779
Stores Generated: 14777102
Stores sent to L1D: 14777107
Major fault: 0 Minor fault: 6623
Allocated PAGES: 14903

CPU 1 cumulative IPC: 0.748576 instructions: 200000000 cycles: 267174068
ITLB TOTAL     ACCESS:   37771994  HIT:   28842290  MISS:    8929704  HIT %:    76.3589  MISS %:    23.6411   MPKI: 44.6485
ITLB LOAD TRANSLATION ACCESS:   37771994  HIT:   28842290  MISS:    8929704  HIT %:    76.3589  MISS %:    23.6411   MPKI: 44.6485
ITLB PREFETCH  REQUESTED:          0  ISSUED:          0  USEFUL:          0  USELESS:          0
ITLB USEFUL LOAD PREFETCHES:          0 PREFETCH ISSUED TO LOWER LEVEL:          0  ACCURACY: -nan
ITLB TIMELY PREFETCHES:          0 LATE PREFETCHES: 0 DROPPED PREFETCHES: 0
ITLB PREFETCHES SAME FILL-ORIGIN LEVEL: 0 DIFFERENT FILL-ORIGIN LEVEL: 0
ITLB AVERAGE MISS LATENCY: 45.877 cycles
ITLB RQ	ACCESS:   62729340	FORWARD:          0	MERGED:    7648931	TO_CACHE:   55080409

DTLB TOTAL     ACCESS:   23952327  HIT:   14049380  MISS:    9902947  HIT %:    58.6556  MISS %:    41.3444   MPKI: 49.5147
DTLB LOAD TRANSLATION ACCESS:   23952327  HIT:   14049380  MISS:    9902947  HIT %:    58.6556  MISS %:    41.3444   MPKI: 49.5147
DTLB PREFETCH  REQUESTED:          0  ISSUED:          0  USEFUL:          0  USELESS:          0
DTLB USEFUL LOAD PREFETCHES:          0 PREFETCH ISSUED TO LOWER LEVEL:          0  ACCURACY: -nan
DTLB TIMELY PREFETCHES:          0 LATE PREFETCHES: 0 DROPPED PREFETCHES: 0
DTLB PREFETCHES SAME FILL-ORIGIN LEVEL: 0 DIFFERENT FILL-ORIGIN LEVEL: 0
DTLB AVERAGE MISS LATENCY: 43.3318 cycles
DTLB RQ	ACCESS:   39868320	FORWARD:          0	MERGED:    5318886	TO_CACHE:   34549434

STLB TOTAL     ACCESS:   22969988  HIT:    7541828  MISS:   15428160  HIT %:    32.8334  MISS %:    67.1666   MPKI: 77.1408
STLB LOAD TRANSLATION ACCESS:   18832651  HIT:    4183447  MISS:   14649204  HIT %:    22.2138  MISS %:    77.7862   MPKI: 73.246
STLB TRANSLATION FROM L1D PREFETCHER ACCESS:    4137337  HIT:    3358381  MISS:     778956  HIT %:    81.1725  MISS %:    18.8275   MPKI: 3.89478
STLB PREFETCH  REQUESTED:          0  ISSUED:          0  USEFUL:     631927  USELESS:     434469
STLB USEFUL LOAD PREFETCHES:     631927 PREFETCH ISSUED TO LOWER LEVEL:          0  ACCURACY: inf
STLB TIMELY PREFETCHES:     631927 LATE PREFETCHES: 0 DROPPED PREFETCHES: 133789
STLB PREFETCHES SAME FILL-ORIGIN LEVEL: 0 DIFFERENT FILL-ORIGIN LEVEL: 0
STLB AVERAGE MISS LATENCY: 41.6876 cycles
STLB RQ	ACCESS:   44206596	FORWARD:          0	MERGED:   12632780	TO_CACHE:   31573816

STLB Hit, L1D data hit: 0
STLB Hit, L2C data hit: 0
STLB Hit, LLC data hit: 0
STLB Hit, LLC data miss: 0
STLB STLB hints to L2: 0
L1D TOTAL     ACCESS:   36966387  HIT:   36545674  MISS:     420713  HIT %:    98.8619  MISS %:     1.1381   MPKI: 2.10357
L1D LOAD      ACCESS:   17806132  HIT:   17572643  MISS:     233489  HIT %:    98.6887  MISS %:    1.31128   MPKI: 1.16745
L1D RFO       ACCESS:   11370502  HIT:   11365466  MISS:       5036  HIT %:    99.9557  MISS %:    0.04429   MPKI: 0.02518
L1D PREFETCH  ACCESS:    7789753  HIT:    7607565  MISS:     182188  HIT %:    97.6612  MISS %:    2.33882   MPKI: 0.91094
L1D PREFETCH  REQUESTED:   42933977  ISSUED:   42030737  USEFUL:     236693  USELESS:      13121
L1D USEFUL LOAD PREFETCHES:     236693 PREFETCH ISSUED TO LOWER LEVEL:    7785399  ACCURACY: 3.04022
L1D TIMELY PREFETCHES:     236693 LATE PREFETCHES: 57 DROPPED PREFETCHES: 198189
L1D PREFETCHES SAME FILL-ORIGIN LEVEL: 249855 DIFFERENT FILL-ORIGIN LEVEL: 7535544
L1D AVERAGE MISS LATENCY: 101.365 cycles
L1D RQ	ACCESS:   36771977	FORWARD:          0	MERGED:   11965438	TO_CACHE:   24320828
L1D WQ	ACCESS:   16739121	FORWARD:     485960	MERGED:    1191629	TO_CACHE:   15547492
L1D PQ	ACCESS:   23561660	FORWARD:          0	MERGED:    5092334	TO_CACHE:   18469077

L1D UNIQUE REGIONS ACCESSED: 0
L1D REGIONS CONFLICTS: 0
L1D Cross Page Prefetch Requests: 6189826
L1D Same Page Prefetch Requests: 24365790
L1D ROI Sum of L1D PQ occupancy: 419047170
L1D PREFETCHES PUSHED FROM L2C: 0
L1I TOTAL     ACCESS:   45924829  HIT:   45924769  MISS:         60  HIT %:    99.9999  MISS %: 0.000130648   MPKI: 0.0003
L1I LOAD      ACCESS:   45924829  HIT:   45924769  MISS:         60  HIT %:    99.9999  MISS %: 0.000130648   MPKI: 0.0003
L1I PREFETCH  REQUESTED:          0  ISSUED:          0  USEFUL:          0  USELESS:          0
L1I USEFUL LOAD PREFETCHES:          0 PREFETCH ISSUED TO LOWER LEVEL:          0  ACCURACY: -nan
L1I TIMELY PREFETCHES:          0 LATE PREFETCHES: 0 DROPPED PREFETCHES: 0
L1I PREFETCHES SAME FILL-ORIGIN LEVEL: 0 DIFFERENT FILL-ORIGIN LEVEL: 0
L1I AVERAGE MISS LATENCY: 329.133 cycles
L1I RQ	ACCESS:  124100298	FORWARD:          0	MERGED:   61370958	TO_CACHE:   62729340

BTB BRANCH_DIRECT_JUMP	ACCESS:          0  HIT:          0  MISS:          0
BTB BRANCH_INDIRECT	ACCESS:          0  HIT:          0  MISS:          0
BTB BRANCH_CONDITIONAL	ACCESS:          0  HIT:          0  MISS:          0
BTB BRANCH_DIRECT_CALL	ACCESS:          0  HIT:          0  MISS:          0
BTB BRANCH_INDIRECT_CALL	ACCESS:          0  HIT:          0  MISS:          0
BTB BRANCH_RETURN	ACCESS:          0  HIT:          0  MISS:          0
BTB BRANCH_OTHER ACCESS:          0  HIT:          0  MISS:          0

L2C TOTAL     ACCESS:   21552168  HIT:   21075622  MISS:     476546  HIT %:    97.7889  MISS %:    2.21113   MPKI: 2.38273
L2C LOAD      ACCESS:     233506  HIT:      97230  MISS:     136276  HIT %:    41.6392  MISS %:    58.3608   MPKI: 0.68138
L2C DATA LOAD MPKI: 0.68108
L2C INSTRUCTION LOAD MPKI: 0.0003
L2C RFO       ACCESS:       5036  HIT:        938  MISS:       4098  HIT %:    18.6259  MISS %:    81.3741   MPKI: 0.02049
L2C PREFETCH  ACCESS:    5556095  HIT:    5248182  MISS:     307913  HIT %:    94.4581  MISS %:     5.5419   MPKI: 1.53957
L2C DATA PREFETCH MPKI: 1.53957
L2C INSTRUCTION PREFETCH MPKI: 0
L2C WRITEBACK ACCESS:     220669  HIT:     203717  MISS:      16952  HIT %:    92.3179  MISS %:    7.68209   MPKI: 0.08476
L2C LOAD TRANSLATION ACCESS:   14662938  HIT:   14652008  MISS:      10930  HIT %:    99.9255  MISS %:  0.0745417   MPKI: 0.05465
L2C TRANSLATION FROM L1D PREFETCHER ACCESS:     873924  HIT:     873547  MISS:        377  HIT %:    99.9569  MISS %:  0.0431388   MPKI: 0.001885
L2C PREFETCH  REQUESTED:          0  ISSUED:          0  USEFUL:     112491  USELESS:     307252
L2C USEFUL LOAD PREFETCHES:     112491 PREFETCH ISSUED TO LOWER LEVEL:     419375  ACCURACY: 26.8235
L2C TIMELY PREFETCHES:     112491 LATE PREFETCHES: 801 DROPPED PREFETCHES: 0
L2C PREFETCHES SAME FILL-ORIGIN LEVEL: 398656 DIFFERENT FILL-ORIGIN LEVEL: 0
L2C AVERAGE MISS LATENCY: 227.671 cycles
L2C RQ	ACCESS:   21578277	FORWARD:          0	MERGED:          0	TO_CACHE:   21578277
L2C WQ	ACCESS:     304771	FORWARD:          9	MERGED:          0	TO_CACHE:     304771
L2C PQ	ACCESS:    7785399	FORWARD:          0	MERGED:       3700	TO_CACHE:    7781690

L2C Instructions Evicting Data 88
L2C Translations Evicting Data 15096
L2C Data Evicting Data 596035
L2C Instructions Evicting Instructions 0
L2C Translations Evicting Instructions 0
L2C Data Evicting Instructions 84
L2C Instructions Evicting Translations 1
L2C Translations Evicting Translations 385
L2C Data Evicting Translations 14496
L2C Dense regions hint from L2: 0
PSCL5 TOTAL     ACCESS:   15523064  HIT:   15523064  MISS:          0  HIT %:        100  MISS %:          0   MPKI: 0
PSCL5 LOAD TRANSLATION ACCESS:   14649205  HIT:   14649205  MISS:          0  HIT %:        100  MISS %:          0   MPKI: 0
PSCL5 TRANSLATION FROM L1D PREFETCHER ACCESS:     873859  HIT:     873859  MISS:          0  HIT %:        100  MISS %:          0   MPKI: 0
PSCL5 PREFETCH  REQUESTED:          0  ISSUED:          0  USEFUL:          0  USELESS:          0
PSCL5 USEFUL LOAD PREFETCHES:          0 PREFETCH ISSUED TO LOWER LEVEL:          0  ACCURACY: -nan
PSCL5 TIMELY PREFETCHES:          0 LATE PREFETCHES: 0 DROPPED PREFETCHES: 0
PSCL5 PREFETCHES SAME FILL-ORIGIN LEVEL: 0 DIFFERENT FILL-ORIGIN LEVEL: 0

PSCL4 TOTAL     ACCESS:   15523064  HIT:   15523064  MISS:          0  HIT %:        100  MISS %:          0   MPKI: 0
PSCL4 LOAD TRANSLATION ACCESS:   14649205  HIT:   14649205  MISS:          0  HIT %:        100  MISS %:          0   MPKI: 0
PSCL4 TRANSLATION FROM L1D PREFETCHER ACCESS:     873859  HIT:     873859  MISS:          0  HIT %:        100  MISS %:          0   MPKI: 0
PSCL4 PREFETCH  REQUESTED:          0  ISSUED:          0  USEFUL:          0  USELESS:          0
PSCL4 USEFUL LOAD PREFETCHES:          0 PREFETCH ISSUED TO LOWER LEVEL:          0  ACCURACY: -nan
PSCL4 TIMELY PREFETCHES:          0 LATE PREFETCHES: 0 DROPPED PREFETCHES: 0
PSCL4 PREFETCHES SAME FILL-ORIGIN LEVEL: 0 DIFFERENT FILL-ORIGIN LEVEL: 0

PSCL3 TOTAL     ACCESS:   15522867  HIT:   15522817  MISS:         50  HIT %:    99.9997  MISS %: 0.000322105   MPKI: 0.00025
PSCL3 LOAD TRANSLATION ACCESS:   14649048  HIT:   14648998  MISS:         50  HIT %:    99.9997  MISS %: 0.000341319   MPKI: 0.00025
PSCL3 TRANSLATION FROM L1D PREFETCHER ACCESS:     873819  HIT:     873819  MISS:          0  HIT %:        100  MISS %:          0   MPKI: 0
PSCL3 PREFETCH  REQUESTED:          0  ISSUED:          0  USEFUL:          0  USELESS:          0
PSCL3 USEFUL LOAD PREFETCHES:          0 PREFETCH ISSUED TO LOWER LEVEL:          0  ACCURACY: -nan
PSCL3 TIMELY PREFETCHES:          0 LATE PREFETCHES: 0 DROPPED PREFETCHES: 0
PSCL3 PREFETCHES SAME FILL-ORIGIN LEVEL: 0 DIFFERENT FILL-ORIGIN LEVEL: 0

PSCL2 TOTAL     ACCESS:   15523055  HIT:   15509308  MISS:      13747  HIT %:    99.9114  MISS %:  0.0885586   MPKI: 0.068735
PSCL2 LOAD TRANSLATION ACCESS:   14649267  HIT:   14635520  MISS:      13747  HIT %:    99.9062  MISS %:  0.0938409   MPKI: 0.068735
PSCL2 TRANSLATION FROM L1D PREFETCHER ACCESS:     873788  HIT:     873788  MISS:          0  HIT %:        100  MISS %:          0   MPKI: 0
PSCL2 PREFETCH  REQUESTED:          0  ISSUED:          0  USEFUL:          0  USELESS:          0
PSCL2 USEFUL LOAD PREFETCHES:          0 PREFETCH ISSUED TO LOWER LEVEL:          0  ACCURACY: -nan
PSCL2 TIMELY PREFETCHES:          0 LATE PREFETCHES: 0 DROPPED PREFETCHES: 0
PSCL2 PREFETCHES SAME FILL-ORIGIN LEVEL: 0 DIFFERENT FILL-ORIGIN LEVEL: 0

LLC TOTAL     ACCESS:     668725  HIT:     306208  MISS:     362517  HIT %:    45.7898  MISS %:    54.2102   MPKI: 1.81258
LLC LOAD      ACCESS:     135737  HIT:      37540  MISS:      98197  HIT %:    27.6564  MISS %:    72.3436   MPKI: 0.490985
LLC RFO       ACCESS:       4047  HIT:        738  MISS:       3309  HIT %:    18.2357  MISS %:    81.7643   MPKI: 0.016545
LLC PREFETCH  ACCESS:     308503  HIT:      70774  MISS:     237729  HIT %:    22.9411  MISS %:    77.0589   MPKI: 1.18864
LLC WRITEBACK ACCESS:     209131  HIT:     188530  MISS:      20601  HIT %:    90.1492  MISS %:    9.85076   MPKI: 0.103005
LLC LOAD TRANSLATION ACCESS:      10930  HIT:       8381  MISS:       2549  HIT %:    76.6789  MISS %:    23.3211   MPKI: 0.012745
LLC TRANSLATION FROM L1D PREFETCHER ACCESS:        377  HIT:        245  MISS:        132  HIT %:    64.9867  MISS %:    35.0133   MPKI: 0.00066
LLC PREFETCH  REQUESTED:          0  ISSUED:          0  USEFUL:      76488  USELESS:    1216515
LLC USEFUL LOAD PREFETCHES:      76488 PREFETCH ISSUED TO LOWER LEVEL:    1287651  ACCURACY: 5.94012
LLC TIMELY PREFETCHES:      76488 LATE PREFETCHES: 0 DROPPED PREFETCHES: 0
LLC PREFETCHES SAME FILL-ORIGIN LEVEL: 0 DIFFERENT FILL-ORIGIN LEVEL: 0
LLC AVERAGE MISS LATENCY: 1269.8 cycles
LLC RQ	ACCESS:    2124831	FORWARD:          0	MERGED:          0	TO_CACHE:    2124827
LLC WQ	ACCESS:    2039399	FORWARD:          7	MERGED:          0	TO_CACHE:    2039399
LLC PQ	ACCESS:    2167524	FORWARD:          0	MERGED:          0	TO_CACHE:    2167521

LLC Dense regions hint to LLC: 0

RAW hits: 6769888
Loads Generated: 33701993
Loads sent to L1D: 26932103
Stores Generated: 12253480
Stores sent to L1D: 12253480
Major fault: 0 Minor fault: 2047
Allocated PAGES: 14903

CPU 2 cumulative IPC: 0.667776 instructions: 200000003 cycles: 299501701
ITLB TOTAL     ACCESS:   37614786  HIT:   28891438  MISS:    8723348  HIT %:    76.8087  MISS %:    23.1913   MPKI: 43.6167
ITLB LOAD TRANSLATION ACCESS:   37614786  HIT:   28891438  MISS:    8723348  HIT %:    76.8087  MISS %:    23.1913   MPKI: 43.6167
ITLB PREFETCH  REQUESTED:          0  ISSUED:          0  USEFUL:          0  USELESS:          0
ITLB USEFUL LOAD PREFETCHES:          0 PREFETCH ISSUED TO LOWER LEVEL:          0  ACCURACY: -nan
ITLB TIMELY PREFETCHES:          0 LATE PREFETCHES: 0 DROPPED PREFETCHES: 0
ITLB PREFETCHES SAME FILL-ORIGIN LEVEL: 0 DIFFERENT FILL-ORIGIN LEVEL: 0
ITLB AVERAGE MISS LATENCY: 41.2535 cycles
ITLB RQ	ACCESS:   55233653	FORWARD:          0	MERGED:    6575127	TO_CACHE:   48658526

DTLB TOTAL     ACCESS:   25096392  HIT:   14647067  MISS:   10449325  HIT %:    58.3632  MISS %:    41.6368   MPKI: 52.2466
DTLB LOAD TRANSLATION ACCESS:   25096392  HIT:   14647067  MISS:   10449325  HIT %:    58.3632  MISS %:    41.6368   MPKI: 52.2466
DTLB PREFETCH  REQUESTED:          0  ISSUED:          0  USEFUL:          0  USELESS:          0
DTLB USEFUL LOAD PREFETCHES:          0 PREFETCH ISSUED TO LOWER LEVEL:          0  ACCURACY: -nan
DTLB TIMELY PREFETCHES:          0 LATE PREFETCHES: 0 DROPPED PREFETCHES: 0
DTLB PREFETCHES SAME FILL-ORIGIN LEVEL: 0 DIFFERENT FILL-ORIGIN LEVEL: 0
DTLB AVERAGE MISS LATENCY: 39.2564 cycles
DTLB RQ	ACCESS:   37402096	FORWARD:          0	MERGED:    5170899	TO_CACHE:   32231197

STLB TOTAL     ACCESS:   23102491  HIT:    7481259  MISS:   15621232  HIT %:    32.3829  MISS %:    67.6171   MPKI: 78.1062
STLB LOAD TRANSLATION ACCESS:   19172673  HIT:    4395577  MISS:   14777096  HIT %:    22.9263  MISS %:    77.0737   MPKI: 73.8855
STLB TRANSLATION FROM L1D PREFETCHER ACCESS:    3929818  HIT:    3085682  MISS:     844136  HIT %:    78.5197  MISS %:    21.4803   MPKI: 4.22068
STLB PREFETCH  REQUESTED:          0  ISSUED:          0  USEFUL:     556766  USELESS:     465385
STLB USEFUL LOAD PREFETCHES:     556766 PREFETCH ISSUED TO LOWER LEVEL:          0  ACCURACY: inf
STLB TIMELY PREFETCHES:     556766 LATE PREFETCHES: 0 DROPPED PREFETCHES: 201584
STLB PREFETCHES SAME FILL-ORIGIN LEVEL: 0 DIFFERENT FILL-ORIGIN LEVEL: 0
STLB AVERAGE MISS LATENCY: 38.0671 cycles
STLB RQ	ACCESS:   37783024	FORWARD:          0	MERGED:    9485910	TO_CACHE:   28297114

STLB Hit, L1D data hit: 0
STLB Hit, L2C data hit: 0
STLB Hit, LLC data hit: 0
STLB Hit, LLC data miss: 0
STLB STLB hints to L2: 0
L1D TOTAL     ACCESS:   36549142  HIT:   35920430  MISS:     628712  HIT %:    98.2798  MISS %:    1.72018   MPKI: 3.14356
L1D LOAD      ACCESS:   19189617  HIT:   18719642  MISS:     469975  HIT %:    97.5509  MISS %:    2.44911   MPKI: 2.34987
L1D RFO       ACCESS:   11464588  HIT:   11464210  MISS:        378  HIT %:    99.9967  MISS %: 0.00329711   MPKI: 0.00189
L1D PREFETCH  ACCESS:    5894937  HIT:    5736578  MISS:     158359  HIT %:    97.3136  MISS %:    2.68636   MPKI: 0.791795
L1D PREFETCH  REQUESTED:   33632250  ISSUED:   33021337  USEFUL:     176715  USELESS:      14160
L1D USEFUL LOAD PREFETCHES:     176715 PREFETCH ISSUED TO LOWER LEVEL:    7243273  ACCURACY: 2.43971
L1D TIMELY PREFETCHES:     176715 LATE PREFETCHES: 27 DROPPED PREFETCHES: 343898
L1D PREFETCHES SAME FILL-ORIGIN LEVEL: 190890 DIFFERENT FILL-ORIGIN LEVEL: 7052383
L1D AVERAGE MISS LATENCY: 110.337 cycles
L1D RQ	ACCESS:   33857591	FORWARD:          0	MERGED:   10063333	TO_CACHE:   23389124
L1D WQ	ACCESS:   15194312	FORWARD:     405163	MERGED:    1181340	TO_CACHE:   14012972
L1D PQ	ACCESS:   18570732	FORWARD:          0	MERGED:    4120098	TO_CACHE:   14450605

L1D UNIQUE REGIONS ACCESSED: 0
L1D REGIONS CONFLICTS: 0
L1D Cross Page Prefetch Requests: 5532046
L1D Same Page Prefetch Requests: 19129319
L1D ROI Sum of L1D PQ occupancy: 345866894
L1D PREFETCHES PUSHED FROM L2C: 0
L1I TOTAL     ACCESS:   45494561  HIT:   45494464  MISS:         97  HIT %:    99.9998  MISS %: 0.000213212   MPKI: 0.000485
L1I LOAD      ACCESS:   45494561  HIT:   45494464  MISS:         97  HIT %:    99.9998  MISS %: 0.000213212   MPKI: 0.000485
L1I PREFETCH  REQUESTED:          0  ISSUED:          0  USEFUL:          0  USELESS:          0
L1I USEFUL LOAD PREFETCHES:          0 PREFETCH ISSUED TO LOWER LEVEL:          0  ACCURACY: -nan
L1I TIMELY PREFETCHES:          0 LATE PREFETCHES: 0 DROPPED PREFETCHES: 0
L1I PREFETCHES SAME FILL-ORIGIN LEVEL: 0 DIFFERENT FILL-ORIGIN LEVEL: 0
L1I AVERAGE MISS LATENCY: 239.732 cycles
L1I RQ	ACCESS:  109363514	FORWARD:          0	MERGED:   54129861	TO_CACHE:   55233653

BTB BRANCH_DIRECT_JUMP	ACCESS:          0  HIT:          0  MISS:          0
BTB BRANCH_INDIRECT	ACCESS:          0  HIT:          0  MISS:          0
BTB BRANCH_CONDITIONAL	ACCESS:          0  HIT:          0  MISS:          0
BTB BRANCH_DIRECT_CALL	ACCESS:          0  HIT:          0  MISS:          0
BTB BRANCH_INDIRECT_CALL	ACCESS:          0  HIT:          0  MISS:          0
BTB BRANCH_RETURN	ACCESS:          0  HIT:          0  MISS:          0
BTB BRANCH_OTHER ACCESS:          0  HIT:          0  MISS:          0

L2C TOTAL     ACCESS:   22412449  HIT:   21696392  MISS:     716057  HIT %:    96.8051  MISS %:    3.19491   MPKI: 3.58028
L2C LOAD      ACCESS:     470049  HIT:     173107  MISS:     296942  HIT %:    36.8274  MISS %:    63.1726   MPKI: 1.48471
L2C DATA LOAD MPKI: 1.48422
L2C INSTRUCTION LOAD MPKI: 0.000485
L2C RFO       ACCESS:        378  HIT:         92  MISS:        286  HIT %:    24.3386  MISS %:    75.6614   MPKI: 0.00143
L2C PREFETCH  ACCESS:    5785629  HIT:    5427123  MISS:     358506  HIT %:    93.8035  MISS %:    6.19649   MPKI: 1.79253
L2C DATA PREFETCH MPKI: 1.79253
L2C INSTRUCTION PREFETCH MPKI: 0
L2C WRITEBACK ACCESS:     197290  HIT:     182413  MISS:      14877  HIT %:    92.4593  MISS %:    7.54068   MPKI: 0.074385
L2C LOAD TRANSLATION ACCESS:   14944359  HIT:   14899391  MISS:      44968  HIT %:    99.6991  MISS %:   0.300903   MPKI: 0.22484
L2C TRANSLATION FROM L1D PREFETCHER ACCESS:    1014744  HIT:    1014266  MISS:        478  HIT %:    99.9529  MISS %:  0.0471055   MPKI: 0.00239
L2C PREFETCH  REQUESTED:          0  ISSUED:          0  USEFUL:     132382  USELESS:     302966
L2C USEFUL LOAD PREFETCHES:     132382 PREFETCH ISSUED TO LOWER LEVEL:     435139  ACCURACY: 30.4229
L2C TIMELY PREFETCHES:     132382 LATE PREFETCHES: 911 DROPPED PREFETCHES: 0
L2C PREFETCHES SAME FILL-ORIGIN LEVEL: 414968 DIFFERENT FILL-ORIGIN LEVEL: 0
L2C AVERAGE MISS LATENCY: 188.327 cycles
L2C RQ	ACCESS:   19993655	FORWARD:          0	MERGED:          0	TO_CACHE:   19993655
L2C WQ	ACCESS:     239393	FORWARD:          7	MERGED:          0	TO_CACHE:     239393
L2C PQ	ACCESS:    7243269	FORWARD:          0	MERGED:       2098	TO_CACHE:    7241164

L2C Instructions Evicting Data 94
L2C Translations Evicting Data 51598
L2C Data Evicting Data 744896
L2C Instructions Evicting Instructions 0
L2C Translations Evicting Instructions 6
L2C Data Evicting Instructions 89
L2C Instructions Evicting Translations 3
L2C Translations Evicting Translations 3568
L2C Data Evicting Translations 50459
L2C Dense regions hint from L2: 0
PSCL5 TOTAL     ACCESS:   15791312  HIT:   15791312  MISS:          0  HIT %:        100  MISS %:          0   MPKI: 0
PSCL5 LOAD TRANSLATION ACCESS:   14777097  HIT:   14777097  MISS:          0  HIT %:        100  MISS %:          0   MPKI: 0
PSCL5 TRANSLATION FROM L1D PREFETCHER ACCESS:    1014215  HIT:    1014215  MISS:          0  HIT %:        100  MISS %:          0   MPKI: 0
PSCL5 PREFETCH  REQUESTED:          0  ISSUED:          0  USEFUL:          0  USELESS:          0
PSCL5 USEFUL LOAD PREFETCHES:          0 PREFETCH ISSUED TO LOWER LEVEL:          0  ACCURACY: -nan
PSCL5 TIMELY PREFETCHES:          0 LATE PREFETCHES: 0 DROPPED PREFETCHES: 0
PSCL5 PREFETCHES SAME FILL-ORIGIN LEVEL: 0 DIFFERENT FILL-ORIGIN LEVEL: 0

PSCL4 TOTAL     ACCESS:   15791312  HIT:   15791312  MISS:          0  HIT %:        100  MISS %:          0   MPKI: 0
PSCL4 LOAD TRANSLATION ACCESS:   14777097  HIT:   14777097  MISS:          0  HIT %:        100  MISS %:          0   MPKI: 0
PSCL4 TRANSLATION FROM L1D PREFETCHER ACCESS:    1014215  HIT:    1014215  MISS:          0  HIT %:        100  MISS %:          0   MPKI: 0
PSCL4 PREFETCH  REQUESTED:          0  ISSUED:          0  USEFUL:          0  USELESS:          0
PSCL4 USEFUL LOAD PREFETCHES:          0 PREFETCH ISSUED TO LOWER LEVEL:          0  ACCURACY: -nan
PSCL4 TIMELY PREFETCHES:          0 LATE PREFETCHES: 0 DROPPED PREFETCHES: 0
PSCL4 PREFETCHES SAME FILL-ORIGIN LEVEL: 0 DIFFERENT FILL-ORIGIN LEVEL: 0

PSCL3 TOTAL     ACCESS:   15790746  HIT:   15790696  MISS:         50  HIT %:    99.9997  MISS %: 0.000316641   MPKI: 0.00025
PSCL3 LOAD TRANSLATION ACCESS:   14776531  HIT:   14776481  MISS:         50  HIT %:    99.9997  MISS %: 0.000338374   MPKI: 0.00025
PSCL3 TRANSLATION FROM L1D PREFETCHER ACCESS:    1014215  HIT:    1014215  MISS:          0  HIT %:        100  MISS %:          0   MPKI: 0
PSCL3 PREFETCH  REQUESTED:          0  ISSUED:          0  USEFUL:          0  USELESS:          0
PSCL3 USEFUL LOAD PREFETCHES:          0 PREFETCH ISSUED TO LOWER LEVEL:          0  ACCURACY: -nan
PSCL3 TIMELY PREFETCHES:          0 LATE PREFETCHES: 0 DROPPED PREFETCHES: 0
PSCL3 PREFETCHES SAME FILL-ORIGIN LEVEL: 0 DIFFERENT FILL-ORIGIN LEVEL: 0

PSCL2 TOTAL     ACCESS:   15791282  HIT:   15623568  MISS:     167714  HIT %:    98.9379  MISS %:    1.06207   MPKI: 0.83857
PSCL2 LOAD TRANSLATION ACCESS:   14777596  HIT:   14609882  MISS:     167714  HIT %:    98.8651  MISS %:    1.13492   MPKI: 0.83857
PSCL2 TRANSLATION FROM L1D PREFETCHER ACCESS:    1013686  HIT:    1013686  MISS:          0  HIT %:        100  MISS %:          0   MPKI: 0
PSCL2 PREFETCH  REQUESTED:          0  ISSUED:          0  USEFUL:          0  USELESS:          0
PSCL2 USEFUL LOAD PREFETCHES:          0 PREFETCH ISSUED TO LOWER LEVEL:          0  ACCURACY: -nan
PSCL2 TIMELY PREFETCHES:          0 LATE PREFETCHES: 0 DROPPED PREFETCHES: 0
PSCL2 PREFETCHES SAME FILL-ORIGIN LEVEL: 0 DIFFERENT FILL-ORIGIN LEVEL: 0

LLC TOTAL     ACCESS:     888654  HIT:     405204  MISS:     483450  HIT %:    45.5975  MISS %:    54.4025   MPKI: 2.41725
LLC LOAD      ACCESS:     296184  HIT:      96836  MISS:     199348  HIT %:    32.6945  MISS %:    67.3055   MPKI: 0.99674
LLC RFO       ACCESS:        285  HIT:         69  MISS:        216  HIT %:    24.2105  MISS %:    75.7895   MPKI: 0.00108
LLC PREFETCH  ACCESS:     359265  HIT:      89792  MISS:     269473  HIT %:    24.9933  MISS %:    75.0067   MPKI: 1.34736
LLC WRITEBACK ACCESS:     187474  HIT:     176238  MISS:      11236  HIT %:    94.0066  MISS %:    5.99336   MPKI: 0.05618
LLC LOAD TRANSLATION ACCESS:      44968  HIT:      41895  MISS:       3073  HIT %:    93.1663  MISS %:    6.83375   MPKI: 0.015365
LLC TRANSLATION FROM L1D PREFETCHER ACCESS:        478  HIT:        374  MISS:        104  HIT %:    78.2427  MISS %:    21.7573   MPKI: 0.00052
LLC PREFETCH  REQUESTED:          0  ISSUED:          0  USEFUL:      76488  USELESS:    1216515
LLC USEFUL LOAD PREFETCHES:      76488 PREFETCH ISSUED TO LOWER LEVEL:    1287651  ACCURACY: 5.94012
LLC TIMELY PREFETCHES:      76488 LATE PREFETCHES: 0 DROPPED PREFETCHES: 0
LLC PREFETCHES SAME FILL-ORIGIN LEVEL: 0 DIFFERENT FILL-ORIGIN LEVEL: 0
LLC AVERAGE MISS LATENCY: 952.163 cycles
LLC RQ	ACCESS:    2124831	FORWARD:          0	MERGED:          0	TO_CACHE:    2124827
LLC WQ	ACCESS:    2039399	FORWARD:          7	MERGED:          0	TO_CACHE:    2039399
LLC PQ	ACCESS:    2167524	FORWARD:          0	MERGED:          0	TO_CACHE:    2167521

LLC Dense regions hint to LLC: 0

RAW hits: 6785890
Loads Generated: 34604242
Loads sent to L1D: 27818352
Stores Generated: 12424768
Stores sent to L1D: 12424766
Major fault: 0 Minor fault: 4455
Allocated PAGES: 14903

CPU 3 cumulative IPC: 0.589131 instructions: 200000001 cycles: 339482980
ITLB TOTAL     ACCESS:   40815917  HIT:   30978835  MISS:    9837082  HIT %:    75.8989  MISS %:    24.1011   MPKI: 49.1854
ITLB LOAD TRANSLATION ACCESS:   40815917  HIT:   30978835  MISS:    9837082  HIT %:    75.8989  MISS %:    24.1011   MPKI: 49.1854
ITLB PREFETCH  REQUESTED:          0  ISSUED:          0  USEFUL:          0  USELESS:          0
ITLB USEFUL LOAD PREFETCHES:          0 PREFETCH ISSUED TO LOWER LEVEL:          0  ACCURACY: -nan
ITLB TIMELY PREFETCHES:          0 LATE PREFETCHES: 0 DROPPED PREFETCHES: 0
ITLB PREFETCHES SAME FILL-ORIGIN LEVEL: 0 DIFFERENT FILL-ORIGIN LEVEL: 0
ITLB AVERAGE MISS LATENCY: 40.279 cycles
ITLB RQ	ACCESS:   52616700	FORWARD:          0	MERGED:    4686078	TO_CACHE:   47930622

DTLB TOTAL     ACCESS:   28320506  HIT:   16730227  MISS:   11590279  HIT %:    59.0746  MISS %:    40.9254   MPKI: 57.9514
DTLB LOAD TRANSLATION ACCESS:   28320506  HIT:   16730227  MISS:   11590279  HIT %:    59.0746  MISS %:    40.9254   MPKI: 57.9514
DTLB PREFETCH  REQUESTED:          0  ISSUED:          0  USEFUL:          0  USELESS:          0
DTLB USEFUL LOAD PREFETCHES:          0 PREFETCH ISSUED TO LOWER LEVEL:          0  ACCURACY: -nan
DTLB TIMELY PREFETCHES:          0 LATE PREFETCHES: 0 DROPPED PREFETCHES: 0
DTLB PREFETCHES SAME FILL-ORIGIN LEVEL: 0 DIFFERENT FILL-ORIGIN LEVEL: 0
DTLB AVERAGE MISS LATENCY: 39.1888 cycles
DTLB RQ	ACCESS:   35634431	FORWARD:          0	MERGED:    3797967	TO_CACHE:   31836464

STLB TOTAL     ACCESS:   29314324  HIT:    9526495  MISS:   19787829  HIT %:    32.4977  MISS %:    67.5023   MPKI: 98.9391
STLB LOAD TRANSLATION ACCESS:   21427360  HIT:    4412755  MISS:   17014605  HIT %:     20.594  MISS %:     79.406   MPKI: 85.073
STLB TRANSLATION FROM L1D PREFETCHER ACCESS:    7886964  HIT:    5113740  MISS:    2773224  HIT %:    64.8379  MISS %:    35.1621   MPKI: 13.8661
STLB PREFETCH  REQUESTED:          0  ISSUED:          0  USEFUL:    1001062  USELESS:    1983971
STLB USEFUL LOAD PREFETCHES:    1001062 PREFETCH ISSUED TO LOWER LEVEL:          0  ACCURACY: inf
STLB TIMELY PREFETCHES:    1001062 LATE PREFETCHES: 0 DROPPED PREFETCHES: 813389
STLB PREFETCHES SAME FILL-ORIGIN LEVEL: 0 DIFFERENT FILL-ORIGIN LEVEL: 0
STLB AVERAGE MISS LATENCY: 39.1232 cycles
STLB RQ	ACCESS:   53039838	FORWARD:          0	MERGED:   20482195	TO_CACHE:   32557643

STLB Hit, L1D data hit: 0
STLB Hit, L2C data hit: 0
STLB Hit, LLC data hit: 0
STLB Hit, LLC data miss: 0
STLB STLB hints to L2: 0
L1D TOTAL     ACCESS:   52447860  HIT:   50926261  MISS:    1521599  HIT %:    97.0988  MISS %:    2.90117   MPKI: 7.60799
L1D LOAD      ACCESS:   20006133  HIT:   19232523  MISS:     773610  HIT %:    96.1331  MISS %:    3.86686   MPKI: 3.86805
L1D RFO       ACCESS:   12754773  HIT:   12687671  MISS:      67102  HIT %:    99.4739  MISS %:   0.526093   MPKI: 0.33551
L1D PREFETCH  ACCESS:   19686954  HIT:   19006067  MISS:     680887  HIT %:    96.5414  MISS %:    3.45857   MPKI: 3.40443
L1D PREFETCH  REQUESTED:   72691025  ISSUED:   70332361  USEFUL:     673470  USELESS:      60192
L1D USEFUL LOAD PREFETCHES:     673470 PREFETCH ISSUED TO LOWER LEVEL:    7763028  ACCURACY: 8.67535
L1D TIMELY PREFETCHES:     673470 LATE PREFETCHES: 309 DROPPED PREFETCHES: 1741855
L1D PREFETCHES SAME FILL-ORIGIN LEVEL: 733921 DIFFERENT FILL-ORIGIN LEVEL: 7029107
L1D AVERAGE MISS LATENCY: 52.4476 cycles
L1D RQ	ACCESS:   32320043	FORWARD:          0	MERGED:   10148565	TO_CACHE:   21588879
L1D WQ	ACCESS:   16189269	FORWARD:     585513	MERGED:    2143717	TO_CACHE:   14045552
L1D PQ	ACCESS:   40365265	FORWARD:          0	MERGED:   10395255	TO_CACHE:   29967096

L1D UNIQUE REGIONS ACCESSED: 0
L1D REGIONS CONFLICTS: 0
L1D Cross Page Prefetch Requests: 15144914
L1D Same Page Prefetch Requests: 37933019
L1D ROI Sum of L1D PQ occupancy: 951533368
L1D PREFETCHES PUSHED FROM L2C: 0
L1I TOTAL     ACCESS:   48886006  HIT:   48869500  MISS:      16506  HIT %:    99.9662  MISS %:  0.0337643   MPKI: 0.08253
L1I LOAD      ACCESS:   48886006  HIT:   48869500  MISS:      16506  HIT %:    99.9662  MISS %:  0.0337643   MPKI: 0.08253
L1I PREFETCH  REQUESTED:          0  ISSUED:          0  USEFUL:          0  USELESS:          0
L1I USEFUL LOAD PREFETCHES:          0 PREFETCH ISSUED TO LOWER LEVEL:          0  ACCURACY: -nan
L1I TIMELY PREFETCHES:          0 LATE PREFETCHES: 0 DROPPED PREFETCHES: 0
L1I PREFETCHES SAME FILL-ORIGIN LEVEL: 0 DIFFERENT FILL-ORIGIN LEVEL: 0
L1I AVERAGE MISS LATENCY: 107.186 cycles
L1I RQ	ACCESS:  102614485	FORWARD:          0	MERGED:   49997785	TO_CACHE:   52616700

BTB BRANCH_DIRECT_JUMP	ACCESS:          0  HIT:          0  MISS:          0
BTB BRANCH_INDIRECT	ACCESS:          0  HIT:          0  MISS:          0
BTB BRANCH_CONDITIONAL	ACCESS:          0  HIT:          0  MISS:          0
BTB BRANCH_DIRECT_CALL	ACCESS:          0  HIT:          0  MISS:          0
BTB BRANCH_INDIRECT_CALL	ACCESS:          0  HIT:          0  MISS:          0
BTB BRANCH_RETURN	ACCESS:          0  HIT:          0  MISS:          0
BTB BRANCH_OTHER ACCESS:          0  HIT:          0  MISS:          0

L2C TOTAL     ACCESS:   29450387  HIT:   28065189  MISS:    1385198  HIT %:    95.2965  MISS %:     4.7035   MPKI: 6.92599
L2C LOAD      ACCESS:     789829  HIT:     374526  MISS:     415303  HIT %:    47.4186  MISS %:    52.5814   MPKI: 2.07651
L2C DATA LOAD MPKI: 2.03845
L2C INSTRUCTION LOAD MPKI: 0.03806
L2C RFO       ACCESS:      67100  HIT:      14258  MISS:      52842  HIT %:    21.2489  MISS %:    78.7511   MPKI: 0.26421
L2C PREFETCH  ACCESS:    7110466  HIT:    6254599  MISS:     855867  HIT %:    87.9633  MISS %:    12.0367   MPKI: 4.27933
L2C DATA PREFETCH MPKI: 4.27933
L2C INSTRUCTION PREFETCH MPKI: 0
L2C WRITEBACK ACCESS:     902907  HIT:     857295  MISS:      45612  HIT %:    94.9483  MISS %:    5.05168   MPKI: 0.22806
L2C LOAD TRANSLATION ACCESS:   17051339  HIT:   17037747  MISS:      13592  HIT %:    99.9203  MISS %:  0.0797122   MPKI: 0.06796
L2C TRANSLATION FROM L1D PREFETCHER ACCESS:    3528746  HIT:    3526764  MISS:       1982  HIT %:    99.9438  MISS %:  0.0561673   MPKI: 0.00991
L2C PREFETCH  REQUESTED:          0  ISSUED:          0  USEFUL:     176694  USELESS:     748250
L2C USEFUL LOAD PREFETCHES:     176694 PREFETCH ISSUED TO LOWER LEVEL:     924101  ACCURACY: 19.1206
L2C TIMELY PREFETCHES:     176694 LATE PREFETCHES: 1193 DROPPED PREFETCHES: 0
L2C PREFETCHES SAME FILL-ORIGIN LEVEL: 804763 DIFFERENT FILL-ORIGIN LEVEL: 0
L2C AVERAGE MISS LATENCY: 110.188 cycles
L2C RQ	ACCESS:   23080997	FORWARD:          0	MERGED:          0	TO_CACHE:   23080994
L2C WQ	ACCESS:     971886	FORWARD:         28	MERGED:          0	TO_CACHE:     971886
L2C PQ	ACCESS:    7763026	FORWARD:          0	MERGED:       1268	TO_CACHE:    7761733

L2C Instructions Evicting Data 7570
L2C Translations Evicting Data 16395
L2C Data Evicting Data 1396658
L2C Instructions Evicting Instructions 232
L2C Translations Evicting Instructions 92
L2C Data Evicting Instructions 7328
L2C Instructions Evicting Translations 96
L2C Translations Evicting Translations 202
L2C Data Evicting Translations 15765
L2C Dense regions hint from L2: 0
PSCL5 TOTAL     ACCESS:   20542438  HIT:   20542438  MISS:          0  HIT %:        100  MISS %:          0   MPKI: 0
PSCL5 LOAD TRANSLATION ACCESS:   17014607  HIT:   17014607  MISS:          0  HIT %:        100  MISS %:          0   MPKI: 0
PSCL5 TRANSLATION FROM L1D PREFETCHER ACCESS:    3527831  HIT:    3527831  MISS:          0  HIT %:        100  MISS %:          0   MPKI: 0
PSCL5 PREFETCH  REQUESTED:          0  ISSUED:          0  USEFUL:          0  USELESS:          0
PSCL5 USEFUL LOAD PREFETCHES:          0 PREFETCH ISSUED TO LOWER LEVEL:          0  ACCURACY: -nan
PSCL5 TIMELY PREFETCHES:          0 LATE PREFETCHES: 0 DROPPED PREFETCHES: 0
PSCL5 PREFETCHES SAME FILL-ORIGIN LEVEL: 0 DIFFERENT FILL-ORIGIN LEVEL: 0

PSCL4 TOTAL     ACCESS:   20542438  HIT:   20542438  MISS:          0  HIT %:        100  MISS %:          0   MPKI: 0
PSCL4 LOAD TRANSLATION ACCESS:   17014607  HIT:   17014607  MISS:          0  HIT %:        100  MISS %:          0   MPKI: 0
PSCL4 TRANSLATION FROM L1D PREFETCHER ACCESS:    3527831  HIT:    3527831  MISS:          0  HIT %:        100  MISS %:          0   MPKI: 0
PSCL4 PREFETCH  REQUESTED:          0  ISSUED:          0  USEFUL:          0  USELESS:          0
PSCL4 USEFUL LOAD PREFETCHES:          0 PREFETCH ISSUED TO LOWER LEVEL:          0  ACCURACY: -nan
PSCL4 TIMELY PREFETCHES:          0 LATE PREFETCHES: 0 DROPPED PREFETCHES: 0
PSCL4 PREFETCHES SAME FILL-ORIGIN LEVEL: 0 DIFFERENT FILL-ORIGIN LEVEL: 0

PSCL3 TOTAL     ACCESS:   20541186  HIT:   20541116  MISS:         70  HIT %:    99.9997  MISS %: 0.000340779   MPKI: 0.00035
PSCL3 LOAD TRANSLATION ACCESS:   17013496  HIT:   17013426  MISS:         70  HIT %:    99.9996  MISS %: 0.000411438   MPKI: 0.00035
PSCL3 TRANSLATION FROM L1D PREFETCHER ACCESS:    3527690  HIT:    3527690  MISS:          0  HIT %:        100  MISS %:          0   MPKI: 0
PSCL3 PREFETCH  REQUESTED:          0  ISSUED:          0  USEFUL:          0  USELESS:          0
PSCL3 USEFUL LOAD PREFETCHES:          0 PREFETCH ISSUED TO LOWER LEVEL:          0  ACCURACY: -nan
PSCL3 TIMELY PREFETCHES:          0 LATE PREFETCHES: 0 DROPPED PREFETCHES: 0
PSCL3 PREFETCHES SAME FILL-ORIGIN LEVEL: 0 DIFFERENT FILL-ORIGIN LEVEL: 0

PSCL2 TOTAL     ACCESS:   20542400  HIT:   20504857  MISS:      37543  HIT %:    99.8172  MISS %:   0.182759   MPKI: 0.187715
PSCL2 LOAD TRANSLATION ACCESS:   17015482  HIT:   16977939  MISS:      37543  HIT %:    99.7794  MISS %:    0.22064   MPKI: 0.187715
PSCL2 TRANSLATION FROM L1D PREFETCHER ACCESS:    3526918  HIT:    3526918  MISS:          0  HIT %:        100  MISS %:          0   MPKI: 0
PSCL2 PREFETCH  REQUESTED:          0  ISSUED:          0  USEFUL:          0  USELESS:          0
PSCL2 USEFUL LOAD PREFETCHES:          0 PREFETCH ISSUED TO LOWER LEVEL:          0  ACCURACY: -nan
PSCL2 TIMELY PREFETCHES:          0 LATE PREFETCHES: 0 DROPPED PREFETCHES: 0
PSCL2 PREFETCHES SAME FILL-ORIGIN LEVEL: 0 DIFFERENT FILL-ORIGIN LEVEL: 0

LLC TOTAL     ACCESS:    2003090  HIT:    1460417  MISS:     542673  HIT %:    72.9082  MISS %:    27.0918   MPKI: 2.71336
LLC LOAD      ACCESS:     414293  HIT:     270400  MISS:     143893  HIT %:    65.2678  MISS %:    34.7322   MPKI: 0.719465
LLC RFO       ACCESS:      52729  HIT:      26282  MISS:      26447  HIT %:    49.8435  MISS %:    50.1565   MPKI: 0.132235
LLC PREFETCH  ACCESS:     856985  HIT:     493041  MISS:     363944  HIT %:     57.532  MISS %:     42.468   MPKI: 1.81972
LLC WRITEBACK ACCESS:     663509  HIT:     657339  MISS:       6170  HIT %:    99.0701  MISS %:   0.929904   MPKI: 0.03085
LLC LOAD TRANSLATION ACCESS:      13592  HIT:      11683  MISS:       1909  HIT %:     85.955  MISS %:     14.045   MPKI: 0.009545
LLC TRANSLATION FROM L1D PREFETCHER ACCESS:       1982  HIT:       1672  MISS:        310  HIT %:    84.3592  MISS %:    15.6408   MPKI: 0.00155
LLC PREFETCH  REQUESTED:          0  ISSUED:          0  USEFUL:      76488  USELESS:    1216515
LLC USEFUL LOAD PREFETCHES:      76488 PREFETCH ISSUED TO LOWER LEVEL:    1287651  ACCURACY: 5.94012
LLC TIMELY PREFETCHES:      76488 LATE PREFETCHES: 0 DROPPED PREFETCHES: 0
LLC PREFETCHES SAME FILL-ORIGIN LEVEL: 0 DIFFERENT FILL-ORIGIN LEVEL: 0
LLC AVERAGE MISS LATENCY: 848.251 cycles
LLC RQ	ACCESS:    2124831	FORWARD:          0	MERGED:          0	TO_CACHE:    2124827
LLC WQ	ACCESS:    2039399	FORWARD:          7	MERGED:          0	TO_CACHE:    2039399
LLC PQ	ACCESS:    2167524	FORWARD:          0	MERGED:          0	TO_CACHE:    2167521

LLC Dense regions hint to LLC: 0

RAW hits: 7122063
Loads Generated: 37148599
Loads sent to L1D: 30026535
Stores Generated: 15038287
Stores sent to L1D: 15038286
Major fault: 0 Minor fault: 1778
Allocated PAGES: 14903

DRAM Statistics
 CHANNEL 0
 RQ ROW_BUFFER_HIT:      87383  ROW_BUFFER_MISS:    2361038
 DBUS_CONGESTED:        266
 WQ ROW_BUFFER_HIT:     265559  ROW_BUFFER_MISS:    1036817  FULL:          0

 AVG_CONGESTED_CYCLE: 4
 All warmup complete: 5
Channel 0 Bank busy for read cycles: 0
Channel 0 Bank busy for write cycles: 0
Channel 0
Rank 0
0banks busy for read cycles: 79733979
0banks busy for write cycles: 219092
1banks busy for read cycles: 103677866
1banks busy for write cycles: 28211563
2banks busy for read cycles: 50167475
2banks busy for write cycles: 18513947
3banks busy for read cycles: 22836733
3banks busy for write cycles: 13684756
4banks busy for read cycles: 10405423
4banks busy for write cycles: 10401450
5banks busy for read cycles: 4704684
5banks busy for write cycles: 7796622
6banks busy for read cycles: 1991626
6banks busy for write cycles: 5514624
7banks busy for read cycles: 846288
7banks busy for write cycles: 3695098
8banks busy for read cycles: 412009
8banks busy for write cycles: 2586587

CPU 0 Branch Prediction Accuracy: 99.4644% MPKI: 1.0714 Average ROB Occupancy at Mispredict: 148.982
Branch types
NOT_BRANCH: 0 0%
BRANCH_DIRECT_JUMP: 0 0%
BRANCH_INDIRECT: 0 0%
BRANCH_CONDITIONAL: 0 0%
BRANCH_DIRECT_CALL: 0 0%
BRANCH_INDIRECT_CALL: 0 0%
BRANCH_RETURN: 0 0%
BRANCH_OTHER: 0 0%


CPU 1 Branch Prediction Accuracy: 99.9566% MPKI: 0.0918818 Average ROB Occupancy at Mispredict: 125.557
Branch types
NOT_BRANCH: 0 0%
BRANCH_DIRECT_JUMP: 0 0%
BRANCH_INDIRECT: 0 0%
BRANCH_CONDITIONAL: 0 0%
BRANCH_DIRECT_CALL: 0 0%
BRANCH_INDIRECT_CALL: 0 0%
BRANCH_RETURN: 0 0%
BRANCH_OTHER: 0 0%


CPU 2 Branch Prediction Accuracy: 99.6615% MPKI: 0.714385 Average ROB Occupancy at Mispredict: 116.779
Branch types
NOT_BRANCH: 0 0%
BRANCH_DIRECT_JUMP: 0 0%
BRANCH_INDIRECT: 0 0%
BRANCH_CONDITIONAL: 0 0%
BRANCH_DIRECT_CALL: 0 0%
BRANCH_INDIRECT_CALL: 0 0%
BRANCH_RETURN: 0 0%
BRANCH_OTHER: 0 0%


CPU 3 Branch Prediction Accuracy: 99.8211% MPKI: 0.409149 Average ROB Occupancy at Mispredict: 130.18
Branch types
NOT_BRANCH: 0 0%
BRANCH_DIRECT_JUMP: 0 0%
BRANCH_INDIRECT: 0 0%
BRANCH_CONDITIONAL: 0 0%
BRANCH_DIRECT_CALL: 0 0%
BRANCH_INDIRECT_CALL: 0 0%
BRANCH_RETURN: 0 0%
BRANCH_OTHER: 0 0%

DRAM PAGES: 1048576
Allocated PAGES: 14903
