
*** ChampSim Multicore Out-of-Order Simulator ***

Warmup Instructions: 50000000
Simulation Instructions: 200000000
Number of CPUs: 4
LLC sets: 8192
LLC ways: 16
Off-chip DRAM Size: 4096 MB Channels: 1 Width: 64-bit Data Rate: 6400 MT/s
CPU 0 runs ./traces/ligra/ligra_BC.com-lj.ungraph.gcc_6.3.0_O3.drop_17000M.length_250M.champsimtrace.xz
.xz
CPU 1 runs ./traces/ligra/ligra_BC.com-lj.ungraph.gcc_6.3.0_O3.drop_17000M.length_250M.champsimtrace.xz
.xz
CPU 2 runs ./traces/ligra/ligra_BC.com-lj.ungraph.gcc_6.3.0_O3.drop_17000M.length_250M.champsimtrace.xz
.xz
CPU 3 runs ./traces/ligra/ligra_BC.com-lj.ungraph.gcc_6.3.0_O3.drop_17000M.length_250M.champsimtrace.xz
.xz
BTB has LRU replacement policy
ITLB has LRU replacement policy
DTLB has LRU replacement policy
STLB has LRU replacement policy
L1I has LRU replacement policy
History Sets: 8
History Ways: 16
BERTI Size: 16
BERTI Stride Size: 8
L1D has LRU replacement policy
Initialize SRRIP state for L2C
Initialize DRRIP state for LLC
BTB has LRU replacement policy
ITLB has LRU replacement policy
DTLB has LRU replacement policy
STLB has LRU replacement policy
L1I has LRU replacement policy
History Sets: 8
History Ways: 16
BERTI Size: 16
BERTI Stride Size: 8
L1D has LRU replacement policy
Initialize SRRIP state for L2C
Initialize DRRIP state for LLC
BTB has LRU replacement policy
ITLB has LRU replacement policy
DTLB has LRU replacement policy
STLB has LRU replacement policy
L1I has LRU replacement policy
History Sets: 8
History Ways: 16
BERTI Size: 16
BERTI Stride Size: 8
L1D has LRU replacement policy
Initialize SRRIP state for L2C
Initialize DRRIP state for LLC
BTB has LRU replacement policy
ITLB has LRU replacement policy
DTLB has LRU replacement policy
STLB has LRU replacement policy
L1I has LRU replacement policy
History Sets: 8
History Ways: 16
BERTI Size: 16
BERTI Stride Size: 8
L1D has LRU replacement policy
Initialize SRRIP state for L2C
Initialize DRRIP state for LLC
Heartbeat CPU 0 instructions: 10000003 cycles: 3085157 heartbeat IPC: 3.24133 cumulative IPC: 3.24133 (Simulation time: 0 hr 2 min 36 sec) 
Heartbeat CPU 1 instructions: 10000003 cycles: 3085176 heartbeat IPC: 3.24131 cumulative IPC: 3.24131 (Simulation time: 0 hr 2 min 36 sec) 
Heartbeat CPU 2 instructions: 10000003 cycles: 3085203 heartbeat IPC: 3.24128 cumulative IPC: 3.24128 (Simulation time: 0 hr 2 min 36 sec) 
Heartbeat CPU 3 instructions: 10000003 cycles: 3085241 heartbeat IPC: 3.24124 cumulative IPC: 3.24124 (Simulation time: 0 hr 2 min 36 sec) 
Heartbeat CPU 0 instructions: 20000001 cycles: 6079536 heartbeat IPC: 3.33959 cumulative IPC: 3.28972 (Simulation time: 0 hr 5 min 20 sec) 
Heartbeat CPU 2 instructions: 20000001 cycles: 6079623 heartbeat IPC: 3.33954 cumulative IPC: 3.28968 (Simulation time: 0 hr 5 min 20 sec) 
Heartbeat CPU 1 instructions: 20000001 cycles: 6079642 heartbeat IPC: 3.33949 cumulative IPC: 3.28967 (Simulation time: 0 hr 5 min 20 sec) 
Heartbeat CPU 3 instructions: 20000003 cycles: 6079743 heartbeat IPC: 3.33945 cumulative IPC: 3.28961 (Simulation time: 0 hr 5 min 20 sec) 
Heartbeat CPU 0 instructions: 30000001 cycles: 9072820 heartbeat IPC: 3.34081 cumulative IPC: 3.30658 (Simulation time: 0 hr 8 min 5 sec) 
Heartbeat CPU 2 instructions: 30000001 cycles: 9072895 heartbeat IPC: 3.34083 cumulative IPC: 3.30655 (Simulation time: 0 hr 8 min 5 sec) 
Heartbeat CPU 1 instructions: 30000001 cycles: 9072927 heartbeat IPC: 3.34081 cumulative IPC: 3.30654 (Simulation time: 0 hr 8 min 5 sec) 
Heartbeat CPU 3 instructions: 30000001 cycles: 9073040 heartbeat IPC: 3.3408 cumulative IPC: 3.3065 (Simulation time: 0 hr 8 min 5 sec) 
Heartbeat CPU 0 instructions: 40000000 cycles: 12196176 heartbeat IPC: 3.20168 cumulative IPC: 3.27972 (Simulation time: 0 hr 10 min 48 sec) 
Heartbeat CPU 2 instructions: 40000000 cycles: 12196277 heartbeat IPC: 3.20166 cumulative IPC: 3.27969 (Simulation time: 0 hr 10 min 48 sec) 
Heartbeat CPU 1 instructions: 40000000 cycles: 12196298 heartbeat IPC: 3.20167 cumulative IPC: 3.27968 (Simulation time: 0 hr 10 min 48 sec) 
Heartbeat CPU 3 instructions: 40000000 cycles: 12196404 heartbeat IPC: 3.20168 cumulative IPC: 3.27966 (Simulation time: 0 hr 10 min 48 sec) 
Heartbeat CPU 0 instructions: 50000003 cycles: 15276649 heartbeat IPC: 3.24626 cumulative IPC: 3.27297 (Simulation time: 0 hr 13 min 28 sec) 
Heartbeat CPU 2 instructions: 50000003 cycles: 15276749 heartbeat IPC: 3.24626 cumulative IPC: 3.27295 (Simulation time: 0 hr 13 min 28 sec) 
Heartbeat CPU 1 instructions: 50000003 cycles: 15276774 heartbeat IPC: 3.24625 cumulative IPC: 3.27294 (Simulation time: 0 hr 13 min 28 sec) 
Heartbeat CPU 3 instructions: 50000003 cycles: 15276826 heartbeat IPC: 3.24631 cumulative IPC: 3.27293 (Simulation time: 0 hr 13 min 28 sec) 

Warmup complete CPU 0 instructions: 50000514 cycles: 15276826 (Simulation time: 0 hr 13 min 28 sec) 
Warmup complete CPU 1 instructions: 50000149 cycles: 15276826 (Simulation time: 0 hr 13 min 28 sec) 
Warmup complete CPU 2 instructions: 50000206 cycles: 15276826 (Simulation time: 0 hr 13 min 28 sec) 
Warmup complete CPU 3 instructions: 50000003 cycles: 15276826 (Simulation time: 0 hr 13 min 28 sec) 

Heartbeat CPU 0 instructions: 60000000 cycles: 42725692 heartbeat IPC: 0.364311 cumulative IPC: 0.364295 (Simulation time: 0 hr 18 min 32 sec) 
Heartbeat CPU 1 instructions: 60000000 cycles: 42795288 heartbeat IPC: 0.363392 cumulative IPC: 0.363387 (Simulation time: 0 hr 18 min 33 sec) 
Heartbeat CPU 3 instructions: 60000000 cycles: 42874923 heartbeat IPC: 0.362344 cumulative IPC: 0.362344 (Simulation time: 0 hr 18 min 34 sec) 
Heartbeat CPU 2 instructions: 60000000 cycles: 42923631 heartbeat IPC: 0.361704 cumulative IPC: 0.361698 (Simulation time: 0 hr 18 min 35 sec) 
Heartbeat CPU 0 instructions: 70000001 cycles: 68859873 heartbeat IPC: 0.382641 cumulative IPC: 0.373243 (Simulation time: 0 hr 23 min 27 sec) 
Heartbeat CPU 1 instructions: 70000000 cycles: 68912758 heartbeat IPC: 0.382885 cumulative IPC: 0.372882 (Simulation time: 0 hr 23 min 28 sec) 
Heartbeat CPU 3 instructions: 70000001 cycles: 68965332 heartbeat IPC: 0.383283 cumulative IPC: 0.372519 (Simulation time: 0 hr 23 min 29 sec) 
Heartbeat CPU 2 instructions: 70000000 cycles: 69048019 heartbeat IPC: 0.382784 cumulative IPC: 0.371943 (Simulation time: 0 hr 23 min 30 sec) 
Heartbeat CPU 3 instructions: 80000000 cycles: 94569291 heartbeat IPC: 0.390565 cumulative IPC: 0.378346 (Simulation time: 0 hr 28 min 45 sec) 
Heartbeat CPU 1 instructions: 80000000 cycles: 94612109 heartbeat IPC: 0.389115 cumulative IPC: 0.37814 (Simulation time: 0 hr 28 min 46 sec) 
Heartbeat CPU 0 instructions: 80000000 cycles: 94680528 heartbeat IPC: 0.387287 cumulative IPC: 0.37781 (Simulation time: 0 hr 28 min 47 sec) 
Heartbeat CPU 2 instructions: 80000000 cycles: 94720150 heartbeat IPC: 0.389527 cumulative IPC: 0.377625 (Simulation time: 0 hr 28 min 47 sec) 
Heartbeat CPU 1 instructions: 90000001 cycles: 119942915 heartbeat IPC: 0.394776 cumulative IPC: 0.382166 (Simulation time: 0 hr 33 min 57 sec) 
Heartbeat CPU 0 instructions: 90000001 cycles: 120020182 heartbeat IPC: 0.394638 cumulative IPC: 0.381881 (Simulation time: 0 hr 33 min 58 sec) 
Heartbeat CPU 3 instructions: 90000001 cycles: 120127416 heartbeat IPC: 0.391265 cumulative IPC: 0.381495 (Simulation time: 0 hr 34 min 0 sec) 
Heartbeat CPU 2 instructions: 90000001 cycles: 120151957 heartbeat IPC: 0.393208 cumulative IPC: 0.381404 (Simulation time: 0 hr 34 min 0 sec) 
Heartbeat CPU 1 instructions: 100000002 cycles: 151561879 heartbeat IPC: 0.316266 cumulative IPC: 0.366877 (Simulation time: 0 hr 39 min 26 sec) 
Heartbeat CPU 0 instructions: 100000002 cycles: 151706008 heartbeat IPC: 0.315599 cumulative IPC: 0.366487 (Simulation time: 0 hr 39 min 28 sec) 
Heartbeat CPU 3 instructions: 100000002 cycles: 151742512 heartbeat IPC: 0.316305 cumulative IPC: 0.366392 (Simulation time: 0 hr 39 min 29 sec) 
Heartbeat CPU 2 instructions: 100000003 cycles: 151932987 heartbeat IPC: 0.314653 cumulative IPC: 0.36588 (Simulation time: 0 hr 39 min 32 sec) 
Heartbeat CPU 1 instructions: 110000000 cycles: 173632523 heartbeat IPC: 0.45309 cumulative IPC: 0.378893 (Simulation time: 0 hr 44 min 32 sec) 
Heartbeat CPU 0 instructions: 110000000 cycles: 173765304 heartbeat IPC: 0.453324 cumulative IPC: 0.378573 (Simulation time: 0 hr 44 min 35 sec) 
Heartbeat CPU 3 instructions: 110000000 cycles: 173840966 heartbeat IPC: 0.45252 cumulative IPC: 0.378396 (Simulation time: 0 hr 44 min 36 sec) 
Heartbeat CPU 2 instructions: 110000000 cycles: 173892566 heartbeat IPC: 0.455382 cumulative IPC: 0.378271 (Simulation time: 0 hr 44 min 36 sec) 
Heartbeat CPU 3 instructions: 120000003 cycles: 195648606 heartbeat IPC: 0.458555 cumulative IPC: 0.388087 (Simulation time: 0 hr 49 min 33 sec) 
Heartbeat CPU 0 instructions: 120000003 cycles: 195672303 heartbeat IPC: 0.456475 cumulative IPC: 0.388034 (Simulation time: 0 hr 49 min 33 sec) 
Heartbeat CPU 2 instructions: 120000003 cycles: 195837276 heartbeat IPC: 0.455691 cumulative IPC: 0.387681 (Simulation time: 0 hr 49 min 36 sec) 
Heartbeat CPU 1 instructions: 120000003 cycles: 196032483 heartbeat IPC: 0.446429 cumulative IPC: 0.387262 (Simulation time: 0 hr 49 min 39 sec) 
Heartbeat CPU 3 instructions: 130000002 cycles: 223593103 heartbeat IPC: 0.357852 cumulative IPC: 0.384031 (Simulation time: 0 hr 54 min 52 sec) 
Heartbeat CPU 0 instructions: 130000002 cycles: 223740905 heartbeat IPC: 0.35627 cumulative IPC: 0.383757 (Simulation time: 0 hr 54 min 54 sec) 
Heartbeat CPU 1 instructions: 130000002 cycles: 224046149 heartbeat IPC: 0.356969 cumulative IPC: 0.383197 (Simulation time: 0 hr 55 min 0 sec) 
Heartbeat CPU 2 instructions: 130000002 cycles: 224175927 heartbeat IPC: 0.352875 cumulative IPC: 0.382959 (Simulation time: 0 hr 55 min 3 sec) 
Heartbeat CPU 3 instructions: 140000001 cycles: 247347587 heartbeat IPC: 0.420973 cumulative IPC: 0.387813 (Simulation time: 0 hr 59 min 42 sec) 
Heartbeat CPU 0 instructions: 140000000 cycles: 247396531 heartbeat IPC: 0.422732 cumulative IPC: 0.387729 (Simulation time: 0 hr 59 min 43 sec) 
Heartbeat CPU 1 instructions: 140000001 cycles: 247810897 heartbeat IPC: 0.420791 cumulative IPC: 0.387039 (Simulation time: 0 hr 59 min 51 sec) 
Heartbeat CPU 2 instructions: 140000001 cycles: 247964751 heartbeat IPC: 0.420365 cumulative IPC: 0.386783 (Simulation time: 0 hr 59 min 53 sec) 
Heartbeat CPU 3 instructions: 150000001 cycles: 266606172 heartbeat IPC: 0.519249 cumulative IPC: 0.397884 (Simulation time: 1 hr 4 min 4 sec) 
Heartbeat CPU 0 instructions: 150000002 cycles: 266720876 heartbeat IPC: 0.517482 cumulative IPC: 0.397701 (Simulation time: 1 hr 4 min 6 sec) 
Heartbeat CPU 1 instructions: 150000001 cycles: 267165058 heartbeat IPC: 0.516685 cumulative IPC: 0.397001 (Simulation time: 1 hr 4 min 14 sec) 
Heartbeat CPU 2 instructions: 150000001 cycles: 267377921 heartbeat IPC: 0.515114 cumulative IPC: 0.396665 (Simulation time: 1 hr 4 min 17 sec) 
Heartbeat CPU 3 instructions: 160000001 cycles: 289426514 heartbeat IPC: 0.438206 cumulative IPC: 0.401241 (Simulation time: 1 hr 8 min 57 sec) 
Heartbeat CPU 0 instructions: 160000002 cycles: 289519267 heartbeat IPC: 0.438627 cumulative IPC: 0.401103 (Simulation time: 1 hr 8 min 59 sec) 
Heartbeat CPU 1 instructions: 160000002 cycles: 289897559 heartbeat IPC: 0.439899 cumulative IPC: 0.400552 (Simulation time: 1 hr 9 min 4 sec) 
Heartbeat CPU 2 instructions: 160000002 cycles: 290495052 heartbeat IPC: 0.43258 cumulative IPC: 0.399682 (Simulation time: 1 hr 9 min 13 sec) 
Heartbeat CPU 0 instructions: 170000001 cycles: 319233378 heartbeat IPC: 0.33654 cumulative IPC: 0.394792 (Simulation time: 1 hr 14 min 23 sec) 
Heartbeat CPU 3 instructions: 170000000 cycles: 319453780 heartbeat IPC: 0.333031 cumulative IPC: 0.394507 (Simulation time: 1 hr 14 min 26 sec) 
Heartbeat CPU 1 instructions: 170000003 cycles: 319733201 heartbeat IPC: 0.33517 cumulative IPC: 0.394145 (Simulation time: 1 hr 14 min 31 sec) 
Heartbeat CPU 2 instructions: 170000003 cycles: 320470094 heartbeat IPC: 0.333611 cumulative IPC: 0.393193 (Simulation time: 1 hr 14 min 45 sec) 
Heartbeat CPU 0 instructions: 180000000 cycles: 342226319 heartbeat IPC: 0.434916 cumulative IPC: 0.397613 (Simulation time: 1 hr 19 min 34 sec) 
Heartbeat CPU 3 instructions: 180000000 cycles: 342316439 heartbeat IPC: 0.437394 cumulative IPC: 0.397505 (Simulation time: 1 hr 19 min 36 sec) 
Heartbeat CPU 1 instructions: 180000000 cycles: 342720398 heartbeat IPC: 0.435025 cumulative IPC: 0.397015 (Simulation time: 1 hr 19 min 42 sec) 
Heartbeat CPU 2 instructions: 180000002 cycles: 343457020 heartbeat IPC: 0.43503 cumulative IPC: 0.396123 (Simulation time: 1 hr 19 min 51 sec) 
Heartbeat CPU 3 instructions: 190000001 cycles: 367084751 heartbeat IPC: 0.403742 cumulative IPC: 0.397944 (Simulation time: 1 hr 24 min 38 sec) 
Heartbeat CPU 0 instructions: 190000000 cycles: 367305951 heartbeat IPC: 0.39873 cumulative IPC: 0.397693 (Simulation time: 1 hr 24 min 41 sec) 
Heartbeat CPU 1 instructions: 190000000 cycles: 367689287 heartbeat IPC: 0.400498 cumulative IPC: 0.397261 (Simulation time: 1 hr 24 min 47 sec) 
Heartbeat CPU 2 instructions: 190000000 cycles: 368607518 heartbeat IPC: 0.397606 cumulative IPC: 0.396229 (Simulation time: 1 hr 25 min 2 sec) 
Heartbeat CPU 3 instructions: 200000000 cycles: 391442833 heartbeat IPC: 0.410541 cumulative IPC: 0.39876 (Simulation time: 1 hr 29 min 52 sec) 
Heartbeat CPU 0 instructions: 200000000 cycles: 392249607 heartbeat IPC: 0.400904 cumulative IPC: 0.397905 (Simulation time: 1 hr 29 min 58 sec) 
Heartbeat CPU 1 instructions: 200000000 cycles: 392431140 heartbeat IPC: 0.404173 cumulative IPC: 0.397715 (Simulation time: 1 hr 29 min 59 sec) 
Heartbeat CPU 2 instructions: 200000000 cycles: 393928512 heartbeat IPC: 0.394929 cumulative IPC: 0.396142 (Simulation time: 1 hr 30 min 14 sec) 
Heartbeat CPU 3 instructions: 210000002 cycles: 413764938 heartbeat IPC: 0.447987 cumulative IPC: 0.401518 (Simulation time: 1 hr 34 min 41 sec) 
Heartbeat CPU 0 instructions: 210000002 cycles: 414237863 heartbeat IPC: 0.454788 cumulative IPC: 0.40104 (Simulation time: 1 hr 34 min 50 sec) 
Heartbeat CPU 1 instructions: 210000002 cycles: 414426312 heartbeat IPC: 0.454645 cumulative IPC: 0.400852 (Simulation time: 1 hr 34 min 53 sec) 
Heartbeat CPU 2 instructions: 210000002 cycles: 415738233 heartbeat IPC: 0.458511 cumulative IPC: 0.399539 (Simulation time: 1 hr 35 min 18 sec) 
Heartbeat CPU 3 instructions: 220000000 cycles: 439598785 heartbeat IPC: 0.387089 cumulative IPC: 0.400639 (Simulation time: 1 hr 39 min 47 sec) 
Heartbeat CPU 0 instructions: 220000000 cycles: 440254585 heartbeat IPC: 0.384368 cumulative IPC: 0.40002 (Simulation time: 1 hr 39 min 59 sec) 
Heartbeat CPU 1 instructions: 220000000 cycles: 440608637 heartbeat IPC: 0.381937 cumulative IPC: 0.399688 (Simulation time: 1 hr 40 min 5 sec) 
Heartbeat CPU 2 instructions: 220000000 cycles: 441759623 heartbeat IPC: 0.384299 cumulative IPC: 0.398609 (Simulation time: 1 hr 40 min 25 sec) 
Heartbeat CPU 3 instructions: 230000001 cycles: 465174959 heartbeat IPC: 0.390989 cumulative IPC: 0.400091 (Simulation time: 1 hr 45 min 6 sec) 
Heartbeat CPU 0 instructions: 230000001 cycles: 466118431 heartbeat IPC: 0.38664 cumulative IPC: 0.399252 (Simulation time: 1 hr 45 min 18 sec) 
Heartbeat CPU 1 instructions: 230000001 cycles: 466266267 heartbeat IPC: 0.389748 cumulative IPC: 0.399122 (Simulation time: 1 hr 45 min 20 sec) 
Heartbeat CPU 2 instructions: 230000001 cycles: 467776055 heartbeat IPC: 0.384373 cumulative IPC: 0.39779 (Simulation time: 1 hr 45 min 44 sec) 
Heartbeat CPU 3 instructions: 240000003 cycles: 485979118 heartbeat IPC: 0.480673 cumulative IPC: 0.403652 (Simulation time: 1 hr 49 min 54 sec) 
Heartbeat CPU 0 instructions: 240000001 cycles: 486741558 heartbeat IPC: 0.484893 cumulative IPC: 0.402998 (Simulation time: 1 hr 50 min 8 sec) 
Heartbeat CPU 1 instructions: 240000001 cycles: 486946762 heartbeat IPC: 0.483547 cumulative IPC: 0.402824 (Simulation time: 1 hr 50 min 12 sec) 
Heartbeat CPU 2 instructions: 240000003 cycles: 488309661 heartbeat IPC: 0.487007 cumulative IPC: 0.401663 (Simulation time: 1 hr 50 min 33 sec) 
*** Reached end of trace for Core: 3 Repeating trace: ./traces/ligra/ligra_BC.com-lj.ungraph.gcc_6.3.0_O3.drop_17000M.length_250M.champsimtrace.xz
Heartbeat CPU 3 instructions: 250000003 cycles: 513664957 heartbeat IPC: 0.361195 cumulative IPC: 0.401294 (Simulation time: 1 hr 55 min 10 sec) 
Finished CPU 3 instructions: 200000000 cycles: 498388131 cumulative IPC: 0.401294 (Simulation time: 1 hr 55 min 10 sec) 
*** Reached end of trace for Core: 1 Repeating trace: ./traces/ligra/ligra_BC.com-lj.ungraph.gcc_6.3.0_O3.drop_17000M.length_250M.champsimtrace.xz
Heartbeat CPU 1 instructions: 250000003 cycles: 514714421 heartbeat IPC: 0.360131 cumulative IPC: 0.40045 (Simulation time: 1 hr 55 min 28 sec) 
Finished CPU 1 instructions: 200000000 cycles: 499445741 cumulative IPC: 0.400444 (Simulation time: 1 hr 55 min 28 sec) 
*** Reached end of trace for Core: 0 Repeating trace: ./traces/ligra/ligra_BC.com-lj.ungraph.gcc_6.3.0_O3.drop_17000M.length_250M.champsimtrace.xz
Heartbeat CPU 0 instructions: 250000003 cycles: 514861634 heartbeat IPC: 0.355618 cumulative IPC: 0.400331 (Simulation time: 1 hr 55 min 30 sec) 
Finished CPU 0 instructions: 200000001 cycles: 499593548 cumulative IPC: 0.400325 (Simulation time: 1 hr 55 min 31 sec) 
*** Reached end of trace for Core: 2 Repeating trace: ./traces/ligra/ligra_BC.com-lj.ungraph.gcc_6.3.0_O3.drop_17000M.length_250M.champsimtrace.xz
Heartbeat CPU 2 instructions: 250000003 cycles: 516515958 heartbeat IPC: 0.354531 cumulative IPC: 0.399011 (Simulation time: 1 hr 55 min 56 sec) 
Finished CPU 2 instructions: 200000003 cycles: 501244920 cumulative IPC: 0.399007 (Simulation time: 1 hr 55 min 56 sec) 

ChampSim completed all CPUs

Total Simulation Statistics (not including warmup)

CPU 0 cumulative IPC: 0.400844 instructions: 200921003 cycles: 501244920
ITLB TOTAL     ACCESS:   30717963  HIT:   30717963  MISS:          0  HIT %:        100  MISS %:          0   MPKI: 0
ITLB LOAD      ACCESS:          0  HIT:          0  MISS:          0  HIT %:       -nan  MISS %:       -nan   MPKI: 0
ITLB RFO       ACCESS:          0  HIT:          0  MISS:          0  HIT %:       -nan  MISS %:       -nan   MPKI: 0
ITLB PREFETCH  ACCESS:          0  HIT:          0  MISS:          0  HIT %:       -nan  MISS %:       -nan   MPKI: 0
ITLB WRITEBACK ACCESS:          0  HIT:          0  MISS:          0  HIT %:       -nan  MISS %:       -nan   MPKI: 0
DTLB TOTAL     ACCESS:   54158506  HIT:   54051317  MISS:     107189  HIT %:    99.8021  MISS %:   0.197917   MPKI: 0.533488
DTLB LOAD      ACCESS:          0  HIT:          0  MISS:          0  HIT %:       -nan  MISS %:       -nan   MPKI: 0
DTLB RFO       ACCESS:          0  HIT:          0  MISS:          0  HIT %:       -nan  MISS %:       -nan   MPKI: 0
DTLB PREFETCH  ACCESS:          0  HIT:          0  MISS:          0  HIT %:       -nan  MISS %:       -nan   MPKI: 0
DTLB WRITEBACK ACCESS:          0  HIT:          0  MISS:          0  HIT %:       -nan  MISS %:       -nan   MPKI: 0
STLB TOTAL     ACCESS:   16690385  HIT:   16670506  MISS:      19879  HIT %:    99.8809  MISS %:   0.119105   MPKI: 0.0989394
STLB LOAD      ACCESS:          0  HIT:          0  MISS:          0  HIT %:       -nan  MISS %:       -nan   MPKI: 0
STLB RFO       ACCESS:          0  HIT:          0  MISS:          0  HIT %:       -nan  MISS %:       -nan   MPKI: 0
STLB PREFETCH  ACCESS:          0  HIT:          0  MISS:          0  HIT %:       -nan  MISS %:       -nan   MPKI: 0
STLB WRITEBACK ACCESS:          0  HIT:          0  MISS:          0  HIT %:       -nan  MISS %:       -nan   MPKI: 0
L1D TOTAL     ACCESS:  108203845  HIT:  103139638  MISS:    5064207  HIT %:    95.3198  MISS %:    4.68025   MPKI: 25.205
L1D LOAD      ACCESS:   26592693  HIT:   25506515  MISS:    1086178  HIT %:    95.9155  MISS %:     4.0845   MPKI: 5.406
L1D RFO       ACCESS:   30126647  HIT:   27891867  MISS:    2234780  HIT %:     92.582  MISS %:    7.41795   MPKI: 11.1227
L1D PREFETCH  ACCESS:   51484505  HIT:   49741256  MISS:    1743249  HIT %:     96.614  MISS %:    3.38597   MPKI: 8.67629
L1D WRITEBACK ACCESS:          0  HIT:          0  MISS:          0  HIT %:       -nan  MISS %:       -nan   MPKI: 0
L1I TOTAL     ACCESS:   37946285  HIT:   37946285  MISS:          0  HIT %:        100  MISS %:          0   MPKI: 0
L1I LOAD      ACCESS:   37946285  HIT:   37946285  MISS:          0  HIT %:        100  MISS %:          0   MPKI: 0
L1I RFO       ACCESS:          0  HIT:          0  MISS:          0  HIT %:       -nan  MISS %:       -nan   MPKI: 0
L1I PREFETCH  ACCESS:          0  HIT:          0  MISS:          0  HIT %:       -nan  MISS %:       -nan   MPKI: 0
L1I WRITEBACK ACCESS:          0  HIT:          0  MISS:          0  HIT %:       -nan  MISS %:       -nan   MPKI: 0
L2C TOTAL     ACCESS:   27722512  HIT:   23246002  MISS:    4476510  HIT %:    83.8524  MISS %:    16.1476   MPKI: 22.28
L2C LOAD      ACCESS:     533925  HIT:     363938  MISS:     169987  HIT %:    68.1628  MISS %:    31.8372   MPKI: 0.846039
L2C RFO       ACCESS:    2234725  HIT:     136259  MISS:    2098466  HIT %:    6.09735  MISS %:    93.9027   MPKI: 10.4442
L2C PREFETCH  ACCESS:   22576315  HIT:   20515319  MISS:    2060996  HIT %:     90.871  MISS %:    9.12902   MPKI: 10.2577
L2C WRITEBACK ACCESS:    2241775  HIT:    2098676  MISS:     143099  HIT %:    93.6167  MISS %:    6.38329   MPKI: 0.712215
PSCL5 TOTAL     ACCESS:     134807  HIT:     134807  MISS:          0  HIT %:        100  MISS %:          0   MPKI: 0
PSCL5 LOAD      ACCESS:          0  HIT:          0  MISS:          0  HIT %:       -nan  MISS %:       -nan   MPKI: 0
PSCL5 RFO       ACCESS:          0  HIT:          0  MISS:          0  HIT %:       -nan  MISS %:       -nan   MPKI: 0
PSCL5 PREFETCH  ACCESS:          0  HIT:          0  MISS:          0  HIT %:       -nan  MISS %:       -nan   MPKI: 0
PSCL5 WRITEBACK ACCESS:          0  HIT:          0  MISS:          0  HIT %:       -nan  MISS %:       -nan   MPKI: 0
PSCL4 TOTAL     ACCESS:     134807  HIT:     134807  MISS:          0  HIT %:        100  MISS %:          0   MPKI: 0
PSCL4 LOAD      ACCESS:          0  HIT:          0  MISS:          0  HIT %:       -nan  MISS %:       -nan   MPKI: 0
PSCL4 RFO       ACCESS:          0  HIT:          0  MISS:          0  HIT %:       -nan  MISS %:       -nan   MPKI: 0
PSCL4 PREFETCH  ACCESS:          0  HIT:          0  MISS:          0  HIT %:       -nan  MISS %:       -nan   MPKI: 0
PSCL4 WRITEBACK ACCESS:          0  HIT:          0  MISS:          0  HIT %:       -nan  MISS %:       -nan   MPKI: 0
PSCL3 TOTAL     ACCESS:     134807  HIT:     134807  MISS:          0  HIT %:        100  MISS %:          0   MPKI: 0
PSCL3 LOAD      ACCESS:          0  HIT:          0  MISS:          0  HIT %:       -nan  MISS %:       -nan   MPKI: 0
PSCL3 RFO       ACCESS:          0  HIT:          0  MISS:          0  HIT %:       -nan  MISS %:       -nan   MPKI: 0
PSCL3 PREFETCH  ACCESS:          0  HIT:          0  MISS:          0  HIT %:       -nan  MISS %:       -nan   MPKI: 0
PSCL3 WRITEBACK ACCESS:          0  HIT:          0  MISS:          0  HIT %:       -nan  MISS %:       -nan   MPKI: 0
PSCL2 TOTAL     ACCESS:     133822  HIT:     133787  MISS:         35  HIT %:    99.9738  MISS %:  0.0261541   MPKI: 0.000174198
PSCL2 LOAD      ACCESS:          0  HIT:          0  MISS:          0  HIT %:       -nan  MISS %:       -nan   MPKI: 0
PSCL2 RFO       ACCESS:          0  HIT:          0  MISS:          0  HIT %:       -nan  MISS %:       -nan   MPKI: 0
PSCL2 PREFETCH  ACCESS:          0  HIT:          0  MISS:          0  HIT %:       -nan  MISS %:       -nan   MPKI: 0
PSCL2 WRITEBACK ACCESS:          0  HIT:          0  MISS:          0  HIT %:       -nan  MISS %:       -nan   MPKI: 0
LLC TOTAL     ACCESS:    6450169  HIT:    2574932  MISS:    3875237  HIT %:    39.9204  MISS %:    60.0796   MPKI: 19.2874
LLC LOAD      ACCESS:      50740  HIT:      26120  MISS:      24620  HIT %:    51.4781  MISS %:    48.5219   MPKI: 0.122536
LLC RFO       ACCESS:    2098394  HIT:     161010  MISS:    1937384  HIT %:    7.67301  MISS %:     92.327   MPKI: 9.64252
LLC PREFETCH  ACCESS:    2180311  HIT:     354329  MISS:    1825982  HIT %:    16.2513  MISS %:    83.7487   MPKI: 9.08806
LLC WRITEBACK ACCESS:    2116762  HIT:    2032627  MISS:      84135  HIT %:    96.0253  MISS %:     3.9747   MPKI: 0.418747

RAW hits: 2695015
Loads Generated: 51252962
Loads sent to L1D: 48557947
Stores Generated: 43033265
Stores sent to L1D: 43033238

CPU 1 cumulative IPC: 0.400997 instructions: 200997586 cycles: 501244920
ITLB TOTAL     ACCESS:   30723752  HIT:   30723752  MISS:          0  HIT %:        100  MISS %:          0   MPKI: 0
ITLB LOAD      ACCESS:          0  HIT:          0  MISS:          0  HIT %:       -nan  MISS %:       -nan   MPKI: 0
ITLB RFO       ACCESS:          0  HIT:          0  MISS:          0  HIT %:       -nan  MISS %:       -nan   MPKI: 0
ITLB PREFETCH  ACCESS:          0  HIT:          0  MISS:          0  HIT %:       -nan  MISS %:       -nan   MPKI: 0
ITLB WRITEBACK ACCESS:          0  HIT:          0  MISS:          0  HIT %:       -nan  MISS %:       -nan   MPKI: 0
DTLB TOTAL     ACCESS:   54172899  HIT:   54065670  MISS:     107229  HIT %:    99.8021  MISS %:   0.197938   MPKI: 0.533484
DTLB LOAD      ACCESS:          0  HIT:          0  MISS:          0  HIT %:       -nan  MISS %:       -nan   MPKI: 0
DTLB RFO       ACCESS:          0  HIT:          0  MISS:          0  HIT %:       -nan  MISS %:       -nan   MPKI: 0
DTLB PREFETCH  ACCESS:          0  HIT:          0  MISS:          0  HIT %:       -nan  MISS %:       -nan   MPKI: 0
DTLB WRITEBACK ACCESS:          0  HIT:          0  MISS:          0  HIT %:       -nan  MISS %:       -nan   MPKI: 0
STLB TOTAL     ACCESS:   16704287  HIT:   16684370  MISS:      19917  HIT %:    99.8808  MISS %:   0.119233   MPKI: 0.0990907
STLB LOAD      ACCESS:          0  HIT:          0  MISS:          0  HIT %:       -nan  MISS %:       -nan   MPKI: 0
STLB RFO       ACCESS:          0  HIT:          0  MISS:          0  HIT %:       -nan  MISS %:       -nan   MPKI: 0
STLB PREFETCH  ACCESS:          0  HIT:          0  MISS:          0  HIT %:       -nan  MISS %:       -nan   MPKI: 0
STLB WRITEBACK ACCESS:          0  HIT:          0  MISS:          0  HIT %:       -nan  MISS %:       -nan   MPKI: 0
L1D TOTAL     ACCESS:  108677606  HIT:  103611090  MISS:    5066516  HIT %:     95.338  MISS %:    4.66197   MPKI: 25.2068
L1D LOAD      ACCESS:   26594684  HIT:   25507782  MISS:    1086902  HIT %:    95.9131  MISS %:    4.08691   MPKI: 5.40754
L1D RFO       ACCESS:   30153048  HIT:   27917393  MISS:    2235655  HIT %:    92.5856  MISS %:    7.41436   MPKI: 11.1228
L1D PREFETCH  ACCESS:   51929874  HIT:   50185915  MISS:    1743959  HIT %:    96.6417  MISS %:     3.3583   MPKI: 8.67652
L1D WRITEBACK ACCESS:          0  HIT:          0  MISS:          0  HIT %:       -nan  MISS %:       -nan   MPKI: 0
L1I TOTAL     ACCESS:   37960030  HIT:   37960030  MISS:          0  HIT %:        100  MISS %:          0   MPKI: 0
L1I LOAD      ACCESS:   37960030  HIT:   37960030  MISS:          0  HIT %:        100  MISS %:          0   MPKI: 0
L1I RFO       ACCESS:          0  HIT:          0  MISS:          0  HIT %:       -nan  MISS %:       -nan   MPKI: 0
L1I PREFETCH  ACCESS:          0  HIT:          0  MISS:          0  HIT %:       -nan  MISS %:       -nan   MPKI: 0
L1I WRITEBACK ACCESS:          0  HIT:          0  MISS:          0  HIT %:       -nan  MISS %:       -nan   MPKI: 0
L2C TOTAL     ACCESS:   27438145  HIT:   22957076  MISS:    4481069  HIT %:    83.6685  MISS %:    16.3315   MPKI: 22.2941
L2C LOAD      ACCESS:     533908  HIT:     365293  MISS:     168615  HIT %:    68.4187  MISS %:    31.5813   MPKI: 0.838891
L2C RFO       ACCESS:    2235601  HIT:     136340  MISS:    2099261  HIT %:    6.09858  MISS %:    93.9014   MPKI: 10.4442
L2C PREFETCH  ACCESS:   22296166  HIT:   20231443  MISS:    2064723  HIT %:    90.7396  MISS %:    9.26044   MPKI: 10.2724
L2C WRITEBACK ACCESS:    2242281  HIT:    2097728  MISS:     144553  HIT %:    93.5533  MISS %:    6.44669   MPKI: 0.719178
PSCL5 TOTAL     ACCESS:     129220  HIT:     129220  MISS:          0  HIT %:        100  MISS %:          0   MPKI: 0
PSCL5 LOAD      ACCESS:          0  HIT:          0  MISS:          0  HIT %:       -nan  MISS %:       -nan   MPKI: 0
PSCL5 RFO       ACCESS:          0  HIT:          0  MISS:          0  HIT %:       -nan  MISS %:       -nan   MPKI: 0
PSCL5 PREFETCH  ACCESS:          0  HIT:          0  MISS:          0  HIT %:       -nan  MISS %:       -nan   MPKI: 0
PSCL5 WRITEBACK ACCESS:          0  HIT:          0  MISS:          0  HIT %:       -nan  MISS %:       -nan   MPKI: 0
PSCL4 TOTAL     ACCESS:     129220  HIT:     129220  MISS:          0  HIT %:        100  MISS %:          0   MPKI: 0
PSCL4 LOAD      ACCESS:          0  HIT:          0  MISS:          0  HIT %:       -nan  MISS %:       -nan   MPKI: 0
PSCL4 RFO       ACCESS:          0  HIT:          0  MISS:          0  HIT %:       -nan  MISS %:       -nan   MPKI: 0
PSCL4 PREFETCH  ACCESS:          0  HIT:          0  MISS:          0  HIT %:       -nan  MISS %:       -nan   MPKI: 0
PSCL4 WRITEBACK ACCESS:          0  HIT:          0  MISS:          0  HIT %:       -nan  MISS %:       -nan   MPKI: 0
PSCL3 TOTAL     ACCESS:     129220  HIT:     129220  MISS:          0  HIT %:        100  MISS %:          0   MPKI: 0
PSCL3 LOAD      ACCESS:          0  HIT:          0  MISS:          0  HIT %:       -nan  MISS %:       -nan   MPKI: 0
PSCL3 RFO       ACCESS:          0  HIT:          0  MISS:          0  HIT %:       -nan  MISS %:       -nan   MPKI: 0
PSCL3 PREFETCH  ACCESS:          0  HIT:          0  MISS:          0  HIT %:       -nan  MISS %:       -nan   MPKI: 0
PSCL3 WRITEBACK ACCESS:          0  HIT:          0  MISS:          0  HIT %:       -nan  MISS %:       -nan   MPKI: 0
PSCL2 TOTAL     ACCESS:     128216  HIT:     128181  MISS:         35  HIT %:    99.9727  MISS %:  0.0272977   MPKI: 0.000174131
PSCL2 LOAD      ACCESS:          0  HIT:          0  MISS:          0  HIT %:       -nan  MISS %:       -nan   MPKI: 0
PSCL2 RFO       ACCESS:          0  HIT:          0  MISS:          0  HIT %:       -nan  MISS %:       -nan   MPKI: 0
PSCL2 PREFETCH  ACCESS:          0  HIT:          0  MISS:          0  HIT %:       -nan  MISS %:       -nan   MPKI: 0
PSCL2 WRITEBACK ACCESS:          0  HIT:          0  MISS:          0  HIT %:       -nan  MISS %:       -nan   MPKI: 0
LLC TOTAL     ACCESS:    6453925  HIT:    2580448  MISS:    3873477  HIT %:    39.9826  MISS %:    60.0174   MPKI: 19.2713
LLC LOAD      ACCESS:      48296  HIT:      23786  MISS:      24510  HIT %:    49.2505  MISS %:    50.7495   MPKI: 0.121942
LLC RFO       ACCESS:    2099187  HIT:     167380  MISS:    1931807  HIT %:    7.97356  MISS %:    92.0264   MPKI: 9.6111
LLC PREFETCH  ACCESS:    2185112  HIT:     354833  MISS:    1830279  HIT %:    16.2387  MISS %:    83.7613   MPKI: 9.10598
LLC WRITEBACK ACCESS:    2117413  HIT:    2033658  MISS:      83755  HIT %:    96.0445  MISS %:    3.95553   MPKI: 0.416697

RAW hits: 2698641
Loads Generated: 51274451
Loads sent to L1D: 48575807
Stores Generated: 43050677
Stores sent to L1D: 43050678

CPU 2 cumulative IPC: 0.399007 instructions: 200000003 cycles: 501244920
ITLB TOTAL     ACCESS:   30579706  HIT:   30579706  MISS:          0  HIT %:        100  MISS %:          0   MPKI: 0
ITLB LOAD      ACCESS:          0  HIT:          0  MISS:          0  HIT %:       -nan  MISS %:       -nan   MPKI: 0
ITLB RFO       ACCESS:          0  HIT:          0  MISS:          0  HIT %:       -nan  MISS %:       -nan   MPKI: 0
ITLB PREFETCH  ACCESS:          0  HIT:          0  MISS:          0  HIT %:       -nan  MISS %:       -nan   MPKI: 0
ITLB WRITEBACK ACCESS:          0  HIT:          0  MISS:          0  HIT %:       -nan  MISS %:       -nan   MPKI: 0
DTLB TOTAL     ACCESS:   53776431  HIT:   53669423  MISS:     107008  HIT %:     99.801  MISS %:   0.198987   MPKI: 0.53504
DTLB LOAD      ACCESS:          0  HIT:          0  MISS:          0  HIT %:       -nan  MISS %:       -nan   MPKI: 0
DTLB RFO       ACCESS:          0  HIT:          0  MISS:          0  HIT %:       -nan  MISS %:       -nan   MPKI: 0
DTLB PREFETCH  ACCESS:          0  HIT:          0  MISS:          0  HIT %:       -nan  MISS %:       -nan   MPKI: 0
DTLB WRITEBACK ACCESS:          0  HIT:          0  MISS:          0  HIT %:       -nan  MISS %:       -nan   MPKI: 0
STLB TOTAL     ACCESS:   16554290  HIT:   16534590  MISS:      19700  HIT %:     99.881  MISS %:   0.119002   MPKI: 0.0985
STLB LOAD      ACCESS:          0  HIT:          0  MISS:          0  HIT %:       -nan  MISS %:       -nan   MPKI: 0
STLB RFO       ACCESS:          0  HIT:          0  MISS:          0  HIT %:       -nan  MISS %:       -nan   MPKI: 0
STLB PREFETCH  ACCESS:          0  HIT:          0  MISS:          0  HIT %:       -nan  MISS %:       -nan   MPKI: 0
STLB WRITEBACK ACCESS:          0  HIT:          0  MISS:          0  HIT %:       -nan  MISS %:       -nan   MPKI: 0
L1D TOTAL     ACCESS:  106943619  HIT:  101895838  MISS:    5047781  HIT %:      95.28  MISS %:    4.72004   MPKI: 25.2389
L1D LOAD      ACCESS:   26347344  HIT:   25252897  MISS:    1094447  HIT %:    95.8461  MISS %:    4.15392   MPKI: 5.47223
L1D RFO       ACCESS:   29959599  HIT:   27731825  MISS:    2227774  HIT %:    92.5641  MISS %:    7.43593   MPKI: 11.1389
L1D PREFETCH  ACCESS:   50636676  HIT:   48911116  MISS:    1725560  HIT %:    96.5923  MISS %:    3.40773   MPKI: 8.6278
L1D WRITEBACK ACCESS:          0  HIT:          0  MISS:          0  HIT %:       -nan  MISS %:       -nan   MPKI: 0
L1I TOTAL     ACCESS:   37772951  HIT:   37772951  MISS:          0  HIT %:        100  MISS %:          0   MPKI: 0
L1I LOAD      ACCESS:   37772951  HIT:   37772951  MISS:          0  HIT %:        100  MISS %:          0   MPKI: 0
L1I RFO       ACCESS:          0  HIT:          0  MISS:          0  HIT %:       -nan  MISS %:       -nan   MPKI: 0
L1I PREFETCH  ACCESS:          0  HIT:          0  MISS:          0  HIT %:       -nan  MISS %:       -nan   MPKI: 0
L1I WRITEBACK ACCESS:          0  HIT:          0  MISS:          0  HIT %:       -nan  MISS %:       -nan   MPKI: 0
L2C TOTAL     ACCESS:   27777905  HIT:   23317589  MISS:    4460316  HIT %:    83.9429  MISS %:    16.0571   MPKI: 22.3016
L2C LOAD      ACCESS:     539486  HIT:     370614  MISS:     168872  HIT %:    68.6976  MISS %:    31.3024   MPKI: 0.84436
L2C RFO       ACCESS:    2227719  HIT:     135279  MISS:    2092440  HIT %:    6.07253  MISS %:    93.9275   MPKI: 10.4622
L2C PREFETCH  ACCESS:   22645426  HIT:   20592222  MISS:    2053204  HIT %:    90.9333  MISS %:    9.06675   MPKI: 10.266
L2C WRITEBACK ACCESS:    2234571  HIT:    2092705  MISS:     141866  HIT %:    93.6513  MISS %:    6.34869   MPKI: 0.70933
PSCL5 TOTAL     ACCESS:     129757  HIT:     129757  MISS:          0  HIT %:        100  MISS %:          0   MPKI: 0
PSCL5 LOAD      ACCESS:          0  HIT:          0  MISS:          0  HIT %:       -nan  MISS %:       -nan   MPKI: 0
PSCL5 RFO       ACCESS:          0  HIT:          0  MISS:          0  HIT %:       -nan  MISS %:       -nan   MPKI: 0
PSCL5 PREFETCH  ACCESS:          0  HIT:          0  MISS:          0  HIT %:       -nan  MISS %:       -nan   MPKI: 0
PSCL5 WRITEBACK ACCESS:          0  HIT:          0  MISS:          0  HIT %:       -nan  MISS %:       -nan   MPKI: 0
PSCL4 TOTAL     ACCESS:     129757  HIT:     129757  MISS:          0  HIT %:        100  MISS %:          0   MPKI: 0
PSCL4 LOAD      ACCESS:          0  HIT:          0  MISS:          0  HIT %:       -nan  MISS %:       -nan   MPKI: 0
PSCL4 RFO       ACCESS:          0  HIT:          0  MISS:          0  HIT %:       -nan  MISS %:       -nan   MPKI: 0
PSCL4 PREFETCH  ACCESS:          0  HIT:          0  MISS:          0  HIT %:       -nan  MISS %:       -nan   MPKI: 0
PSCL4 WRITEBACK ACCESS:          0  HIT:          0  MISS:          0  HIT %:       -nan  MISS %:       -nan   MPKI: 0
PSCL3 TOTAL     ACCESS:     129757  HIT:     129757  MISS:          0  HIT %:        100  MISS %:          0   MPKI: 0
PSCL3 LOAD      ACCESS:          0  HIT:          0  MISS:          0  HIT %:       -nan  MISS %:       -nan   MPKI: 0
PSCL3 RFO       ACCESS:          0  HIT:          0  MISS:          0  HIT %:       -nan  MISS %:       -nan   MPKI: 0
PSCL3 PREFETCH  ACCESS:          0  HIT:          0  MISS:          0  HIT %:       -nan  MISS %:       -nan   MPKI: 0
PSCL3 WRITEBACK ACCESS:          0  HIT:          0  MISS:          0  HIT %:       -nan  MISS %:       -nan   MPKI: 0
PSCL2 TOTAL     ACCESS:     128783  HIT:     128750  MISS:         33  HIT %:    99.9744  MISS %:  0.0256245   MPKI: 0.000165
PSCL2 LOAD      ACCESS:          0  HIT:          0  MISS:          0  HIT %:       -nan  MISS %:       -nan   MPKI: 0
PSCL2 RFO       ACCESS:          0  HIT:          0  MISS:          0  HIT %:       -nan  MISS %:       -nan   MPKI: 0
PSCL2 PREFETCH  ACCESS:          0  HIT:          0  MISS:          0  HIT %:       -nan  MISS %:       -nan   MPKI: 0
PSCL2 WRITEBACK ACCESS:          0  HIT:          0  MISS:          0  HIT %:       -nan  MISS %:       -nan   MPKI: 0
LLC TOTAL     ACCESS:    6429215  HIT:    2547474  MISS:    3881741  HIT %:    39.6234  MISS %:    60.3766   MPKI: 19.4087
LLC LOAD      ACCESS:      45958  HIT:      21456  MISS:      24502  HIT %:    46.6861  MISS %:    53.3139   MPKI: 0.12251
LLC RFO       ACCESS:    2092343  HIT:     162194  MISS:    1930149  HIT %:    7.75179  MISS %:    92.2482   MPKI: 9.65074
LLC PREFETCH  ACCESS:    2176210  HIT:     341576  MISS:    1834634  HIT %:    15.6959  MISS %:    84.3041   MPKI: 9.17317
LLC WRITEBACK ACCESS:    2110770  HIT:    2021410  MISS:      89360  HIT %:    95.7665  MISS %:    4.23353   MPKI: 0.4468

RAW hits: 2688542
Loads Generated: 51003276
Loads sent to L1D: 48314735
Stores Generated: 42824127
Stores sent to L1D: 42824120

CPU 3 cumulative IPC: 0.40232 instructions: 201660980 cycles: 501244920
ITLB TOTAL     ACCESS:   30831342  HIT:   30831342  MISS:          0  HIT %:        100  MISS %:          0   MPKI: 0
ITLB LOAD      ACCESS:          0  HIT:          0  MISS:          0  HIT %:       -nan  MISS %:       -nan   MPKI: 0
ITLB RFO       ACCESS:          0  HIT:          0  MISS:          0  HIT %:       -nan  MISS %:       -nan   MPKI: 0
ITLB PREFETCH  ACCESS:          0  HIT:          0  MISS:          0  HIT %:       -nan  MISS %:       -nan   MPKI: 0
ITLB WRITEBACK ACCESS:          0  HIT:          0  MISS:          0  HIT %:       -nan  MISS %:       -nan   MPKI: 0
DTLB TOTAL     ACCESS:   54250557  HIT:   54143203  MISS:     107354  HIT %:    99.8021  MISS %:   0.197886   MPKI: 0.532349
DTLB LOAD      ACCESS:          0  HIT:          0  MISS:          0  HIT %:       -nan  MISS %:       -nan   MPKI: 0
DTLB RFO       ACCESS:          0  HIT:          0  MISS:          0  HIT %:       -nan  MISS %:       -nan   MPKI: 0
DTLB PREFETCH  ACCESS:          0  HIT:          0  MISS:          0  HIT %:       -nan  MISS %:       -nan   MPKI: 0
DTLB WRITEBACK ACCESS:          0  HIT:          0  MISS:          0  HIT %:       -nan  MISS %:       -nan   MPKI: 0
STLB TOTAL     ACCESS:   16557893  HIT:   16537853  MISS:      20040  HIT %:     99.879  MISS %:    0.12103   MPKI: 0.0993747
STLB LOAD      ACCESS:          0  HIT:          0  MISS:          0  HIT %:       -nan  MISS %:       -nan   MPKI: 0
STLB RFO       ACCESS:          0  HIT:          0  MISS:          0  HIT %:       -nan  MISS %:       -nan   MPKI: 0
STLB PREFETCH  ACCESS:          0  HIT:          0  MISS:          0  HIT %:       -nan  MISS %:       -nan   MPKI: 0
STLB WRITEBACK ACCESS:          0  HIT:          0  MISS:          0  HIT %:       -nan  MISS %:       -nan   MPKI: 0
L1D TOTAL     ACCESS:  108823480  HIT:  103745351  MISS:    5078129  HIT %:    95.3336  MISS %:    4.66639   MPKI: 25.1815
L1D LOAD      ACCESS:   26585701  HIT:   25488048  MISS:    1097653  HIT %:    95.8713  MISS %:    4.12873   MPKI: 5.44306
L1D RFO       ACCESS:   30221290  HIT:   27980684  MISS:    2240606  HIT %:     92.586  MISS %:      7.414   MPKI: 11.1108
L1D PREFETCH  ACCESS:   52016489  HIT:   50276619  MISS:    1739870  HIT %:    96.6552  MISS %:    3.34484   MPKI: 8.6277
L1D WRITEBACK ACCESS:          0  HIT:          0  MISS:          0  HIT %:       -nan  MISS %:       -nan   MPKI: 0
L1I TOTAL     ACCESS:   38094507  HIT:   38094507  MISS:          0  HIT %:        100  MISS %:          0   MPKI: 0
L1I LOAD      ACCESS:   38094507  HIT:   38094507  MISS:          0  HIT %:        100  MISS %:          0   MPKI: 0
L1I RFO       ACCESS:          0  HIT:          0  MISS:          0  HIT %:       -nan  MISS %:       -nan   MPKI: 0
L1I PREFETCH  ACCESS:          0  HIT:          0  MISS:          0  HIT %:       -nan  MISS %:       -nan   MPKI: 0
L1I WRITEBACK ACCESS:          0  HIT:          0  MISS:          0  HIT %:       -nan  MISS %:       -nan   MPKI: 0
L2C TOTAL     ACCESS:   27076470  HIT:   22587106  MISS:    4489364  HIT %:    83.4197  MISS %:    16.5803   MPKI: 22.2619
L2C LOAD      ACCESS:     545856  HIT:     377647  MISS:     168209  HIT %:    69.1844  MISS %:    30.8156   MPKI: 0.834118
L2C RFO       ACCESS:    2240542  HIT:     137445  MISS:    2103097  HIT %:    6.13445  MISS %:    93.8655   MPKI: 10.4289
L2C PREFETCH  ACCESS:   21900556  HIT:   19829955  MISS:    2070601  HIT %:    90.5454  MISS %:    9.45456   MPKI: 10.2677
L2C WRITEBACK ACCESS:    2247596  HIT:    2104213  MISS:     143383  HIT %:    93.6206  MISS %:    6.37939   MPKI: 0.71101
PSCL5 TOTAL     ACCESS:     141801  HIT:     141801  MISS:          0  HIT %:        100  MISS %:          0   MPKI: 0
PSCL5 LOAD      ACCESS:          0  HIT:          0  MISS:          0  HIT %:       -nan  MISS %:       -nan   MPKI: 0
PSCL5 RFO       ACCESS:          0  HIT:          0  MISS:          0  HIT %:       -nan  MISS %:       -nan   MPKI: 0
PSCL5 PREFETCH  ACCESS:          0  HIT:          0  MISS:          0  HIT %:       -nan  MISS %:       -nan   MPKI: 0
PSCL5 WRITEBACK ACCESS:          0  HIT:          0  MISS:          0  HIT %:       -nan  MISS %:       -nan   MPKI: 0
PSCL4 TOTAL     ACCESS:     141801  HIT:     141801  MISS:          0  HIT %:        100  MISS %:          0   MPKI: 0
PSCL4 LOAD      ACCESS:          0  HIT:          0  MISS:          0  HIT %:       -nan  MISS %:       -nan   MPKI: 0
PSCL4 RFO       ACCESS:          0  HIT:          0  MISS:          0  HIT %:       -nan  MISS %:       -nan   MPKI: 0
PSCL4 PREFETCH  ACCESS:          0  HIT:          0  MISS:          0  HIT %:       -nan  MISS %:       -nan   MPKI: 0
PSCL4 WRITEBACK ACCESS:          0  HIT:          0  MISS:          0  HIT %:       -nan  MISS %:       -nan   MPKI: 0
PSCL3 TOTAL     ACCESS:     141801  HIT:     141801  MISS:          0  HIT %:        100  MISS %:          0   MPKI: 0
PSCL3 LOAD      ACCESS:          0  HIT:          0  MISS:          0  HIT %:       -nan  MISS %:       -nan   MPKI: 0
PSCL3 RFO       ACCESS:          0  HIT:          0  MISS:          0  HIT %:       -nan  MISS %:       -nan   MPKI: 0
PSCL3 PREFETCH  ACCESS:          0  HIT:          0  MISS:          0  HIT %:       -nan  MISS %:       -nan   MPKI: 0
PSCL3 WRITEBACK ACCESS:          0  HIT:          0  MISS:          0  HIT %:       -nan  MISS %:       -nan   MPKI: 0
PSCL2 TOTAL     ACCESS:     141659  HIT:     141624  MISS:         35  HIT %:    99.9753  MISS %:  0.0247072   MPKI: 0.000173559
PSCL2 LOAD      ACCESS:          0  HIT:          0  MISS:          0  HIT %:       -nan  MISS %:       -nan   MPKI: 0
PSCL2 RFO       ACCESS:          0  HIT:          0  MISS:          0  HIT %:       -nan  MISS %:       -nan   MPKI: 0
PSCL2 PREFETCH  ACCESS:          0  HIT:          0  MISS:          0  HIT %:       -nan  MISS %:       -nan   MPKI: 0
PSCL2 WRITEBACK ACCESS:          0  HIT:          0  MISS:          0  HIT %:       -nan  MISS %:       -nan   MPKI: 0
LLC TOTAL     ACCESS:    6467140  HIT:    2596248  MISS:    3870892  HIT %:    40.1452  MISS %:    59.8548   MPKI: 19.195
LLC LOAD      ACCESS:      50897  HIT:      26766  MISS:      24131  HIT %:    52.5886  MISS %:    47.4114   MPKI: 0.119661
LLC RFO       ACCESS:    2103007  HIT:     168302  MISS:    1934705  HIT %:    8.00292  MISS %:    91.9971   MPKI: 9.59385
LLC PREFETCH  ACCESS:    2188003  HIT:     364504  MISS:    1823499  HIT %:    16.6592  MISS %:    83.3408   MPKI: 9.0424
LLC WRITEBACK ACCESS:    2121159  HIT:    2035716  MISS:      85443  HIT %:    95.9719  MISS %:    4.02813   MPKI: 0.423696

RAW hits: 2719746
Loads Generated: 51453438
Loads sent to L1D: 48733692
Stores Generated: 43201244
Stores sent to L1D: 43201245

Region of Interest Statistics

CPU 0 cumulative IPC: 0.400325 instructions: 200000001 cycles: 499593548
ITLB TOTAL     ACCESS:   30579435  HIT:   30579435  MISS:          0  HIT %:        100  MISS %:          0   MPKI: 0
ITLB LOAD TRANSLATION ACCESS:   30579435  HIT:   30579435  MISS:          0  HIT %:        100  MISS %:          0   MPKI: 0
ITLB PREFETCH  REQUESTED:          0  ISSUED:          0  USEFUL:          0  USELESS:          0
ITLB USEFUL LOAD PREFETCHES:          0 PREFETCH ISSUED TO LOWER LEVEL:          0  ACCURACY: -nan
ITLB TIMELY PREFETCHES:          0 LATE PREFETCHES: 0 DROPPED PREFETCHES: 0
ITLB PREFETCHES SAME FILL-ORIGIN LEVEL: 0 DIFFERENT FILL-ORIGIN LEVEL: 0
ITLB AVERAGE MISS LATENCY: -nan cycles
ITLB RQ	ACCESS:   37946284	FORWARD:          0	MERGED:    7228322	TO_CACHE:   30717962

DTLB TOTAL     ACCESS:   53905425  HIT:   53798422  MISS:     107003  HIT %:    99.8015  MISS %:   0.198501   MPKI: 0.535015
DTLB LOAD TRANSLATION ACCESS:   53905425  HIT:   53798422  MISS:     107003  HIT %:    99.8015  MISS %:   0.198501   MPKI: 0.535015
DTLB PREFETCH  REQUESTED:          0  ISSUED:          0  USEFUL:          0  USELESS:          0
DTLB USEFUL LOAD PREFETCHES:          0 PREFETCH ISSUED TO LOWER LEVEL:          0  ACCURACY: -nan
DTLB TIMELY PREFETCHES:          0 LATE PREFETCHES: 0 DROPPED PREFETCHES: 0
DTLB PREFETCHES SAME FILL-ORIGIN LEVEL: 0 DIFFERENT FILL-ORIGIN LEVEL: 0
DTLB AVERAGE MISS LATENCY: 150.35 cycles
DTLB RQ	ACCESS:   69397024	FORWARD:          0	MERGED:   15126768	TO_CACHE:   54270256

STLB TOTAL     ACCESS:   16617562  HIT:   16597868  MISS:      19694  HIT %:    99.8815  MISS %:   0.118513   MPKI: 0.09847
STLB LOAD TRANSLATION ACCESS:     107003  HIT:      88699  MISS:      18304  HIT %:    82.8939  MISS %:    17.1061   MPKI: 0.09152
STLB TRANSLATION FROM L1D PREFETCHER ACCESS:   16510559  HIT:   16509169  MISS:       1390  HIT %:    99.9916  MISS %: 0.00841885   MPKI: 0.00695
STLB PREFETCH  REQUESTED:          0  ISSUED:          0  USEFUL:       1469  USELESS:          8
STLB USEFUL LOAD PREFETCHES:       1469 PREFETCH ISSUED TO LOWER LEVEL:          0  ACCURACY: inf
STLB TIMELY PREFETCHES:       1469 LATE PREFETCHES: 2429 DROPPED PREFETCHES: 112774
STLB PREFETCHES SAME FILL-ORIGIN LEVEL: 0 DIFFERENT FILL-ORIGIN LEVEL: 0
STLB AVERAGE MISS LATENCY: 783.527 cycles
STLB RQ	ACCESS:   81474076	FORWARD:          0	MERGED:   64647215	TO_CACHE:   16826861

STLB Hit, L1D data hit: 0
STLB Hit, L2C data hit: 0
STLB Hit, LLC data hit: 0
STLB Hit, LLC data miss: 0
STLB STLB hints to L2: 0
L1D TOTAL     ACCESS:  107671109  HIT:  102623885  MISS:    5047224  HIT %:    95.3124  MISS %:    4.68763   MPKI: 25.2361
L1D LOAD      ACCESS:   26474862  HIT:   25391428  MISS:    1083434  HIT %:    95.9077  MISS %:    4.09231   MPKI: 5.41717
L1D RFO       ACCESS:   29973026  HIT:   27745402  MISS:    2227624  HIT %:    92.5679  MISS %:     7.4321   MPKI: 11.1381
L1D PREFETCH  ACCESS:   51223221  HIT:   49487055  MISS:    1736166  HIT %:    96.6106  MISS %:    3.38941   MPKI: 8.68083
L1D PREFETCH  REQUESTED:  365595010  ISSUED:  253534148  USEFUL:    1700303  USELESS:      42955
L1D USEFUL LOAD PREFETCHES:    1700303 PREFETCH ISSUED TO LOWER LEVEL:   24937815  ACCURACY: 6.81817
L1D TIMELY PREFETCHES:    1700303 LATE PREFETCHES: 552254 DROPPED PREFETCHES: 271417
L1D PREFETCHES SAME FILL-ORIGIN LEVEL: 2296445 DIFFERENT FILL-ORIGIN LEVEL: 22641370
L1D AVERAGE MISS LATENCY: 707.805 cycles
L1D RQ	ACCESS:   48557947	FORWARD:          0	MERGED:   20862724	TO_CACHE:   27488596
L1D WQ	ACCESS:   43033238	FORWARD:     372665	MERGED:    1124810	TO_CACHE:   41908428
L1D PQ	ACCESS:  172167261	FORWARD:          0	MERGED:   90634336	TO_CACHE:   81366887

L1D UNIQUE REGIONS ACCESSED: 0
L1D REGIONS CONFLICTS: 0
L1D Cross Page Prefetch Requests: 16532987
L1D Same Page Prefetch Requests: 194801312
L1D ROI Sum of L1D PQ occupancy: 1844317015
L1D PREFETCHES PUSHED FROM L2C: 0
L1I TOTAL     ACCESS:   37767352  HIT:   37767352  MISS:          0  HIT %:        100  MISS %:          0   MPKI: 0
L1I LOAD      ACCESS:   37767352  HIT:   37767352  MISS:          0  HIT %:        100  MISS %:          0   MPKI: 0
L1I PREFETCH  REQUESTED:          0  ISSUED:          0  USEFUL:          0  USELESS:          0
L1I USEFUL LOAD PREFETCHES:          0 PREFETCH ISSUED TO LOWER LEVEL:          0  ACCURACY: -nan
L1I TIMELY PREFETCHES:          0 LATE PREFETCHES: 0 DROPPED PREFETCHES: 0
L1I PREFETCHES SAME FILL-ORIGIN LEVEL: 0 DIFFERENT FILL-ORIGIN LEVEL: 0
L1I AVERAGE MISS LATENCY: -nan cycles
L1I RQ	ACCESS:   49619662	FORWARD:          0	MERGED:   11673378	TO_CACHE:   37946284

BTB TOTAL     ACCESS:   20089602  HIT:   20089398  MISS:        204  HIT %:     99.999  MISS %: 0.00101545   MPKI: 0.00102
BTB BRANCH_DIRECT_JUMP	ACCESS:       1550  HIT:       1547  MISS:          3
BTB BRANCH_INDIRECT	ACCESS:          0  HIT:          0  MISS:          0
BTB BRANCH_CONDITIONAL	ACCESS:   20085498  HIT:   20085467  MISS:         31
BTB BRANCH_DIRECT_CALL	ACCESS:       1277  HIT:       1267  MISS:         10
BTB BRANCH_INDIRECT_CALL	ACCESS:          0  HIT:          0  MISS:          0
BTB BRANCH_RETURN	ACCESS:       1277  HIT:       1117  MISS:        160
BTB BRANCH_OTHER ACCESS:          0  HIT:          0  MISS:          0

L2C TOTAL     ACCESS:   27651871  HIT:   23189556  MISS:    4462315  HIT %:    83.8625  MISS %:    16.1375   MPKI: 22.3116
L2C LOAD      ACCESS:     532858  HIT:     362913  MISS:     169945  HIT %:    68.1069  MISS %:    31.8931   MPKI: 0.849725
L2C DATA LOAD MPKI: 0.849725
L2C INSTRUCTION LOAD MPKI: 0
L2C RFO       ACCESS:    2227569  HIT:     134961  MISS:    2092608  HIT %:    6.05867  MISS %:    93.9413   MPKI: 10.463
L2C PREFETCH  ACCESS:   22521462  HIT:   20467959  MISS:    2053503  HIT %:     90.882  MISS %:    9.11798   MPKI: 10.2675
L2C DATA PREFETCH MPKI: 10.2675
L2C INSTRUCTION PREFETCH MPKI: 0
L2C WRITEBACK ACCESS:    2234396  HIT:    2092070  MISS:     142326  HIT %:    93.6302  MISS %:    6.36978   MPKI: 0.71163
L2C LOAD TRANSLATION ACCESS:      18037  HIT:      15972  MISS:       2065  HIT %:    88.5513  MISS %:    11.4487   MPKI: 0.010325
L2C TRANSLATION FROM L1D PREFETCHER ACCESS:     117549  HIT:     115681  MISS:       1868  HIT %:    98.4109  MISS %:    1.58912   MPKI: 0.00934
L2C PREFETCH  REQUESTED:          0  ISSUED:          0  USEFUL:     355726  USELESS:    1706778
L2C USEFUL LOAD PREFETCHES:     355726 PREFETCH ISSUED TO LOWER LEVEL:    2180324  ACCURACY: 16.3153
L2C TIMELY PREFETCHES:     355726 LATE PREFETCHES: 119318 DROPPED PREFETCHES: 0
L2C PREFETCHES SAME FILL-ORIGIN LEVEL: 1112660 DIFFERENT FILL-ORIGIN LEVEL: 0
L2C AVERAGE MISS LATENCY: 1115.4 cycles
L2C RQ	ACCESS:    2904477	FORWARD:          0	MERGED:          0	TO_CACHE:    2904423
L2C WQ	ACCESS:    2241775	FORWARD:         70	MERGED:          0	TO_CACHE:    2241775
L2C PQ	ACCESS:   24933321	FORWARD:          0	MERGED:     294295	TO_CACHE:   24639010

L2C Instructions Evicting Data 0
L2C Translations Evicting Data 3950
L2C Data Evicting Data 4325613
L2C Instructions Evicting Instructions 0
L2C Translations Evicting Instructions 0
L2C Data Evicting Instructions 0
L2C Instructions Evicting Translations 0
L2C Translations Evicting Translations 12
L2C Data Evicting Translations 3836
L2C Dense regions hint from L2: 0
PSCL5 TOTAL     ACCESS:     134622  HIT:     134622  MISS:          0  HIT %:        100  MISS %:          0   MPKI: 0
PSCL5 LOAD TRANSLATION ACCESS:      18034  HIT:      18034  MISS:          0  HIT %:        100  MISS %:          0   MPKI: 0
PSCL5 TRANSLATION FROM L1D PREFETCHER ACCESS:     116588  HIT:     116588  MISS:          0  HIT %:        100  MISS %:          0   MPKI: 0
PSCL5 PREFETCH  REQUESTED:          0  ISSUED:          0  USEFUL:          0  USELESS:          0
PSCL5 USEFUL LOAD PREFETCHES:          0 PREFETCH ISSUED TO LOWER LEVEL:          0  ACCURACY: -nan
PSCL5 TIMELY PREFETCHES:          0 LATE PREFETCHES: 0 DROPPED PREFETCHES: 0
PSCL5 PREFETCHES SAME FILL-ORIGIN LEVEL: 0 DIFFERENT FILL-ORIGIN LEVEL: 0

PSCL4 TOTAL     ACCESS:     134622  HIT:     134622  MISS:          0  HIT %:        100  MISS %:          0   MPKI: 0
PSCL4 LOAD TRANSLATION ACCESS:      18034  HIT:      18034  MISS:          0  HIT %:        100  MISS %:          0   MPKI: 0
PSCL4 TRANSLATION FROM L1D PREFETCHER ACCESS:     116588  HIT:     116588  MISS:          0  HIT %:        100  MISS %:          0   MPKI: 0
PSCL4 PREFETCH  REQUESTED:          0  ISSUED:          0  USEFUL:          0  USELESS:          0
PSCL4 USEFUL LOAD PREFETCHES:          0 PREFETCH ISSUED TO LOWER LEVEL:          0  ACCURACY: -nan
PSCL4 TIMELY PREFETCHES:          0 LATE PREFETCHES: 0 DROPPED PREFETCHES: 0
PSCL4 PREFETCHES SAME FILL-ORIGIN LEVEL: 0 DIFFERENT FILL-ORIGIN LEVEL: 0

PSCL3 TOTAL     ACCESS:     134622  HIT:     134622  MISS:          0  HIT %:        100  MISS %:          0   MPKI: 0
PSCL3 LOAD TRANSLATION ACCESS:      18034  HIT:      18034  MISS:          0  HIT %:        100  MISS %:          0   MPKI: 0
PSCL3 TRANSLATION FROM L1D PREFETCHER ACCESS:     116588  HIT:     116588  MISS:          0  HIT %:        100  MISS %:          0   MPKI: 0
PSCL3 PREFETCH  REQUESTED:          0  ISSUED:          0  USEFUL:          0  USELESS:          0
PSCL3 USEFUL LOAD PREFETCHES:          0 PREFETCH ISSUED TO LOWER LEVEL:          0  ACCURACY: -nan
PSCL3 TIMELY PREFETCHES:          0 LATE PREFETCHES: 0 DROPPED PREFETCHES: 0
PSCL3 PREFETCHES SAME FILL-ORIGIN LEVEL: 0 DIFFERENT FILL-ORIGIN LEVEL: 0

PSCL2 TOTAL     ACCESS:     133637  HIT:     133603  MISS:         34  HIT %:    99.9746  MISS %:  0.0254421   MPKI: 0.00017
PSCL2 LOAD TRANSLATION ACCESS:      18034  HIT:      18000  MISS:         34  HIT %:    99.8115  MISS %:   0.188533   MPKI: 0.00017
PSCL2 TRANSLATION FROM L1D PREFETCHER ACCESS:     115603  HIT:     115603  MISS:          0  HIT %:        100  MISS %:          0   MPKI: 0
PSCL2 PREFETCH  REQUESTED:          0  ISSUED:          0  USEFUL:          0  USELESS:          0
PSCL2 USEFUL LOAD PREFETCHES:          0 PREFETCH ISSUED TO LOWER LEVEL:          0  ACCURACY: -nan
PSCL2 TIMELY PREFETCHES:          0 LATE PREFETCHES: 0 DROPPED PREFETCHES: 0
PSCL2 PREFETCHES SAME FILL-ORIGIN LEVEL: 0 DIFFERENT FILL-ORIGIN LEVEL: 0

LLC TOTAL     ACCESS:    6430497  HIT:    2567291  MISS:    3863206  HIT %:    39.9237  MISS %:    60.0763   MPKI: 19.316
LLC LOAD      ACCESS:      50716  HIT:      26110  MISS:      24606  HIT %:    51.4828  MISS %:    48.5172   MPKI: 0.12303
LLC RFO       ACCESS:    2092536  HIT:     160997  MISS:    1931539  HIT %:    7.69387  MISS %:    92.3061   MPKI: 9.65769
LLC PREFETCH  ACCESS:    2172800  HIT:     352767  MISS:    1820033  HIT %:    16.2356  MISS %:    83.7644   MPKI: 9.10016
LLC WRITEBACK ACCESS:    2110512  HIT:    2026575  MISS:      83937  HIT %:    96.0229  MISS %:    3.97709   MPKI: 0.419685
LLC LOAD TRANSLATION ACCESS:       2065  HIT:        506  MISS:       1559  HIT %:    24.5036  MISS %:    75.4964   MPKI: 0.007795
LLC TRANSLATION FROM L1D PREFETCHER ACCESS:       1868  HIT:        336  MISS:       1532  HIT %:    17.9872  MISS %:    82.0128   MPKI: 0.00766
LLC PREFETCH  REQUESTED:          0  ISSUED:          0  USEFUL:     477672  USELESS:    6854706
LLC USEFUL LOAD PREFETCHES:     477672 PREFETCH ISSUED TO LOWER LEVEL:  101363238  ACCURACY: 0.471248
LLC TIMELY PREFETCHES:     477672 LATE PREFETCHES: 0 DROPPED PREFETCHES: 0
LLC PREFETCHES SAME FILL-ORIGIN LEVEL: 0 DIFFERENT FILL-ORIGIN LEVEL: 0
LLC AVERAGE MISS LATENCY: 5090.6 cycles
LLC RQ	ACCESS:    8604724	FORWARD:          0	MERGED:          0	TO_CACHE:    8604722
LLC WQ	ACCESS:    8466104	FORWARD:         13	MERGED:          0	TO_CACHE:    8466104
LLC PQ	ACCESS:    8729662	FORWARD:          0	MERGED:          0	TO_CACHE:    8729651

LLC Dense regions hint to LLC: 0

RAW hits: 2676521
Loads Generated: 51003263
Loads sent to L1D: 48326742
Stores Generated: 42824136
Stores sent to L1D: 42824117
Major fault: 0 Minor fault: 20714
Allocated PAGES: 82856

CPU 1 cumulative IPC: 0.400444 instructions: 200000000 cycles: 499445741
ITLB TOTAL     ACCESS:   30573260  HIT:   30573260  MISS:          0  HIT %:        100  MISS %:          0   MPKI: 0
ITLB LOAD TRANSLATION ACCESS:   30573260  HIT:   30573260  MISS:          0  HIT %:        100  MISS %:          0   MPKI: 0
ITLB PREFETCH  REQUESTED:          0  ISSUED:          0  USEFUL:          0  USELESS:          0
ITLB USEFUL LOAD PREFETCHES:          0 PREFETCH ISSUED TO LOWER LEVEL:          0  ACCURACY: -nan
ITLB TIMELY PREFETCHES:          0 LATE PREFETCHES: 0 DROPPED PREFETCHES: 0
ITLB PREFETCHES SAME FILL-ORIGIN LEVEL: 0 DIFFERENT FILL-ORIGIN LEVEL: 0
ITLB AVERAGE MISS LATENCY: -nan cycles
ITLB RQ	ACCESS:   37960031	FORWARD:          0	MERGED:    7236278	TO_CACHE:   30723753

DTLB TOTAL     ACCESS:   53895595  HIT:   53788576  MISS:     107019  HIT %:    99.8014  MISS %:   0.198567   MPKI: 0.535095
DTLB LOAD TRANSLATION ACCESS:   53895595  HIT:   53788576  MISS:     107019  HIT %:    99.8014  MISS %:   0.198567   MPKI: 0.535095
DTLB PREFETCH  REQUESTED:          0  ISSUED:          0  USEFUL:          0  USELESS:          0
DTLB USEFUL LOAD PREFETCHES:          0 PREFETCH ISSUED TO LOWER LEVEL:          0  ACCURACY: -nan
DTLB TIMELY PREFETCHES:          0 LATE PREFETCHES: 0 DROPPED PREFETCHES: 0
DTLB PREFETCHES SAME FILL-ORIGIN LEVEL: 0 DIFFERENT FILL-ORIGIN LEVEL: 0
DTLB AVERAGE MISS LATENCY: 153.558 cycles
DTLB RQ	ACCESS:   69418502	FORWARD:          0	MERGED:   15133534	TO_CACHE:   54284968

STLB TOTAL     ACCESS:   16620937  HIT:   16601228  MISS:      19709  HIT %:    99.8814  MISS %:   0.118579   MPKI: 0.098545
STLB LOAD TRANSLATION ACCESS:     107019  HIT:      88713  MISS:      18306  HIT %:    82.8946  MISS %:    17.1054   MPKI: 0.09153
STLB TRANSLATION FROM L1D PREFETCHER ACCESS:   16513918  HIT:   16512515  MISS:       1403  HIT %:    99.9915  MISS %: 0.00849586   MPKI: 0.007015
STLB PREFETCH  REQUESTED:          0  ISSUED:          0  USEFUL:       1487  USELESS:          9
STLB USEFUL LOAD PREFETCHES:       1487 PREFETCH ISSUED TO LOWER LEVEL:          0  ACCURACY: inf
STLB TIMELY PREFETCHES:       1487 LATE PREFETCHES: 2409 DROPPED PREFETCHES: 107161
STLB PREFETCHES SAME FILL-ORIGIN LEVEL: 0 DIFFERENT FILL-ORIGIN LEVEL: 0
STLB AVERAGE MISS LATENCY: 804.089 cycles
STLB RQ	ACCESS:   81717058	FORWARD:          0	MERGED:   64883084	TO_CACHE:   16833974

STLB Hit, L1D data hit: 0
STLB Hit, L2C data hit: 0
STLB Hit, LLC data hit: 0
STLB Hit, LLC data miss: 0
STLB STLB hints to L2: 0
L1D TOTAL     ACCESS:  108059000  HIT:  103010856  MISS:    5048144  HIT %:    95.3283  MISS %:    4.67166   MPKI: 25.2407
L1D LOAD      ACCESS:   26463776  HIT:   25379618  MISS:    1084158  HIT %:    95.9032  MISS %:    4.09676   MPKI: 5.42079
L1D RFO       ACCESS:   29984400  HIT:   27756669  MISS:    2227731  HIT %:    92.5704  MISS %:    7.42963   MPKI: 11.1387
L1D PREFETCH  ACCESS:   51610824  HIT:   49874569  MISS:    1736255  HIT %:    96.6359  MISS %:    3.36413   MPKI: 8.68127
L1D PREFETCH  REQUESTED:  366949571  ISSUED:  254748159  USEFUL:    1700412  USELESS:      43551
L1D USEFUL LOAD PREFETCHES:    1700412 PREFETCH ISSUED TO LOWER LEVEL:   24680680  ACCURACY: 6.88965
L1D TIMELY PREFETCHES:    1700412 LATE PREFETCHES: 552994 DROPPED PREFETCHES: 270853
L1D PREFETCHES SAME FILL-ORIGIN LEVEL: 2297888 DIFFERENT FILL-ORIGIN LEVEL: 22382792
L1D AVERAGE MISS LATENCY: 707.926 cycles
L1D RQ	ACCESS:   48575807	FORWARD:          0	MERGED:   20876480	TO_CACHE:   27493842
L1D WQ	ACCESS:   43050678	FORWARD:     383144	MERGED:    1126018	TO_CACHE:   41924660
L1D PQ	ACCESS:  173138330	FORWARD:          0	MERGED:   91350842	TO_CACHE:   81609829

L1D UNIQUE REGIONS ACCESSED: 0
L1D REGIONS CONFLICTS: 0
L1D Cross Page Prefetch Requests: 16427413
L1D Same Page Prefetch Requests: 196006314
L1D ROI Sum of L1D PQ occupancy: 1838284267
L1D PREFETCHES PUSHED FROM L2C: 0
L1I TOTAL     ACCESS:   37766918  HIT:   37766918  MISS:          0  HIT %:        100  MISS %:          0   MPKI: 0
L1I LOAD      ACCESS:   37766918  HIT:   37766918  MISS:          0  HIT %:        100  MISS %:          0   MPKI: 0
L1I PREFETCH  REQUESTED:          0  ISSUED:          0  USEFUL:          0  USELESS:          0
L1I USEFUL LOAD PREFETCHES:          0 PREFETCH ISSUED TO LOWER LEVEL:          0  ACCURACY: -nan
L1I TIMELY PREFETCHES:          0 LATE PREFETCHES: 0 DROPPED PREFETCHES: 0
L1I PREFETCHES SAME FILL-ORIGIN LEVEL: 0 DIFFERENT FILL-ORIGIN LEVEL: 0
L1I AVERAGE MISS LATENCY: -nan cycles
L1I RQ	ACCESS:   49627277	FORWARD:          0	MERGED:   11667246	TO_CACHE:   37960031

BTB TOTAL     ACCESS:   20089582  HIT:   20089378  MISS:        204  HIT %:     99.999  MISS %: 0.00101545   MPKI: 0.00102
BTB BRANCH_DIRECT_JUMP	ACCESS:       1550  HIT:       1547  MISS:          3
BTB BRANCH_INDIRECT	ACCESS:          0  HIT:          0  MISS:          0
BTB BRANCH_CONDITIONAL	ACCESS:   20085478  HIT:   20085447  MISS:         31
BTB BRANCH_DIRECT_CALL	ACCESS:       1277  HIT:       1267  MISS:         10
BTB BRANCH_INDIRECT_CALL	ACCESS:          0  HIT:          0  MISS:          0
BTB BRANCH_RETURN	ACCESS:       1277  HIT:       1117  MISS:        160
BTB BRANCH_OTHER ACCESS:          0  HIT:          0  MISS:          0

L2C TOTAL     ACCESS:   27367071  HIT:   22901030  MISS:    4466041  HIT %:     83.681  MISS %:     16.319   MPKI: 22.3302
L2C LOAD      ACCESS:     532931  HIT:     364379  MISS:     168552  HIT %:    68.3726  MISS %:    31.6274   MPKI: 0.84276
L2C DATA LOAD MPKI: 0.84276
L2C INSTRUCTION LOAD MPKI: 0
L2C RFO       ACCESS:    2227678  HIT:     135019  MISS:    2092659  HIT %:    6.06097  MISS %:     93.939   MPKI: 10.4633
L2C PREFETCH  ACCESS:   22241970  HIT:   20184836  MISS:    2057134  HIT %:    90.7511  MISS %:    9.24888   MPKI: 10.2857
L2C DATA PREFETCH MPKI: 10.2857
L2C INSTRUCTION PREFETCH MPKI: 0
L2C WRITEBACK ACCESS:    2234512  HIT:    2090699  MISS:     143813  HIT %:     93.564  MISS %:    6.43599   MPKI: 0.719065
L2C LOAD TRANSLATION ACCESS:      18046  HIT:      16040  MISS:       2006  HIT %:     88.884  MISS %:     11.116   MPKI: 0.01003
L2C TRANSLATION FROM L1D PREFETCHER ACCESS:     111934  HIT:     110057  MISS:       1877  HIT %:    98.3231  MISS %:    1.67688   MPKI: 0.009385
L2C PREFETCH  REQUESTED:          0  ISSUED:          0  USEFUL:     357364  USELESS:    1708901
L2C USEFUL LOAD PREFETCHES:     357364 PREFETCH ISSUED TO LOWER LEVEL:    2185116  ACCURACY: 16.3545
L2C TIMELY PREFETCHES:     357364 LATE PREFETCHES: 120393 DROPPED PREFETCHES: 0
L2C PREFETCHES SAME FILL-ORIGIN LEVEL: 1113493 DIFFERENT FILL-ORIGIN LEVEL: 0
L2C AVERAGE MISS LATENCY: 1115.44 cycles
L2C RQ	ACCESS:    2899760	FORWARD:          0	MERGED:          0	TO_CACHE:    2899708
L2C WQ	ACCESS:    2242283	FORWARD:         69	MERGED:          0	TO_CACHE:    2242283
L2C PQ	ACCESS:   24676279	FORWARD:          0	MERGED:     297509	TO_CACHE:   24378753

L2C Instructions Evicting Data 0
L2C Translations Evicting Data 3915
L2C Data Evicting Data 4328806
L2C Instructions Evicting Instructions 0
L2C Translations Evicting Instructions 0
L2C Data Evicting Instructions 0
L2C Instructions Evicting Translations 0
L2C Translations Evicting Translations 2
L2C Data Evicting Translations 3793
L2C Dense regions hint from L2: 0
PSCL5 TOTAL     ACCESS:     129012  HIT:     129012  MISS:          0  HIT %:        100  MISS %:          0   MPKI: 0
PSCL5 LOAD TRANSLATION ACCESS:      18043  HIT:      18043  MISS:          0  HIT %:        100  MISS %:          0   MPKI: 0
PSCL5 TRANSLATION FROM L1D PREFETCHER ACCESS:     110969  HIT:     110969  MISS:          0  HIT %:        100  MISS %:          0   MPKI: 0
PSCL5 PREFETCH  REQUESTED:          0  ISSUED:          0  USEFUL:          0  USELESS:          0
PSCL5 USEFUL LOAD PREFETCHES:          0 PREFETCH ISSUED TO LOWER LEVEL:          0  ACCURACY: -nan
PSCL5 TIMELY PREFETCHES:          0 LATE PREFETCHES: 0 DROPPED PREFETCHES: 0
PSCL5 PREFETCHES SAME FILL-ORIGIN LEVEL: 0 DIFFERENT FILL-ORIGIN LEVEL: 0

PSCL4 TOTAL     ACCESS:     129012  HIT:     129012  MISS:          0  HIT %:        100  MISS %:          0   MPKI: 0
PSCL4 LOAD TRANSLATION ACCESS:      18043  HIT:      18043  MISS:          0  HIT %:        100  MISS %:          0   MPKI: 0
PSCL4 TRANSLATION FROM L1D PREFETCHER ACCESS:     110969  HIT:     110969  MISS:          0  HIT %:        100  MISS %:          0   MPKI: 0
PSCL4 PREFETCH  REQUESTED:          0  ISSUED:          0  USEFUL:          0  USELESS:          0
PSCL4 USEFUL LOAD PREFETCHES:          0 PREFETCH ISSUED TO LOWER LEVEL:          0  ACCURACY: -nan
PSCL4 TIMELY PREFETCHES:          0 LATE PREFETCHES: 0 DROPPED PREFETCHES: 0
PSCL4 PREFETCHES SAME FILL-ORIGIN LEVEL: 0 DIFFERENT FILL-ORIGIN LEVEL: 0

PSCL3 TOTAL     ACCESS:     129012  HIT:     129012  MISS:          0  HIT %:        100  MISS %:          0   MPKI: 0
PSCL3 LOAD TRANSLATION ACCESS:      18043  HIT:      18043  MISS:          0  HIT %:        100  MISS %:          0   MPKI: 0
PSCL3 TRANSLATION FROM L1D PREFETCHER ACCESS:     110969  HIT:     110969  MISS:          0  HIT %:        100  MISS %:          0   MPKI: 0
PSCL3 PREFETCH  REQUESTED:          0  ISSUED:          0  USEFUL:          0  USELESS:          0
PSCL3 USEFUL LOAD PREFETCHES:          0 PREFETCH ISSUED TO LOWER LEVEL:          0  ACCURACY: -nan
PSCL3 TIMELY PREFETCHES:          0 LATE PREFETCHES: 0 DROPPED PREFETCHES: 0
PSCL3 PREFETCHES SAME FILL-ORIGIN LEVEL: 0 DIFFERENT FILL-ORIGIN LEVEL: 0

PSCL2 TOTAL     ACCESS:     128008  HIT:     127974  MISS:         34  HIT %:    99.9734  MISS %:  0.0265608   MPKI: 0.00017
PSCL2 LOAD TRANSLATION ACCESS:      18043  HIT:      18009  MISS:         34  HIT %:    99.8116  MISS %:   0.188439   MPKI: 0.00017
PSCL2 TRANSLATION FROM L1D PREFETCHER ACCESS:     109965  HIT:     109965  MISS:          0  HIT %:        100  MISS %:          0   MPKI: 0
PSCL2 PREFETCH  REQUESTED:          0  ISSUED:          0  USEFUL:          0  USELESS:          0
PSCL2 USEFUL LOAD PREFETCHES:          0 PREFETCH ISSUED TO LOWER LEVEL:          0  ACCURACY: -nan
PSCL2 TIMELY PREFETCHES:          0 LATE PREFETCHES: 0 DROPPED PREFETCHES: 0
PSCL2 PREFETCHES SAME FILL-ORIGIN LEVEL: 0 DIFFERENT FILL-ORIGIN LEVEL: 0

LLC TOTAL     ACCESS:    6432886  HIT:    2572569  MISS:    3860317  HIT %:    39.9909  MISS %:    60.0091   MPKI: 19.3016
LLC LOAD      ACCESS:      48263  HIT:      23770  MISS:      24493  HIT %:     49.251  MISS %:     50.749   MPKI: 0.122465
LLC RFO       ACCESS:    2092586  HIT:     167366  MISS:    1925220  HIT %:    7.99805  MISS %:     92.002   MPKI: 9.6261
LLC PREFETCH  ACCESS:    2177492  HIT:     353488  MISS:    1824004  HIT %:    16.2337  MISS %:    83.7663   MPKI: 9.12002
LLC WRITEBACK ACCESS:    2110662  HIT:    2027160  MISS:      83502  HIT %:    96.0438  MISS %:     3.9562   MPKI: 0.41751
LLC LOAD TRANSLATION ACCESS:       2006  HIT:        430  MISS:       1576  HIT %:    21.4357  MISS %:    78.5643   MPKI: 0.00788
LLC TRANSLATION FROM L1D PREFETCHER ACCESS:       1877  HIT:        355  MISS:       1522  HIT %:    18.9132  MISS %:    81.0868   MPKI: 0.00761
LLC PREFETCH  REQUESTED:          0  ISSUED:          0  USEFUL:     477672  USELESS:    6854706
LLC USEFUL LOAD PREFETCHES:     477672 PREFETCH ISSUED TO LOWER LEVEL:  101363238  ACCURACY: 0.471248
LLC TIMELY PREFETCHES:     477672 LATE PREFETCHES: 0 DROPPED PREFETCHES: 0
LLC PREFETCHES SAME FILL-ORIGIN LEVEL: 0 DIFFERENT FILL-ORIGIN LEVEL: 0
LLC AVERAGE MISS LATENCY: 5094.41 cycles
LLC RQ	ACCESS:    8604724	FORWARD:          0	MERGED:          0	TO_CACHE:    8604722
LLC WQ	ACCESS:    8466104	FORWARD:         13	MERGED:          0	TO_CACHE:    8466104
LLC PQ	ACCESS:    8729662	FORWARD:          0	MERGED:          0	TO_CACHE:    8729651

LLC Dense regions hint to LLC: 0

RAW hits: 2678852
Loads Generated: 51003297
Loads sent to L1D: 48324438
Stores Generated: 42824138
Stores sent to L1D: 42824119
Major fault: 0 Minor fault: 20714
Allocated PAGES: 82856

CPU 2 cumulative IPC: 0.399007 instructions: 200000003 cycles: 501244920
ITLB TOTAL     ACCESS:   30579706  HIT:   30579706  MISS:          0  HIT %:        100  MISS %:          0   MPKI: 0
ITLB LOAD TRANSLATION ACCESS:   30579706  HIT:   30579706  MISS:          0  HIT %:        100  MISS %:          0   MPKI: 0
ITLB PREFETCH  REQUESTED:          0  ISSUED:          0  USEFUL:          0  USELESS:          0
ITLB USEFUL LOAD PREFETCHES:          0 PREFETCH ISSUED TO LOWER LEVEL:          0  ACCURACY: -nan
ITLB TIMELY PREFETCHES:          0 LATE PREFETCHES: 0 DROPPED PREFETCHES: 0
ITLB PREFETCHES SAME FILL-ORIGIN LEVEL: 0 DIFFERENT FILL-ORIGIN LEVEL: 0
ITLB AVERAGE MISS LATENCY: -nan cycles
ITLB RQ	ACCESS:   37772950	FORWARD:          0	MERGED:    7193245	TO_CACHE:   30579705

DTLB TOTAL     ACCESS:   53776431  HIT:   53669423  MISS:     107008  HIT %:     99.801  MISS %:   0.198987   MPKI: 0.53504
DTLB LOAD TRANSLATION ACCESS:   53776431  HIT:   53669423  MISS:     107008  HIT %:     99.801  MISS %:   0.198987   MPKI: 0.53504
DTLB PREFETCH  REQUESTED:          0  ISSUED:          0  USEFUL:          0  USELESS:          0
DTLB USEFUL LOAD PREFETCHES:          0 PREFETCH ISSUED TO LOWER LEVEL:          0  ACCURACY: -nan
DTLB TIMELY PREFETCHES:          0 LATE PREFETCHES: 0 DROPPED PREFETCHES: 0
DTLB PREFETCHES SAME FILL-ORIGIN LEVEL: 0 DIFFERENT FILL-ORIGIN LEVEL: 0
DTLB AVERAGE MISS LATENCY: 155.89 cycles
DTLB RQ	ACCESS:   68946316	FORWARD:          0	MERGED:   15058577	TO_CACHE:   53887739

STLB TOTAL     ACCESS:   16554290  HIT:   16534590  MISS:      19700  HIT %:     99.881  MISS %:   0.119002   MPKI: 0.0985
STLB LOAD TRANSLATION ACCESS:     107008  HIT:      88693  MISS:      18315  HIT %:    82.8845  MISS %:    17.1155   MPKI: 0.091575
STLB TRANSLATION FROM L1D PREFETCHER ACCESS:   16447282  HIT:   16445897  MISS:       1385  HIT %:    99.9916  MISS %: 0.00842084   MPKI: 0.006925
STLB PREFETCH  REQUESTED:          0  ISSUED:          0  USEFUL:       1375  USELESS:         10
STLB USEFUL LOAD PREFETCHES:       1375 PREFETCH ISSUED TO LOWER LEVEL:          0  ACCURACY: inf
STLB TIMELY PREFETCHES:       1375 LATE PREFETCHES: 2351 DROPPED PREFETCHES: 107984
STLB PREFETCHES SAME FILL-ORIGIN LEVEL: 0 DIFFERENT FILL-ORIGIN LEVEL: 0
STLB AVERAGE MISS LATENCY: 815.502 cycles
STLB RQ	ACCESS:   80707382	FORWARD:          0	MERGED:   64021738	TO_CACHE:   16685644

STLB Hit, L1D data hit: 0
STLB Hit, L2C data hit: 0
STLB Hit, LLC data hit: 0
STLB Hit, LLC data miss: 0
STLB STLB hints to L2: 0
L1D TOTAL     ACCESS:  106943619  HIT:  101895838  MISS:    5047781  HIT %:      95.28  MISS %:    4.72004   MPKI: 25.2389
L1D LOAD      ACCESS:   26347344  HIT:   25252897  MISS:    1094447  HIT %:    95.8461  MISS %:    4.15392   MPKI: 5.47223
L1D RFO       ACCESS:   29959599  HIT:   27731825  MISS:    2227774  HIT %:    92.5641  MISS %:    7.43593   MPKI: 11.1389
L1D PREFETCH  ACCESS:   50636676  HIT:   48911116  MISS:    1725560  HIT %:    96.5923  MISS %:    3.40773   MPKI: 8.6278
L1D PREFETCH  REQUESTED:  366259240  ISSUED:  250356531  USEFUL:    1682179  USELESS:      43361
L1D USEFUL LOAD PREFETCHES:    1682179 PREFETCH ISSUED TO LOWER LEVEL:   25038655  ACCURACY: 6.71833
L1D TIMELY PREFETCHES:    1682179 LATE PREFETCHES: 554957 DROPPED PREFETCHES: 272101
L1D PREFETCHES SAME FILL-ORIGIN LEVEL: 2281517 DIFFERENT FILL-ORIGIN LEVEL: 22757138
L1D AVERAGE MISS LATENCY: 708.663 cycles
L1D RQ	ACCESS:   48314735	FORWARD:          0	MERGED:   20851696	TO_CACHE:   27250004
L1D WQ	ACCESS:   42824120	FORWARD:     383844	MERGED:    1127808	TO_CACHE:   41696312
L1D PQ	ACCESS:  169756159	FORWARD:          0	MERGED:   88984978	TO_CACHE:   80600372

L1D UNIQUE REGIONS ACCESSED: 0
L1D REGIONS CONFLICTS: 0
L1D Cross Page Prefetch Requests: 16301806
L1D Same Page Prefetch Requests: 192791462
L1D ROI Sum of L1D PQ occupancy: 1860043139
L1D PREFETCHES PUSHED FROM L2C: 0
L1I TOTAL     ACCESS:   37772951  HIT:   37772951  MISS:          0  HIT %:        100  MISS %:          0   MPKI: 0
L1I LOAD      ACCESS:   37772951  HIT:   37772951  MISS:          0  HIT %:        100  MISS %:          0   MPKI: 0
L1I PREFETCH  REQUESTED:          0  ISSUED:          0  USEFUL:          0  USELESS:          0
L1I USEFUL LOAD PREFETCHES:          0 PREFETCH ISSUED TO LOWER LEVEL:          0  ACCURACY: -nan
L1I TIMELY PREFETCHES:          0 LATE PREFETCHES: 0 DROPPED PREFETCHES: 0
L1I PREFETCHES SAME FILL-ORIGIN LEVEL: 0 DIFFERENT FILL-ORIGIN LEVEL: 0
L1I AVERAGE MISS LATENCY: -nan cycles
L1I RQ	ACCESS:   49397511	FORWARD:          0	MERGED:   11624561	TO_CACHE:   37772950

BTB TOTAL     ACCESS:   20089580  HIT:   20089376  MISS:        204  HIT %:     99.999  MISS %: 0.00101545   MPKI: 0.00102
BTB BRANCH_DIRECT_JUMP	ACCESS:       1550  HIT:       1547  MISS:          3
BTB BRANCH_INDIRECT	ACCESS:          0  HIT:          0  MISS:          0
BTB BRANCH_CONDITIONAL	ACCESS:   20085476  HIT:   20085445  MISS:         31
BTB BRANCH_DIRECT_CALL	ACCESS:       1277  HIT:       1267  MISS:         10
BTB BRANCH_INDIRECT_CALL	ACCESS:          0  HIT:          0  MISS:          0
BTB BRANCH_RETURN	ACCESS:       1277  HIT:       1117  MISS:        160
BTB BRANCH_OTHER ACCESS:          0  HIT:          0  MISS:          0

L2C TOTAL     ACCESS:   27777905  HIT:   23317589  MISS:    4460316  HIT %:    83.9429  MISS %:    16.0571   MPKI: 22.3016
L2C LOAD      ACCESS:     539486  HIT:     370614  MISS:     168872  HIT %:    68.6976  MISS %:    31.3024   MPKI: 0.84436
L2C DATA LOAD MPKI: 0.84436
L2C INSTRUCTION LOAD MPKI: 0
L2C RFO       ACCESS:    2227719  HIT:     135279  MISS:    2092440  HIT %:    6.07253  MISS %:    93.9275   MPKI: 10.4622
L2C PREFETCH  ACCESS:   22645426  HIT:   20592222  MISS:    2053204  HIT %:    90.9333  MISS %:    9.06675   MPKI: 10.266
L2C DATA PREFETCH MPKI: 10.266
L2C INSTRUCTION PREFETCH MPKI: 0
L2C WRITEBACK ACCESS:    2234571  HIT:    2092705  MISS:     141866  HIT %:    93.6513  MISS %:    6.34869   MPKI: 0.70933
L2C LOAD TRANSLATION ACCESS:      18040  HIT:      15993  MISS:       2047  HIT %:     88.653  MISS %:     11.347   MPKI: 0.010235
L2C TRANSLATION FROM L1D PREFETCHER ACCESS:     112663  HIT:     110776  MISS:       1887  HIT %:    98.3251  MISS %:    1.67491   MPKI: 0.009435
L2C PREFETCH  REQUESTED:          0  ISSUED:          0  USEFUL:     362568  USELESS:    1692256
L2C USEFUL LOAD PREFETCHES:     362568 PREFETCH ISSUED TO LOWER LEVEL:    2176214  ACCURACY: 16.6605
L2C TIMELY PREFETCHES:     362568 LATE PREFETCHES: 123010 DROPPED PREFETCHES: 0
L2C PREFETCHES SAME FILL-ORIGIN LEVEL: 1114994 DIFFERENT FILL-ORIGIN LEVEL: 0
L2C AVERAGE MISS LATENCY: 1117.58 cycles
L2C RQ	ACCESS:    2897965	FORWARD:          0	MERGED:          0	TO_CACHE:    2897909
L2C WQ	ACCESS:    2234571	FORWARD:         84	MERGED:          0	TO_CACHE:    2234571
L2C PQ	ACCESS:   25033917	FORWARD:          0	MERGED:     299999	TO_CACHE:   24733890

L2C Instructions Evicting Data 0
L2C Translations Evicting Data 3934
L2C Data Evicting Data 4310703
L2C Instructions Evicting Instructions 0
L2C Translations Evicting Instructions 0
L2C Data Evicting Instructions 0
L2C Instructions Evicting Translations 0
L2C Translations Evicting Translations 0
L2C Data Evicting Translations 3813
L2C Dense regions hint from L2: 0
PSCL5 TOTAL     ACCESS:     129757  HIT:     129757  MISS:          0  HIT %:        100  MISS %:          0   MPKI: 0
PSCL5 LOAD TRANSLATION ACCESS:      18038  HIT:      18038  MISS:          0  HIT %:        100  MISS %:          0   MPKI: 0
PSCL5 TRANSLATION FROM L1D PREFETCHER ACCESS:     111719  HIT:     111719  MISS:          0  HIT %:        100  MISS %:          0   MPKI: 0
PSCL5 PREFETCH  REQUESTED:          0  ISSUED:          0  USEFUL:          0  USELESS:          0
PSCL5 USEFUL LOAD PREFETCHES:          0 PREFETCH ISSUED TO LOWER LEVEL:          0  ACCURACY: -nan
PSCL5 TIMELY PREFETCHES:          0 LATE PREFETCHES: 0 DROPPED PREFETCHES: 0
PSCL5 PREFETCHES SAME FILL-ORIGIN LEVEL: 0 DIFFERENT FILL-ORIGIN LEVEL: 0

PSCL4 TOTAL     ACCESS:     129757  HIT:     129757  MISS:          0  HIT %:        100  MISS %:          0   MPKI: 0
PSCL4 LOAD TRANSLATION ACCESS:      18038  HIT:      18038  MISS:          0  HIT %:        100  MISS %:          0   MPKI: 0
PSCL4 TRANSLATION FROM L1D PREFETCHER ACCESS:     111719  HIT:     111719  MISS:          0  HIT %:        100  MISS %:          0   MPKI: 0
PSCL4 PREFETCH  REQUESTED:          0  ISSUED:          0  USEFUL:          0  USELESS:          0
PSCL4 USEFUL LOAD PREFETCHES:          0 PREFETCH ISSUED TO LOWER LEVEL:          0  ACCURACY: -nan
PSCL4 TIMELY PREFETCHES:          0 LATE PREFETCHES: 0 DROPPED PREFETCHES: 0
PSCL4 PREFETCHES SAME FILL-ORIGIN LEVEL: 0 DIFFERENT FILL-ORIGIN LEVEL: 0

PSCL3 TOTAL     ACCESS:     129757  HIT:     129757  MISS:          0  HIT %:        100  MISS %:          0   MPKI: 0
PSCL3 LOAD TRANSLATION ACCESS:      18038  HIT:      18038  MISS:          0  HIT %:        100  MISS %:          0   MPKI: 0
PSCL3 TRANSLATION FROM L1D PREFETCHER ACCESS:     111719  HIT:     111719  MISS:          0  HIT %:        100  MISS %:          0   MPKI: 0
PSCL3 PREFETCH  REQUESTED:          0  ISSUED:          0  USEFUL:          0  USELESS:          0
PSCL3 USEFUL LOAD PREFETCHES:          0 PREFETCH ISSUED TO LOWER LEVEL:          0  ACCURACY: -nan
PSCL3 TIMELY PREFETCHES:          0 LATE PREFETCHES: 0 DROPPED PREFETCHES: 0
PSCL3 PREFETCHES SAME FILL-ORIGIN LEVEL: 0 DIFFERENT FILL-ORIGIN LEVEL: 0

PSCL2 TOTAL     ACCESS:     128783  HIT:     128750  MISS:         33  HIT %:    99.9744  MISS %:  0.0256245   MPKI: 0.000165
PSCL2 LOAD TRANSLATION ACCESS:      18037  HIT:      18004  MISS:         33  HIT %:     99.817  MISS %:   0.182957   MPKI: 0.000165
PSCL2 TRANSLATION FROM L1D PREFETCHER ACCESS:     110746  HIT:     110746  MISS:          0  HIT %:        100  MISS %:          0   MPKI: 0
PSCL2 PREFETCH  REQUESTED:          0  ISSUED:          0  USEFUL:          0  USELESS:          0
PSCL2 USEFUL LOAD PREFETCHES:          0 PREFETCH ISSUED TO LOWER LEVEL:          0  ACCURACY: -nan
PSCL2 TIMELY PREFETCHES:          0 LATE PREFETCHES: 0 DROPPED PREFETCHES: 0
PSCL2 PREFETCHES SAME FILL-ORIGIN LEVEL: 0 DIFFERENT FILL-ORIGIN LEVEL: 0

LLC TOTAL     ACCESS:    6429215  HIT:    2547474  MISS:    3881741  HIT %:    39.6234  MISS %:    60.3766   MPKI: 19.4087
LLC LOAD      ACCESS:      45958  HIT:      21456  MISS:      24502  HIT %:    46.6861  MISS %:    53.3139   MPKI: 0.12251
LLC RFO       ACCESS:    2092343  HIT:     162194  MISS:    1930149  HIT %:    7.75179  MISS %:    92.2482   MPKI: 9.65074
LLC PREFETCH  ACCESS:    2176210  HIT:     341576  MISS:    1834634  HIT %:    15.6959  MISS %:    84.3041   MPKI: 9.17317
LLC WRITEBACK ACCESS:    2110770  HIT:    2021410  MISS:      89360  HIT %:    95.7665  MISS %:    4.23353   MPKI: 0.4468
LLC LOAD TRANSLATION ACCESS:       2047  HIT:        485  MISS:       1562  HIT %:    23.6932  MISS %:    76.3068   MPKI: 0.00781
LLC TRANSLATION FROM L1D PREFETCHER ACCESS:       1887  HIT:        353  MISS:       1534  HIT %:    18.7069  MISS %:    81.2931   MPKI: 0.00767
LLC PREFETCH  REQUESTED:          0  ISSUED:          0  USEFUL:     477672  USELESS:    6854706
LLC USEFUL LOAD PREFETCHES:     477672 PREFETCH ISSUED TO LOWER LEVEL:  101363238  ACCURACY: 0.471248
LLC TIMELY PREFETCHES:     477672 LATE PREFETCHES: 0 DROPPED PREFETCHES: 0
LLC PREFETCHES SAME FILL-ORIGIN LEVEL: 0 DIFFERENT FILL-ORIGIN LEVEL: 0
LLC AVERAGE MISS LATENCY: 5066.29 cycles
LLC RQ	ACCESS:    8604724	FORWARD:          0	MERGED:          0	TO_CACHE:    8604722
LLC WQ	ACCESS:    8466104	FORWARD:         13	MERGED:          0	TO_CACHE:    8466104
LLC PQ	ACCESS:    8729662	FORWARD:          0	MERGED:          0	TO_CACHE:    8729651

LLC Dense regions hint to LLC: 0

RAW hits: 2688542
Loads Generated: 51003276
Loads sent to L1D: 48314735
Stores Generated: 42824127
Stores sent to L1D: 42824120
Major fault: 0 Minor fault: 20714
Allocated PAGES: 82856

CPU 3 cumulative IPC: 0.401294 instructions: 200000000 cycles: 498388131
ITLB TOTAL     ACCESS:   30580926  HIT:   30580926  MISS:          0  HIT %:        100  MISS %:          0   MPKI: 0
ITLB LOAD TRANSLATION ACCESS:   30580926  HIT:   30580926  MISS:          0  HIT %:        100  MISS %:          0   MPKI: 0
ITLB PREFETCH  REQUESTED:          0  ISSUED:          0  USEFUL:          0  USELESS:          0
ITLB USEFUL LOAD PREFETCHES:          0 PREFETCH ISSUED TO LOWER LEVEL:          0  ACCURACY: -nan
ITLB TIMELY PREFETCHES:          0 LATE PREFETCHES: 0 DROPPED PREFETCHES: 0
ITLB PREFETCHES SAME FILL-ORIGIN LEVEL: 0 DIFFERENT FILL-ORIGIN LEVEL: 0
ITLB AVERAGE MISS LATENCY: -nan cycles
ITLB RQ	ACCESS:   38094509	FORWARD:          0	MERGED:    7263166	TO_CACHE:   30831343

DTLB TOTAL     ACCESS:   53792149  HIT:   53685138  MISS:     107011  HIT %:    99.8011  MISS %:   0.198934   MPKI: 0.535055
DTLB LOAD TRANSLATION ACCESS:   53792149  HIT:   53685138  MISS:     107011  HIT %:    99.8011  MISS %:   0.198934   MPKI: 0.535055
DTLB PREFETCH  REQUESTED:          0  ISSUED:          0  USEFUL:          0  USELESS:          0
DTLB USEFUL LOAD PREFETCHES:          0 PREFETCH ISSUED TO LOWER LEVEL:          0  ACCURACY: -nan
DTLB TIMELY PREFETCHES:          0 LATE PREFETCHES: 0 DROPPED PREFETCHES: 0
DTLB PREFETCHES SAME FILL-ORIGIN LEVEL: 0 DIFFERENT FILL-ORIGIN LEVEL: 0
DTLB AVERAGE MISS LATENCY: 154.471 cycles
DTLB RQ	ACCESS:   69538554	FORWARD:          0	MERGED:   15176167	TO_CACHE:   54362387

STLB TOTAL     ACCESS:   16445883  HIT:   16426174  MISS:      19709  HIT %:    99.8802  MISS %:   0.119842   MPKI: 0.098545
STLB LOAD TRANSLATION ACCESS:     107011  HIT:      88734  MISS:      18277  HIT %:    82.9204  MISS %:    17.0796   MPKI: 0.091385
STLB TRANSLATION FROM L1D PREFETCHER ACCESS:   16338872  HIT:   16337440  MISS:       1432  HIT %:    99.9912  MISS %: 0.00876437   MPKI: 0.00716
STLB PREFETCH  REQUESTED:          0  ISSUED:          0  USEFUL:       1577  USELESS:          8
STLB USEFUL LOAD PREFETCHES:       1577 PREFETCH ISSUED TO LOWER LEVEL:          0  ACCURACY: inf
STLB TIMELY PREFETCHES:       1577 LATE PREFETCHES: 2312 DROPPED PREFETCHES: 119690
STLB PREFETCHES SAME FILL-ORIGIN LEVEL: 0 DIFFERENT FILL-ORIGIN LEVEL: 0
STLB AVERAGE MISS LATENCY: 808.629 cycles
STLB RQ	ACCESS:   81382840	FORWARD:          0	MERGED:   64679103	TO_CACHE:   16703737

STLB Hit, L1D data hit: 0
STLB Hit, L2C data hit: 0
STLB Hit, LLC data hit: 0
STLB Hit, LLC data miss: 0
STLB STLB hints to L2: 0
L1D TOTAL     ACCESS:  107873421  HIT:  102825874  MISS:    5047547  HIT %:    95.3209  MISS %:    4.67914   MPKI: 25.2377
L1D LOAD      ACCESS:   26370832  HIT:   25278514  MISS:    1092318  HIT %:    95.8579  MISS %:    4.14214   MPKI: 5.46159
L1D RFO       ACCESS:   29944302  HIT:   27716566  MISS:    2227736  HIT %:    92.5604  MISS %:     7.4396   MPKI: 11.1387
L1D PREFETCH  ACCESS:   51558287  HIT:   49830794  MISS:    1727493  HIT %:    96.6494  MISS %:    3.35056   MPKI: 8.63747
L1D PREFETCH  REQUESTED:  369354613  ISSUED:  253385419  USEFUL:    1696597  USELESS:      43284
L1D USEFUL LOAD PREFETCHES:    1696597 PREFETCH ISSUED TO LOWER LEVEL:   24237494  ACCURACY: 6.99989
L1D TIMELY PREFETCHES:    1696597 LATE PREFETCHES: 551797 DROPPED PREFETCHES: 280517
L1D PREFETCHES SAME FILL-ORIGIN LEVEL: 2292728 DIFFERENT FILL-ORIGIN LEVEL: 21944766
L1D AVERAGE MISS LATENCY: 710.751 cycles
L1D RQ	ACCESS:   48733692	FORWARD:          0	MERGED:   21030891	TO_CACHE:   27487590
L1D WQ	ACCESS:   43201245	FORWARD:     404608	MERGED:    1150281	TO_CACHE:   42050964
L1D PQ	ACCESS:  172109933	FORWARD:          0	MERGED:   90645050	TO_CACHE:   81275486

L1D UNIQUE REGIONS ACCESSED: 0
L1D REGIONS CONFLICTS: 0
L1D Cross Page Prefetch Requests: 16312299
L1D Same Page Prefetch Requests: 194941393
L1D ROI Sum of L1D PQ occupancy: 1856127237
L1D PREFETCHES PUSHED FROM L2C: 0
L1I TOTAL     ACCESS:   37771791  HIT:   37771791  MISS:          0  HIT %:        100  MISS %:          0   MPKI: 0
L1I LOAD      ACCESS:   37771791  HIT:   37771791  MISS:          0  HIT %:        100  MISS %:          0   MPKI: 0
L1I PREFETCH  REQUESTED:          0  ISSUED:          0  USEFUL:          0  USELESS:          0
L1I USEFUL LOAD PREFETCHES:          0 PREFETCH ISSUED TO LOWER LEVEL:          0  ACCURACY: -nan
L1I TIMELY PREFETCHES:          0 LATE PREFETCHES: 0 DROPPED PREFETCHES: 0
L1I PREFETCHES SAME FILL-ORIGIN LEVEL: 0 DIFFERENT FILL-ORIGIN LEVEL: 0
L1I AVERAGE MISS LATENCY: -nan cycles
L1I RQ	ACCESS:   49791640	FORWARD:          0	MERGED:   11697131	TO_CACHE:   38094509

BTB TOTAL     ACCESS:   20089577  HIT:   20089372  MISS:        205  HIT %:     99.999  MISS %: 0.00102043   MPKI: 0.001025
BTB BRANCH_DIRECT_JUMP	ACCESS:       1550  HIT:       1547  MISS:          3
BTB BRANCH_INDIRECT	ACCESS:          0  HIT:          0  MISS:          0
BTB BRANCH_CONDITIONAL	ACCESS:   20085473  HIT:   20085441  MISS:         32
BTB BRANCH_DIRECT_CALL	ACCESS:       1277  HIT:       1267  MISS:         10
BTB BRANCH_INDIRECT_CALL	ACCESS:          0  HIT:          0  MISS:          0
BTB BRANCH_RETURN	ACCESS:       1277  HIT:       1117  MISS:        160
BTB BRANCH_OTHER ACCESS:          0  HIT:          0  MISS:          0

L2C TOTAL     ACCESS:   26934070  HIT:   22469745  MISS:    4464325  HIT %:     83.425  MISS %:     16.575   MPKI: 22.3216
L2C LOAD      ACCESS:     543433  HIT:     375307  MISS:     168126  HIT %:    69.0622  MISS %:    30.9378   MPKI: 0.84063
L2C DATA LOAD MPKI: 0.84063
L2C INSTRUCTION LOAD MPKI: 0
L2C RFO       ACCESS:    2227674  HIT:     135183  MISS:    2092491  HIT %:    6.06835  MISS %:    93.9317   MPKI: 10.4625
L2C PREFETCH  ACCESS:   21786908  HIT:   19729321  MISS:    2057587  HIT %:    90.5559  MISS %:    9.44414   MPKI: 10.2879
L2C DATA PREFETCH MPKI: 10.2879
L2C INSTRUCTION PREFETCH MPKI: 0
L2C WRITEBACK ACCESS:    2234488  HIT:    2092378  MISS:     142110  HIT %:    93.6402  MISS %:    6.35985   MPKI: 0.71055
L2C LOAD TRANSLATION ACCESS:      18043  HIT:      15917  MISS:       2126  HIT %:     88.217  MISS %:     11.783   MPKI: 0.01063
L2C TRANSLATION FROM L1D PREFETCHER ACCESS:     123524  HIT:     121639  MISS:       1885  HIT %:     98.474  MISS %:    1.52602   MPKI: 0.009425
L2C PREFETCH  REQUESTED:          0  ISSUED:          0  USEFUL:     369045  USELESS:    1703426
L2C USEFUL LOAD PREFETCHES:     369045 PREFETCH ISSUED TO LOWER LEVEL:    2188008  ACCURACY: 16.8667
L2C TIMELY PREFETCHES:     369045 LATE PREFETCHES: 117402 DROPPED PREFETCHES: 0
L2C PREFETCHES SAME FILL-ORIGIN LEVEL: 1114092 DIFFERENT FILL-ORIGIN LEVEL: 0
L2C AVERAGE MISS LATENCY: 1115.48 cycles
L2C RQ	ACCESS:    2928378	FORWARD:          0	MERGED:          0	TO_CACHE:    2928319
L2C WQ	ACCESS:    2247596	FORWARD:         79	MERGED:          0	TO_CACHE:    2247596
L2C PQ	ACCESS:   24229316	FORWARD:          0	MERGED:     286971	TO_CACHE:   23942325

L2C Instructions Evicting Data 0
L2C Translations Evicting Data 4069
L2C Data Evicting Data 4337975
L2C Instructions Evicting Instructions 0
L2C Translations Evicting Instructions 0
L2C Data Evicting Instructions 0
L2C Instructions Evicting Translations 0
L2C Translations Evicting Translations 5
L2C Data Evicting Translations 3932
L2C Dense regions hint from L2: 0
PSCL5 TOTAL     ACCESS:     141462  HIT:     141462  MISS:          0  HIT %:        100  MISS %:          0   MPKI: 0
PSCL5 LOAD TRANSLATION ACCESS:      18044  HIT:      18044  MISS:          0  HIT %:        100  MISS %:          0   MPKI: 0
PSCL5 TRANSLATION FROM L1D PREFETCHER ACCESS:     123418  HIT:     123418  MISS:          0  HIT %:        100  MISS %:          0   MPKI: 0
PSCL5 PREFETCH  REQUESTED:          0  ISSUED:          0  USEFUL:          0  USELESS:          0
PSCL5 USEFUL LOAD PREFETCHES:          0 PREFETCH ISSUED TO LOWER LEVEL:          0  ACCURACY: -nan
PSCL5 TIMELY PREFETCHES:          0 LATE PREFETCHES: 0 DROPPED PREFETCHES: 0
PSCL5 PREFETCHES SAME FILL-ORIGIN LEVEL: 0 DIFFERENT FILL-ORIGIN LEVEL: 0

PSCL4 TOTAL     ACCESS:     141462  HIT:     141462  MISS:          0  HIT %:        100  MISS %:          0   MPKI: 0
PSCL4 LOAD TRANSLATION ACCESS:      18044  HIT:      18044  MISS:          0  HIT %:        100  MISS %:          0   MPKI: 0
PSCL4 TRANSLATION FROM L1D PREFETCHER ACCESS:     123418  HIT:     123418  MISS:          0  HIT %:        100  MISS %:          0   MPKI: 0
PSCL4 PREFETCH  REQUESTED:          0  ISSUED:          0  USEFUL:          0  USELESS:          0
PSCL4 USEFUL LOAD PREFETCHES:          0 PREFETCH ISSUED TO LOWER LEVEL:          0  ACCURACY: -nan
PSCL4 TIMELY PREFETCHES:          0 LATE PREFETCHES: 0 DROPPED PREFETCHES: 0
PSCL4 PREFETCHES SAME FILL-ORIGIN LEVEL: 0 DIFFERENT FILL-ORIGIN LEVEL: 0

PSCL3 TOTAL     ACCESS:     141462  HIT:     141462  MISS:          0  HIT %:        100  MISS %:          0   MPKI: 0
PSCL3 LOAD TRANSLATION ACCESS:      18044  HIT:      18044  MISS:          0  HIT %:        100  MISS %:          0   MPKI: 0
PSCL3 TRANSLATION FROM L1D PREFETCHER ACCESS:     123418  HIT:     123418  MISS:          0  HIT %:        100  MISS %:          0   MPKI: 0
PSCL3 PREFETCH  REQUESTED:          0  ISSUED:          0  USEFUL:          0  USELESS:          0
PSCL3 USEFUL LOAD PREFETCHES:          0 PREFETCH ISSUED TO LOWER LEVEL:          0  ACCURACY: -nan
PSCL3 TIMELY PREFETCHES:          0 LATE PREFETCHES: 0 DROPPED PREFETCHES: 0
PSCL3 PREFETCHES SAME FILL-ORIGIN LEVEL: 0 DIFFERENT FILL-ORIGIN LEVEL: 0

PSCL2 TOTAL     ACCESS:     141328  HIT:     141297  MISS:         31  HIT %:    99.9781  MISS %:  0.0219348   MPKI: 0.000155
PSCL2 LOAD TRANSLATION ACCESS:      18043  HIT:      18012  MISS:         31  HIT %:    99.8282  MISS %:   0.171812   MPKI: 0.000155
PSCL2 TRANSLATION FROM L1D PREFETCHER ACCESS:     123285  HIT:     123285  MISS:          0  HIT %:        100  MISS %:          0   MPKI: 0
PSCL2 PREFETCH  REQUESTED:          0  ISSUED:          0  USEFUL:          0  USELESS:          0
PSCL2 USEFUL LOAD PREFETCHES:          0 PREFETCH ISSUED TO LOWER LEVEL:          0  ACCURACY: -nan
PSCL2 TIMELY PREFETCHES:          0 LATE PREFETCHES: 0 DROPPED PREFETCHES: 0
PSCL2 PREFETCHES SAME FILL-ORIGIN LEVEL: 0 DIFFERENT FILL-ORIGIN LEVEL: 0

LLC TOTAL     ACCESS:    6432786  HIT:    2583446  MISS:    3849340  HIT %:    40.1606  MISS %:    59.8394   MPKI: 19.2467
LLC LOAD      ACCESS:      50854  HIT:      26743  MISS:      24111  HIT %:    52.5878  MISS %:    47.4122   MPKI: 0.120555
LLC RFO       ACCESS:    2092401  HIT:     168280  MISS:    1924121  HIT %:    8.04244  MISS %:    91.9576   MPKI: 9.6206
LLC PREFETCH  ACCESS:    2174949  HIT:     361735  MISS:    1813214  HIT %:    16.6319  MISS %:    83.3681   MPKI: 9.06607
LLC WRITEBACK ACCESS:    2110571  HIT:    2025742  MISS:      84829  HIT %:    95.9808  MISS %:    4.01924   MPKI: 0.424145
LLC LOAD TRANSLATION ACCESS:       2126  HIT:        568  MISS:       1558  HIT %:    26.7168  MISS %:    73.2832   MPKI: 0.00779
LLC TRANSLATION FROM L1D PREFETCHER ACCESS:       1885  HIT:        378  MISS:       1507  HIT %:    20.0531  MISS %:    79.9469   MPKI: 0.007535
LLC PREFETCH  REQUESTED:          0  ISSUED:          0  USEFUL:     477672  USELESS:    6854706
LLC USEFUL LOAD PREFETCHES:     477672 PREFETCH ISSUED TO LOWER LEVEL:  101363238  ACCURACY: 0.471248
LLC TIMELY PREFETCHES:     477672 LATE PREFETCHES: 0 DROPPED PREFETCHES: 0
LLC PREFETCHES SAME FILL-ORIGIN LEVEL: 0 DIFFERENT FILL-ORIGIN LEVEL: 0
LLC AVERAGE MISS LATENCY: 5108.94 cycles
LLC RQ	ACCESS:    8604724	FORWARD:          0	MERGED:          0	TO_CACHE:    8604722
LLC WQ	ACCESS:    8466104	FORWARD:         13	MERGED:          0	TO_CACHE:    8466104
LLC PQ	ACCESS:    8729662	FORWARD:          0	MERGED:          0	TO_CACHE:    8729651

LLC Dense regions hint to LLC: 0

RAW hits: 2687006
Loads Generated: 51003308
Loads sent to L1D: 48316297
Stores Generated: 42824138
Stores sent to L1D: 42824121
Major fault: 0 Minor fault: 20714
Allocated PAGES: 82856

DRAM Statistics
 CHANNEL 0
 RQ ROW_BUFFER_HIT:    4345342  ROW_BUFFER_MISS:   10812341
 DBUS_CONGESTED:          0
 WQ ROW_BUFFER_HIT:     746333  ROW_BUFFER_MISS:    7500038  FULL:        116

 AVG_CONGESTED_CYCLE: -
 All warmup complete: 5
Channel 0 Bank busy for read cycles: 0
Channel 0 Bank busy for write cycles: 0
Channel 0
Rank 0
0banks busy for read cycles: 11451
0banks busy for write cycles: 13
1banks busy for read cycles: 873200
1banks busy for write cycles: 825940
2banks busy for read cycles: 1025929
2banks busy for write cycles: 824722
3banks busy for read cycles: 1492825
3banks busy for write cycles: 824344
4banks busy for read cycles: 2706923
4banks busy for write cycles: 824517
5banks busy for read cycles: 5686864
5banks busy for write cycles: 839757
6banks busy for read cycles: 13615140
6banks busy for write cycles: 1512231
7banks busy for read cycles: 44177004
7banks busy for write cycles: 20150410
8banks busy for read cycles: 212922102
8banks busy for write cycles: 192931549

CPU 0 Branch Prediction Accuracy: 99.0309% MPKI: 0.985703 Average ROB Occupancy at Mispredict: 146.129
Branch types
NOT_BRANCH: 180483985 89.8283%
BRANCH_DIRECT_JUMP: 1555 0.000773936%
BRANCH_INDIRECT: 0 0%
BRANCH_CONDITIONAL: 20433231 10.1698%
BRANCH_DIRECT_CALL: 1282 0.000638062%
BRANCH_INDIRECT_CALL: 0 0%
BRANCH_RETURN: 1282 0.000638062%
BRANCH_OTHER: 0 0%


CPU 1 Branch Prediction Accuracy: 99.0313% MPKI: 0.985339 Average ROB Occupancy at Mispredict: 146.013
Branch types
NOT_BRANCH: 180553460 89.8287%
BRANCH_DIRECT_JUMP: 1555 0.000773641%
BRANCH_INDIRECT: 0 0%
BRANCH_CONDITIONAL: 20440008 10.1693%
BRANCH_DIRECT_CALL: 1282 0.000637819%
BRANCH_INDIRECT_CALL: 0 0%
BRANCH_RETURN: 1282 0.000637819%
BRANCH_OTHER: 0 0%


CPU 2 Branch Prediction Accuracy: 99.027% MPKI: 0.990134 Average ROB Occupancy at Mispredict: 146.074
Branch types
NOT_BRANCH: 179647731 89.8239%
BRANCH_DIRECT_JUMP: 1550 0.000775%
BRANCH_INDIRECT: 0 0%
BRANCH_CONDITIONAL: 20348380 10.1742%
BRANCH_DIRECT_CALL: 1277 0.0006385%
BRANCH_INDIRECT_CALL: 0 0%
BRANCH_RETURN: 1277 0.0006385%
BRANCH_OTHER: 0 0%


CPU 3 Branch Prediction Accuracy: 99.0341% MPKI: 0.982168 Average ROB Occupancy at Mispredict: 145.642
Branch types
NOT_BRANCH: 181155654 89.8318%
BRANCH_DIRECT_JUMP: 1559 0.00077308%
BRANCH_INDIRECT: 0 0%
BRANCH_CONDITIONAL: 20501417 10.1663%
BRANCH_DIRECT_CALL: 1286 0.000637704%
BRANCH_INDIRECT_CALL: 0 0%
BRANCH_RETURN: 1286 0.000637704%
BRANCH_OTHER: 0 0%

DRAM PAGES: 1048576
Allocated PAGES: 82856
