
*** ChampSim Multicore Out-of-Order Simulator ***

Warmup Instructions: 50000000
Simulation Instructions: 200000000
Number of CPUs: 4
LLC sets: 8192
LLC ways: 16
Off-chip DRAM Size: 4096 MB Channels: 1 Width: 64-bit Data Rate: 6400 MT/s
CPU 0 runs ./traces/gap/bfs-8.trace.gz
.gz
CPU 1 runs ./traces/gap/bfs-8.trace.gz
.gz
CPU 2 runs ./traces/gap/bfs-8.trace.gz
.gz
CPU 3 runs ./traces/gap/bfs-8.trace.gz
.gz
BTB has LRU replacement policy
ITLB has LRU replacement policy
DTLB has LRU replacement policy
STLB has LRU replacement policy
L1I has LRU replacement policy
History Sets: 8
History Ways: 16
BERTI Size: 16
BERTI Stride Size: 8
L1D has LRU replacement policy
Initialize SRRIP state for L2C
Initialize DRRIP state for LLC
BTB has LRU replacement policy
ITLB has LRU replacement policy
DTLB has LRU replacement policy
STLB has LRU replacement policy
L1I has LRU replacement policy
History Sets: 8
History Ways: 16
BERTI Size: 16
BERTI Stride Size: 8
L1D has LRU replacement policy
Initialize SRRIP state for L2C
Initialize DRRIP state for LLC
BTB has LRU replacement policy
ITLB has LRU replacement policy
DTLB has LRU replacement policy
STLB has LRU replacement policy
L1I has LRU replacement policy
History Sets: 8
History Ways: 16
BERTI Size: 16
BERTI Stride Size: 8
L1D has LRU replacement policy
Initialize SRRIP state for L2C
Initialize DRRIP state for LLC
BTB has LRU replacement policy
ITLB has LRU replacement policy
DTLB has LRU replacement policy
STLB has LRU replacement policy
L1I has LRU replacement policy
History Sets: 8
History Ways: 16
BERTI Size: 16
BERTI Stride Size: 8
L1D has LRU replacement policy
Initialize SRRIP state for L2C
Initialize DRRIP state for LLC
Heartbeat CPU 0 instructions: 10000003 cycles: 2972424 heartbeat IPC: 3.36426 cumulative IPC: 3.36426 (Simulation time: 0 hr 1 min 59 sec) 
Heartbeat CPU 1 instructions: 10000003 cycles: 2972452 heartbeat IPC: 3.36423 cumulative IPC: 3.36423 (Simulation time: 0 hr 1 min 59 sec) 
Heartbeat CPU 2 instructions: 10000003 cycles: 2972473 heartbeat IPC: 3.3642 cumulative IPC: 3.3642 (Simulation time: 0 hr 1 min 59 sec) 
Heartbeat CPU 3 instructions: 10000003 cycles: 2972481 heartbeat IPC: 3.36419 cumulative IPC: 3.36419 (Simulation time: 0 hr 1 min 59 sec) 
Heartbeat CPU 0 instructions: 20000001 cycles: 6044464 heartbeat IPC: 3.25517 cumulative IPC: 3.30881 (Simulation time: 0 hr 5 min 28 sec) 
Heartbeat CPU 1 instructions: 20000001 cycles: 6045959 heartbeat IPC: 3.25361 cumulative IPC: 3.30799 (Simulation time: 0 hr 5 min 28 sec) 
Heartbeat CPU 2 instructions: 20000001 cycles: 6046472 heartbeat IPC: 3.25309 cumulative IPC: 3.30771 (Simulation time: 0 hr 5 min 28 sec) 
Heartbeat CPU 3 instructions: 20000001 cycles: 6049744 heartbeat IPC: 3.24964 cumulative IPC: 3.30593 (Simulation time: 0 hr 5 min 28 sec) 
Heartbeat CPU 0 instructions: 30000003 cycles: 9001358 heartbeat IPC: 3.38193 cumulative IPC: 3.33283 (Simulation time: 0 hr 9 min 17 sec) 
Heartbeat CPU 1 instructions: 30000003 cycles: 9002569 heartbeat IPC: 3.38225 cumulative IPC: 3.33238 (Simulation time: 0 hr 9 min 17 sec) 
Heartbeat CPU 2 instructions: 30000003 cycles: 9003912 heartbeat IPC: 3.3813 cumulative IPC: 3.33189 (Simulation time: 0 hr 9 min 17 sec) 
Heartbeat CPU 3 instructions: 30000003 cycles: 9006479 heartbeat IPC: 3.38211 cumulative IPC: 3.33094 (Simulation time: 0 hr 9 min 17 sec) 
Heartbeat CPU 0 instructions: 40000003 cycles: 12069190 heartbeat IPC: 3.25963 cumulative IPC: 3.31422 (Simulation time: 0 hr 12 min 37 sec) 
Heartbeat CPU 1 instructions: 40000002 cycles: 12070156 heartbeat IPC: 3.25989 cumulative IPC: 3.31396 (Simulation time: 0 hr 12 min 37 sec) 
Heartbeat CPU 2 instructions: 40000002 cycles: 12071857 heartbeat IPC: 3.25951 cumulative IPC: 3.31349 (Simulation time: 0 hr 12 min 37 sec) 
Heartbeat CPU 3 instructions: 40000002 cycles: 12074502 heartbeat IPC: 3.25943 cumulative IPC: 3.31277 (Simulation time: 0 hr 12 min 38 sec) 
Heartbeat CPU 0 instructions: 50000002 cycles: 15239945 heartbeat IPC: 3.15382 cumulative IPC: 3.28085 (Simulation time: 0 hr 14 min 56 sec) 
Heartbeat CPU 1 instructions: 50000002 cycles: 15240915 heartbeat IPC: 3.15382 cumulative IPC: 3.28064 (Simulation time: 0 hr 14 min 56 sec) 
Heartbeat CPU 2 instructions: 50000002 cycles: 15242613 heartbeat IPC: 3.15382 cumulative IPC: 3.28028 (Simulation time: 0 hr 14 min 56 sec) 
Heartbeat CPU 3 instructions: 50000002 cycles: 15245259 heartbeat IPC: 3.15382 cumulative IPC: 3.27971 (Simulation time: 0 hr 14 min 56 sec) 

Warmup complete CPU 0 instructions: 50015862 cycles: 15245259 (Simulation time: 0 hr 14 min 56 sec) 
Warmup complete CPU 1 instructions: 50013032 cycles: 15245259 (Simulation time: 0 hr 14 min 56 sec) 
Warmup complete CPU 2 instructions: 50007963 cycles: 15245259 (Simulation time: 0 hr 14 min 56 sec) 
Warmup complete CPU 3 instructions: 50000002 cycles: 15245259 (Simulation time: 0 hr 14 min 56 sec) 

Heartbeat CPU 0 instructions: 60000000 cycles: 38852851 heartbeat IPC: 0.423497 cumulative IPC: 0.422921 (Simulation time: 0 hr 18 min 40 sec) 
Heartbeat CPU 2 instructions: 60000000 cycles: 38865703 heartbeat IPC: 0.423315 cumulative IPC: 0.423025 (Simulation time: 0 hr 18 min 40 sec) 
Heartbeat CPU 1 instructions: 60000000 cycles: 38873683 heartbeat IPC: 0.423141 cumulative IPC: 0.422668 (Simulation time: 0 hr 18 min 41 sec) 
Heartbeat CPU 3 instructions: 60000000 cycles: 38971008 heartbeat IPC: 0.421483 cumulative IPC: 0.421483 (Simulation time: 0 hr 18 min 44 sec) 
Heartbeat CPU 0 instructions: 70000000 cycles: 52580206 heartbeat IPC: 0.728472 cumulative IPC: 0.535266 (Simulation time: 0 hr 22 min 26 sec) 
Heartbeat CPU 2 instructions: 70000000 cycles: 52591692 heartbeat IPC: 0.728545 cumulative IPC: 0.535313 (Simulation time: 0 hr 22 min 26 sec) 
Heartbeat CPU 1 instructions: 70000000 cycles: 52776867 heartbeat IPC: 0.71926 cumulative IPC: 0.532537 (Simulation time: 0 hr 22 min 28 sec) 
Heartbeat CPU 3 instructions: 70000000 cycles: 52921736 heartbeat IPC: 0.716808 cumulative IPC: 0.530835 (Simulation time: 0 hr 22 min 30 sec) 
Heartbeat CPU 1 instructions: 80000001 cycles: 87039902 heartbeat IPC: 0.29186 cumulative IPC: 0.417677 (Simulation time: 0 hr 26 min 49 sec) 
Heartbeat CPU 3 instructions: 80000001 cycles: 87043053 heartbeat IPC: 0.293072 cumulative IPC: 0.41784 (Simulation time: 0 hr 26 min 50 sec) 
Heartbeat CPU 0 instructions: 80000001 cycles: 87085388 heartbeat IPC: 0.289812 cumulative IPC: 0.417373 (Simulation time: 0 hr 26 min 50 sec) 
Heartbeat CPU 2 instructions: 80000001 cycles: 87182732 heartbeat IPC: 0.289092 cumulative IPC: 0.416918 (Simulation time: 0 hr 26 min 51 sec) 
Heartbeat CPU 1 instructions: 90000001 cycles: 122940259 heartbeat IPC: 0.278549 cumulative IPC: 0.371298 (Simulation time: 0 hr 32 min 0 sec) 
Heartbeat CPU 3 instructions: 90000001 cycles: 122981683 heartbeat IPC: 0.278252 cumulative IPC: 0.371276 (Simulation time: 0 hr 32 min 0 sec) 
Heartbeat CPU 0 instructions: 90000001 cycles: 123333088 heartbeat IPC: 0.27588 cumulative IPC: 0.369923 (Simulation time: 0 hr 32 min 3 sec) 
Heartbeat CPU 2 instructions: 90000001 cycles: 123515136 heartbeat IPC: 0.275236 cumulative IPC: 0.369374 (Simulation time: 0 hr 32 min 5 sec) 
Heartbeat CPU 1 instructions: 100000000 cycles: 159043242 heartbeat IPC: 0.276985 cumulative IPC: 0.347619 (Simulation time: 0 hr 36 min 51 sec) 
Heartbeat CPU 3 instructions: 100000000 cycles: 159191463 heartbeat IPC: 0.276168 cumulative IPC: 0.347352 (Simulation time: 0 hr 36 min 52 sec) 
Heartbeat CPU 0 instructions: 100000000 cycles: 159722624 heartbeat IPC: 0.274804 cumulative IPC: 0.345965 (Simulation time: 0 hr 36 min 57 sec) 
Heartbeat CPU 2 instructions: 100000000 cycles: 160077768 heartbeat IPC: 0.273503 cumulative IPC: 0.345171 (Simulation time: 0 hr 37 min 0 sec) 
Heartbeat CPU 1 instructions: 110000000 cycles: 200335840 heartbeat IPC: 0.242174 cumulative IPC: 0.324095 (Simulation time: 0 hr 41 min 5 sec) 
Heartbeat CPU 3 instructions: 110000000 cycles: 200395478 heartbeat IPC: 0.242695 cumulative IPC: 0.324061 (Simulation time: 0 hr 41 min 5 sec) 
Heartbeat CPU 0 instructions: 110000000 cycles: 200890863 heartbeat IPC: 0.242906 cumulative IPC: 0.323111 (Simulation time: 0 hr 41 min 8 sec) 
Heartbeat CPU 2 instructions: 110000000 cycles: 201185695 heartbeat IPC: 0.243262 cumulative IPC: 0.322641 (Simulation time: 0 hr 41 min 10 sec) 
Heartbeat CPU 1 instructions: 120000001 cycles: 225994521 heartbeat IPC: 0.389732 cumulative IPC: 0.332086 (Simulation time: 0 hr 44 min 24 sec) 
Heartbeat CPU 3 instructions: 120000001 cycles: 226069425 heartbeat IPC: 0.3895 cumulative IPC: 0.33203 (Simulation time: 0 hr 44 min 25 sec) 
Heartbeat CPU 0 instructions: 120000001 cycles: 226599211 heartbeat IPC: 0.388979 cumulative IPC: 0.331123 (Simulation time: 0 hr 44 min 29 sec) 
Heartbeat CPU 2 instructions: 120000001 cycles: 226944762 heartbeat IPC: 0.388213 cumulative IPC: 0.33062 (Simulation time: 0 hr 44 min 33 sec) 
Heartbeat CPU 1 instructions: 130000001 cycles: 235629884 heartbeat IPC: 1.03784 cumulative IPC: 0.362943 (Simulation time: 0 hr 47 min 26 sec) 
Heartbeat CPU 3 instructions: 130000001 cycles: 235709733 heartbeat IPC: 1.03731 cumulative IPC: 0.36287 (Simulation time: 0 hr 47 min 27 sec) 
Heartbeat CPU 0 instructions: 130000001 cycles: 236231541 heartbeat IPC: 1.03817 cumulative IPC: 0.361942 (Simulation time: 0 hr 47 min 38 sec) 
Heartbeat CPU 2 instructions: 130000001 cycles: 236572466 heartbeat IPC: 1.03867 cumulative IPC: 0.36142 (Simulation time: 0 hr 47 min 45 sec) 
Heartbeat CPU 1 instructions: 140000000 cycles: 245577947 heartbeat IPC: 1.00522 cumulative IPC: 0.390683 (Simulation time: 0 hr 51 min 1 sec) 
Heartbeat CPU 3 instructions: 140000000 cycles: 245671748 heartbeat IPC: 1.00381 cumulative IPC: 0.39058 (Simulation time: 0 hr 51 min 3 sec) 
Heartbeat CPU 0 instructions: 140000000 cycles: 246227896 heartbeat IPC: 1.00036 cumulative IPC: 0.389571 (Simulation time: 0 hr 51 min 8 sec) 
Heartbeat CPU 2 instructions: 140000000 cycles: 246597761 heartbeat IPC: 0.997477 cumulative IPC: 0.388982 (Simulation time: 0 hr 51 min 12 sec) 
Heartbeat CPU 1 instructions: 150000001 cycles: 269237564 heartbeat IPC: 0.422661 cumulative IPC: 0.393661 (Simulation time: 0 hr 54 min 45 sec) 
Heartbeat CPU 3 instructions: 150000001 cycles: 269308693 heartbeat IPC: 0.423067 cumulative IPC: 0.393602 (Simulation time: 0 hr 54 min 46 sec) 
Heartbeat CPU 0 instructions: 150000001 cycles: 269865632 heartbeat IPC: 0.423052 cumulative IPC: 0.392679 (Simulation time: 0 hr 54 min 50 sec) 
Heartbeat CPU 2 instructions: 150000001 cycles: 270364554 heartbeat IPC: 0.420755 cumulative IPC: 0.391942 (Simulation time: 0 hr 54 min 53 sec) 
Heartbeat CPU 1 instructions: 160000000 cycles: 303149674 heartbeat IPC: 0.29488 cumulative IPC: 0.382026 (Simulation time: 0 hr 58 min 43 sec) 
Heartbeat CPU 3 instructions: 160000000 cycles: 303160680 heartbeat IPC: 0.295404 cumulative IPC: 0.382057 (Simulation time: 0 hr 58 min 43 sec) 
Heartbeat CPU 0 instructions: 160000000 cycles: 303893374 heartbeat IPC: 0.293878 cumulative IPC: 0.381032 (Simulation time: 0 hr 58 min 48 sec) 
Heartbeat CPU 2 instructions: 160000000 cycles: 304437717 heartbeat IPC: 0.293486 cumulative IPC: 0.380342 (Simulation time: 0 hr 58 min 52 sec) 
Heartbeat CPU 3 instructions: 170000001 cycles: 336891641 heartbeat IPC: 0.296464 cumulative IPC: 0.373081 (Simulation time: 1 hr 2 min 20 sec) 
Heartbeat CPU 1 instructions: 170000001 cycles: 336907385 heartbeat IPC: 0.296229 cumulative IPC: 0.373022 (Simulation time: 1 hr 2 min 20 sec) 
Heartbeat CPU 0 instructions: 170000001 cycles: 337790143 heartbeat IPC: 0.295013 cumulative IPC: 0.371992 (Simulation time: 1 hr 2 min 26 sec) 
Heartbeat CPU 2 instructions: 170000001 cycles: 338361086 heartbeat IPC: 0.294782 cumulative IPC: 0.371359 (Simulation time: 1 hr 2 min 30 sec) 
Heartbeat CPU 1 instructions: 180000000 cycles: 371826035 heartbeat IPC: 0.28638 cumulative IPC: 0.364537 (Simulation time: 1 hr 6 min 1 sec) 
Heartbeat CPU 3 instructions: 180000000 cycles: 371949401 heartbeat IPC: 0.285244 cumulative IPC: 0.364448 (Simulation time: 1 hr 6 min 2 sec) 
Heartbeat CPU 0 instructions: 180000000 cycles: 372775879 heartbeat IPC: 0.285831 cumulative IPC: 0.363561 (Simulation time: 1 hr 6 min 6 sec) 
Heartbeat CPU 2 instructions: 180000000 cycles: 373443717 heartbeat IPC: 0.285041 cumulative IPC: 0.362905 (Simulation time: 1 hr 6 min 9 sec) 
Heartbeat CPU 1 instructions: 190000001 cycles: 422380745 heartbeat IPC: 0.197806 cumulative IPC: 0.343834 (Simulation time: 1 hr 10 min 18 sec) 
Heartbeat CPU 3 instructions: 190000001 cycles: 422669698 heartbeat IPC: 0.19716 cumulative IPC: 0.343622 (Simulation time: 1 hr 10 min 19 sec) 
Heartbeat CPU 0 instructions: 190000001 cycles: 423389257 heartbeat IPC: 0.197576 cumulative IPC: 0.342977 (Simulation time: 1 hr 10 min 23 sec) 
Heartbeat CPU 2 instructions: 190000001 cycles: 424129935 heartbeat IPC: 0.197292 cumulative IPC: 0.342375 (Simulation time: 1 hr 10 min 27 sec) 
Heartbeat CPU 1 instructions: 200000001 cycles: 450856568 heartbeat IPC: 0.351175 cumulative IPC: 0.344314 (Simulation time: 1 hr 13 min 43 sec) 
Heartbeat CPU 3 instructions: 200000001 cycles: 451142139 heartbeat IPC: 0.351217 cumulative IPC: 0.344118 (Simulation time: 1 hr 13 min 45 sec) 
Heartbeat CPU 0 instructions: 200000001 cycles: 451908297 heartbeat IPC: 0.350643 cumulative IPC: 0.343478 (Simulation time: 1 hr 13 min 50 sec) 
Heartbeat CPU 2 instructions: 200000001 cycles: 452562805 heartbeat IPC: 0.351706 cumulative IPC: 0.342982 (Simulation time: 1 hr 13 min 57 sec) 
Heartbeat CPU 1 instructions: 210000000 cycles: 460761759 heartbeat IPC: 1.00957 cumulative IPC: 0.359104 (Simulation time: 1 hr 16 min 31 sec) 
Heartbeat CPU 3 instructions: 210000000 cycles: 461045274 heartbeat IPC: 1.00978 cumulative IPC: 0.358905 (Simulation time: 1 hr 16 min 37 sec) 
Heartbeat CPU 0 instructions: 210000000 cycles: 461800230 heartbeat IPC: 1.01092 cumulative IPC: 0.358263 (Simulation time: 1 hr 16 min 55 sec) 
Heartbeat CPU 2 instructions: 210000000 cycles: 462444004 heartbeat IPC: 1.01202 cumulative IPC: 0.357765 (Simulation time: 1 hr 17 min 10 sec) 
Heartbeat CPU 1 instructions: 220000000 cycles: 470751171 heartbeat IPC: 1.00106 cumulative IPC: 0.373183 (Simulation time: 1 hr 20 min 14 sec) 
Heartbeat CPU 3 instructions: 220000000 cycles: 471059085 heartbeat IPC: 0.998621 cumulative IPC: 0.372959 (Simulation time: 1 hr 20 min 18 sec) 
Heartbeat CPU 0 instructions: 220000000 cycles: 471903234 heartbeat IPC: 0.989805 cumulative IPC: 0.372235 (Simulation time: 1 hr 20 min 26 sec) 
Heartbeat CPU 2 instructions: 220000000 cycles: 472676096 heartbeat IPC: 0.977317 cumulative IPC: 0.371623 (Simulation time: 1 hr 20 min 34 sec) 
Heartbeat CPU 1 instructions: 230000000 cycles: 500673590 heartbeat IPC: 0.334198 cumulative IPC: 0.37078 (Simulation time: 1 hr 24 min 0 sec) 
Heartbeat CPU 3 instructions: 230000000 cycles: 500909374 heartbeat IPC: 0.335005 cumulative IPC: 0.370627 (Simulation time: 1 hr 24 min 1 sec) 
Heartbeat CPU 0 instructions: 230000000 cycles: 501509781 heartbeat IPC: 0.337763 cumulative IPC: 0.370136 (Simulation time: 1 hr 24 min 3 sec) 
Heartbeat CPU 2 instructions: 230000000 cycles: 501876448 heartbeat IPC: 0.342462 cumulative IPC: 0.369874 (Simulation time: 1 hr 24 min 5 sec) 
Heartbeat CPU 1 instructions: 240000001 cycles: 540854314 heartbeat IPC: 0.248876 cumulative IPC: 0.361461 (Simulation time: 1 hr 29 min 0 sec) 
Heartbeat CPU 3 instructions: 240000001 cycles: 541059888 heartbeat IPC: 0.249063 cumulative IPC: 0.361344 (Simulation time: 1 hr 29 min 2 sec) 
Heartbeat CPU 0 instructions: 240000001 cycles: 541724676 heartbeat IPC: 0.248664 cumulative IPC: 0.360858 (Simulation time: 1 hr 29 min 7 sec) 
Heartbeat CPU 2 instructions: 240000001 cycles: 542041550 heartbeat IPC: 0.248972 cumulative IPC: 0.360656 (Simulation time: 1 hr 29 min 10 sec) 
Heartbeat CPU 1 instructions: 250000002 cycles: 577427303 heartbeat IPC: 0.273426 cumulative IPC: 0.355733 (Simulation time: 1 hr 33 min 20 sec) 
Finished CPU 1 instructions: 200000000 cycles: 562233716 cumulative IPC: 0.355724 (Simulation time: 1 hr 33 min 21 sec) 
Heartbeat CPU 3 instructions: 250000002 cycles: 577662313 heartbeat IPC: 0.273206 cumulative IPC: 0.355608 (Simulation time: 1 hr 33 min 22 sec) 
Finished CPU 3 instructions: 200000000 cycles: 562417054 cumulative IPC: 0.355608 (Simulation time: 1 hr 33 min 22 sec) 
Heartbeat CPU 0 instructions: 250000002 cycles: 578427645 heartbeat IPC: 0.272458 cumulative IPC: 0.355097 (Simulation time: 1 hr 33 min 27 sec) 
Finished CPU 0 instructions: 200000001 cycles: 563249324 cumulative IPC: 0.355083 (Simulation time: 1 hr 33 min 28 sec) 
Heartbeat CPU 2 instructions: 250000002 cycles: 578852823 heartbeat IPC: 0.271656 cumulative IPC: 0.354843 (Simulation time: 1 hr 33 min 30 sec) 
Finished CPU 2 instructions: 200000001 cycles: 563642141 cumulative IPC: 0.354835 (Simulation time: 1 hr 33 min 30 sec) 

ChampSim completed all CPUs

Total Simulation Statistics (not including warmup)

CPU 0 cumulative IPC: 0.355026 instructions: 200107834 cycles: 563642141
ITLB TOTAL     ACCESS:   33568535  HIT:   33568535  MISS:          0  HIT %:        100  MISS %:          0   MPKI: 0
ITLB LOAD      ACCESS:          0  HIT:          0  MISS:          0  HIT %:       -nan  MISS %:       -nan   MPKI: 0
ITLB RFO       ACCESS:          0  HIT:          0  MISS:          0  HIT %:       -nan  MISS %:       -nan   MPKI: 0
ITLB PREFETCH  ACCESS:          0  HIT:          0  MISS:          0  HIT %:       -nan  MISS %:       -nan   MPKI: 0
ITLB WRITEBACK ACCESS:          0  HIT:          0  MISS:          0  HIT %:       -nan  MISS %:       -nan   MPKI: 0
DTLB TOTAL     ACCESS:   36665772  HIT:   36396835  MISS:     268937  HIT %:    99.2665  MISS %:   0.733482   MPKI: 1.34396
DTLB LOAD      ACCESS:          0  HIT:          0  MISS:          0  HIT %:       -nan  MISS %:       -nan   MPKI: 0
DTLB RFO       ACCESS:          0  HIT:          0  MISS:          0  HIT %:       -nan  MISS %:       -nan   MPKI: 0
DTLB PREFETCH  ACCESS:          0  HIT:          0  MISS:          0  HIT %:       -nan  MISS %:       -nan   MPKI: 0
DTLB WRITEBACK ACCESS:          0  HIT:          0  MISS:          0  HIT %:       -nan  MISS %:       -nan   MPKI: 0
STLB TOTAL     ACCESS:   20567632  HIT:   20391858  MISS:     175774  HIT %:    99.1454  MISS %:   0.854615   MPKI: 0.878396
STLB LOAD      ACCESS:          0  HIT:          0  MISS:          0  HIT %:       -nan  MISS %:       -nan   MPKI: 0
STLB RFO       ACCESS:          0  HIT:          0  MISS:          0  HIT %:       -nan  MISS %:       -nan   MPKI: 0
STLB PREFETCH  ACCESS:          0  HIT:          0  MISS:          0  HIT %:       -nan  MISS %:       -nan   MPKI: 0
STLB WRITEBACK ACCESS:          0  HIT:          0  MISS:          0  HIT %:       -nan  MISS %:       -nan   MPKI: 0
L1D TOTAL     ACCESS:  121195796  HIT:  115885130  MISS:    5310666  HIT %:    95.6181  MISS %:    4.38189   MPKI: 26.539
L1D LOAD      ACCESS:   32381964  HIT:   29266087  MISS:    3115877  HIT %:    90.3777  MISS %:    9.62226   MPKI: 15.571
L1D RFO       ACCESS:    4249710  HIT:    4010707  MISS:     239003  HIT %:     94.376  MISS %:    5.62398   MPKI: 1.19437
L1D PREFETCH  ACCESS:   84564122  HIT:   82608336  MISS:    1955786  HIT %:    97.6872  MISS %:    2.31278   MPKI: 9.77366
L1D WRITEBACK ACCESS:          0  HIT:          0  MISS:          0  HIT %:       -nan  MISS %:       -nan   MPKI: 0
L1I TOTAL     ACCESS:   42591812  HIT:   42591799  MISS:         13  HIT %:        100  MISS %: 3.05223e-05   MPKI: 6.4965e-05
L1I LOAD      ACCESS:   42591812  HIT:   42591799  MISS:         13  HIT %:        100  MISS %: 3.05223e-05   MPKI: 6.4965e-05
L1I RFO       ACCESS:          0  HIT:          0  MISS:          0  HIT %:       -nan  MISS %:       -nan   MPKI: 0
L1I PREFETCH  ACCESS:          0  HIT:          0  MISS:          0  HIT %:       -nan  MISS %:       -nan   MPKI: 0
L1I WRITEBACK ACCESS:          0  HIT:          0  MISS:          0  HIT %:       -nan  MISS %:       -nan   MPKI: 0
L2C TOTAL     ACCESS:   25918101  HIT:   19801586  MISS:    6116515  HIT %:    76.4006  MISS %:    23.5994   MPKI: 30.5661
L2C LOAD      ACCESS:    3061386  HIT:    1845483  MISS:    1215903  HIT %:    60.2826  MISS %:    39.7174   MPKI: 6.07624
L2C RFO       ACCESS:     239002  HIT:       5150  MISS:     233852  HIT %:    2.15479  MISS %:    97.8452   MPKI: 1.16863
L2C PREFETCH  ACCESS:   21737592  HIT:   17204525  MISS:    4533067  HIT %:    79.1464  MISS %:    20.8536   MPKI: 22.6531
L2C WRITEBACK ACCESS:     660984  HIT:     560018  MISS:     100966  HIT %:    84.7249  MISS %:    15.2751   MPKI: 0.504558
PSCL5 TOTAL     ACCESS:     218193  HIT:     218193  MISS:          0  HIT %:        100  MISS %:          0   MPKI: 0
PSCL5 LOAD      ACCESS:          0  HIT:          0  MISS:          0  HIT %:       -nan  MISS %:       -nan   MPKI: 0
PSCL5 RFO       ACCESS:          0  HIT:          0  MISS:          0  HIT %:       -nan  MISS %:       -nan   MPKI: 0
PSCL5 PREFETCH  ACCESS:          0  HIT:          0  MISS:          0  HIT %:       -nan  MISS %:       -nan   MPKI: 0
PSCL5 WRITEBACK ACCESS:          0  HIT:          0  MISS:          0  HIT %:       -nan  MISS %:       -nan   MPKI: 0
PSCL4 TOTAL     ACCESS:     218193  HIT:     218193  MISS:          0  HIT %:        100  MISS %:          0   MPKI: 0
PSCL4 LOAD      ACCESS:          0  HIT:          0  MISS:          0  HIT %:       -nan  MISS %:       -nan   MPKI: 0
PSCL4 RFO       ACCESS:          0  HIT:          0  MISS:          0  HIT %:       -nan  MISS %:       -nan   MPKI: 0
PSCL4 PREFETCH  ACCESS:          0  HIT:          0  MISS:          0  HIT %:       -nan  MISS %:       -nan   MPKI: 0
PSCL4 WRITEBACK ACCESS:          0  HIT:          0  MISS:          0  HIT %:       -nan  MISS %:       -nan   MPKI: 0
PSCL3 TOTAL     ACCESS:     218193  HIT:     218193  MISS:          0  HIT %:        100  MISS %:          0   MPKI: 0
PSCL3 LOAD      ACCESS:          0  HIT:          0  MISS:          0  HIT %:       -nan  MISS %:       -nan   MPKI: 0
PSCL3 RFO       ACCESS:          0  HIT:          0  MISS:          0  HIT %:       -nan  MISS %:       -nan   MPKI: 0
PSCL3 PREFETCH  ACCESS:          0  HIT:          0  MISS:          0  HIT %:       -nan  MISS %:       -nan   MPKI: 0
PSCL3 WRITEBACK ACCESS:          0  HIT:          0  MISS:          0  HIT %:       -nan  MISS %:       -nan   MPKI: 0
PSCL2 TOTAL     ACCESS:     218146  HIT:     217249  MISS:        897  HIT %:    99.5888  MISS %:   0.411193   MPKI: 0.00448258
PSCL2 LOAD      ACCESS:          0  HIT:          0  MISS:          0  HIT %:       -nan  MISS %:       -nan   MPKI: 0
PSCL2 RFO       ACCESS:          0  HIT:          0  MISS:          0  HIT %:       -nan  MISS %:       -nan   MPKI: 0
PSCL2 PREFETCH  ACCESS:          0  HIT:          0  MISS:          0  HIT %:       -nan  MISS %:       -nan   MPKI: 0
PSCL2 WRITEBACK ACCESS:          0  HIT:          0  MISS:          0  HIT %:       -nan  MISS %:       -nan   MPKI: 0
LLC TOTAL     ACCESS:    6645354  HIT:    1346197  MISS:    5299157  HIT %:    20.2577  MISS %:    79.7423   MPKI: 26.4815
LLC LOAD      ACCESS:    1090742  HIT:     642388  MISS:     448354  HIT %:    58.8946  MISS %:    41.1054   MPKI: 2.24056
LLC RFO       ACCESS:     233850  HIT:      10365  MISS:     223485  HIT %:    4.43233  MISS %:    95.5677   MPKI: 1.11682
LLC PREFETCH  ACCESS:    4658230  HIT:      93803  MISS:    4564427  HIT %:     2.0137  MISS %:    97.9863   MPKI: 22.8098
LLC WRITEBACK ACCESS:     629805  HIT:     597094  MISS:      32711  HIT %:    94.8062  MISS %:    5.19383   MPKI: 0.163467

RAW hits: 240333
Loads Generated: 49182877
Loads sent to L1D: 48942542
Stores Generated: 7115015
Stores sent to L1D: 7115015

CPU 1 cumulative IPC: 0.355541 instructions: 200397680 cycles: 563642141
ITLB TOTAL     ACCESS:   33610661  HIT:   33610661  MISS:          0  HIT %:        100  MISS %:          0   MPKI: 0
ITLB LOAD      ACCESS:          0  HIT:          0  MISS:          0  HIT %:       -nan  MISS %:       -nan   MPKI: 0
ITLB RFO       ACCESS:          0  HIT:          0  MISS:          0  HIT %:       -nan  MISS %:       -nan   MPKI: 0
ITLB PREFETCH  ACCESS:          0  HIT:          0  MISS:          0  HIT %:       -nan  MISS %:       -nan   MPKI: 0
ITLB WRITEBACK ACCESS:          0  HIT:          0  MISS:          0  HIT %:       -nan  MISS %:       -nan   MPKI: 0
DTLB TOTAL     ACCESS:   36754899  HIT:   36485585  MISS:     269314  HIT %:    99.2673  MISS %:    0.73273   MPKI: 1.3439
DTLB LOAD      ACCESS:          0  HIT:          0  MISS:          0  HIT %:       -nan  MISS %:       -nan   MPKI: 0
DTLB RFO       ACCESS:          0  HIT:          0  MISS:          0  HIT %:       -nan  MISS %:       -nan   MPKI: 0
DTLB PREFETCH  ACCESS:          0  HIT:          0  MISS:          0  HIT %:       -nan  MISS %:       -nan   MPKI: 0
DTLB WRITEBACK ACCESS:          0  HIT:          0  MISS:          0  HIT %:       -nan  MISS %:       -nan   MPKI: 0
STLB TOTAL     ACCESS:   20620282  HIT:   20444217  MISS:     176065  HIT %:    99.1462  MISS %:   0.853844   MPKI: 0.878578
STLB LOAD      ACCESS:          0  HIT:          0  MISS:          0  HIT %:       -nan  MISS %:       -nan   MPKI: 0
STLB RFO       ACCESS:          0  HIT:          0  MISS:          0  HIT %:       -nan  MISS %:       -nan   MPKI: 0
STLB PREFETCH  ACCESS:          0  HIT:          0  MISS:          0  HIT %:       -nan  MISS %:       -nan   MPKI: 0
STLB WRITEBACK ACCESS:          0  HIT:          0  MISS:          0  HIT %:       -nan  MISS %:       -nan   MPKI: 0
L1D TOTAL     ACCESS:  121769682  HIT:  116448025  MISS:    5321657  HIT %:    95.6297  MISS %:    4.37026   MPKI: 26.5555
L1D LOAD      ACCESS:   32469519  HIT:   29346003  MISS:    3123516  HIT %:    90.3802  MISS %:    9.61984   MPKI: 15.5866
L1D RFO       ACCESS:    4238522  HIT:    3999522  MISS:     239000  HIT %:    94.3612  MISS %:    5.63876   MPKI: 1.19263
L1D PREFETCH  ACCESS:   85061641  HIT:   83102500  MISS:    1959141  HIT %:    97.6968  MISS %:     2.3032   MPKI: 9.77627
L1D WRITEBACK ACCESS:          0  HIT:          0  MISS:          0  HIT %:       -nan  MISS %:       -nan   MPKI: 0
L1I TOTAL     ACCESS:   42650603  HIT:   42650590  MISS:         13  HIT %:        100  MISS %: 3.04802e-05   MPKI: 6.4871e-05
L1I LOAD      ACCESS:   42650603  HIT:   42650590  MISS:         13  HIT %:        100  MISS %: 3.04802e-05   MPKI: 6.4871e-05
L1I RFO       ACCESS:          0  HIT:          0  MISS:          0  HIT %:       -nan  MISS %:       -nan   MPKI: 0
L1I PREFETCH  ACCESS:          0  HIT:          0  MISS:          0  HIT %:       -nan  MISS %:       -nan   MPKI: 0
L1I WRITEBACK ACCESS:          0  HIT:          0  MISS:          0  HIT %:       -nan  MISS %:       -nan   MPKI: 0
L2C TOTAL     ACCESS:   25732804  HIT:   19647187  MISS:    6085617  HIT %:    76.3507  MISS %:    23.6493   MPKI: 30.3677
L2C LOAD      ACCESS:    3069838  HIT:    1892477  MISS:    1177361  HIT %:    61.6475  MISS %:    38.3525   MPKI: 5.87512
L2C RFO       ACCESS:     238999  HIT:       4722  MISS:     234277  HIT %:    1.97574  MISS %:    98.0243   MPKI: 1.16906
L2C PREFETCH  ACCESS:   21542029  HIT:   16999902  MISS:    4542127  HIT %:     78.915  MISS %:     21.085   MPKI: 22.6656
L2C WRITEBACK ACCESS:     661857  HIT:     562538  MISS:      99319  HIT %:    84.9939  MISS %:    15.0061   MPKI: 0.49561
PSCL5 TOTAL     ACCESS:     219146  HIT:     219146  MISS:          0  HIT %:        100  MISS %:          0   MPKI: 0
PSCL5 LOAD      ACCESS:          0  HIT:          0  MISS:          0  HIT %:       -nan  MISS %:       -nan   MPKI: 0
PSCL5 RFO       ACCESS:          0  HIT:          0  MISS:          0  HIT %:       -nan  MISS %:       -nan   MPKI: 0
PSCL5 PREFETCH  ACCESS:          0  HIT:          0  MISS:          0  HIT %:       -nan  MISS %:       -nan   MPKI: 0
PSCL5 WRITEBACK ACCESS:          0  HIT:          0  MISS:          0  HIT %:       -nan  MISS %:       -nan   MPKI: 0
PSCL4 TOTAL     ACCESS:     219146  HIT:     219146  MISS:          0  HIT %:        100  MISS %:          0   MPKI: 0
PSCL4 LOAD      ACCESS:          0  HIT:          0  MISS:          0  HIT %:       -nan  MISS %:       -nan   MPKI: 0
PSCL4 RFO       ACCESS:          0  HIT:          0  MISS:          0  HIT %:       -nan  MISS %:       -nan   MPKI: 0
PSCL4 PREFETCH  ACCESS:          0  HIT:          0  MISS:          0  HIT %:       -nan  MISS %:       -nan   MPKI: 0
PSCL4 WRITEBACK ACCESS:          0  HIT:          0  MISS:          0  HIT %:       -nan  MISS %:       -nan   MPKI: 0
PSCL3 TOTAL     ACCESS:     219146  HIT:     219146  MISS:          0  HIT %:        100  MISS %:          0   MPKI: 0
PSCL3 LOAD      ACCESS:          0  HIT:          0  MISS:          0  HIT %:       -nan  MISS %:       -nan   MPKI: 0
PSCL3 RFO       ACCESS:          0  HIT:          0  MISS:          0  HIT %:       -nan  MISS %:       -nan   MPKI: 0
PSCL3 PREFETCH  ACCESS:          0  HIT:          0  MISS:          0  HIT %:       -nan  MISS %:       -nan   MPKI: 0
PSCL3 WRITEBACK ACCESS:          0  HIT:          0  MISS:          0  HIT %:       -nan  MISS %:       -nan   MPKI: 0
PSCL2 TOTAL     ACCESS:     219108  HIT:     218211  MISS:        897  HIT %:    99.5906  MISS %:   0.409387   MPKI: 0.0044761
PSCL2 LOAD      ACCESS:          0  HIT:          0  MISS:          0  HIT %:       -nan  MISS %:       -nan   MPKI: 0
PSCL2 RFO       ACCESS:          0  HIT:          0  MISS:          0  HIT %:       -nan  MISS %:       -nan   MPKI: 0
PSCL2 PREFETCH  ACCESS:          0  HIT:          0  MISS:          0  HIT %:       -nan  MISS %:       -nan   MPKI: 0
PSCL2 WRITEBACK ACCESS:          0  HIT:          0  MISS:          0  HIT %:       -nan  MISS %:       -nan   MPKI: 0
LLC TOTAL     ACCESS:    6617050  HIT:    1311336  MISS:    5305714  HIT %:    19.8175  MISS %:    80.1825   MPKI: 26.4759
LLC LOAD      ACCESS:    1051562  HIT:     603831  MISS:     447731  HIT %:    57.4223  MISS %:    42.5777   MPKI: 2.23421
LLC RFO       ACCESS:     234274  HIT:      10803  MISS:     223471  HIT %:    4.61127  MISS %:    95.3887   MPKI: 1.11514
LLC PREFETCH  ACCESS:    4667925  HIT:      94994  MISS:    4572931  HIT %:    2.03504  MISS %:     97.965   MPKI: 22.8193
LLC WRITEBACK ACCESS:     630756  HIT:     599354  MISS:      31402  HIT %:    95.0215  MISS %:    4.97847   MPKI: 0.156698

RAW hits: 240244
Loads Generated: 49270419
Loads sent to L1D: 49030173
Stores Generated: 7128269
Stores sent to L1D: 7128267

CPU 2 cumulative IPC: 0.354835 instructions: 200000001 cycles: 563642141
ITLB TOTAL     ACCESS:   33551739  HIT:   33551739  MISS:          0  HIT %:        100  MISS %:          0   MPKI: 0
ITLB LOAD      ACCESS:          0  HIT:          0  MISS:          0  HIT %:       -nan  MISS %:       -nan   MPKI: 0
ITLB RFO       ACCESS:          0  HIT:          0  MISS:          0  HIT %:       -nan  MISS %:       -nan   MPKI: 0
ITLB PREFETCH  ACCESS:          0  HIT:          0  MISS:          0  HIT %:       -nan  MISS %:       -nan   MPKI: 0
ITLB WRITEBACK ACCESS:          0  HIT:          0  MISS:          0  HIT %:       -nan  MISS %:       -nan   MPKI: 0
DTLB TOTAL     ACCESS:   36638931  HIT:   36370128  MISS:     268803  HIT %:    99.2663  MISS %:   0.733654   MPKI: 1.34401
DTLB LOAD      ACCESS:          0  HIT:          0  MISS:          0  HIT %:       -nan  MISS %:       -nan   MPKI: 0
DTLB RFO       ACCESS:          0  HIT:          0  MISS:          0  HIT %:       -nan  MISS %:       -nan   MPKI: 0
DTLB PREFETCH  ACCESS:          0  HIT:          0  MISS:          0  HIT %:       -nan  MISS %:       -nan   MPKI: 0
DTLB WRITEBACK ACCESS:          0  HIT:          0  MISS:          0  HIT %:       -nan  MISS %:       -nan   MPKI: 0
STLB TOTAL     ACCESS:   20576762  HIT:   20401139  MISS:     175623  HIT %:    99.1465  MISS %:   0.853502   MPKI: 0.878115
STLB LOAD      ACCESS:          0  HIT:          0  MISS:          0  HIT %:       -nan  MISS %:       -nan   MPKI: 0
STLB RFO       ACCESS:          0  HIT:          0  MISS:          0  HIT %:       -nan  MISS %:       -nan   MPKI: 0
STLB PREFETCH  ACCESS:          0  HIT:          0  MISS:          0  HIT %:       -nan  MISS %:       -nan   MPKI: 0
STLB WRITEBACK ACCESS:          0  HIT:          0  MISS:          0  HIT %:       -nan  MISS %:       -nan   MPKI: 0
L1D TOTAL     ACCESS:  121136799  HIT:  115830533  MISS:    5306266  HIT %:    95.6196  MISS %:    4.38039   MPKI: 26.5313
L1D LOAD      ACCESS:   32357355  HIT:   29245086  MISS:    3112269  HIT %:    90.3816  MISS %:    9.61843   MPKI: 15.5613
L1D RFO       ACCESS:    4240296  HIT:    4001300  MISS:     238996  HIT %:    94.3637  MISS %:     5.6363   MPKI: 1.19498
L1D PREFETCH  ACCESS:   84539148  HIT:   82584147  MISS:    1955001  HIT %:    97.6875  MISS %:    2.31254   MPKI: 9.775
L1D WRITEBACK ACCESS:          0  HIT:          0  MISS:          0  HIT %:       -nan  MISS %:       -nan   MPKI: 0
L1I TOTAL     ACCESS:   42568340  HIT:   42568327  MISS:         13  HIT %:        100  MISS %: 3.05391e-05   MPKI: 6.5e-05
L1I LOAD      ACCESS:   42568340  HIT:   42568327  MISS:         13  HIT %:        100  MISS %: 3.05391e-05   MPKI: 6.5e-05
L1I RFO       ACCESS:          0  HIT:          0  MISS:          0  HIT %:       -nan  MISS %:       -nan   MPKI: 0
L1I PREFETCH  ACCESS:          0  HIT:          0  MISS:          0  HIT %:       -nan  MISS %:       -nan   MPKI: 0
L1I WRITEBACK ACCESS:          0  HIT:          0  MISS:          0  HIT %:       -nan  MISS %:       -nan   MPKI: 0
L2C TOTAL     ACCESS:   25887441  HIT:   19731303  MISS:    6156138  HIT %:    76.2196  MISS %:    23.7804   MPKI: 30.7807
L2C LOAD      ACCESS:    3057890  HIT:    1803062  MISS:    1254828  HIT %:    58.9643  MISS %:    41.0357   MPKI: 6.27414
L2C RFO       ACCESS:     238995  HIT:       4661  MISS:     234334  HIT %:    1.95025  MISS %:    98.0497   MPKI: 1.17167
L2C PREFETCH  ACCESS:   21710185  HIT:   17179722  MISS:    4530463  HIT %:    79.1321  MISS %:    20.8679   MPKI: 22.6523
L2C WRITEBACK ACCESS:     660680  HIT:     556583  MISS:     104097  HIT %:     84.244  MISS %:     15.756   MPKI: 0.520485
PSCL5 TOTAL     ACCESS:     218749  HIT:     218749  MISS:          0  HIT %:        100  MISS %:          0   MPKI: 0
PSCL5 LOAD      ACCESS:          0  HIT:          0  MISS:          0  HIT %:       -nan  MISS %:       -nan   MPKI: 0
PSCL5 RFO       ACCESS:          0  HIT:          0  MISS:          0  HIT %:       -nan  MISS %:       -nan   MPKI: 0
PSCL5 PREFETCH  ACCESS:          0  HIT:          0  MISS:          0  HIT %:       -nan  MISS %:       -nan   MPKI: 0
PSCL5 WRITEBACK ACCESS:          0  HIT:          0  MISS:          0  HIT %:       -nan  MISS %:       -nan   MPKI: 0
PSCL4 TOTAL     ACCESS:     218749  HIT:     218749  MISS:          0  HIT %:        100  MISS %:          0   MPKI: 0
PSCL4 LOAD      ACCESS:          0  HIT:          0  MISS:          0  HIT %:       -nan  MISS %:       -nan   MPKI: 0
PSCL4 RFO       ACCESS:          0  HIT:          0  MISS:          0  HIT %:       -nan  MISS %:       -nan   MPKI: 0
PSCL4 PREFETCH  ACCESS:          0  HIT:          0  MISS:          0  HIT %:       -nan  MISS %:       -nan   MPKI: 0
PSCL4 WRITEBACK ACCESS:          0  HIT:          0  MISS:          0  HIT %:       -nan  MISS %:       -nan   MPKI: 0
PSCL3 TOTAL     ACCESS:     218749  HIT:     218749  MISS:          0  HIT %:        100  MISS %:          0   MPKI: 0
PSCL3 LOAD      ACCESS:          0  HIT:          0  MISS:          0  HIT %:       -nan  MISS %:       -nan   MPKI: 0
PSCL3 RFO       ACCESS:          0  HIT:          0  MISS:          0  HIT %:       -nan  MISS %:       -nan   MPKI: 0
PSCL3 PREFETCH  ACCESS:          0  HIT:          0  MISS:          0  HIT %:       -nan  MISS %:       -nan   MPKI: 0
PSCL3 WRITEBACK ACCESS:          0  HIT:          0  MISS:          0  HIT %:       -nan  MISS %:       -nan   MPKI: 0
PSCL2 TOTAL     ACCESS:     218695  HIT:     217806  MISS:        889  HIT %:    99.5935  MISS %:   0.406502   MPKI: 0.004445
PSCL2 LOAD      ACCESS:          0  HIT:          0  MISS:          0  HIT %:       -nan  MISS %:       -nan   MPKI: 0
PSCL2 RFO       ACCESS:          0  HIT:          0  MISS:          0  HIT %:       -nan  MISS %:       -nan   MPKI: 0
PSCL2 PREFETCH  ACCESS:          0  HIT:          0  MISS:          0  HIT %:       -nan  MISS %:       -nan   MPKI: 0
PSCL2 WRITEBACK ACCESS:          0  HIT:          0  MISS:          0  HIT %:       -nan  MISS %:       -nan   MPKI: 0
LLC TOTAL     ACCESS:    6682478  HIT:    1392505  MISS:    5289973  HIT %:    20.8382  MISS %:    79.1618   MPKI: 26.4499
LLC LOAD      ACCESS:    1130099  HIT:     682685  MISS:     447414  HIT %:    60.4093  MISS %:    39.5907   MPKI: 2.23707
LLC RFO       ACCESS:     234329  HIT:      10907  MISS:     223422  HIT %:    4.65457  MISS %:    95.3454   MPKI: 1.11711
LLC PREFETCH  ACCESS:    4655193  HIT:      97828  MISS:    4557365  HIT %:    2.10148  MISS %:    97.8985   MPKI: 22.7868
LLC WRITEBACK ACCESS:     630441  HIT:     598866  MISS:      31575  HIT %:    94.9916  MISS %:     5.0084   MPKI: 0.157875

RAW hits: 241694
Loads Generated: 49149129
Loads sent to L1D: 48907435
Stores Generated: 7109746
Stores sent to L1D: 7109745

CPU 3 cumulative IPC: 0.355429 instructions: 200334726 cycles: 563642141
ITLB TOTAL     ACCESS:   33602616  HIT:   33602616  MISS:          0  HIT %:        100  MISS %:          0   MPKI: 0
ITLB LOAD      ACCESS:          0  HIT:          0  MISS:          0  HIT %:       -nan  MISS %:       -nan   MPKI: 0
ITLB RFO       ACCESS:          0  HIT:          0  MISS:          0  HIT %:       -nan  MISS %:       -nan   MPKI: 0
ITLB PREFETCH  ACCESS:          0  HIT:          0  MISS:          0  HIT %:       -nan  MISS %:       -nan   MPKI: 0
ITLB WRITEBACK ACCESS:          0  HIT:          0  MISS:          0  HIT %:       -nan  MISS %:       -nan   MPKI: 0
DTLB TOTAL     ACCESS:   36731096  HIT:   36461905  MISS:     269191  HIT %:    99.2671  MISS %:    0.73287   MPKI: 1.34371
DTLB LOAD      ACCESS:          0  HIT:          0  MISS:          0  HIT %:       -nan  MISS %:       -nan   MPKI: 0
DTLB RFO       ACCESS:          0  HIT:          0  MISS:          0  HIT %:       -nan  MISS %:       -nan   MPKI: 0
DTLB PREFETCH  ACCESS:          0  HIT:          0  MISS:          0  HIT %:       -nan  MISS %:       -nan   MPKI: 0
DTLB WRITEBACK ACCESS:          0  HIT:          0  MISS:          0  HIT %:       -nan  MISS %:       -nan   MPKI: 0
STLB TOTAL     ACCESS:   20661003  HIT:   20485053  MISS:     175950  HIT %:    99.1484  MISS %:   0.851604   MPKI: 0.87828
STLB LOAD      ACCESS:          0  HIT:          0  MISS:          0  HIT %:       -nan  MISS %:       -nan   MPKI: 0
STLB RFO       ACCESS:          0  HIT:          0  MISS:          0  HIT %:       -nan  MISS %:       -nan   MPKI: 0
STLB PREFETCH  ACCESS:          0  HIT:          0  MISS:          0  HIT %:       -nan  MISS %:       -nan   MPKI: 0
STLB WRITEBACK ACCESS:          0  HIT:          0  MISS:          0  HIT %:       -nan  MISS %:       -nan   MPKI: 0
L1D TOTAL     ACCESS:  121568629  HIT:  116249154  MISS:    5319475  HIT %:    95.6243  MISS %:     4.3757   MPKI: 26.5529
L1D LOAD      ACCESS:   32443475  HIT:   29319967  MISS:    3123508  HIT %:    90.3725  MISS %:    9.62754   MPKI: 15.5914
L1D RFO       ACCESS:    4235868  HIT:    3996875  MISS:     238993  HIT %:    94.3579  MISS %:    5.64213   MPKI: 1.19297
L1D PREFETCH  ACCESS:   84889286  HIT:   82932312  MISS:    1956974  HIT %:    97.6947  MISS %:    2.30533   MPKI: 9.76852
L1D WRITEBACK ACCESS:          0  HIT:          0  MISS:          0  HIT %:       -nan  MISS %:       -nan   MPKI: 0
L1I TOTAL     ACCESS:   42638755  HIT:   42638742  MISS:         13  HIT %:        100  MISS %: 3.04887e-05   MPKI: 6.48914e-05
L1I LOAD      ACCESS:   42638755  HIT:   42638742  MISS:         13  HIT %:        100  MISS %: 3.04887e-05   MPKI: 6.48914e-05
L1I RFO       ACCESS:          0  HIT:          0  MISS:          0  HIT %:       -nan  MISS %:       -nan   MPKI: 0
L1I PREFETCH  ACCESS:          0  HIT:          0  MISS:          0  HIT %:       -nan  MISS %:       -nan   MPKI: 0
L1I WRITEBACK ACCESS:          0  HIT:          0  MISS:          0  HIT %:       -nan  MISS %:       -nan   MPKI: 0
L2C TOTAL     ACCESS:   25844179  HIT:   19737885  MISS:    6106294  HIT %:    76.3727  MISS %:    23.6273   MPKI: 30.4805
L2C LOAD      ACCESS:    3068024  HIT:    1872280  MISS:    1195744  HIT %:    61.0256  MISS %:    38.9744   MPKI: 5.96873
L2C RFO       ACCESS:     238993  HIT:       4722  MISS:     234271  HIT %:    1.97579  MISS %:    98.0242   MPKI: 1.1694
L2C PREFETCH  ACCESS:   21656177  HIT:   17116524  MISS:    4539653  HIT %:    79.0376  MISS %:    20.9624   MPKI: 22.6603
L2C WRITEBACK ACCESS:     661649  HIT:     557476  MISS:     104173  HIT %:    84.2555  MISS %:    15.7445   MPKI: 0.519995
PSCL5 TOTAL     ACCESS:     218382  HIT:     218382  MISS:          0  HIT %:        100  MISS %:          0   MPKI: 0
PSCL5 LOAD      ACCESS:          0  HIT:          0  MISS:          0  HIT %:       -nan  MISS %:       -nan   MPKI: 0
PSCL5 RFO       ACCESS:          0  HIT:          0  MISS:          0  HIT %:       -nan  MISS %:       -nan   MPKI: 0
PSCL5 PREFETCH  ACCESS:          0  HIT:          0  MISS:          0  HIT %:       -nan  MISS %:       -nan   MPKI: 0
PSCL5 WRITEBACK ACCESS:          0  HIT:          0  MISS:          0  HIT %:       -nan  MISS %:       -nan   MPKI: 0
PSCL4 TOTAL     ACCESS:     218382  HIT:     218382  MISS:          0  HIT %:        100  MISS %:          0   MPKI: 0
PSCL4 LOAD      ACCESS:          0  HIT:          0  MISS:          0  HIT %:       -nan  MISS %:       -nan   MPKI: 0
PSCL4 RFO       ACCESS:          0  HIT:          0  MISS:          0  HIT %:       -nan  MISS %:       -nan   MPKI: 0
PSCL4 PREFETCH  ACCESS:          0  HIT:          0  MISS:          0  HIT %:       -nan  MISS %:       -nan   MPKI: 0
PSCL4 WRITEBACK ACCESS:          0  HIT:          0  MISS:          0  HIT %:       -nan  MISS %:       -nan   MPKI: 0
PSCL3 TOTAL     ACCESS:     218382  HIT:     218382  MISS:          0  HIT %:        100  MISS %:          0   MPKI: 0
PSCL3 LOAD      ACCESS:          0  HIT:          0  MISS:          0  HIT %:       -nan  MISS %:       -nan   MPKI: 0
PSCL3 RFO       ACCESS:          0  HIT:          0  MISS:          0  HIT %:       -nan  MISS %:       -nan   MPKI: 0
PSCL3 PREFETCH  ACCESS:          0  HIT:          0  MISS:          0  HIT %:       -nan  MISS %:       -nan   MPKI: 0
PSCL3 WRITEBACK ACCESS:          0  HIT:          0  MISS:          0  HIT %:       -nan  MISS %:       -nan   MPKI: 0
PSCL2 TOTAL     ACCESS:     218324  HIT:     217428  MISS:        896  HIT %:    99.5896  MISS %:   0.410399   MPKI: 0.00447251
PSCL2 LOAD      ACCESS:          0  HIT:          0  MISS:          0  HIT %:       -nan  MISS %:       -nan   MPKI: 0
PSCL2 RFO       ACCESS:          0  HIT:          0  MISS:          0  HIT %:       -nan  MISS %:       -nan   MPKI: 0
PSCL2 PREFETCH  ACCESS:          0  HIT:          0  MISS:          0  HIT %:       -nan  MISS %:       -nan   MPKI: 0
PSCL2 WRITEBACK ACCESS:          0  HIT:          0  MISS:          0  HIT %:       -nan  MISS %:       -nan   MPKI: 0
LLC TOTAL     ACCESS:    6633033  HIT:    1330894  MISS:    5302139  HIT %:    20.0646  MISS %:    79.9354   MPKI: 26.4664
LLC LOAD      ACCESS:    1069981  HIT:     622060  MISS:     447921  HIT %:    58.1375  MISS %:    41.8625   MPKI: 2.23586
LLC RFO       ACCESS:     234270  HIT:      10980  MISS:     223290  HIT %:     4.6869  MISS %:    95.3131   MPKI: 1.11458
LLC PREFETCH  ACCESS:    4665415  HIT:      97716  MISS:    4567699  HIT %:    2.09448  MISS %:    97.9055   MPKI: 22.8003
LLC WRITEBACK ACCESS:     630914  HIT:     597869  MISS:      33045  HIT %:    94.7624  MISS %:    5.23764   MPKI: 0.164949

RAW hits: 240298
Loads Generated: 49249664
Loads sent to L1D: 49009366
Stores Generated: 7124824
Stores sent to L1D: 7124824

Region of Interest Statistics

CPU 0 cumulative IPC: 0.355083 instructions: 200000001 cycles: 563249324
ITLB TOTAL     ACCESS:   33552479  HIT:   33552479  MISS:          0  HIT %:        100  MISS %:          0   MPKI: 0
ITLB LOAD TRANSLATION ACCESS:   33552479  HIT:   33552479  MISS:          0  HIT %:        100  MISS %:          0   MPKI: 0
ITLB PREFETCH  REQUESTED:          0  ISSUED:          0  USEFUL:          0  USELESS:          0
ITLB USEFUL LOAD PREFETCHES:          0 PREFETCH ISSUED TO LOWER LEVEL:          0  ACCURACY: -nan
ITLB TIMELY PREFETCHES:          0 LATE PREFETCHES: 0 DROPPED PREFETCHES: 0
ITLB PREFETCHES SAME FILL-ORIGIN LEVEL: 0 DIFFERENT FILL-ORIGIN LEVEL: 0
ITLB AVERAGE MISS LATENCY: -nan cycles
ITLB RQ	ACCESS:   42591815	FORWARD:          0	MERGED:    9023280	TO_CACHE:   33568535

DTLB TOTAL     ACCESS:   36637183  HIT:   36368390  MISS:     268793  HIT %:    99.2663  MISS %:   0.733662   MPKI: 1.34396
DTLB LOAD TRANSLATION ACCESS:   36637183  HIT:   36368390  MISS:     268793  HIT %:    99.2663  MISS %:   0.733662   MPKI: 1.34396
DTLB PREFETCH  REQUESTED:          0  ISSUED:          0  USEFUL:          0  USELESS:          0
DTLB USEFUL LOAD PREFETCHES:          0 PREFETCH ISSUED TO LOWER LEVEL:          0  ACCURACY: -nan
DTLB TIMELY PREFETCHES:          0 LATE PREFETCHES: 0 DROPPED PREFETCHES: 0
DTLB PREFETCHES SAME FILL-ORIGIN LEVEL: 0 DIFFERENT FILL-ORIGIN LEVEL: 0
DTLB AVERAGE MISS LATENCY: 53.0746 cycles
DTLB RQ	ACCESS:   39702811	FORWARD:          0	MERGED:    3006143	TO_CACHE:   36696668

STLB TOTAL     ACCESS:   20551566  HIT:   20375905  MISS:     175661  HIT %:    99.1453  MISS %:   0.854733   MPKI: 0.878305
STLB LOAD TRANSLATION ACCESS:     268793  HIT:     175018  MISS:      93775  HIT %:    65.1126  MISS %:    34.8874   MPKI: 0.468875
STLB TRANSLATION FROM L1D PREFETCHER ACCESS:   20282773  HIT:   20200887  MISS:      81886  HIT %:    99.5963  MISS %:   0.403722   MPKI: 0.40943
STLB PREFETCH  REQUESTED:          0  ISSUED:          0  USEFUL:      81566  USELESS:        394
STLB USEFUL LOAD PREFETCHES:      81566 PREFETCH ISSUED TO LOWER LEVEL:          0  ACCURACY: inf
STLB TIMELY PREFETCHES:      81566 LATE PREFETCHES: 987 DROPPED PREFETCHES: 42400
STLB PREFETCHES SAME FILL-ORIGIN LEVEL: 0 DIFFERENT FILL-ORIGIN LEVEL: 0
STLB AVERAGE MISS LATENCY: 101.692 cycles
STLB RQ	ACCESS:  122568693	FORWARD:          0	MERGED:  101948652	TO_CACHE:   20620041

STLB Hit, L1D data hit: 0
STLB Hit, L2C data hit: 0
STLB Hit, LLC data hit: 0
STLB Hit, LLC data miss: 0
STLB STLB hints to L2: 0
L1D TOTAL     ACCESS:  121104384  HIT:  115797804  MISS:    5306580  HIT %:    95.6182  MISS %:    4.38182   MPKI: 26.5329
L1D LOAD      ACCESS:   32355494  HIT:   29242767  MISS:    3112727  HIT %:    90.3796  MISS %:     9.6204   MPKI: 15.5636
L1D RFO       ACCESS:    4244766  HIT:    4005763  MISS:     239003  HIT %:    94.3695  MISS %:    5.63053   MPKI: 1.19501
L1D PREFETCH  ACCESS:   84504124  HIT:   82549274  MISS:    1954850  HIT %:    97.6867  MISS %:    2.31332   MPKI: 9.77425
L1D PREFETCH  REQUESTED:  365359641  ISSUED:  344381973  USEFUL:    1929349  USELESS:      26423
L1D USEFUL LOAD PREFETCHES:    1929349 PREFETCH ISSUED TO LOWER LEVEL:   26140567  ACCURACY: 7.38067
L1D TIMELY PREFETCHES:    1929349 LATE PREFETCHES: 54503 DROPPED PREFETCHES: 103646
L1D PREFETCHES SAME FILL-ORIGIN LEVEL: 2010292 DIFFERENT FILL-ORIGIN LEVEL: 24130275
L1D AVERAGE MISS LATENCY: 183.428 cycles
L1D RQ	ACCESS:   48942542	FORWARD:          0	MERGED:   16314474	TO_CACHE:   32625415
L1D WQ	ACCESS:    7115015	FORWARD:       2653	MERGED:      37619	TO_CACHE:    7077396
L1D PQ	ACCESS:  222082217	FORWARD:          0	MERGED:   99782461	TO_CACHE:  122299756

L1D UNIQUE REGIONS ACCESSED: 0
L1D REGIONS CONFLICTS: 0
L1D Cross Page Prefetch Requests: 21001622
L1D Same Page Prefetch Requests: 257539687
L1D ROI Sum of L1D PQ occupancy: 1645349290
L1D PREFETCHES PUSHED FROM L2C: 0
L1I TOTAL     ACCESS:   42569522  HIT:   42569509  MISS:         13  HIT %:        100  MISS %: 3.05383e-05   MPKI: 6.5e-05
L1I LOAD      ACCESS:   42569522  HIT:   42569509  MISS:         13  HIT %:        100  MISS %: 3.05383e-05   MPKI: 6.5e-05
L1I PREFETCH  REQUESTED:          0  ISSUED:          0  USEFUL:          0  USELESS:          0
L1I USEFUL LOAD PREFETCHES:          0 PREFETCH ISSUED TO LOWER LEVEL:          0  ACCURACY: -nan
L1I TIMELY PREFETCHES:          0 LATE PREFETCHES: 0 DROPPED PREFETCHES: 0
L1I PREFETCHES SAME FILL-ORIGIN LEVEL: 0 DIFFERENT FILL-ORIGIN LEVEL: 0
L1I AVERAGE MISS LATENCY: 326.462 cycles
L1I RQ	ACCESS:   63928255	FORWARD:          0	MERGED:   21336440	TO_CACHE:   42591815

BTB TOTAL     ACCESS:   40503220  HIT:   40502868  MISS:        352  HIT %:    99.9991  MISS %: 0.000869067   MPKI: 0.00176
BTB BRANCH_DIRECT_JUMP	ACCESS:      40166  HIT:      40120  MISS:         46
BTB BRANCH_INDIRECT	ACCESS:          3  HIT:          2  MISS:          1
BTB BRANCH_CONDITIONAL	ACCESS:   40462410  HIT:   40462309  MISS:        101
BTB BRANCH_DIRECT_CALL	ACCESS:        311  HIT:        267  MISS:         44
BTB BRANCH_INDIRECT_CALL	ACCESS:          9  HIT:          6  MISS:          3
BTB BRANCH_RETURN	ACCESS:        321  HIT:        164  MISS:        157
BTB BRANCH_OTHER ACCESS:          0  HIT:          0  MISS:          0

L2C TOTAL     ACCESS:   25892602  HIT:   19781278  MISS:    6111324  HIT %:    76.3974  MISS %:    23.6026   MPKI: 30.5566
L2C LOAD      ACCESS:    3058237  HIT:    1843497  MISS:    1214740  HIT %:    60.2797  MISS %:    39.7203   MPKI: 6.0737
L2C DATA LOAD MPKI: 6.07363
L2C INSTRUCTION LOAD MPKI: 6.5e-05
L2C RFO       ACCESS:     239002  HIT:       5150  MISS:     233852  HIT %:    2.15479  MISS %:    97.8452   MPKI: 1.16926
L2C PREFETCH  ACCESS:   21715692  HIT:   17186605  MISS:    4529087  HIT %:    79.1437  MISS %:    20.8563   MPKI: 22.6454
L2C DATA PREFETCH MPKI: 22.6454
L2C INSTRUCTION PREFETCH MPKI: 0
L2C WRITEBACK ACCESS:     660683  HIT:     559748  MISS:     100935  HIT %:    84.7226  MISS %:    15.2774   MPKI: 0.504675
L2C LOAD TRANSLATION ACCESS:      93529  HIT:      73429  MISS:      20100  HIT %:    78.5093  MISS %:    21.4907   MPKI: 0.1005
L2C TRANSLATION FROM L1D PREFETCHER ACCESS:     125459  HIT:     112849  MISS:      12610  HIT %:    89.9489  MISS %:    10.0511   MPKI: 0.06305
L2C PREFETCH  REQUESTED:          0  ISSUED:          0  USEFUL:     691098  USELESS:    3855386
L2C USEFUL LOAD PREFETCHES:     691098 PREFETCH ISSUED TO LOWER LEVEL:    4658235  ACCURACY: 14.836
L2C TIMELY PREFETCHES:     691098 LATE PREFETCHES: 125163 DROPPED PREFETCHES: 0
L2C PREFETCHES SAME FILL-ORIGIN LEVEL: 3357850 DIFFERENT FILL-ORIGIN LEVEL: 0
L2C AVERAGE MISS LATENCY: 351.347 cycles
L2C RQ	ACCESS:    3519526	FORWARD:          0	MERGED:          0	TO_CACHE:    3519525
L2C WQ	ACCESS:     660984	FORWARD:          5	MERGED:          0	TO_CACHE:     660984
L2C PQ	ACCESS:   26139464	FORWARD:          0	MERGED:      21870	TO_CACHE:   26117590

L2C Instructions Evicting Data 13
L2C Translations Evicting Data 32433
L2C Data Evicting Data 5950541
L2C Instructions Evicting Instructions 0
L2C Translations Evicting Instructions 0
L2C Data Evicting Instructions 14
L2C Instructions Evicting Translations 0
L2C Translations Evicting Translations 294
L2C Data Evicting Translations 32254
L2C Dense regions hint from L2: 0
PSCL5 TOTAL     ACCESS:     218045  HIT:     218045  MISS:          0  HIT %:        100  MISS %:          0   MPKI: 0
PSCL5 LOAD TRANSLATION ACCESS:      92808  HIT:      92808  MISS:          0  HIT %:        100  MISS %:          0   MPKI: 0
PSCL5 TRANSLATION FROM L1D PREFETCHER ACCESS:     125237  HIT:     125237  MISS:          0  HIT %:        100  MISS %:          0   MPKI: 0
PSCL5 PREFETCH  REQUESTED:          0  ISSUED:          0  USEFUL:          0  USELESS:          0
PSCL5 USEFUL LOAD PREFETCHES:          0 PREFETCH ISSUED TO LOWER LEVEL:          0  ACCURACY: -nan
PSCL5 TIMELY PREFETCHES:          0 LATE PREFETCHES: 0 DROPPED PREFETCHES: 0
PSCL5 PREFETCHES SAME FILL-ORIGIN LEVEL: 0 DIFFERENT FILL-ORIGIN LEVEL: 0

PSCL4 TOTAL     ACCESS:     218045  HIT:     218045  MISS:          0  HIT %:        100  MISS %:          0   MPKI: 0
PSCL4 LOAD TRANSLATION ACCESS:      92808  HIT:      92808  MISS:          0  HIT %:        100  MISS %:          0   MPKI: 0
PSCL4 TRANSLATION FROM L1D PREFETCHER ACCESS:     125237  HIT:     125237  MISS:          0  HIT %:        100  MISS %:          0   MPKI: 0
PSCL4 PREFETCH  REQUESTED:          0  ISSUED:          0  USEFUL:          0  USELESS:          0
PSCL4 USEFUL LOAD PREFETCHES:          0 PREFETCH ISSUED TO LOWER LEVEL:          0  ACCURACY: -nan
PSCL4 TIMELY PREFETCHES:          0 LATE PREFETCHES: 0 DROPPED PREFETCHES: 0
PSCL4 PREFETCHES SAME FILL-ORIGIN LEVEL: 0 DIFFERENT FILL-ORIGIN LEVEL: 0

PSCL3 TOTAL     ACCESS:     218045  HIT:     218045  MISS:          0  HIT %:        100  MISS %:          0   MPKI: 0
PSCL3 LOAD TRANSLATION ACCESS:      92808  HIT:      92808  MISS:          0  HIT %:        100  MISS %:          0   MPKI: 0
PSCL3 TRANSLATION FROM L1D PREFETCHER ACCESS:     125237  HIT:     125237  MISS:          0  HIT %:        100  MISS %:          0   MPKI: 0
PSCL3 PREFETCH  REQUESTED:          0  ISSUED:          0  USEFUL:          0  USELESS:          0
PSCL3 USEFUL LOAD PREFETCHES:          0 PREFETCH ISSUED TO LOWER LEVEL:          0  ACCURACY: -nan
PSCL3 TIMELY PREFETCHES:          0 LATE PREFETCHES: 0 DROPPED PREFETCHES: 0
PSCL3 PREFETCHES SAME FILL-ORIGIN LEVEL: 0 DIFFERENT FILL-ORIGIN LEVEL: 0

PSCL2 TOTAL     ACCESS:     217998  HIT:     217102  MISS:        896  HIT %:     99.589  MISS %:   0.411013   MPKI: 0.00448
PSCL2 LOAD TRANSLATION ACCESS:      92983  HIT:      92087  MISS:        896  HIT %:    99.0364  MISS %:   0.963617   MPKI: 0.00448
PSCL2 TRANSLATION FROM L1D PREFETCHER ACCESS:     125015  HIT:     125015  MISS:          0  HIT %:        100  MISS %:          0   MPKI: 0
PSCL2 PREFETCH  REQUESTED:          0  ISSUED:          0  USEFUL:          0  USELESS:          0
PSCL2 USEFUL LOAD PREFETCHES:          0 PREFETCH ISSUED TO LOWER LEVEL:          0  ACCURACY: -nan
PSCL2 TIMELY PREFETCHES:          0 LATE PREFETCHES: 0 DROPPED PREFETCHES: 0
PSCL2 PREFETCHES SAME FILL-ORIGIN LEVEL: 0 DIFFERENT FILL-ORIGIN LEVEL: 0

LLC TOTAL     ACCESS:    6639953  HIT:    1345169  MISS:    5294784  HIT %:    20.2587  MISS %:    79.7413   MPKI: 26.4739
LLC LOAD      ACCESS:    1089774  HIT:     641691  MISS:     448083  HIT %:    58.8829  MISS %:    41.1171   MPKI: 2.24041
LLC RFO       ACCESS:     233850  HIT:      10365  MISS:     223485  HIT %:    4.43233  MISS %:    95.5677   MPKI: 1.11742
LLC PREFETCH  ACCESS:    4654055  HIT:      93710  MISS:    4560345  HIT %:    2.01351  MISS %:    97.9865   MPKI: 22.8017
LLC WRITEBACK ACCESS:     629564  HIT:     596857  MISS:      32707  HIT %:    94.8048  MISS %:    5.19518   MPKI: 0.163535
LLC LOAD TRANSLATION ACCESS:      20100  HIT:       1849  MISS:      18251  HIT %:      9.199  MISS %:     90.801   MPKI: 0.091255
LLC TRANSLATION FROM L1D PREFETCHER ACCESS:      12610  HIT:        697  MISS:      11913  HIT %:    5.52736  MISS %:    94.4726   MPKI: 0.059565
LLC PREFETCH  REQUESTED:          0  ISSUED:          0  USEFUL:      53784  USELESS:   18241963
LLC USEFUL LOAD PREFETCHES:      53784 PREFETCH ISSUED TO LOWER LEVEL:   22460407  ACCURACY: 0.239461
LLC TIMELY PREFETCHES:      53784 LATE PREFETCHES: 0 DROPPED PREFETCHES: 0
LLC PREFETCHES SAME FILL-ORIGIN LEVEL: 0 DIFFERENT FILL-ORIGIN LEVEL: 0
LLC AVERAGE MISS LATENCY: 1509.75 cycles
LLC RQ	ACCESS:    5409240	FORWARD:          0	MERGED:          0	TO_CACHE:    5409236
LLC WQ	ACCESS:    2521916	FORWARD:         10	MERGED:          0	TO_CACHE:    2521916
LLC PQ	ACCESS:   18646781	FORWARD:          0	MERGED:          0	TO_CACHE:   18646775

LLC Dense regions hint to LLC: 0

RAW hits: 239797
Loads Generated: 49150117
Loads sent to L1D: 48910318
Stores Generated: 7110071
Stores sent to L1D: 7110071
Major fault: 0 Minor fault: 27368
Allocated PAGES: 109472

CPU 1 cumulative IPC: 0.355724 instructions: 200000000 cycles: 562233716
ITLB TOTAL     ACCESS:   33551366  HIT:   33551366  MISS:          0  HIT %:        100  MISS %:          0   MPKI: 0
ITLB LOAD TRANSLATION ACCESS:   33551366  HIT:   33551366  MISS:          0  HIT %:        100  MISS %:          0   MPKI: 0
ITLB PREFETCH  REQUESTED:          0  ISSUED:          0  USEFUL:          0  USELESS:          0
ITLB USEFUL LOAD PREFETCHES:          0 PREFETCH ISSUED TO LOWER LEVEL:          0  ACCURACY: -nan
ITLB TIMELY PREFETCHES:          0 LATE PREFETCHES: 0 DROPPED PREFETCHES: 0
ITLB PREFETCHES SAME FILL-ORIGIN LEVEL: 0 DIFFERENT FILL-ORIGIN LEVEL: 0
ITLB AVERAGE MISS LATENCY: -nan cycles
ITLB RQ	ACCESS:   42650606	FORWARD:          0	MERGED:    9039945	TO_CACHE:   33610661

DTLB TOTAL     ACCESS:   36649413  HIT:   36380616  MISS:     268797  HIT %:    99.2666  MISS %:   0.733428   MPKI: 1.34398
DTLB LOAD TRANSLATION ACCESS:   36649413  HIT:   36380616  MISS:     268797  HIT %:    99.2666  MISS %:   0.733428   MPKI: 1.34398
DTLB PREFETCH  REQUESTED:          0  ISSUED:          0  USEFUL:          0  USELESS:          0
DTLB USEFUL LOAD PREFETCHES:          0 PREFETCH ISSUED TO LOWER LEVEL:          0  ACCURACY: -nan
DTLB TIMELY PREFETCHES:          0 LATE PREFETCHES: 0 DROPPED PREFETCHES: 0
DTLB PREFETCHES SAME FILL-ORIGIN LEVEL: 0 DIFFERENT FILL-ORIGIN LEVEL: 0
DTLB AVERAGE MISS LATENCY: 52.784 cycles
DTLB RQ	ACCESS:   39800150	FORWARD:          0	MERGED:    3015476	TO_CACHE:   36784674

STLB TOTAL     ACCESS:   20561670  HIT:   20386027  MISS:     175643  HIT %:    99.1458  MISS %:   0.854225   MPKI: 0.878215
STLB LOAD TRANSLATION ACCESS:     268797  HIT:     174958  MISS:      93839  HIT %:    65.0893  MISS %:    34.9107   MPKI: 0.469195
STLB TRANSLATION FROM L1D PREFETCHER ACCESS:   20292873  HIT:   20211069  MISS:      81804  HIT %:    99.5969  MISS %:   0.403117   MPKI: 0.40902
STLB PREFETCH  REQUESTED:          0  ISSUED:          0  USEFUL:      81691  USELESS:        380
STLB USEFUL LOAD PREFETCHES:      81691 PREFETCH ISSUED TO LOWER LEVEL:          0  ACCURACY: inf
STLB TIMELY PREFETCHES:      81691 LATE PREFETCHES: 960 DROPPED PREFETCHES: 43057
STLB PREFETCHES SAME FILL-ORIGIN LEVEL: 0 DIFFERENT FILL-ORIGIN LEVEL: 0
STLB AVERAGE MISS LATENCY: 101.1 cycles
STLB RQ	ACCESS:  122852626	FORWARD:          0	MERGED:  102179635	TO_CACHE:   20672991

STLB Hit, L1D data hit: 0
STLB Hit, L2C data hit: 0
STLB Hit, LLC data hit: 0
STLB Hit, LLC data miss: 0
STLB STLB hints to L2: 0
L1D TOTAL     ACCESS:  121415910  HIT:  116109566  MISS:    5306344  HIT %:    95.6296  MISS %:    4.37039   MPKI: 26.5317
L1D LOAD      ACCESS:   32371935  HIT:   29260196  MISS:    3111739  HIT %:    90.3875  MISS %:    9.61246   MPKI: 15.5587
L1D RFO       ACCESS:    4220210  HIT:    3981210  MISS:     239000  HIT %:    94.3368  MISS %:    5.66323   MPKI: 1.195
L1D PREFETCH  ACCESS:   84823765  HIT:   82868160  MISS:    1955605  HIT %:    97.6945  MISS %:    2.30549   MPKI: 9.77802
L1D PREFETCH  REQUESTED:  366035906  ISSUED:  344861898  USEFUL:    1932785  USELESS:      26338
L1D USEFUL LOAD PREFETCHES:    1932785 PREFETCH ISSUED TO LOWER LEVEL:   26029019  ACCURACY: 7.4255
L1D TIMELY PREFETCHES:    1932785 LATE PREFETCHES: 53691 DROPPED PREFETCHES: 104720
L1D PREFETCHES SAME FILL-ORIGIN LEVEL: 2012833 DIFFERENT FILL-ORIGIN LEVEL: 24016186
L1D AVERAGE MISS LATENCY: 183.486 cycles
L1D RQ	ACCESS:   49030173	FORWARD:          0	MERGED:   16318137	TO_CACHE:   32709380
L1D WQ	ACCESS:    7128267	FORWARD:       2656	MERGED:      37497	TO_CACHE:    7090770
L1D PQ	ACCESS:  222278586	FORWARD:          0	MERGED:   99695274	TO_CACHE:  122583312

L1D UNIQUE REGIONS ACCESSED: 0
L1D REGIONS CONFLICTS: 0
L1D Cross Page Prefetch Requests: 20976029
L1D Same Page Prefetch Requests: 257664516
L1D ROI Sum of L1D PQ occupancy: 1647575975
L1D PREFETCHES PUSHED FROM L2C: 0
L1I TOTAL     ACCESS:   42568324  HIT:   42568311  MISS:         13  HIT %:        100  MISS %: 3.05391e-05   MPKI: 6.5e-05
L1I LOAD      ACCESS:   42568324  HIT:   42568311  MISS:         13  HIT %:        100  MISS %: 3.05391e-05   MPKI: 6.5e-05
L1I PREFETCH  REQUESTED:          0  ISSUED:          0  USEFUL:          0  USELESS:          0
L1I USEFUL LOAD PREFETCHES:          0 PREFETCH ISSUED TO LOWER LEVEL:          0  ACCURACY: -nan
L1I TIMELY PREFETCHES:          0 LATE PREFETCHES: 0 DROPPED PREFETCHES: 0
L1I PREFETCHES SAME FILL-ORIGIN LEVEL: 0 DIFFERENT FILL-ORIGIN LEVEL: 0
L1I AVERAGE MISS LATENCY: 338.231 cycles
L1I RQ	ACCESS:   63999008	FORWARD:          0	MERGED:   21348402	TO_CACHE:   42650606

BTB TOTAL     ACCESS:   40503006  HIT:   40502654  MISS:        352  HIT %:    99.9991  MISS %: 0.000869071   MPKI: 0.00176
BTB BRANCH_DIRECT_JUMP	ACCESS:      40166  HIT:      40120  MISS:         46
BTB BRANCH_INDIRECT	ACCESS:          3  HIT:          2  MISS:          1
BTB BRANCH_CONDITIONAL	ACCESS:   40462196  HIT:   40462095  MISS:        101
BTB BRANCH_DIRECT_CALL	ACCESS:        311  HIT:        267  MISS:         44
BTB BRANCH_INDIRECT_CALL	ACCESS:          9  HIT:          6  MISS:          3
BTB BRANCH_RETURN	ACCESS:        321  HIT:        164  MISS:        157
BTB BRANCH_OTHER ACCESS:          0  HIT:          0  MISS:          0

L2C TOTAL     ACCESS:   25658758  HIT:   19592345  MISS:    6066413  HIT %:    76.3573  MISS %:    23.6427   MPKI: 30.3321
L2C LOAD      ACCESS:    3058072  HIT:    1884594  MISS:    1173478  HIT %:    61.6269  MISS %:    38.3731   MPKI: 5.86739
L2C DATA LOAD MPKI: 5.86733
L2C INSTRUCTION LOAD MPKI: 6.5e-05
L2C RFO       ACCESS:     238999  HIT:       4722  MISS:     234277  HIT %:    1.97574  MISS %:    98.0243   MPKI: 1.17138
L2C PREFETCH  ACCESS:   21481452  HIT:   16954402  MISS:    4527050  HIT %:    78.9258  MISS %:    21.0742   MPKI: 22.6352
L2C DATA PREFETCH MPKI: 22.6352
L2C INSTRUCTION PREFETCH MPKI: 0
L2C WRITEBACK ACCESS:     660724  HIT:     561583  MISS:      99141  HIT %:    84.9951  MISS %:    15.0049   MPKI: 0.495705
L2C LOAD TRANSLATION ACCESS:      93630  HIT:      73693  MISS:      19937  HIT %:    78.7066  MISS %:    21.2934   MPKI: 0.099685
L2C TRANSLATION FROM L1D PREFETCHER ACCESS:     125881  HIT:     113351  MISS:      12530  HIT %:    90.0462  MISS %:    9.95385   MPKI: 0.06265
L2C PREFETCH  REQUESTED:          0  ISSUED:          0  USEFUL:     692803  USELESS:    3862519
L2C USEFUL LOAD PREFETCHES:     692803 PREFETCH ISSUED TO LOWER LEVEL:    4667927  ACCURACY: 14.8418
L2C TIMELY PREFETCHES:     692803 LATE PREFETCHES: 125800 DROPPED PREFETCHES: 0
L2C PREFETCHES SAME FILL-ORIGIN LEVEL: 3378074 DIFFERENT FILL-ORIGIN LEVEL: 0
L2C AVERAGE MISS LATENCY: 353.529 cycles
L2C RQ	ACCESS:    3528919	FORWARD:          0	MERGED:          0	TO_CACHE:    3528919
L2C WQ	ACCESS:     661857	FORWARD:          2	MERGED:          0	TO_CACHE:     661857
L2C PQ	ACCESS:   26024739	FORWARD:          0	MERGED:      22528	TO_CACHE:   26002209

L2C Instructions Evicting Data 13
L2C Translations Evicting Data 32140
L2C Data Evicting Data 5921634
L2C Instructions Evicting Instructions 0
L2C Translations Evicting Instructions 0
L2C Data Evicting Instructions 16
L2C Instructions Evicting Translations 0
L2C Translations Evicting Translations 393
L2C Data Evicting Translations 32102
L2C Dense regions hint from L2: 0
PSCL5 TOTAL     ACCESS:     218577  HIT:     218577  MISS:          0  HIT %:        100  MISS %:          0   MPKI: 0
PSCL5 LOAD TRANSLATION ACCESS:      92909  HIT:      92909  MISS:          0  HIT %:        100  MISS %:          0   MPKI: 0
PSCL5 TRANSLATION FROM L1D PREFETCHER ACCESS:     125668  HIT:     125668  MISS:          0  HIT %:        100  MISS %:          0   MPKI: 0
PSCL5 PREFETCH  REQUESTED:          0  ISSUED:          0  USEFUL:          0  USELESS:          0
PSCL5 USEFUL LOAD PREFETCHES:          0 PREFETCH ISSUED TO LOWER LEVEL:          0  ACCURACY: -nan
PSCL5 TIMELY PREFETCHES:          0 LATE PREFETCHES: 0 DROPPED PREFETCHES: 0
PSCL5 PREFETCHES SAME FILL-ORIGIN LEVEL: 0 DIFFERENT FILL-ORIGIN LEVEL: 0

PSCL4 TOTAL     ACCESS:     218577  HIT:     218577  MISS:          0  HIT %:        100  MISS %:          0   MPKI: 0
PSCL4 LOAD TRANSLATION ACCESS:      92909  HIT:      92909  MISS:          0  HIT %:        100  MISS %:          0   MPKI: 0
PSCL4 TRANSLATION FROM L1D PREFETCHER ACCESS:     125668  HIT:     125668  MISS:          0  HIT %:        100  MISS %:          0   MPKI: 0
PSCL4 PREFETCH  REQUESTED:          0  ISSUED:          0  USEFUL:          0  USELESS:          0
PSCL4 USEFUL LOAD PREFETCHES:          0 PREFETCH ISSUED TO LOWER LEVEL:          0  ACCURACY: -nan
PSCL4 TIMELY PREFETCHES:          0 LATE PREFETCHES: 0 DROPPED PREFETCHES: 0
PSCL4 PREFETCHES SAME FILL-ORIGIN LEVEL: 0 DIFFERENT FILL-ORIGIN LEVEL: 0

PSCL3 TOTAL     ACCESS:     218577  HIT:     218577  MISS:          0  HIT %:        100  MISS %:          0   MPKI: 0
PSCL3 LOAD TRANSLATION ACCESS:      92909  HIT:      92909  MISS:          0  HIT %:        100  MISS %:          0   MPKI: 0
PSCL3 TRANSLATION FROM L1D PREFETCHER ACCESS:     125668  HIT:     125668  MISS:          0  HIT %:        100  MISS %:          0   MPKI: 0
PSCL3 PREFETCH  REQUESTED:          0  ISSUED:          0  USEFUL:          0  USELESS:          0
PSCL3 USEFUL LOAD PREFETCHES:          0 PREFETCH ISSUED TO LOWER LEVEL:          0  ACCURACY: -nan
PSCL3 TIMELY PREFETCHES:          0 LATE PREFETCHES: 0 DROPPED PREFETCHES: 0
PSCL3 PREFETCHES SAME FILL-ORIGIN LEVEL: 0 DIFFERENT FILL-ORIGIN LEVEL: 0

PSCL2 TOTAL     ACCESS:     218539  HIT:     217643  MISS:        896  HIT %:      99.59  MISS %:   0.409995   MPKI: 0.00448
PSCL2 LOAD TRANSLATION ACCESS:      93084  HIT:      92188  MISS:        896  HIT %:    99.0374  MISS %:   0.962571   MPKI: 0.00448
PSCL2 TRANSLATION FROM L1D PREFETCHER ACCESS:     125455  HIT:     125455  MISS:          0  HIT %:        100  MISS %:          0   MPKI: 0
PSCL2 PREFETCH  REQUESTED:          0  ISSUED:          0  USEFUL:          0  USELESS:          0
PSCL2 USEFUL LOAD PREFETCHES:          0 PREFETCH ISSUED TO LOWER LEVEL:          0  ACCURACY: -nan
PSCL2 TIMELY PREFETCHES:          0 LATE PREFETCHES: 0 DROPPED PREFETCHES: 0
PSCL2 PREFETCHES SAME FILL-ORIGIN LEVEL: 0 DIFFERENT FILL-ORIGIN LEVEL: 0

LLC TOTAL     ACCESS:    6597044  HIT:    1307809  MISS:    5289235  HIT %:    19.8242  MISS %:    80.1758   MPKI: 26.4462
LLC LOAD      ACCESS:    1048379  HIT:     601560  MISS:     446819  HIT %:      57.38  MISS %:      42.62   MPKI: 2.23409
LLC RFO       ACCESS:     234274  HIT:      10803  MISS:     223471  HIT %:    4.61127  MISS %:    95.3887   MPKI: 1.11736
LLC PREFETCH  ACCESS:    4652148  HIT:      94715  MISS:    4557433  HIT %:    2.03594  MISS %:    97.9641   MPKI: 22.7872
LLC WRITEBACK ACCESS:     629776  HIT:     598381  MISS:      31395  HIT %:    95.0149  MISS %:    4.98511   MPKI: 0.156975
LLC LOAD TRANSLATION ACCESS:      19937  HIT:       1598  MISS:      18339  HIT %:    8.01525  MISS %:    91.9848   MPKI: 0.091695
LLC TRANSLATION FROM L1D PREFETCHER ACCESS:      12530  HIT:        752  MISS:      11778  HIT %:     6.0016  MISS %:    93.9984   MPKI: 0.05889
LLC PREFETCH  REQUESTED:          0  ISSUED:          0  USEFUL:      53784  USELESS:   18241963
LLC USEFUL LOAD PREFETCHES:      53784 PREFETCH ISSUED TO LOWER LEVEL:   22460407  ACCURACY: 0.239461
LLC TIMELY PREFETCHES:      53784 LATE PREFETCHES: 0 DROPPED PREFETCHES: 0
LLC PREFETCHES SAME FILL-ORIGIN LEVEL: 0 DIFFERENT FILL-ORIGIN LEVEL: 0
LLC AVERAGE MISS LATENCY: 1511.33 cycles
LLC RQ	ACCESS:    5409240	FORWARD:          0	MERGED:          0	TO_CACHE:    5409236
LLC WQ	ACCESS:    2521916	FORWARD:         10	MERGED:          0	TO_CACHE:    2521916
LLC PQ	ACCESS:   18646781	FORWARD:          0	MERGED:          0	TO_CACHE:   18646775

LLC Dense regions hint to LLC: 0

RAW hits: 238277
Loads Generated: 49149768
Loads sent to L1D: 48911491
Stores Generated: 7109955
Stores sent to L1D: 7109955
Major fault: 0 Minor fault: 27368
Allocated PAGES: 109472

CPU 2 cumulative IPC: 0.354835 instructions: 200000001 cycles: 563642141
ITLB TOTAL     ACCESS:   33551739  HIT:   33551739  MISS:          0  HIT %:        100  MISS %:          0   MPKI: 0
ITLB LOAD TRANSLATION ACCESS:   33551739  HIT:   33551739  MISS:          0  HIT %:        100  MISS %:          0   MPKI: 0
ITLB PREFETCH  REQUESTED:          0  ISSUED:          0  USEFUL:          0  USELESS:          0
ITLB USEFUL LOAD PREFETCHES:          0 PREFETCH ISSUED TO LOWER LEVEL:          0  ACCURACY: -nan
ITLB TIMELY PREFETCHES:          0 LATE PREFETCHES: 0 DROPPED PREFETCHES: 0
ITLB PREFETCHES SAME FILL-ORIGIN LEVEL: 0 DIFFERENT FILL-ORIGIN LEVEL: 0
ITLB AVERAGE MISS LATENCY: -nan cycles
ITLB RQ	ACCESS:   42568342	FORWARD:          0	MERGED:    9016604	TO_CACHE:   33551738

DTLB TOTAL     ACCESS:   36638931  HIT:   36370128  MISS:     268803  HIT %:    99.2663  MISS %:   0.733654   MPKI: 1.34401
DTLB LOAD TRANSLATION ACCESS:   36638931  HIT:   36370128  MISS:     268803  HIT %:    99.2663  MISS %:   0.733654   MPKI: 1.34401
DTLB PREFETCH  REQUESTED:          0  ISSUED:          0  USEFUL:          0  USELESS:          0
DTLB USEFUL LOAD PREFETCHES:          0 PREFETCH ISSUED TO LOWER LEVEL:          0  ACCURACY: -nan
DTLB TIMELY PREFETCHES:          0 LATE PREFETCHES: 0 DROPPED PREFETCHES: 0
DTLB PREFETCHES SAME FILL-ORIGIN LEVEL: 0 DIFFERENT FILL-ORIGIN LEVEL: 0
DTLB AVERAGE MISS LATENCY: 54.3884 cycles
DTLB RQ	ACCESS:   39671264	FORWARD:          0	MERGED:    3001761	TO_CACHE:   36669503

STLB TOTAL     ACCESS:   20576762  HIT:   20401139  MISS:     175623  HIT %:    99.1465  MISS %:   0.853502   MPKI: 0.878115
STLB LOAD TRANSLATION ACCESS:     268803  HIT:     174983  MISS:      93820  HIT %:    65.0971  MISS %:    34.9029   MPKI: 0.4691
STLB TRANSLATION FROM L1D PREFETCHER ACCESS:   20307959  HIT:   20226156  MISS:      81803  HIT %:    99.5972  MISS %:   0.402813   MPKI: 0.409015
STLB PREFETCH  REQUESTED:          0  ISSUED:          0  USEFUL:      81436  USELESS:        373
STLB USEFUL LOAD PREFETCHES:      81436 PREFETCH ISSUED TO LOWER LEVEL:          0  ACCURACY: inf
STLB TIMELY PREFETCHES:      81436 LATE PREFETCHES: 914 DROPPED PREFETCHES: 43106
STLB PREFETCHES SAME FILL-ORIGIN LEVEL: 0 DIFFERENT FILL-ORIGIN LEVEL: 0
STLB AVERAGE MISS LATENCY: 103.658 cycles
STLB RQ	ACCESS:  122499389	FORWARD:          0	MERGED:  101869808	TO_CACHE:   20629581

STLB Hit, L1D data hit: 0
STLB Hit, L2C data hit: 0
STLB Hit, LLC data hit: 0
STLB Hit, LLC data miss: 0
STLB STLB hints to L2: 0
L1D TOTAL     ACCESS:  121136799  HIT:  115830533  MISS:    5306266  HIT %:    95.6196  MISS %:    4.38039   MPKI: 26.5313
L1D LOAD      ACCESS:   32357355  HIT:   29245086  MISS:    3112269  HIT %:    90.3816  MISS %:    9.61843   MPKI: 15.5613
L1D RFO       ACCESS:    4240296  HIT:    4001300  MISS:     238996  HIT %:    94.3637  MISS %:     5.6363   MPKI: 1.19498
L1D PREFETCH  ACCESS:   84539148  HIT:   82584147  MISS:    1955001  HIT %:    97.6875  MISS %:    2.31254   MPKI: 9.775
L1D PREFETCH  REQUESTED:  365226410  ISSUED:  344095536  USEFUL:    1928580  USELESS:      26409
L1D USEFUL LOAD PREFETCHES:    1928580 PREFETCH ISSUED TO LOWER LEVEL:   26162571  ACCURACY: 7.37152
L1D TIMELY PREFETCHES:    1928580 LATE PREFETCHES: 54392 DROPPED PREFETCHES: 103853
L1D PREFETCHES SAME FILL-ORIGIN LEVEL: 2009394 DIFFERENT FILL-ORIGIN LEVEL: 24153177
L1D AVERAGE MISS LATENCY: 183.279 cycles
L1D RQ	ACCESS:   48907435	FORWARD:          0	MERGED:   16305872	TO_CACHE:   32598974
L1D WQ	ACCESS:    7109745	FORWARD:       2589	MERGED:      37455	TO_CACHE:    7072290
L1D PQ	ACCESS:  221864950	FORWARD:          0	MERGED:   99634364	TO_CACHE:  122230586

L1D UNIQUE REGIONS ACCESSED: 0
L1D REGIONS CONFLICTS: 0
L1D Cross Page Prefetch Requests: 20996526
L1D Same Page Prefetch Requests: 257185477
L1D ROI Sum of L1D PQ occupancy: 1644215166
L1D PREFETCHES PUSHED FROM L2C: 0
L1I TOTAL     ACCESS:   42568340  HIT:   42568327  MISS:         13  HIT %:        100  MISS %: 3.05391e-05   MPKI: 6.5e-05
L1I LOAD      ACCESS:   42568340  HIT:   42568327  MISS:         13  HIT %:        100  MISS %: 3.05391e-05   MPKI: 6.5e-05
L1I PREFETCH  REQUESTED:          0  ISSUED:          0  USEFUL:          0  USELESS:          0
L1I USEFUL LOAD PREFETCHES:          0 PREFETCH ISSUED TO LOWER LEVEL:          0  ACCURACY: -nan
L1I TIMELY PREFETCHES:          0 LATE PREFETCHES: 0 DROPPED PREFETCHES: 0
L1I PREFETCHES SAME FILL-ORIGIN LEVEL: 0 DIFFERENT FILL-ORIGIN LEVEL: 0
L1I AVERAGE MISS LATENCY: 437.462 cycles
L1I RQ	ACCESS:   63899454	FORWARD:          0	MERGED:   21331112	TO_CACHE:   42568342

BTB TOTAL     ACCESS:   40502613  HIT:   40502261  MISS:        352  HIT %:    99.9991  MISS %: 0.00086908   MPKI: 0.00176
BTB BRANCH_DIRECT_JUMP	ACCESS:      40166  HIT:      40120  MISS:         46
BTB BRANCH_INDIRECT	ACCESS:          3  HIT:          2  MISS:          1
BTB BRANCH_CONDITIONAL	ACCESS:   40461803  HIT:   40461702  MISS:        101
BTB BRANCH_DIRECT_CALL	ACCESS:        311  HIT:        267  MISS:         44
BTB BRANCH_INDIRECT_CALL	ACCESS:          9  HIT:          6  MISS:          3
BTB BRANCH_RETURN	ACCESS:        321  HIT:        164  MISS:        157
BTB BRANCH_OTHER ACCESS:          0  HIT:          0  MISS:          0

L2C TOTAL     ACCESS:   25887441  HIT:   19731303  MISS:    6156138  HIT %:    76.2196  MISS %:    23.7804   MPKI: 30.7807
L2C LOAD      ACCESS:    3057890  HIT:    1803062  MISS:    1254828  HIT %:    58.9643  MISS %:    41.0357   MPKI: 6.27414
L2C DATA LOAD MPKI: 6.27407
L2C INSTRUCTION LOAD MPKI: 6.5e-05
L2C RFO       ACCESS:     238995  HIT:       4661  MISS:     234334  HIT %:    1.95025  MISS %:    98.0497   MPKI: 1.17167
L2C PREFETCH  ACCESS:   21710185  HIT:   17179722  MISS:    4530463  HIT %:    79.1321  MISS %:    20.8679   MPKI: 22.6523
L2C DATA PREFETCH MPKI: 22.6523
L2C INSTRUCTION PREFETCH MPKI: 0
L2C WRITEBACK ACCESS:     660680  HIT:     556583  MISS:     104097  HIT %:     84.244  MISS %:     15.756   MPKI: 0.520485
L2C LOAD TRANSLATION ACCESS:      93634  HIT:      73665  MISS:      19969  HIT %:    78.6733  MISS %:    21.3267   MPKI: 0.099845
L2C TRANSLATION FROM L1D PREFETCHER ACCESS:     126057  HIT:     113610  MISS:      12447  HIT %:    90.1259  MISS %:     9.8741   MPKI: 0.062235
L2C PREFETCH  REQUESTED:          0  ISSUED:          0  USEFUL:     690107  USELESS:    3853556
L2C USEFUL LOAD PREFETCHES:     690107 PREFETCH ISSUED TO LOWER LEVEL:    4655195  ACCURACY: 14.8244
L2C TIMELY PREFETCHES:     690107 LATE PREFETCHES: 124732 DROPPED PREFETCHES: 0
L2C PREFETCHES SAME FILL-ORIGIN LEVEL: 3373039 DIFFERENT FILL-ORIGIN LEVEL: 0
L2C AVERAGE MISS LATENCY: 347.793 cycles
L2C RQ	ACCESS:    3516577	FORWARD:          0	MERGED:          0	TO_CACHE:    3516577
L2C WQ	ACCESS:     660680	FORWARD:          2	MERGED:          0	TO_CACHE:     660680
L2C PQ	ACCESS:   26159090	FORWARD:          0	MERGED:      22525	TO_CACHE:   26136563

L2C Instructions Evicting Data 13
L2C Translations Evicting Data 31949
L2C Data Evicting Data 5987842
L2C Instructions Evicting Instructions 0
L2C Translations Evicting Instructions 0
L2C Data Evicting Instructions 16
L2C Instructions Evicting Translations 0
L2C Translations Evicting Translations 467
L2C Data Evicting Translations 31754
L2C Dense regions hint from L2: 0
PSCL5 TOTAL     ACCESS:     218749  HIT:     218749  MISS:          0  HIT %:        100  MISS %:          0   MPKI: 0
PSCL5 LOAD TRANSLATION ACCESS:      92925  HIT:      92925  MISS:          0  HIT %:        100  MISS %:          0   MPKI: 0
PSCL5 TRANSLATION FROM L1D PREFETCHER ACCESS:     125824  HIT:     125824  MISS:          0  HIT %:        100  MISS %:          0   MPKI: 0
PSCL5 PREFETCH  REQUESTED:          0  ISSUED:          0  USEFUL:          0  USELESS:          0
PSCL5 USEFUL LOAD PREFETCHES:          0 PREFETCH ISSUED TO LOWER LEVEL:          0  ACCURACY: -nan
PSCL5 TIMELY PREFETCHES:          0 LATE PREFETCHES: 0 DROPPED PREFETCHES: 0
PSCL5 PREFETCHES SAME FILL-ORIGIN LEVEL: 0 DIFFERENT FILL-ORIGIN LEVEL: 0

PSCL4 TOTAL     ACCESS:     218749  HIT:     218749  MISS:          0  HIT %:        100  MISS %:          0   MPKI: 0
PSCL4 LOAD TRANSLATION ACCESS:      92925  HIT:      92925  MISS:          0  HIT %:        100  MISS %:          0   MPKI: 0
PSCL4 TRANSLATION FROM L1D PREFETCHER ACCESS:     125824  HIT:     125824  MISS:          0  HIT %:        100  MISS %:          0   MPKI: 0
PSCL4 PREFETCH  REQUESTED:          0  ISSUED:          0  USEFUL:          0  USELESS:          0
PSCL4 USEFUL LOAD PREFETCHES:          0 PREFETCH ISSUED TO LOWER LEVEL:          0  ACCURACY: -nan
PSCL4 TIMELY PREFETCHES:          0 LATE PREFETCHES: 0 DROPPED PREFETCHES: 0
PSCL4 PREFETCHES SAME FILL-ORIGIN LEVEL: 0 DIFFERENT FILL-ORIGIN LEVEL: 0

PSCL3 TOTAL     ACCESS:     218749  HIT:     218749  MISS:          0  HIT %:        100  MISS %:          0   MPKI: 0
PSCL3 LOAD TRANSLATION ACCESS:      92925  HIT:      92925  MISS:          0  HIT %:        100  MISS %:          0   MPKI: 0
PSCL3 TRANSLATION FROM L1D PREFETCHER ACCESS:     125824  HIT:     125824  MISS:          0  HIT %:        100  MISS %:          0   MPKI: 0
PSCL3 PREFETCH  REQUESTED:          0  ISSUED:          0  USEFUL:          0  USELESS:          0
PSCL3 USEFUL LOAD PREFETCHES:          0 PREFETCH ISSUED TO LOWER LEVEL:          0  ACCURACY: -nan
PSCL3 TIMELY PREFETCHES:          0 LATE PREFETCHES: 0 DROPPED PREFETCHES: 0
PSCL3 PREFETCHES SAME FILL-ORIGIN LEVEL: 0 DIFFERENT FILL-ORIGIN LEVEL: 0

PSCL2 TOTAL     ACCESS:     218695  HIT:     217806  MISS:        889  HIT %:    99.5935  MISS %:   0.406502   MPKI: 0.004445
PSCL2 LOAD TRANSLATION ACCESS:      93105  HIT:      92216  MISS:        889  HIT %:    99.0452  MISS %:   0.954836   MPKI: 0.004445
PSCL2 TRANSLATION FROM L1D PREFETCHER ACCESS:     125590  HIT:     125590  MISS:          0  HIT %:        100  MISS %:          0   MPKI: 0
PSCL2 PREFETCH  REQUESTED:          0  ISSUED:          0  USEFUL:          0  USELESS:          0
PSCL2 USEFUL LOAD PREFETCHES:          0 PREFETCH ISSUED TO LOWER LEVEL:          0  ACCURACY: -nan
PSCL2 TIMELY PREFETCHES:          0 LATE PREFETCHES: 0 DROPPED PREFETCHES: 0
PSCL2 PREFETCHES SAME FILL-ORIGIN LEVEL: 0 DIFFERENT FILL-ORIGIN LEVEL: 0

LLC TOTAL     ACCESS:    6682478  HIT:    1392505  MISS:    5289973  HIT %:    20.8382  MISS %:    79.1618   MPKI: 26.4499
LLC LOAD      ACCESS:    1130099  HIT:     682685  MISS:     447414  HIT %:    60.4093  MISS %:    39.5907   MPKI: 2.23707
LLC RFO       ACCESS:     234329  HIT:      10907  MISS:     223422  HIT %:    4.65457  MISS %:    95.3454   MPKI: 1.11711
LLC PREFETCH  ACCESS:    4655193  HIT:      97828  MISS:    4557365  HIT %:    2.10148  MISS %:    97.8985   MPKI: 22.7868
LLC WRITEBACK ACCESS:     630441  HIT:     598866  MISS:      31575  HIT %:    94.9916  MISS %:     5.0084   MPKI: 0.157875
LLC LOAD TRANSLATION ACCESS:      19969  HIT:       1578  MISS:      18391  HIT %:    7.90225  MISS %:    92.0978   MPKI: 0.091955
LLC TRANSLATION FROM L1D PREFETCHER ACCESS:      12447  HIT:        641  MISS:      11806  HIT %:    5.14984  MISS %:    94.8502   MPKI: 0.05903
LLC PREFETCH  REQUESTED:          0  ISSUED:          0  USEFUL:      53784  USELESS:   18241963
LLC USEFUL LOAD PREFETCHES:      53784 PREFETCH ISSUED TO LOWER LEVEL:   22460407  ACCURACY: 0.239461
LLC TIMELY PREFETCHES:      53784 LATE PREFETCHES: 0 DROPPED PREFETCHES: 0
LLC PREFETCHES SAME FILL-ORIGIN LEVEL: 0 DIFFERENT FILL-ORIGIN LEVEL: 0
LLC AVERAGE MISS LATENCY: 1511.12 cycles
LLC RQ	ACCESS:    5409240	FORWARD:          0	MERGED:          0	TO_CACHE:    5409236
LLC WQ	ACCESS:    2521916	FORWARD:         10	MERGED:          0	TO_CACHE:    2521916
LLC PQ	ACCESS:   18646781	FORWARD:          0	MERGED:          0	TO_CACHE:   18646775

LLC Dense regions hint to LLC: 0

RAW hits: 241694
Loads Generated: 49149129
Loads sent to L1D: 48907435
Stores Generated: 7109746
Stores sent to L1D: 7109745
Major fault: 0 Minor fault: 27368
Allocated PAGES: 109472

CPU 3 cumulative IPC: 0.355608 instructions: 200000000 cycles: 562417054
ITLB TOTAL     ACCESS:   33552705  HIT:   33552705  MISS:          0  HIT %:        100  MISS %:          0   MPKI: 0
ITLB LOAD TRANSLATION ACCESS:   33552705  HIT:   33552705  MISS:          0  HIT %:        100  MISS %:          0   MPKI: 0
ITLB PREFETCH  REQUESTED:          0  ISSUED:          0  USEFUL:          0  USELESS:          0
ITLB USEFUL LOAD PREFETCHES:          0 PREFETCH ISSUED TO LOWER LEVEL:          0  ACCURACY: -nan
ITLB TIMELY PREFETCHES:          0 LATE PREFETCHES: 0 DROPPED PREFETCHES: 0
ITLB PREFETCHES SAME FILL-ORIGIN LEVEL: 0 DIFFERENT FILL-ORIGIN LEVEL: 0
ITLB AVERAGE MISS LATENCY: -nan cycles
ITLB RQ	ACCESS:   42638757	FORWARD:          0	MERGED:    9036142	TO_CACHE:   33602615

DTLB TOTAL     ACCESS:   36642352  HIT:   36373563  MISS:     268789  HIT %:    99.2665  MISS %:   0.733547   MPKI: 1.34394
DTLB LOAD TRANSLATION ACCESS:   36642352  HIT:   36373563  MISS:     268789  HIT %:    99.2665  MISS %:   0.733547   MPKI: 1.34394
DTLB PREFETCH  REQUESTED:          0  ISSUED:          0  USEFUL:          0  USELESS:          0
DTLB USEFUL LOAD PREFETCHES:          0 PREFETCH ISSUED TO LOWER LEVEL:          0  ACCURACY: -nan
DTLB TIMELY PREFETCHES:          0 LATE PREFETCHES: 0 DROPPED PREFETCHES: 0
DTLB PREFETCHES SAME FILL-ORIGIN LEVEL: 0 DIFFERENT FILL-ORIGIN LEVEL: 0
DTLB AVERAGE MISS LATENCY: 52.8336 cycles
DTLB RQ	ACCESS:   39774663	FORWARD:          0	MERGED:    3012326	TO_CACHE:   36762337

STLB TOTAL     ACCESS:   20612314  HIT:   20436716  MISS:     175598  HIT %:    99.1481  MISS %:   0.851908   MPKI: 0.87799
STLB LOAD TRANSLATION ACCESS:     268789  HIT:     174920  MISS:      93869  HIT %:    65.0771  MISS %:    34.9229   MPKI: 0.469345
STLB TRANSLATION FROM L1D PREFETCHER ACCESS:   20343525  HIT:   20261796  MISS:      81729  HIT %:    99.5983  MISS %:   0.401745   MPKI: 0.408645
STLB PREFETCH  REQUESTED:          0  ISSUED:          0  USEFUL:      81599  USELESS:        368
STLB USEFUL LOAD PREFETCHES:      81599 PREFETCH ISSUED TO LOWER LEVEL:          0  ACCURACY: inf
STLB TIMELY PREFETCHES:      81599 LATE PREFETCHES: 943 DROPPED PREFETCHES: 42416
STLB PREFETCHES SAME FILL-ORIGIN LEVEL: 0 DIFFERENT FILL-ORIGIN LEVEL: 0
STLB AVERAGE MISS LATENCY: 101.231 cycles
STLB RQ	ACCESS:  122906322	FORWARD:          0	MERGED:  102193241	TO_CACHE:   20713081

STLB Hit, L1D data hit: 0
STLB Hit, L2C data hit: 0
STLB Hit, LLC data hit: 0
STLB Hit, LLC data miss: 0
STLB STLB hints to L2: 0
L1D TOTAL     ACCESS:  121279806  HIT:  115973263  MISS:    5306543  HIT %:    95.6245  MISS %:    4.37545   MPKI: 26.5327
L1D LOAD      ACCESS:   32361417  HIT:   29247906  MISS:    3113511  HIT %:    90.3789  MISS %:    9.62106   MPKI: 15.5676
L1D RFO       ACCESS:    4220454  HIT:    3981461  MISS:     238993  HIT %:    94.3373  MISS %:    5.66273   MPKI: 1.19497
L1D PREFETCH  ACCESS:   84697935  HIT:   82743896  MISS:    1954039  HIT %:    97.6929  MISS %:    2.30707   MPKI: 9.77019
L1D PREFETCH  REQUESTED:  366313649  ISSUED:  344944162  USEFUL:    1930111  USELESS:      26846
L1D USEFUL LOAD PREFETCHES:    1930111 PREFETCH ISSUED TO LOWER LEVEL:   26159616  ACCURACY: 7.37821
L1D TIMELY PREFETCHES:    1930111 LATE PREFETCHES: 55495 DROPPED PREFETCHES: 102988
L1D PREFETCHES SAME FILL-ORIGIN LEVEL: 2012470 DIFFERENT FILL-ORIGIN LEVEL: 24147146
L1D AVERAGE MISS LATENCY: 183.745 cycles
L1D RQ	ACCESS:   49009366	FORWARD:          0	MERGED:   16319450	TO_CACHE:   32687308
L1D WQ	ACCESS:    7124824	FORWARD:       2608	MERGED:      37469	TO_CACHE:    7087355
L1D PQ	ACCESS:  222307031	FORWARD:          0	MERGED:   99669900	TO_CACHE:  122637131

L1D UNIQUE REGIONS ACCESSED: 0
L1D REGIONS CONFLICTS: 0
L1D Cross Page Prefetch Requests: 21444273
L1D Same Page Prefetch Requests: 257402936
L1D ROI Sum of L1D PQ occupancy: 1649193726
L1D PREFETCHES PUSHED FROM L2C: 0
L1I TOTAL     ACCESS:   42569477  HIT:   42569464  MISS:         13  HIT %:        100  MISS %: 3.05383e-05   MPKI: 6.5e-05
L1I LOAD      ACCESS:   42569477  HIT:   42569464  MISS:         13  HIT %:        100  MISS %: 3.05383e-05   MPKI: 6.5e-05
L1I PREFETCH  REQUESTED:          0  ISSUED:          0  USEFUL:          0  USELESS:          0
L1I USEFUL LOAD PREFETCHES:          0 PREFETCH ISSUED TO LOWER LEVEL:          0  ACCURACY: -nan
L1I TIMELY PREFETCHES:          0 LATE PREFETCHES: 0 DROPPED PREFETCHES: 0
L1I PREFETCHES SAME FILL-ORIGIN LEVEL: 0 DIFFERENT FILL-ORIGIN LEVEL: 0
L1I AVERAGE MISS LATENCY: 370.077 cycles
L1I RQ	ACCESS:   63986055	FORWARD:          0	MERGED:   21347298	TO_CACHE:   42638757

BTB TOTAL     ACCESS:   40501981  HIT:   40501627  MISS:        354  HIT %:    99.9991  MISS %: 0.000874031   MPKI: 0.00177
BTB BRANCH_DIRECT_JUMP	ACCESS:      40166  HIT:      40120  MISS:         46
BTB BRANCH_INDIRECT	ACCESS:          3  HIT:          2  MISS:          1
BTB BRANCH_CONDITIONAL	ACCESS:   40461171  HIT:   40461068  MISS:        103
BTB BRANCH_DIRECT_CALL	ACCESS:        311  HIT:        267  MISS:         44
BTB BRANCH_INDIRECT_CALL	ACCESS:          9  HIT:          6  MISS:          3
BTB BRANCH_RETURN	ACCESS:        321  HIT:        164  MISS:        157
BTB BRANCH_OTHER ACCESS:          0  HIT:          0  MISS:          0

L2C TOTAL     ACCESS:   25775206  HIT:   19685512  MISS:    6089694  HIT %:    76.3738  MISS %:    23.6262   MPKI: 30.4485
L2C LOAD      ACCESS:    3058035  HIT:    1865913  MISS:    1192122  HIT %:    61.0167  MISS %:    38.9833   MPKI: 5.96061
L2C DATA LOAD MPKI: 5.96054
L2C INSTRUCTION LOAD MPKI: 6.5e-05
L2C RFO       ACCESS:     238993  HIT:       4722  MISS:     234271  HIT %:    1.97579  MISS %:    98.0242   MPKI: 1.17135
L2C PREFETCH  ACCESS:   21598617  HIT:   17071732  MISS:    4526885  HIT %:    79.0409  MISS %:    20.9591   MPKI: 22.6344
L2C DATA PREFETCH MPKI: 22.6344
L2C INSTRUCTION PREFETCH MPKI: 0
L2C WRITEBACK ACCESS:     660700  HIT:     556682  MISS:     104018  HIT %:    84.2564  MISS %:    15.7436   MPKI: 0.52009
L2C LOAD TRANSLATION ACCESS:      93666  HIT:      73743  MISS:      19923  HIT %:    78.7297  MISS %:    21.2703   MPKI: 0.099615
L2C TRANSLATION FROM L1D PREFETCHER ACCESS:     125195  HIT:     112720  MISS:      12475  HIT %:    90.0355  MISS %:    9.96446   MPKI: 0.062375
L2C PREFETCH  REQUESTED:          0  ISSUED:          0  USEFUL:     691994  USELESS:    3861087
L2C USEFUL LOAD PREFETCHES:     691994 PREFETCH ISSUED TO LOWER LEVEL:    4665424  ACCURACY: 14.8324
L2C TIMELY PREFETCHES:     691994 LATE PREFETCHES: 125764 DROPPED PREFETCHES: 0
L2C PREFETCHES SAME FILL-ORIGIN LEVEL: 3384282 DIFFERENT FILL-ORIGIN LEVEL: 0
L2C AVERAGE MISS LATENCY: 353.343 cycles
L2C RQ	ACCESS:    3526355	FORWARD:          0	MERGED:          0	TO_CACHE:    3526353
L2C WQ	ACCESS:     661649	FORWARD:          7	MERGED:          0	TO_CACHE:     661649
L2C PQ	ACCESS:   26157278	FORWARD:          0	MERGED:      22438	TO_CACHE:   26134835

L2C Instructions Evicting Data 13
L2C Translations Evicting Data 32176
L2C Data Evicting Data 5937654
L2C Instructions Evicting Instructions 0
L2C Translations Evicting Instructions 0
L2C Data Evicting Instructions 15
L2C Instructions Evicting Translations 0
L2C Translations Evicting Translations 277
L2C Data Evicting Translations 31986
L2C Dense regions hint from L2: 0
PSCL5 TOTAL     ACCESS:     217908  HIT:     217908  MISS:          0  HIT %:        100  MISS %:          0   MPKI: 0
PSCL5 LOAD TRANSLATION ACCESS:      92949  HIT:      92949  MISS:          0  HIT %:        100  MISS %:          0   MPKI: 0
PSCL5 TRANSLATION FROM L1D PREFETCHER ACCESS:     124959  HIT:     124959  MISS:          0  HIT %:        100  MISS %:          0   MPKI: 0
PSCL5 PREFETCH  REQUESTED:          0  ISSUED:          0  USEFUL:          0  USELESS:          0
PSCL5 USEFUL LOAD PREFETCHES:          0 PREFETCH ISSUED TO LOWER LEVEL:          0  ACCURACY: -nan
PSCL5 TIMELY PREFETCHES:          0 LATE PREFETCHES: 0 DROPPED PREFETCHES: 0
PSCL5 PREFETCHES SAME FILL-ORIGIN LEVEL: 0 DIFFERENT FILL-ORIGIN LEVEL: 0

PSCL4 TOTAL     ACCESS:     217908  HIT:     217908  MISS:          0  HIT %:        100  MISS %:          0   MPKI: 0
PSCL4 LOAD TRANSLATION ACCESS:      92949  HIT:      92949  MISS:          0  HIT %:        100  MISS %:          0   MPKI: 0
PSCL4 TRANSLATION FROM L1D PREFETCHER ACCESS:     124959  HIT:     124959  MISS:          0  HIT %:        100  MISS %:          0   MPKI: 0
PSCL4 PREFETCH  REQUESTED:          0  ISSUED:          0  USEFUL:          0  USELESS:          0
PSCL4 USEFUL LOAD PREFETCHES:          0 PREFETCH ISSUED TO LOWER LEVEL:          0  ACCURACY: -nan
PSCL4 TIMELY PREFETCHES:          0 LATE PREFETCHES: 0 DROPPED PREFETCHES: 0
PSCL4 PREFETCHES SAME FILL-ORIGIN LEVEL: 0 DIFFERENT FILL-ORIGIN LEVEL: 0

PSCL3 TOTAL     ACCESS:     217908  HIT:     217908  MISS:          0  HIT %:        100  MISS %:          0   MPKI: 0
PSCL3 LOAD TRANSLATION ACCESS:      92949  HIT:      92949  MISS:          0  HIT %:        100  MISS %:          0   MPKI: 0
PSCL3 TRANSLATION FROM L1D PREFETCHER ACCESS:     124959  HIT:     124959  MISS:          0  HIT %:        100  MISS %:          0   MPKI: 0
PSCL3 PREFETCH  REQUESTED:          0  ISSUED:          0  USEFUL:          0  USELESS:          0
PSCL3 USEFUL LOAD PREFETCHES:          0 PREFETCH ISSUED TO LOWER LEVEL:          0  ACCURACY: -nan
PSCL3 TIMELY PREFETCHES:          0 LATE PREFETCHES: 0 DROPPED PREFETCHES: 0
PSCL3 PREFETCHES SAME FILL-ORIGIN LEVEL: 0 DIFFERENT FILL-ORIGIN LEVEL: 0

PSCL2 TOTAL     ACCESS:     217850  HIT:     216955  MISS:        895  HIT %:    99.5892  MISS %:   0.410833   MPKI: 0.004475
PSCL2 LOAD TRANSLATION ACCESS:      93127  HIT:      92232  MISS:        895  HIT %:    99.0389  MISS %:   0.961053   MPKI: 0.004475
PSCL2 TRANSLATION FROM L1D PREFETCHER ACCESS:     124723  HIT:     124723  MISS:          0  HIT %:        100  MISS %:          0   MPKI: 0
PSCL2 PREFETCH  REQUESTED:          0  ISSUED:          0  USEFUL:          0  USELESS:          0
PSCL2 USEFUL LOAD PREFETCHES:          0 PREFETCH ISSUED TO LOWER LEVEL:          0  ACCURACY: -nan
PSCL2 TIMELY PREFETCHES:          0 LATE PREFETCHES: 0 DROPPED PREFETCHES: 0
PSCL2 PREFETCHES SAME FILL-ORIGIN LEVEL: 0 DIFFERENT FILL-ORIGIN LEVEL: 0

LLC TOTAL     ACCESS:    6615697  HIT:    1327521  MISS:    5288176  HIT %:    20.0662  MISS %:    79.9338   MPKI: 26.4409
LLC LOAD      ACCESS:    1066965  HIT:     619865  MISS:     447100  HIT %:    58.0961  MISS %:    41.9039   MPKI: 2.2355
LLC RFO       ACCESS:     234270  HIT:      10980  MISS:     223290  HIT %:     4.6869  MISS %:    95.3131   MPKI: 1.11645
LLC PREFETCH  ACCESS:    4652041  HIT:      97424  MISS:    4554617  HIT %:    2.09422  MISS %:    97.9058   MPKI: 22.7731
LLC WRITEBACK ACCESS:     630023  HIT:     596986  MISS:      33037  HIT %:    94.7562  MISS %:    5.24378   MPKI: 0.165185
LLC LOAD TRANSLATION ACCESS:      19923  HIT:       1532  MISS:      18391  HIT %:     7.6896  MISS %:    92.3104   MPKI: 0.091955
LLC TRANSLATION FROM L1D PREFETCHER ACCESS:      12475  HIT:        734  MISS:      11741  HIT %:    5.88377  MISS %:    94.1162   MPKI: 0.058705
LLC PREFETCH  REQUESTED:          0  ISSUED:          0  USEFUL:      53784  USELESS:   18241963
LLC USEFUL LOAD PREFETCHES:      53784 PREFETCH ISSUED TO LOWER LEVEL:   22460407  ACCURACY: 0.239461
LLC TIMELY PREFETCHES:      53784 LATE PREFETCHES: 0 DROPPED PREFETCHES: 0
LLC PREFETCHES SAME FILL-ORIGIN LEVEL: 0 DIFFERENT FILL-ORIGIN LEVEL: 0
LLC AVERAGE MISS LATENCY: 1511.63 cycles
LLC RQ	ACCESS:    5409240	FORWARD:          0	MERGED:          0	TO_CACHE:    5409236
LLC WQ	ACCESS:    2521916	FORWARD:         10	MERGED:          0	TO_CACHE:    2521916
LLC PQ	ACCESS:   18646781	FORWARD:          0	MERGED:          0	TO_CACHE:   18646775

LLC Dense regions hint to LLC: 0

RAW hits: 238639
Loads Generated: 49148151
Loads sent to L1D: 48909512
Stores Generated: 7109412
Stores sent to L1D: 7109411
Major fault: 0 Minor fault: 27368
Allocated PAGES: 109472

DRAM Statistics
 CHANNEL 0
 RQ ROW_BUFFER_HIT:    3967503  ROW_BUFFER_MISS:   17100396
 DBUS_CONGESTED:         51
 WQ ROW_BUFFER_HIT:     246347  ROW_BUFFER_MISS:    2181455  FULL:          0

 AVG_CONGESTED_CYCLE: 4
 All warmup complete: 5
Channel 0 Bank busy for read cycles: 0
Channel 0 Bank busy for write cycles: 0
Channel 0
Rank 0
0banks busy for read cycles: 20116208
0banks busy for write cycles: 815
1banks busy for read cycles: 7179184
1banks busy for write cycles: 420603
2banks busy for read cycles: 16677991
2banks busy for write cycles: 284659
3banks busy for read cycles: 33361018
3banks busy for write cycles: 275677
4banks busy for read cycles: 52696482
4banks busy for write cycles: 273333
5banks busy for read cycles: 70253784
5banks busy for write cycles: 286484
6banks busy for read cycles: 83278695
6banks busy for write cycles: 790788
7banks busy for read cycles: 93432108
7banks busy for write cycles: 8766462
8banks busy for read cycles: 125001064
8banks busy for write cycles: 50546787

CPU 0 Branch Prediction Accuracy: 86.5455% MPKI: 28.7883 Average ROB Occupancy at Mispredict: 10.4231
Branch types
NOT_BRANCH: 157287799 78.6015%
BRANCH_DIRECT_JUMP: 40166 0.0200722%
BRANCH_INDIRECT: 3 1.49919e-06%
BRANCH_CONDITIONAL: 42779209 21.3781%
BRANCH_DIRECT_CALL: 311 0.000155416%
BRANCH_INDIRECT_CALL: 9 4.49758e-06%
BRANCH_RETURN: 321 0.000160414%
BRANCH_OTHER: 0 0%


CPU 1 Branch Prediction Accuracy: 86.5408% MPKI: 28.7905 Average ROB Occupancy at Mispredict: 10.431
Branch types
NOT_BRANCH: 157527916 78.6077%
BRANCH_DIRECT_JUMP: 40166 0.0200431%
BRANCH_INDIRECT: 3 1.49702e-06%
BRANCH_CONDITIONAL: 42828950 21.372%
BRANCH_DIRECT_CALL: 311 0.000155191%
BRANCH_INDIRECT_CALL: 9 4.49107e-06%
BRANCH_RETURN: 321 0.000160181%
BRANCH_OTHER: 0 0%


CPU 2 Branch Prediction Accuracy: 86.5479% MPKI: 28.7875 Average ROB Occupancy at Mispredict: 10.4234
Branch types
NOT_BRANCH: 157198456 78.5992%
BRANCH_DIRECT_JUMP: 40166 0.020083%
BRANCH_INDIRECT: 3 1.5e-06%
BRANCH_CONDITIONAL: 42760763 21.3804%
BRANCH_DIRECT_CALL: 311 0.0001555%
BRANCH_INDIRECT_CALL: 9 4.5e-06%
BRANCH_RETURN: 321 0.0001605%
BRANCH_OTHER: 0 0%


CPU 3 Branch Prediction Accuracy: 86.5427% MPKI: 28.7902 Average ROB Occupancy at Mispredict: 10.4313
Branch types
NOT_BRANCH: 157475627 78.6063%
BRANCH_DIRECT_JUMP: 40166 0.0200494%
BRANCH_INDIRECT: 3 1.49749e-06%
BRANCH_CONDITIONAL: 42818268 21.3734%
BRANCH_DIRECT_CALL: 311 0.00015524%
BRANCH_INDIRECT_CALL: 9 4.49248e-06%
BRANCH_RETURN: 321 0.000160232%
BRANCH_OTHER: 0 0%

DRAM PAGES: 1048576
Allocated PAGES: 109472
