
*** ChampSim Multicore Out-of-Order Simulator ***

Warmup Instructions: 50000000
Simulation Instructions: 200000000
Number of CPUs: 4
LLC sets: 8192
LLC ways: 16
Off-chip DRAM Size: 4096 MB Channels: 1 Width: 64-bit Data Rate: 6400 MT/s
CPU 0 runs ./traces/ligra/ligra_BellmanFord.com-lj.ungraph.gcc_6.3.0_O3.drop_1750M.length_250M.champsimtrace.xz
.xz
CPU 1 runs ./traces/gap/bfs-8.trace.gz
.gz
CPU 2 runs ./traces/spec/482.sphinx3-417B.champsimtrace.xz
.xz
CPU 3 runs ./traces/spec/459.GemsFDTD-1491B.champsimtrace.xz
.xz
BTB has LRU replacement policy
ITLB has LRU replacement policy
DTLB has LRU replacement policy
STLB has LRU replacement policy
L1I has LRU replacement policy
History Sets: 8
History Ways: 16
BERTI Size: 16
BERTI Stride Size: 8
L1D has LRU replacement policy
Initialize SRRIP state for L2C
Initialize DRRIP state for LLC
BTB has LRU replacement policy
ITLB has LRU replacement policy
DTLB has LRU replacement policy
STLB has LRU replacement policy
L1I has LRU replacement policy
History Sets: 8
History Ways: 16
BERTI Size: 16
BERTI Stride Size: 8
L1D has LRU replacement policy
Initialize SRRIP state for L2C
Initialize DRRIP state for LLC
BTB has LRU replacement policy
ITLB has LRU replacement policy
DTLB has LRU replacement policy
STLB has LRU replacement policy
L1I has LRU replacement policy
History Sets: 8
History Ways: 16
BERTI Size: 16
BERTI Stride Size: 8
L1D has LRU replacement policy
Initialize SRRIP state for L2C
Initialize DRRIP state for LLC
BTB has LRU replacement policy
ITLB has LRU replacement policy
DTLB has LRU replacement policy
STLB has LRU replacement policy
L1I has LRU replacement policy
History Sets: 8
History Ways: 16
BERTI Size: 16
BERTI Stride Size: 8
L1D has LRU replacement policy
Initialize SRRIP state for L2C
Initialize DRRIP state for LLC
Heartbeat CPU 2 instructions: 10000000 cycles: 2892242 heartbeat IPC: 3.45753 cumulative IPC: 3.45753 (Simulation time: 0 hr 3 min 16 sec) 
Heartbeat CPU 1 instructions: 10000003 cycles: 2972061 heartbeat IPC: 3.36467 cumulative IPC: 3.36467 (Simulation time: 0 hr 3 min 22 sec) 
Heartbeat CPU 3 instructions: 10000001 cycles: 3010570 heartbeat IPC: 3.32163 cumulative IPC: 3.32163 (Simulation time: 0 hr 3 min 25 sec) 
Heartbeat CPU 0 instructions: 10000000 cycles: 3240257 heartbeat IPC: 3.08617 cumulative IPC: 3.08617 (Simulation time: 0 hr 3 min 44 sec) 
Heartbeat CPU 2 instructions: 20000000 cycles: 5787544 heartbeat IPC: 3.45387 cumulative IPC: 3.4557 (Simulation time: 0 hr 6 min 51 sec) 
Heartbeat CPU 1 instructions: 20000001 cycles: 5935913 heartbeat IPC: 3.37399 cumulative IPC: 3.36932 (Simulation time: 0 hr 7 min 3 sec) 
Heartbeat CPU 3 instructions: 20000001 cycles: 6020903 heartbeat IPC: 3.32189 cumulative IPC: 3.32176 (Simulation time: 0 hr 7 min 9 sec) 
Heartbeat CPU 0 instructions: 20000002 cycles: 6480502 heartbeat IPC: 3.08619 cumulative IPC: 3.08618 (Simulation time: 0 hr 7 min 44 sec) 
Heartbeat CPU 2 instructions: 30000000 cycles: 8644825 heartbeat IPC: 3.49983 cumulative IPC: 3.47028 (Simulation time: 0 hr 10 min 27 sec) 
Heartbeat CPU 1 instructions: 30000003 cycles: 8890718 heartbeat IPC: 3.38432 cumulative IPC: 3.37431 (Simulation time: 0 hr 10 min 47 sec) 
Heartbeat CPU 3 instructions: 30000002 cycles: 9031584 heartbeat IPC: 3.32151 cumulative IPC: 3.32168 (Simulation time: 0 hr 10 min 58 sec) 
Heartbeat CPU 0 instructions: 30000001 cycles: 9720746 heartbeat IPC: 3.08619 cumulative IPC: 3.08618 (Simulation time: 0 hr 11 min 45 sec) 
Heartbeat CPU 2 instructions: 40000003 cycles: 11504586 heartbeat IPC: 3.4968 cumulative IPC: 3.47687 (Simulation time: 0 hr 13 min 56 sec) 
Heartbeat CPU 1 instructions: 40000002 cycles: 11957361 heartbeat IPC: 3.26089 cumulative IPC: 3.34522 (Simulation time: 0 hr 14 min 27 sec) 
Heartbeat CPU 3 instructions: 40000003 cycles: 12041666 heartbeat IPC: 3.32217 cumulative IPC: 3.3218 (Simulation time: 0 hr 14 min 33 sec) 
Heartbeat CPU 0 instructions: 40000000 cycles: 12960990 heartbeat IPC: 3.08619 cumulative IPC: 3.08618 (Simulation time: 0 hr 15 min 38 sec) 
Heartbeat CPU 2 instructions: 50000002 cycles: 14338312 heartbeat IPC: 3.52892 cumulative IPC: 3.48716 (Simulation time: 0 hr 17 min 13 sec) 
Heartbeat CPU 3 instructions: 50000003 cycles: 15052132 heartbeat IPC: 3.32174 cumulative IPC: 3.32179 (Simulation time: 0 hr 17 min 58 sec) 
Heartbeat CPU 1 instructions: 50000002 cycles: 15128118 heartbeat IPC: 3.15382 cumulative IPC: 3.3051 (Simulation time: 0 hr 18 min 3 sec) 
Heartbeat CPU 0 instructions: 50000001 cycles: 16201234 heartbeat IPC: 3.08619 cumulative IPC: 3.08618 (Simulation time: 0 hr 19 min 6 sec) 

Warmup complete CPU 0 instructions: 50000001 cycles: 16201234 (Simulation time: 0 hr 19 min 6 sec) 
Warmup complete CPU 1 instructions: 53278760 cycles: 16201233 (Simulation time: 0 hr 19 min 6 sec) 
Warmup complete CPU 2 instructions: 55997803 cycles: 16201233 (Simulation time: 0 hr 19 min 6 sec) 
Warmup complete CPU 3 instructions: 53812251 cycles: 16201233 (Simulation time: 0 hr 19 min 6 sec) 

Heartbeat CPU 2 instructions: 60000001 cycles: 22298474 heartbeat IPC: 1.25626 cumulative IPC: 0.656395 (Simulation time: 0 hr 21 min 31 sec) 
Heartbeat CPU 3 instructions: 60000002 cycles: 22389985 heartbeat IPC: 1.3628 cumulative IPC: 0.999838 (Simulation time: 0 hr 21 min 33 sec) 
Heartbeat CPU 0 instructions: 60000000 cycles: 22603593 heartbeat IPC: 1.56192 cumulative IPC: 1.56192 (Simulation time: 0 hr 21 min 37 sec) 
Heartbeat CPU 0 instructions: 70000002 cycles: 29081051 heartbeat IPC: 1.54382 cumulative IPC: 1.55282 (Simulation time: 0 hr 23 min 44 sec) 
Heartbeat CPU 3 instructions: 70000003 cycles: 33277245 heartbeat IPC: 0.918505 cumulative IPC: 0.947982 (Simulation time: 0 hr 25 min 0 sec) 
Heartbeat CPU 0 instructions: 80000001 cycles: 35520311 heartbeat IPC: 1.55297 cumulative IPC: 1.55287 (Simulation time: 0 hr 25 min 41 sec) 
Heartbeat CPU 2 instructions: 70000002 cycles: 41093254 heartbeat IPC: 0.532063 cumulative IPC: 0.562518 (Simulation time: 0 hr 27 min 23 sec) 
Heartbeat CPU 0 instructions: 90000002 cycles: 42069589 heartbeat IPC: 1.52689 cumulative IPC: 1.54629 (Simulation time: 0 hr 27 min 42 sec) 
Heartbeat CPU 3 instructions: 80000002 cycles: 44160717 heartbeat IPC: 0.918824 cumulative IPC: 0.936632 (Simulation time: 0 hr 28 min 23 sec) 
Heartbeat CPU 0 instructions: 100000001 cycles: 48458336 heartbeat IPC: 1.56525 cumulative IPC: 1.55005 (Simulation time: 0 hr 29 min 45 sec) 
Heartbeat CPU 1 instructions: 60000000 cycles: 53369962 heartbeat IPC: 0.261494 cumulative IPC: 0.180831 (Simulation time: 0 hr 31 min 20 sec) 
Heartbeat CPU 0 instructions: 110000000 cycles: 54977046 heartbeat IPC: 1.53405 cumulative IPC: 1.54736 (Simulation time: 0 hr 31 min 55 sec) 
Heartbeat CPU 3 instructions: 90000000 cycles: 55002124 heartbeat IPC: 0.922389 cumulative IPC: 0.932653 (Simulation time: 0 hr 31 min 56 sec) 
Heartbeat CPU 0 instructions: 120000001 cycles: 61399758 heartbeat IPC: 1.55697 cumulative IPC: 1.54872 (Simulation time: 0 hr 34 min 27 sec) 
Heartbeat CPU 2 instructions: 80000001 cycles: 61403033 heartbeat IPC: 0.492374 cumulative IPC: 0.531001 (Simulation time: 0 hr 34 min 27 sec) 
Heartbeat CPU 3 instructions: 100000003 cycles: 66006563 heartbeat IPC: 0.908724 cumulative IPC: 0.927366 (Simulation time: 0 hr 36 min 2 sec) 
Heartbeat CPU 0 instructions: 130000000 cycles: 67920940 heartbeat IPC: 1.53346 cumulative IPC: 1.5468 (Simulation time: 0 hr 36 min 37 sec) 
Heartbeat CPU 1 instructions: 70000000 cycles: 74516035 heartbeat IPC: 0.472901 cumulative IPC: 0.286741 (Simulation time: 0 hr 38 min 48 sec) 
Heartbeat CPU 0 instructions: 140000002 cycles: 74569409 heartbeat IPC: 1.50411 cumulative IPC: 1.54194 (Simulation time: 0 hr 38 min 49 sec) 
Heartbeat CPU 3 instructions: 110000000 cycles: 78223616 heartbeat IPC: 0.818528 cumulative IPC: 0.905927 (Simulation time: 0 hr 39 min 52 sec) 
Heartbeat CPU 0 instructions: 150000002 cycles: 81178778 heartbeat IPC: 1.513 cumulative IPC: 1.53899 (Simulation time: 0 hr 40 min 48 sec) 
Heartbeat CPU 2 instructions: 90000002 cycles: 86756108 heartbeat IPC: 0.39443 cumulative IPC: 0.481926 (Simulation time: 0 hr 42 min 39 sec) 
Heartbeat CPU 0 instructions: 160000000 cycles: 87731519 heartbeat IPC: 1.52608 cumulative IPC: 1.53781 (Simulation time: 0 hr 43 min 0 sec) 
Heartbeat CPU 3 instructions: 120000003 cycles: 90943559 heartbeat IPC: 0.786167 cumulative IPC: 0.885546 (Simulation time: 0 hr 43 min 54 sec) 
Heartbeat CPU 0 instructions: 170000001 cycles: 94717059 heartbeat IPC: 1.43153 cumulative IPC: 1.52835 (Simulation time: 0 hr 45 min 3 sec) 
Heartbeat CPU 0 instructions: 180000000 cycles: 101207975 heartbeat IPC: 1.54061 cumulative IPC: 1.52929 (Simulation time: 0 hr 46 min 59 sec) 
Heartbeat CPU 3 instructions: 130000000 cycles: 102696350 heartbeat IPC: 0.850861 cumulative IPC: 0.880833 (Simulation time: 0 hr 47 min 29 sec) 
Heartbeat CPU 2 instructions: 100000000 cycles: 107703073 heartbeat IPC: 0.477396 cumulative IPC: 0.480889 (Simulation time: 0 hr 48 min 59 sec) 
Heartbeat CPU 0 instructions: 190000002 cycles: 107829067 heartbeat IPC: 1.51033 cumulative IPC: 1.52792 (Simulation time: 0 hr 49 min 1 sec) 
Heartbeat CPU 3 instructions: 140000000 cycles: 113674464 heartbeat IPC: 0.910903 cumulative IPC: 0.88422 (Simulation time: 0 hr 50 min 56 sec) 
Heartbeat CPU 0 instructions: 200000001 cycles: 114252786 heartbeat IPC: 1.55673 cumulative IPC: 1.52981 (Simulation time: 0 hr 51 min 8 sec) 
Heartbeat CPU 1 instructions: 80000001 cycles: 120730477 heartbeat IPC: 0.216383 cumulative IPC: 0.255634 (Simulation time: 0 hr 53 min 14 sec) 
Heartbeat CPU 0 instructions: 210000002 cycles: 120811265 heartbeat IPC: 1.52474 cumulative IPC: 1.52949 (Simulation time: 0 hr 53 min 15 sec) 
Heartbeat CPU 3 instructions: 150000002 cycles: 125011505 heartbeat IPC: 0.882065 cumulative IPC: 0.883995 (Simulation time: 0 hr 54 min 29 sec) 
Heartbeat CPU 2 instructions: 110000000 cycles: 128555641 heartbeat IPC: 0.479557 cumulative IPC: 0.480642 (Simulation time: 0 hr 55 min 30 sec) 
Heartbeat CPU 0 instructions: 220000000 cycles: 130295625 heartbeat IPC: 1.05437 cumulative IPC: 1.48999 (Simulation time: 0 hr 55 min 59 sec) 
Heartbeat CPU 3 instructions: 160000003 cycles: 135377190 heartbeat IPC: 0.964722 cumulative IPC: 0.891017 (Simulation time: 0 hr 57 min 22 sec) 
Heartbeat CPU 0 instructions: 230000002 cycles: 140810040 heartbeat IPC: 0.951075 cumulative IPC: 1.44452 (Simulation time: 0 hr 58 min 50 sec) 
Heartbeat CPU 3 instructions: 170000000 cycles: 145632100 heartbeat IPC: 0.975142 cumulative IPC: 0.897682 (Simulation time: 0 hr 59 min 56 sec) 
Heartbeat CPU 2 instructions: 120000001 cycles: 148606200 heartbeat IPC: 0.498739 cumulative IPC: 0.483382 (Simulation time: 1 hr 0 min 39 sec) 
Heartbeat CPU 0 instructions: 240000000 cycles: 151310654 heartbeat IPC: 0.952325 cumulative IPC: 1.40627 (Simulation time: 1 hr 1 min 16 sec) 
Heartbeat CPU 3 instructions: 180000003 cycles: 155911681 heartbeat IPC: 0.972803 cumulative IPC: 0.903209 (Simulation time: 1 hr 2 min 19 sec) 
*** Reached end of trace for Core: 0 Repeating trace: ./traces/ligra/ligra_BellmanFord.com-lj.ungraph.gcc_6.3.0_O3.drop_1750M.length_250M.champsimtrace.xz
Heartbeat CPU 0 instructions: 250000003 cycles: 161825869 heartbeat IPC: 0.951003 cumulative IPC: 1.37339 (Simulation time: 1 hr 3 min 59 sec) 
Finished CPU 0 instructions: 200000002 cycles: 145624635 cumulative IPC: 1.37339 (Simulation time: 1 hr 3 min 59 sec) 
Heartbeat CPU 3 instructions: 190000002 cycles: 166485302 heartbeat IPC: 0.94575 cumulative IPC: 0.906202 (Simulation time: 1 hr 5 min 28 sec) 
Heartbeat CPU 0 instructions: 260000001 cycles: 168111013 heartbeat IPC: 1.59105 cumulative IPC: 1.3824 (Simulation time: 1 hr 6 min 5 sec) 
Heartbeat CPU 2 instructions: 130000002 cycles: 168322606 heartbeat IPC: 0.507192 cumulative IPC: 0.486468 (Simulation time: 1 hr 6 min 9 sec) 
Heartbeat CPU 0 instructions: 270000000 cycles: 174883557 heartbeat IPC: 1.47655 cumulative IPC: 1.38642 (Simulation time: 1 hr 8 min 8 sec) 
Heartbeat CPU 1 instructions: 90000001 cycles: 175058798 heartbeat IPC: 0.184066 cumulative IPC: 0.231158 (Simulation time: 1 hr 8 min 11 sec) 
Heartbeat CPU 3 instructions: 200000001 cycles: 178074384 heartbeat IPC: 0.862881 cumulative IPC: 0.903101 (Simulation time: 1 hr 8 min 59 sec) 
Heartbeat CPU 0 instructions: 280000002 cycles: 181531962 heartbeat IPC: 1.50412 cumulative IPC: 1.39115 (Simulation time: 1 hr 9 min 58 sec) 
Heartbeat CPU 0 instructions: 290000001 cycles: 187920881 heartbeat IPC: 1.56521 cumulative IPC: 1.39763 (Simulation time: 1 hr 12 min 3 sec) 
Heartbeat CPU 2 instructions: 140000003 cycles: 189326757 heartbeat IPC: 0.476096 cumulative IPC: 0.48521 (Simulation time: 1 hr 12 min 30 sec) 
Heartbeat CPU 3 instructions: 210000003 cycles: 189790938 heartbeat IPC: 0.853493 cumulative IPC: 0.899752 (Simulation time: 1 hr 12 min 40 sec) 
Heartbeat CPU 0 instructions: 300000002 cycles: 194606359 heartbeat IPC: 1.49578 cumulative IPC: 1.40131 (Simulation time: 1 hr 14 min 6 sec) 
Heartbeat CPU 0 instructions: 310000001 cycles: 201001530 heartbeat IPC: 1.56368 cumulative IPC: 1.40692 (Simulation time: 1 hr 16 min 1 sec) 
Heartbeat CPU 3 instructions: 220000000 cycles: 201756080 heartbeat IPC: 0.835761 cumulative IPC: 0.895626 (Simulation time: 1 hr 16 min 17 sec) 
Heartbeat CPU 0 instructions: 320000000 cycles: 207687581 heartbeat IPC: 1.49565 cumulative IPC: 1.41002 (Simulation time: 1 hr 18 min 9 sec) 
Heartbeat CPU 2 instructions: 150000001 cycles: 210575743 heartbeat IPC: 0.470611 cumulative IPC: 0.483614 (Simulation time: 1 hr 19 min 7 sec) 
Heartbeat CPU 3 instructions: 230000003 cycles: 213692334 heartbeat IPC: 0.837784 cumulative IPC: 0.89213 (Simulation time: 1 hr 20 min 7 sec) 
Heartbeat CPU 0 instructions: 330000000 cycles: 214327568 heartbeat IPC: 1.50603 cumulative IPC: 1.41324 (Simulation time: 1 hr 20 min 18 sec) 
Heartbeat CPU 0 instructions: 340000000 cycles: 220764508 heartbeat IPC: 1.55353 cumulative IPC: 1.41765 (Simulation time: 1 hr 22 min 21 sec) 
Heartbeat CPU 3 instructions: 240000000 cycles: 225466784 heartbeat IPC: 0.849296 cumulative IPC: 0.88972 (Simulation time: 1 hr 23 min 57 sec) 
Heartbeat CPU 0 instructions: 350000002 cycles: 227408927 heartbeat IPC: 1.50502 cumulative IPC: 1.4204 (Simulation time: 1 hr 24 min 31 sec) 
Heartbeat CPU 2 instructions: 160000000 cycles: 232962700 heartbeat IPC: 0.446689 cumulative IPC: 0.4798 (Simulation time: 1 hr 26 min 19 sec) 
Heartbeat CPU 0 instructions: 360000001 cycles: 233793992 heartbeat IPC: 1.56615 cumulative IPC: 1.42468 (Simulation time: 1 hr 26 min 36 sec) 
Heartbeat CPU 1 instructions: 100000000 cycles: 233820399 heartbeat IPC: 0.170179 cumulative IPC: 0.214693 (Simulation time: 1 hr 26 min 36 sec) 
Heartbeat CPU 3 instructions: 250000002 cycles: 237357808 heartbeat IPC: 0.840971 cumulative IPC: 0.887099 (Simulation time: 1 hr 27 min 45 sec) 
Heartbeat CPU 0 instructions: 370000000 cycles: 240460569 heartbeat IPC: 1.50002 cumulative IPC: 1.42692 (Simulation time: 1 hr 28 min 43 sec) 
Finished CPU 3 instructions: 200000000 cycles: 225571222 cumulative IPC: 0.886638 (Simulation time: 1 hr 29 min 8 sec) 
Heartbeat CPU 0 instructions: 380000001 cycles: 246975080 heartbeat IPC: 1.53503 cumulative IPC: 1.42997 (Simulation time: 1 hr 30 min 41 sec) 
Heartbeat CPU 3 instructions: 260000002 cycles: 248588715 heartbeat IPC: 0.8904 cumulative IPC: 0.887258 (Simulation time: 1 hr 31 min 10 sec) 
Heartbeat CPU 0 instructions: 390000000 cycles: 253280246 heartbeat IPC: 1.586 cumulative IPC: 1.43412 (Simulation time: 1 hr 32 min 37 sec) 
Heartbeat CPU 2 instructions: 170000002 cycles: 253766538 heartbeat IPC: 0.480681 cumulative IPC: 0.479877 (Simulation time: 1 hr 32 min 47 sec) 
Heartbeat CPU 3 instructions: 270000003 cycles: 259650605 heartbeat IPC: 0.904005 cumulative IPC: 0.888019 (Simulation time: 1 hr 34 min 28 sec) 
Heartbeat CPU 0 instructions: 400000002 cycles: 259848842 heartbeat IPC: 1.5224 cumulative IPC: 1.4365 (Simulation time: 1 hr 34 min 32 sec) 
Heartbeat CPU 0 instructions: 410000001 cycles: 266296772 heartbeat IPC: 1.55089 cumulative IPC: 1.43945 (Simulation time: 1 hr 36 min 36 sec) 
Heartbeat CPU 3 instructions: 280000001 cycles: 270682532 heartbeat IPC: 0.90646 cumulative IPC: 0.888819 (Simulation time: 1 hr 37 min 53 sec) 
Heartbeat CPU 0 instructions: 420000002 cycles: 272650838 heartbeat IPC: 1.5738 cumulative IPC: 1.44278 (Simulation time: 1 hr 38 min 32 sec) 
Heartbeat CPU 2 instructions: 180000002 cycles: 273516994 heartbeat IPC: 0.506317 cumulative IPC: 0.481907 (Simulation time: 1 hr 38 min 50 sec) 
Heartbeat CPU 0 instructions: 430000001 cycles: 279187333 heartbeat IPC: 1.52987 cumulative IPC: 1.44494 (Simulation time: 1 hr 40 min 36 sec) 
Heartbeat CPU 3 instructions: 290000003 cycles: 281606224 heartbeat IPC: 0.915442 cumulative IPC: 0.889915 (Simulation time: 1 hr 41 min 19 sec) 
Heartbeat CPU 0 instructions: 440000000 cycles: 285687950 heartbeat IPC: 1.53832 cumulative IPC: 1.4472 (Simulation time: 1 hr 42 min 35 sec) 
Heartbeat CPU 0 instructions: 450000000 cycles: 292019624 heartbeat IPC: 1.57936 cumulative IPC: 1.45023 (Simulation time: 1 hr 44 min 22 sec) 
Heartbeat CPU 2 instructions: 190000001 cycles: 292199256 heartbeat IPC: 0.535267 cumulative IPC: 0.485519 (Simulation time: 1 hr 44 min 27 sec) 
Heartbeat CPU 3 instructions: 300000002 cycles: 293567908 heartbeat IPC: 0.836003 cumulative IPC: 0.88759 (Simulation time: 1 hr 44 min 59 sec) 
Heartbeat CPU 0 instructions: 460000003 cycles: 298101813 heartbeat IPC: 1.64415 cumulative IPC: 1.45441 (Simulation time: 1 hr 46 min 31 sec) 
Heartbeat CPU 2 instructions: 200000000 cycles: 304560877 heartbeat IPC: 0.808955 cumulative IPC: 0.499384 (Simulation time: 1 hr 48 min 30 sec) 
Heartbeat CPU 0 instructions: 470000000 cycles: 307277647 heartbeat IPC: 1.08982 cumulative IPC: 1.44292 (Simulation time: 1 hr 49 min 18 sec) 
Heartbeat CPU 3 instructions: 310000002 cycles: 308627067 heartbeat IPC: 0.664048 cumulative IPC: 0.876078 (Simulation time: 1 hr 49 min 48 sec) 
Heartbeat CPU 1 instructions: 110000000 cycles: 309809401 heartbeat IPC: 0.131598 cumulative IPC: 0.193187 (Simulation time: 1 hr 50 min 8 sec) 
Heartbeat CPU 2 instructions: 210000002 cycles: 316686904 heartbeat IPC: 0.824673 cumulative IPC: 0.512511 (Simulation time: 1 hr 52 min 14 sec) 
Heartbeat CPU 0 instructions: 480000003 cycles: 317536155 heartbeat IPC: 0.974801 cumulative IPC: 1.42698 (Simulation time: 1 hr 52 min 31 sec) 
Heartbeat CPU 3 instructions: 320000002 cycles: 323434851 heartbeat IPC: 0.675321 cumulative IPC: 0.866402 (Simulation time: 1 hr 54 min 27 sec) 
Heartbeat CPU 2 instructions: 220000000 cycles: 327314176 heartbeat IPC: 0.940975 cumulative IPC: 0.527147 (Simulation time: 1 hr 55 min 46 sec) 
Heartbeat CPU 0 instructions: 490000001 cycles: 327798440 heartbeat IPC: 0.974442 cumulative IPC: 1.41208 (Simulation time: 1 hr 55 min 58 sec) 
Heartbeat CPU 2 instructions: 230000003 cycles: 337451969 heartbeat IPC: 0.986408 cumulative IPC: 0.54164 (Simulation time: 1 hr 59 min 18 sec) 
Heartbeat CPU 1 instructions: 120000001 cycles: 337700786 heartbeat IPC: 0.358534 cumulative IPC: 0.207531 (Simulation time: 1 hr 59 min 23 sec) 
*** Reached end of trace for Core: 0 Repeating trace: ./traces/ligra/ligra_BellmanFord.com-lj.ungraph.gcc_6.3.0_O3.drop_1750M.length_250M.champsimtrace.xz
Heartbeat CPU 0 instructions: 500000000 cycles: 338068063 heartbeat IPC: 0.973745 cumulative IPC: 1.39809 (Simulation time: 1 hr 59 min 30 sec) 
Heartbeat CPU 3 instructions: 330000000 cycles: 338348805 heartbeat IPC: 0.670513 cumulative IPC: 0.857333 (Simulation time: 1 hr 59 min 36 sec) 
Heartbeat CPU 0 instructions: 510000002 cycles: 344119967 heartbeat IPC: 1.65237 cumulative IPC: 1.40279 (Simulation time: 2 hr 2 min 2 sec) 
Heartbeat CPU 1 instructions: 130000001 cycles: 347449484 heartbeat IPC: 1.02578 cumulative IPC: 0.231613 (Simulation time: 2 hr 3 min 46 sec) 
Heartbeat CPU 3 instructions: 340000000 cycles: 349360542 heartbeat IPC: 0.908122 cumulative IPC: 0.859012 (Simulation time: 2 hr 4 min 42 sec) 
Heartbeat CPU 2 instructions: 240000001 cycles: 349478041 heartbeat IPC: 0.831527 cumulative IPC: 0.5521 (Simulation time: 2 hr 4 min 47 sec) 
Heartbeat CPU 0 instructions: 520000001 cycles: 350186194 heartbeat IPC: 1.64847 cumulative IPC: 1.40725 (Simulation time: 2 hr 5 min 7 sec) 
Heartbeat CPU 0 instructions: 530000000 cycles: 356356116 heartbeat IPC: 1.62077 cumulative IPC: 1.41112 (Simulation time: 2 hr 8 min 0 sec) 
Heartbeat CPU 3 instructions: 350000000 cycles: 360119968 heartbeat IPC: 0.929418 cumulative IPC: 0.861214 (Simulation time: 2 hr 9 min 41 sec) 
Heartbeat CPU 1 instructions: 140000000 cycles: 360963872 heartbeat IPC: 0.739952 cumulative IPC: 0.251539 (Simulation time: 2 hr 10 min 2 sec) 
Heartbeat CPU 0 instructions: 540000002 cycles: 362504268 heartbeat IPC: 1.62651 cumulative IPC: 1.41495 (Simulation time: 2 hr 10 min 39 sec) 
Heartbeat CPU 2 instructions: 250000001 cycles: 363718011 heartbeat IPC: 0.702249 cumulative IPC: 0.558253 (Simulation time: 2 hr 11 min 11 sec) 
Heartbeat CPU 0 instructions: 550000000 cycles: 368923953 heartbeat IPC: 1.55771 cumulative IPC: 1.41754 (Simulation time: 2 hr 13 min 13 sec) 
Heartbeat CPU 3 instructions: 360000003 cycles: 371112542 heartbeat IPC: 0.909705 cumulative IPC: 0.862716 (Simulation time: 2 hr 14 min 3 sec) 
Finished CPU 2 instructions: 200000000 cycles: 356883098 cumulative IPC: 0.560408 (Simulation time: 2 hr 14 min 53 sec) 
Heartbeat CPU 0 instructions: 560000003 cycles: 375337071 heartbeat IPC: 1.5593 cumulative IPC: 1.42008 (Simulation time: 2 hr 15 min 47 sec) 
Heartbeat CPU 2 instructions: 260000000 cycles: 380556623 heartbeat IPC: 0.593873 cumulative IPC: 0.559899 (Simulation time: 2 hr 17 min 54 sec) 
Heartbeat CPU 0 instructions: 570000001 cycles: 381762656 heartbeat IPC: 1.55628 cumulative IPC: 1.42247 (Simulation time: 2 hr 18 min 30 sec) 
Heartbeat CPU 3 instructions: 370000001 cycles: 381974279 heartbeat IPC: 0.920663 cumulative IPC: 0.864437 (Simulation time: 2 hr 18 min 34 sec) 
Heartbeat CPU 1 instructions: 150000001 cycles: 387549245 heartbeat IPC: 0.376147 cumulative IPC: 0.26046 (Simulation time: 2 hr 20 min 45 sec) 
Heartbeat CPU 0 instructions: 580000000 cycles: 388126996 heartbeat IPC: 1.57125 cumulative IPC: 1.42502 (Simulation time: 2 hr 21 min 1 sec) 
Heartbeat CPU 3 instructions: 380000002 cycles: 392940866 heartbeat IPC: 0.911861 cumulative IPC: 0.865817 (Simulation time: 2 hr 22 min 53 sec) 
Heartbeat CPU 0 instructions: 590000001 cycles: 394350424 heartbeat IPC: 1.60683 cumulative IPC: 1.42801 (Simulation time: 2 hr 23 min 32 sec) 
Heartbeat CPU 2 instructions: 270000000 cycles: 394407740 heartbeat IPC: 0.721963 cumulative IPC: 0.565834 (Simulation time: 2 hr 23 min 34 sec) 
Heartbeat CPU 0 instructions: 600000000 cycles: 400551504 heartbeat IPC: 1.61262 cumulative IPC: 1.43099 (Simulation time: 2 hr 25 min 58 sec) 
Heartbeat CPU 3 instructions: 390000003 cycles: 403743957 heartbeat IPC: 0.925661 cumulative IPC: 0.867486 (Simulation time: 2 hr 27 min 13 sec) 
Heartbeat CPU 0 instructions: 610000002 cycles: 406741658 heartbeat IPC: 1.61547 cumulative IPC: 1.43391 (Simulation time: 2 hr 28 min 30 sec) 
Heartbeat CPU 2 instructions: 280000001 cycles: 409147573 heartbeat IPC: 0.678434 cumulative IPC: 0.570058 (Simulation time: 2 hr 29 min 26 sec) 
Heartbeat CPU 0 instructions: 620000001 cycles: 412936126 heartbeat IPC: 1.61434 cumulative IPC: 1.43673 (Simulation time: 2 hr 30 min 59 sec) 
Heartbeat CPU 3 instructions: 400000003 cycles: 414476250 heartbeat IPC: 0.931767 cumulative IPC: 0.869218 (Simulation time: 2 hr 31 min 34 sec) 
Heartbeat CPU 0 instructions: 630000002 cycles: 419119730 heartbeat IPC: 1.61718 cumulative IPC: 1.4395 (Simulation time: 2 hr 33 min 26 sec) 
Heartbeat CPU 2 instructions: 290000000 cycles: 422669029 heartbeat IPC: 0.739565 cumulative IPC: 0.575697 (Simulation time: 2 hr 34 min 55 sec) 
Heartbeat CPU 3 instructions: 410000002 cycles: 425178377 heartbeat IPC: 0.934394 cumulative IPC: 0.870923 (Simulation time: 2 hr 35 min 57 sec) 
Heartbeat CPU 0 instructions: 640000001 cycles: 425305050 heartbeat IPC: 1.61673 cumulative IPC: 1.44218 (Simulation time: 2 hr 35 min 59 sec) 
Heartbeat CPU 1 instructions: 160000000 cycles: 431070148 heartbeat IPC: 0.229775 cumulative IPC: 0.257241 (Simulation time: 2 hr 38 min 25 sec) 
Heartbeat CPU 0 instructions: 650000000 cycles: 431471689 heartbeat IPC: 1.62163 cumulative IPC: 1.44484 (Simulation time: 2 hr 38 min 34 sec) 
Heartbeat CPU 3 instructions: 420000000 cycles: 435841211 heartbeat IPC: 0.937837 cumulative IPC: 0.872624 (Simulation time: 2 hr 40 min 25 sec) 
Heartbeat CPU 2 instructions: 300000002 cycles: 436201587 heartbeat IPC: 0.738959 cumulative IPC: 0.580957 (Simulation time: 2 hr 40 min 32 sec) 
Heartbeat CPU 0 instructions: 660000000 cycles: 437624010 heartbeat IPC: 1.6254 cumulative IPC: 1.44748 (Simulation time: 2 hr 41 min 5 sec) 
Heartbeat CPU 0 instructions: 670000003 cycles: 443701882 heartbeat IPC: 1.64531 cumulative IPC: 1.45029 (Simulation time: 2 hr 43 min 20 sec) 
Heartbeat CPU 2 instructions: 310000000 cycles: 449197664 heartbeat IPC: 0.769463 cumulative IPC: 0.586615 (Simulation time: 2 hr 45 min 23 sec) 
Heartbeat CPU 0 instructions: 680000002 cycles: 449787099 heartbeat IPC: 1.64333 cumulative IPC: 1.453 (Simulation time: 2 hr 45 min 31 sec) 
Heartbeat CPU 3 instructions: 430000000 cycles: 454086973 heartbeat IPC: 0.548072 cumulative IPC: 0.8591 (Simulation time: 2 hr 46 min 48 sec) 
Heartbeat CPU 0 instructions: 690000001 cycles: 456127997 heartbeat IPC: 1.57706 cumulative IPC: 1.45479 (Simulation time: 2 hr 47 min 18 sec) 
Heartbeat CPU 0 instructions: 700000000 cycles: 462506195 heartbeat IPC: 1.56784 cumulative IPC: 1.4564 (Simulation time: 2 hr 49 min 7 sec) 
Heartbeat CPU 2 instructions: 320000002 cycles: 466094502 heartbeat IPC: 0.591827 cumulative IPC: 0.586811 (Simulation time: 2 hr 50 min 4 sec) 
Heartbeat CPU 0 instructions: 710000000 cycles: 468835992 heartbeat IPC: 1.57983 cumulative IPC: 1.45813 (Simulation time: 2 hr 50 min 54 sec) 
Heartbeat CPU 1 instructions: 170000001 cycles: 475443033 heartbeat IPC: 0.225363 cumulative IPC: 0.254161 (Simulation time: 2 hr 52 min 29 sec) 
Heartbeat CPU 0 instructions: 720000000 cycles: 478105955 heartbeat IPC: 1.07875 cumulative IPC: 1.45052 (Simulation time: 2 hr 53 min 5 sec) 
Heartbeat CPU 2 instructions: 330000000 cycles: 481934799 heartbeat IPC: 0.631301 cumulative IPC: 0.588324 (Simulation time: 2 hr 53 min 59 sec) 
Heartbeat CPU 0 instructions: 730000000 cycles: 488368399 heartbeat IPC: 0.974427 cumulative IPC: 1.44017 (Simulation time: 2 hr 55 min 25 sec) 
Heartbeat CPU 2 instructions: 340000003 cycles: 496438523 heartbeat IPC: 0.689478 cumulative IPC: 0.591379 (Simulation time: 2 hr 57 min 18 sec) 
Heartbeat CPU 0 instructions: 740000002 cycles: 498638669 heartbeat IPC: 0.973684 cumulative IPC: 1.43024 (Simulation time: 2 hr 57 min 47 sec) 
Heartbeat CPU 3 instructions: 440000000 cycles: 505918305 heartbeat IPC: 0.192933 cumulative IPC: 0.788594 (Simulation time: 2 hr 59 min 27 sec) 
*** Reached end of trace for Core: 0 Repeating trace: ./traces/ligra/ligra_BellmanFord.com-lj.ungraph.gcc_6.3.0_O3.drop_1750M.length_250M.champsimtrace.xz
Heartbeat CPU 0 instructions: 750000001 cycles: 508911377 heartbeat IPC: 0.973453 cumulative IPC: 1.42071 (Simulation time: 3 hr 0 min 37 sec) 
Heartbeat CPU 2 instructions: 350000000 cycles: 511146141 heartbeat IPC: 0.67992 cumulative IPC: 0.59401 (Simulation time: 3 hr 1 min 30 sec) 
Heartbeat CPU 0 instructions: 760000000 cycles: 515100094 heartbeat IPC: 1.61584 cumulative IPC: 1.42313 (Simulation time: 3 hr 3 min 9 sec) 
Heartbeat CPU 3 instructions: 450000001 cycles: 515865107 heartbeat IPC: 1.00535 cumulative IPC: 0.792909 (Simulation time: 3 hr 3 min 26 sec) 
Heartbeat CPU 0 instructions: 770000000 cycles: 521256100 heartbeat IPC: 1.62443 cumulative IPC: 1.42559 (Simulation time: 3 hr 5 min 28 sec) 
Heartbeat CPU 1 instructions: 180000000 cycles: 521971303 heartbeat IPC: 0.214923 cumulative IPC: 0.250551 (Simulation time: 3 hr 5 min 47 sec) 
Heartbeat CPU 3 instructions: 460000002 cycles: 525827025 heartbeat IPC: 1.00382 cumulative IPC: 0.797031 (Simulation time: 3 hr 7 min 14 sec) 
Heartbeat CPU 2 instructions: 360000003 cycles: 526585973 heartbeat IPC: 0.647676 cumulative IPC: 0.595633 (Simulation time: 3 hr 7 min 32 sec) 
Heartbeat CPU 0 instructions: 780000003 cycles: 527442030 heartbeat IPC: 1.61657 cumulative IPC: 1.4279 (Simulation time: 3 hr 7 min 50 sec) 
Heartbeat CPU 0 instructions: 790000000 cycles: 533653767 heartbeat IPC: 1.60986 cumulative IPC: 1.43008 (Simulation time: 3 hr 10 min 19 sec) 
Heartbeat CPU 3 instructions: 470000003 cycles: 535830093 heartbeat IPC: 0.999693 cumulative IPC: 0.800933 (Simulation time: 3 hr 11 min 9 sec) 
Heartbeat CPU 0 instructions: 800000001 cycles: 539839985 heartbeat IPC: 1.6165 cumulative IPC: 1.43229 (Simulation time: 3 hr 12 min 48 sec) 
Heartbeat CPU 2 instructions: 370000003 cycles: 541171149 heartbeat IPC: 0.685628 cumulative IPC: 0.598134 (Simulation time: 3 hr 13 min 17 sec) 
Heartbeat CPU 0 instructions: 810000000 cycles: 545992883 heartbeat IPC: 1.62525 cumulative IPC: 1.43453 (Simulation time: 3 hr 15 min 1 sec) 
Heartbeat CPU 3 instructions: 480000003 cycles: 546042601 heartbeat IPC: 0.979191 cumulative IPC: 0.804369 (Simulation time: 3 hr 15 min 3 sec) 
Heartbeat CPU 0 instructions: 820000002 cycles: 552237284 heartbeat IPC: 1.60143 cumulative IPC: 1.43647 (Simulation time: 3 hr 17 min 26 sec) 
Heartbeat CPU 3 instructions: 490000001 cycles: 556246228 heartbeat IPC: 0.980043 cumulative IPC: 0.807688 (Simulation time: 3 hr 18 min 59 sec) 
Heartbeat CPU 2 instructions: 380000002 cycles: 557049203 heartbeat IPC: 0.6298 cumulative IPC: 0.599063 (Simulation time: 3 hr 19 min 20 sec) 
Heartbeat CPU 0 instructions: 830000001 cycles: 558449932 heartbeat IPC: 1.60962 cumulative IPC: 1.43845 (Simulation time: 3 hr 19 min 54 sec) 
Heartbeat CPU 0 instructions: 840000002 cycles: 564590390 heartbeat IPC: 1.62854 cumulative IPC: 1.44058 (Simulation time: 3 hr 22 min 8 sec) 
Heartbeat CPU 3 instructions: 500000000 cycles: 566505766 heartbeat IPC: 0.974703 cumulative IPC: 0.810802 (Simulation time: 3 hr 22 min 55 sec) 
Heartbeat CPU 0 instructions: 850000001 cycles: 570854620 heartbeat IPC: 1.59637 cumulative IPC: 1.44234 (Simulation time: 3 hr 24 min 30 sec) 
Heartbeat CPU 2 instructions: 390000000 cycles: 574523968 heartbeat IPC: 0.572254 cumulative IPC: 0.598224 (Simulation time: 3 hr 25 min 55 sec) 
Heartbeat CPU 3 instructions: 510000003 cycles: 576747586 heartbeat IPC: 0.976389 cumulative IPC: 0.813827 (Simulation time: 3 hr 26 min 50 sec) 
Heartbeat CPU 0 instructions: 860000000 cycles: 577071745 heartbeat IPC: 1.60846 cumulative IPC: 1.44418 (Simulation time: 3 hr 26 min 57 sec) 
Heartbeat CPU 0 instructions: 870000002 cycles: 583222559 heartbeat IPC: 1.6258 cumulative IPC: 1.44615 (Simulation time: 3 hr 29 min 8 sec) 
Heartbeat CPU 3 instructions: 520000000 cycles: 586925545 heartbeat IPC: 0.982515 cumulative IPC: 0.816835 (Simulation time: 3 hr 30 min 36 sec) 
Heartbeat CPU 2 instructions: 400000003 cycles: 589382637 heartbeat IPC: 0.673008 cumulative IPC: 0.600163 (Simulation time: 3 hr 31 min 32 sec) 
Heartbeat CPU 0 instructions: 880000000 cycles: 589463793 heartbeat IPC: 1.60225 cumulative IPC: 1.44785 (Simulation time: 3 hr 31 min 33 sec) 
Heartbeat CPU 0 instructions: 890000002 cycles: 595607996 heartbeat IPC: 1.62755 cumulative IPC: 1.44976 (Simulation time: 3 hr 34 min 4 sec) 
Heartbeat CPU 3 instructions: 530000000 cycles: 597159423 heartbeat IPC: 0.977147 cumulative IPC: 0.819659 (Simulation time: 3 hr 34 min 40 sec) 
Heartbeat CPU 0 instructions: 900000001 cycles: 601794627 heartbeat IPC: 1.61639 cumulative IPC: 1.45152 (Simulation time: 3 hr 36 min 25 sec) 
Heartbeat CPU 1 instructions: 190000001 cycles: 601841543 heartbeat IPC: 0.125203 cumulative IPC: 0.233456 (Simulation time: 3 hr 36 min 26 sec) 
Heartbeat CPU 2 instructions: 410000001 cycles: 604860397 heartbeat IPC: 0.646088 cumulative IPC: 0.60137 (Simulation time: 3 hr 37 min 40 sec) 
Heartbeat CPU 3 instructions: 540000000 cycles: 607339139 heartbeat IPC: 0.982346 cumulative IPC: 0.822461 (Simulation time: 3 hr 38 min 36 sec) 
Heartbeat CPU 0 instructions: 910000001 cycles: 608022845 heartbeat IPC: 1.6056 cumulative IPC: 1.45314 (Simulation time: 3 hr 38 min 52 sec) 
Heartbeat CPU 0 instructions: 920000000 cycles: 614153570 heartbeat IPC: 1.63113 cumulative IPC: 1.45497 (Simulation time: 3 hr 41 min 13 sec) 
Heartbeat CPU 3 instructions: 550000000 cycles: 617515867 heartbeat IPC: 0.982634 cumulative IPC: 0.825172 (Simulation time: 3 hr 42 min 30 sec) 
Heartbeat CPU 0 instructions: 930000000 cycles: 620358160 heartbeat IPC: 1.61171 cumulative IPC: 1.45658 (Simulation time: 3 hr 43 min 34 sec) 
Heartbeat CPU 2 instructions: 420000003 cycles: 622712052 heartbeat IPC: 0.560172 cumulative IPC: 0.600158 (Simulation time: 3 hr 44 min 25 sec) 
Heartbeat CPU 0 instructions: 940000002 cycles: 626632054 heartbeat IPC: 1.59391 cumulative IPC: 1.45799 (Simulation time: 3 hr 46 min 6 sec) 
Heartbeat CPU 3 instructions: 560000001 cycles: 627750757 heartbeat IPC: 0.97705 cumulative IPC: 0.827713 (Simulation time: 3 hr 46 min 30 sec) 
Heartbeat CPU 0 instructions: 950000001 cycles: 632784326 heartbeat IPC: 1.62542 cumulative IPC: 1.45966 (Simulation time: 3 hr 48 min 33 sec) 
Heartbeat CPU 2 instructions: 430000002 cycles: 637804719 heartbeat IPC: 0.662573 cumulative IPC: 0.601673 (Simulation time: 3 hr 50 min 23 sec) 
Heartbeat CPU 3 instructions: 570000000 cycles: 637956038 heartbeat IPC: 0.979885 cumulative IPC: 0.830211 (Simulation time: 3 hr 50 min 26 sec) 
Heartbeat CPU 0 instructions: 960000001 cycles: 639029674 heartbeat IPC: 1.60119 cumulative IPC: 1.46108 (Simulation time: 3 hr 50 min 50 sec) 
Heartbeat CPU 1 instructions: 200000001 cycles: 639803030 heartbeat IPC: 0.263425 cumulative IPC: 0.23528 (Simulation time: 3 hr 51 min 9 sec) 
Heartbeat CPU 3 instructions: 580000001 cycles: 647945479 heartbeat IPC: 1.00106 cumulative IPC: 0.832913 (Simulation time: 3 hr 54 min 30 sec) 
Heartbeat CPU 0 instructions: 970000000 cycles: 648231158 heartbeat IPC: 1.08678 cumulative IPC: 1.45563 (Simulation time: 3 hr 54 min 37 sec) 
Heartbeat CPU 1 instructions: 210000000 cycles: 650088272 heartbeat IPC: 0.972267 cumulative IPC: 0.247238 (Simulation time: 3 hr 55 min 24 sec) 
Heartbeat CPU 2 instructions: 440000000 cycles: 652961790 heartbeat IPC: 0.659758 cumulative IPC: 0.603056 (Simulation time: 3 hr 56 min 33 sec) 
Heartbeat CPU 3 instructions: 590000002 cycles: 658436139 heartbeat IPC: 0.953229 cumulative IPC: 0.834878 (Simulation time: 3 hr 59 min 7 sec) 
Heartbeat CPU 0 instructions: 980000001 cycles: 658489247 heartbeat IPC: 0.974841 cumulative IPC: 1.44795 (Simulation time: 3 hr 59 min 8 sec) 
Heartbeat CPU 1 instructions: 220000000 cycles: 661302266 heartbeat IPC: 0.891743 cumulative IPC: 0.258442 (Simulation time: 4 hr 0 min 14 sec) 
Heartbeat CPU 2 instructions: 450000003 cycles: 663822576 heartbeat IPC: 0.920744 cumulative IPC: 0.608384 (Simulation time: 4 hr 1 min 16 sec) 
Heartbeat CPU 3 instructions: 600000002 cycles: 668598757 heartbeat IPC: 0.983998 cumulative IPC: 0.837201 (Simulation time: 4 hr 3 min 2 sec) 
Heartbeat CPU 0 instructions: 990000000 cycles: 668753750 heartbeat IPC: 0.974231 cumulative IPC: 1.4405 (Simulation time: 4 hr 3 min 5 sec) 
Heartbeat CPU 3 instructions: 610000000 cycles: 678760648 heartbeat IPC: 0.984069 cumulative IPC: 0.839453 (Simulation time: 4 hr 6 min 50 sec) 
*** Reached end of trace for Core: 0 Repeating trace: ./traces/ligra/ligra_BellmanFord.com-lj.ungraph.gcc_6.3.0_O3.drop_1750M.length_250M.champsimtrace.xz
Heartbeat CPU 0 instructions: 1000000003 cycles: 679023176 heartbeat IPC: 0.973765 cumulative IPC: 1.43327 (Simulation time: 4 hr 6 min 56 sec) 
Heartbeat CPU 2 instructions: 460000003 cycles: 679205309 heartbeat IPC: 0.65008 cumulative IPC: 0.609351 (Simulation time: 4 hr 7 min 0 sec) 
Heartbeat CPU 0 instructions: 1010000001 cycles: 685199322 heartbeat IPC: 1.61913 cumulative IPC: 1.43498 (Simulation time: 4 hr 9 min 30 sec) 
Heartbeat CPU 3 instructions: 620000000 cycles: 688979933 heartbeat IPC: 0.978542 cumulative IPC: 0.841566 (Simulation time: 4 hr 10 min 57 sec) 
Heartbeat CPU 1 instructions: 230000000 cycles: 689390653 heartbeat IPC: 0.356019 cumulative IPC: 0.262513 (Simulation time: 4 hr 11 min 7 sec) 
Heartbeat CPU 0 instructions: 1020000000 cycles: 691310288 heartbeat IPC: 1.6364 cumulative IPC: 1.4368 (Simulation time: 4 hr 11 min 51 sec) 
Heartbeat CPU 2 instructions: 470000002 cycles: 693396941 heartbeat IPC: 0.704641 cumulative IPC: 0.611348 (Simulation time: 4 hr 12 min 43 sec) 
Heartbeat CPU 0 instructions: 1030000002 cycles: 697519131 heartbeat IPC: 1.61061 cumulative IPC: 1.43839 (Simulation time: 4 hr 14 min 25 sec) 
Heartbeat CPU 3 instructions: 630000002 cycles: 699193862 heartbeat IPC: 0.979055 cumulative IPC: 0.843622 (Simulation time: 4 hr 15 min 4 sec) 
Heartbeat CPU 0 instructions: 1040000001 cycles: 703651407 heartbeat IPC: 1.63072 cumulative IPC: 1.4401 (Simulation time: 4 hr 16 min 51 sec) 
Heartbeat CPU 3 instructions: 640000003 cycles: 709396410 heartbeat IPC: 0.980147 cumulative IPC: 0.845632 (Simulation time: 4 hr 19 min 19 sec) 
Heartbeat CPU 0 instructions: 1050000002 cycles: 709762578 heartbeat IPC: 1.63635 cumulative IPC: 1.44183 (Simulation time: 4 hr 19 min 29 sec) 
Heartbeat CPU 2 instructions: 480000003 cycles: 710820546 heartbeat IPC: 0.573934 cumulative IPC: 0.610409 (Simulation time: 4 hr 19 min 54 sec) 
Heartbeat CPU 0 instructions: 1060000001 cycles: 715874137 heartbeat IPC: 1.63624 cumulative IPC: 1.44353 (Simulation time: 4 hr 22 min 3 sec) 
Heartbeat CPU 3 instructions: 650000001 cycles: 719560773 heartbeat IPC: 0.983829 cumulative IPC: 0.847629 (Simulation time: 4 hr 23 min 39 sec) 
Heartbeat CPU 0 instructions: 1070000000 cycles: 721937461 heartbeat IPC: 1.64926 cumulative IPC: 1.4453 (Simulation time: 4 hr 24 min 38 sec) 
Heartbeat CPU 2 instructions: 490000001 cycles: 724155312 heartbeat IPC: 0.749919 cumulative IPC: 0.613037 (Simulation time: 4 hr 25 min 40 sec) 
Heartbeat CPU 0 instructions: 1080000002 cycles: 728052153 heartbeat IPC: 1.63541 cumulative IPC: 1.44693 (Simulation time: 4 hr 27 min 17 sec) 
Heartbeat CPU 3 instructions: 660000000 cycles: 729773584 heartbeat IPC: 0.979162 cumulative IPC: 0.849511 (Simulation time: 4 hr 28 min 0 sec) 
Heartbeat CPU 1 instructions: 240000001 cycles: 732829395 heartbeat IPC: 0.230209 cumulative IPC: 0.260555 (Simulation time: 4 hr 29 min 21 sec) 
Heartbeat CPU 0 instructions: 1090000003 cycles: 734140560 heartbeat IPC: 1.64247 cumulative IPC: 1.44859 (Simulation time: 4 hr 29 min 53 sec) 
Heartbeat CPU 2 instructions: 500000000 cycles: 739864876 heartbeat IPC: 0.636555 cumulative IPC: 0.613548 (Simulation time: 4 hr 32 min 14 sec) 
Heartbeat CPU 3 instructions: 670000001 cycles: 739916567 heartbeat IPC: 0.985903 cumulative IPC: 0.851423 (Simulation time: 4 hr 32 min 15 sec) 
Heartbeat CPU 0 instructions: 1100000000 cycles: 740227278 heartbeat IPC: 1.64292 cumulative IPC: 1.45022 (Simulation time: 4 hr 32 min 23 sec) 
Heartbeat CPU 0 instructions: 1110000002 cycles: 746348355 heartbeat IPC: 1.6337 cumulative IPC: 1.45176 (Simulation time: 4 hr 35 min 10 sec) 
Heartbeat CPU 3 instructions: 680000003 cycles: 750093561 heartbeat IPC: 0.982609 cumulative IPC: 0.853242 (Simulation time: 4 hr 36 min 43 sec) 
Heartbeat CPU 0 instructions: 1120000000 cycles: 752429084 heartbeat IPC: 1.64454 cumulative IPC: 1.45335 (Simulation time: 4 hr 37 min 51 sec) 
Heartbeat CPU 2 instructions: 510000001 cycles: 753885350 heartbeat IPC: 0.713243 cumulative IPC: 0.615443 (Simulation time: 4 hr 38 min 27 sec) 
Heartbeat CPU 0 instructions: 1130000000 cycles: 758537579 heartbeat IPC: 1.63706 cumulative IPC: 1.45487 (Simulation time: 4 hr 40 min 22 sec) 
Heartbeat CPU 3 instructions: 690000000 cycles: 760267972 heartbeat IPC: 0.982858 cumulative IPC: 0.855014 (Simulation time: 4 hr 41 min 7 sec) 
Heartbeat CPU 0 instructions: 1140000000 cycles: 764684248 heartbeat IPC: 1.6269 cumulative IPC: 1.45628 (Simulation time: 4 hr 43 min 4 sec) 
Heartbeat CPU 3 instructions: 700000003 cycles: 770446093 heartbeat IPC: 0.9825 cumulative IPC: 0.856735 (Simulation time: 4 hr 45 min 21 sec) 
Heartbeat CPU 2 instructions: 520000003 cycles: 770662674 heartbeat IPC: 0.596043 cumulative IPC: 0.615011 (Simulation time: 4 hr 45 min 27 sec) 
Heartbeat CPU 0 instructions: 1150000002 cycles: 770782827 heartbeat IPC: 1.63973 cumulative IPC: 1.45776 (Simulation time: 4 hr 45 min 31 sec) 
Heartbeat CPU 1 instructions: 250000002 cycles: 776179134 heartbeat IPC: 0.230682 cumulative IPC: 0.258851 (Simulation time: 4 hr 47 min 48 sec) 
Heartbeat CPU 0 instructions: 1160000001 cycles: 776905973 heartbeat IPC: 1.63315 cumulative IPC: 1.45917 (Simulation time: 4 hr 48 min 5 sec) 
Heartbeat CPU 3 instructions: 710000002 cycles: 780648886 heartbeat IPC: 0.980124 cumulative IPC: 0.858382 (Simulation time: 4 hr 49 min 45 sec) 
Heartbeat CPU 0 instructions: 1170000001 cycles: 782995799 heartbeat IPC: 1.64208 cumulative IPC: 1.46063 (Simulation time: 4 hr 50 min 43 sec) 
Heartbeat CPU 2 instructions: 530000002 cycles: 784859214 heartbeat IPC: 0.704397 cumulative IPC: 0.616662 (Simulation time: 4 hr 51 min 32 sec) 
Heartbeat CPU 0 instructions: 1180000001 cycles: 789086434 heartbeat IPC: 1.64186 cumulative IPC: 1.46205 (Simulation time: 4 hr 53 min 25 sec) 
Finished CPU 1 instructions: 200000000 cycles: 773571799 cumulative IPC: 0.258541 (Simulation time: 4 hr 53 min 41 sec) 

ChampSim completed all CPUs

Total Simulation Statistics (not including warmup)

CPU 0 cumulative IPC: 1.46218 instructions: 1131100740 cycles: 773571798
ITLB TOTAL     ACCESS:  248432225  HIT:  248432225  MISS:          0  HIT %:        100  MISS %:          0   MPKI: 0
ITLB LOAD      ACCESS:          0  HIT:          0  MISS:          0  HIT %:       -nan  MISS %:       -nan   MPKI: 0
ITLB RFO       ACCESS:          0  HIT:          0  MISS:          0  HIT %:       -nan  MISS %:       -nan   MPKI: 0
ITLB PREFETCH  ACCESS:          0  HIT:          0  MISS:          0  HIT %:       -nan  MISS %:       -nan   MPKI: 0
ITLB WRITEBACK ACCESS:          0  HIT:          0  MISS:          0  HIT %:       -nan  MISS %:       -nan   MPKI: 0
DTLB TOTAL     ACCESS:   82225344  HIT:   82184573  MISS:      40771  HIT %:    99.9504  MISS %:  0.0495845   MPKI: 0.0360454
DTLB LOAD      ACCESS:          0  HIT:          0  MISS:          0  HIT %:       -nan  MISS %:       -nan   MPKI: 0
DTLB RFO       ACCESS:          0  HIT:          0  MISS:          0  HIT %:       -nan  MISS %:       -nan   MPKI: 0
DTLB PREFETCH  ACCESS:          0  HIT:          0  MISS:          0  HIT %:       -nan  MISS %:       -nan   MPKI: 0
DTLB WRITEBACK ACCESS:          0  HIT:          0  MISS:          0  HIT %:       -nan  MISS %:       -nan   MPKI: 0
STLB TOTAL     ACCESS:   43642691  HIT:   43601920  MISS:      40771  HIT %:    99.9066  MISS %:    0.09342   MPKI: 0.0360454
STLB LOAD      ACCESS:          0  HIT:          0  MISS:          0  HIT %:       -nan  MISS %:       -nan   MPKI: 0
STLB RFO       ACCESS:          0  HIT:          0  MISS:          0  HIT %:       -nan  MISS %:       -nan   MPKI: 0
STLB PREFETCH  ACCESS:          0  HIT:          0  MISS:          0  HIT %:       -nan  MISS %:       -nan   MPKI: 0
STLB WRITEBACK ACCESS:          0  HIT:          0  MISS:          0  HIT %:       -nan  MISS %:       -nan   MPKI: 0
L1D TOTAL     ACCESS:  288455689  HIT:  285846578  MISS:    2609111  HIT %:    99.0955  MISS %:    0.90451   MPKI: 2.3067
L1D LOAD      ACCESS:   61137371  HIT:   61073738  MISS:      63633  HIT %:    99.8959  MISS %:   0.104082   MPKI: 0.0562576
L1D RFO       ACCESS:   25842778  HIT:   25842774  MISS:          4  HIT %:        100  MISS %: 1.54782e-05   MPKI: 3.53638e-06
L1D PREFETCH  ACCESS:  201475540  HIT:  198930066  MISS:    2545474  HIT %:    98.7366  MISS %:    1.26342   MPKI: 2.25044
L1D WRITEBACK ACCESS:          0  HIT:          0  MISS:          0  HIT %:       -nan  MISS %:       -nan   MPKI: 0
L1I TOTAL     ACCESS:  251562077  HIT:  251562077  MISS:          0  HIT %:        100  MISS %:          0   MPKI: 0
L1I LOAD      ACCESS:  251562077  HIT:  251562077  MISS:          0  HIT %:        100  MISS %:          0   MPKI: 0
L1I RFO       ACCESS:          0  HIT:          0  MISS:          0  HIT %:       -nan  MISS %:       -nan   MPKI: 0
L1I PREFETCH  ACCESS:          0  HIT:          0  MISS:          0  HIT %:       -nan  MISS %:       -nan   MPKI: 0
L1I WRITEBACK ACCESS:          0  HIT:          0  MISS:          0  HIT %:       -nan  MISS %:       -nan   MPKI: 0
L2C TOTAL     ACCESS:    8080753  HIT:    5181788  MISS:    2898965  HIT %:    64.1251  MISS %:    35.8749   MPKI: 2.56296
L2C LOAD      ACCESS:       6117  HIT:         62  MISS:       6055  HIT %:    1.01357  MISS %:    98.9864   MPKI: 0.00535319
L2C RFO       ACCESS:          4  HIT:          0  MISS:          4  HIT %:          0  MISS %:        100   MPKI: 3.53638e-06
L2C PREFETCH  ACCESS:    5046653  HIT:    2443603  MISS:    2603050  HIT %:    48.4203  MISS %:    51.5797   MPKI: 2.30134
L2C WRITEBACK ACCESS:    2609079  HIT:    2324352  MISS:     284727  HIT %:    89.0871  MISS %:    10.9129   MPKI: 0.251726
PSCL5 TOTAL     ACCESS:     418900  HIT:     418900  MISS:          0  HIT %:        100  MISS %:          0   MPKI: 0
PSCL5 LOAD      ACCESS:          0  HIT:          0  MISS:          0  HIT %:       -nan  MISS %:       -nan   MPKI: 0
PSCL5 RFO       ACCESS:          0  HIT:          0  MISS:          0  HIT %:       -nan  MISS %:       -nan   MPKI: 0
PSCL5 PREFETCH  ACCESS:          0  HIT:          0  MISS:          0  HIT %:       -nan  MISS %:       -nan   MPKI: 0
PSCL5 WRITEBACK ACCESS:          0  HIT:          0  MISS:          0  HIT %:       -nan  MISS %:       -nan   MPKI: 0
PSCL4 TOTAL     ACCESS:     418900  HIT:     418900  MISS:          0  HIT %:        100  MISS %:          0   MPKI: 0
PSCL4 LOAD      ACCESS:          0  HIT:          0  MISS:          0  HIT %:       -nan  MISS %:       -nan   MPKI: 0
PSCL4 RFO       ACCESS:          0  HIT:          0  MISS:          0  HIT %:       -nan  MISS %:       -nan   MPKI: 0
PSCL4 PREFETCH  ACCESS:          0  HIT:          0  MISS:          0  HIT %:       -nan  MISS %:       -nan   MPKI: 0
PSCL4 WRITEBACK ACCESS:          0  HIT:          0  MISS:          0  HIT %:       -nan  MISS %:       -nan   MPKI: 0
PSCL3 TOTAL     ACCESS:     418900  HIT:     418900  MISS:          0  HIT %:        100  MISS %:          0   MPKI: 0
PSCL3 LOAD      ACCESS:          0  HIT:          0  MISS:          0  HIT %:       -nan  MISS %:       -nan   MPKI: 0
PSCL3 RFO       ACCESS:          0  HIT:          0  MISS:          0  HIT %:       -nan  MISS %:       -nan   MPKI: 0
PSCL3 PREFETCH  ACCESS:          0  HIT:          0  MISS:          0  HIT %:       -nan  MISS %:       -nan   MPKI: 0
PSCL3 WRITEBACK ACCESS:          0  HIT:          0  MISS:          0  HIT %:       -nan  MISS %:       -nan   MPKI: 0
PSCL2 TOTAL     ACCESS:     418395  HIT:     418381  MISS:         14  HIT %:    99.9967  MISS %: 0.00334612   MPKI: 1.23773e-05
PSCL2 LOAD      ACCESS:          0  HIT:          0  MISS:          0  HIT %:       -nan  MISS %:       -nan   MPKI: 0
PSCL2 RFO       ACCESS:          0  HIT:          0  MISS:          0  HIT %:       -nan  MISS %:       -nan   MPKI: 0
PSCL2 PREFETCH  ACCESS:          0  HIT:          0  MISS:          0  HIT %:       -nan  MISS %:       -nan   MPKI: 0
PSCL2 WRITEBACK ACCESS:          0  HIT:          0  MISS:          0  HIT %:       -nan  MISS %:       -nan   MPKI: 0
LLC TOTAL     ACCESS:    5223335  HIT:    1748587  MISS:    3474748  HIT %:    33.4764  MISS %:    66.5236   MPKI: 3.07201
LLC LOAD      ACCESS:       6045  HIT:          0  MISS:       6045  HIT %:          0  MISS %:        100   MPKI: 0.00534435
LLC RFO       ACCESS:          4  HIT:          0  MISS:          4  HIT %:          0  MISS %:        100   MPKI: 3.53638e-06
LLC PREFETCH  ACCESS:    2603060  HIT:          0  MISS:    2603060  HIT %:          0  MISS %:        100   MPKI: 2.30135
LLC WRITEBACK ACCESS:    2609097  HIT:    1748572  MISS:     860525  HIT %:    67.0183  MISS %:    32.9817   MPKI: 0.760785

RAW hits: 0
Loads Generated: 166981128
Loads sent to L1D: 166981128
Stores Generated: 25842778
Stores sent to L1D: 25842778

CPU 1 cumulative IPC: 0.258541 instructions: 200000000 cycles: 773571799
ITLB TOTAL     ACCESS:   33552045  HIT:   33552045  MISS:          0  HIT %:        100  MISS %:          0   MPKI: 0
ITLB LOAD      ACCESS:          0  HIT:          0  MISS:          0  HIT %:       -nan  MISS %:       -nan   MPKI: 0
ITLB RFO       ACCESS:          0  HIT:          0  MISS:          0  HIT %:       -nan  MISS %:       -nan   MPKI: 0
ITLB PREFETCH  ACCESS:          0  HIT:          0  MISS:          0  HIT %:       -nan  MISS %:       -nan   MPKI: 0
ITLB WRITEBACK ACCESS:          0  HIT:          0  MISS:          0  HIT %:       -nan  MISS %:       -nan   MPKI: 0
DTLB TOTAL     ACCESS:   37146544  HIT:   36873562  MISS:     272982  HIT %:    99.2651  MISS %:   0.734879   MPKI: 1.36491
DTLB LOAD      ACCESS:          0  HIT:          0  MISS:          0  HIT %:       -nan  MISS %:       -nan   MPKI: 0
DTLB RFO       ACCESS:          0  HIT:          0  MISS:          0  HIT %:       -nan  MISS %:       -nan   MPKI: 0
DTLB PREFETCH  ACCESS:          0  HIT:          0  MISS:          0  HIT %:       -nan  MISS %:       -nan   MPKI: 0
DTLB WRITEBACK ACCESS:          0  HIT:          0  MISS:          0  HIT %:       -nan  MISS %:       -nan   MPKI: 0
STLB TOTAL     ACCESS:   20739941  HIT:   20560638  MISS:     179303  HIT %:    99.1355  MISS %:    0.86453   MPKI: 0.896515
STLB LOAD      ACCESS:          0  HIT:          0  MISS:          0  HIT %:       -nan  MISS %:       -nan   MPKI: 0
STLB RFO       ACCESS:          0  HIT:          0  MISS:          0  HIT %:       -nan  MISS %:       -nan   MPKI: 0
STLB PREFETCH  ACCESS:          0  HIT:          0  MISS:          0  HIT %:       -nan  MISS %:       -nan   MPKI: 0
STLB WRITEBACK ACCESS:          0  HIT:          0  MISS:          0  HIT %:       -nan  MISS %:       -nan   MPKI: 0
L1D TOTAL     ACCESS:  117752531  HIT:  112331460  MISS:    5421071  HIT %:    95.3962  MISS %:    4.60378   MPKI: 27.1054
L1D LOAD      ACCESS:   32759312  HIT:   29524312  MISS:    3235000  HIT %:    90.1249  MISS %:    9.87505   MPKI: 16.175
L1D RFO       ACCESS:    4469545  HIT:    4232232  MISS:     237313  HIT %:    94.6904  MISS %:    5.30956   MPKI: 1.18657
L1D PREFETCH  ACCESS:   80523674  HIT:   78574916  MISS:    1948758  HIT %:    97.5799  MISS %:    2.42011   MPKI: 9.74379
L1D WRITEBACK ACCESS:          0  HIT:          0  MISS:          0  HIT %:       -nan  MISS %:       -nan   MPKI: 0
L1I TOTAL     ACCESS:   42586606  HIT:   42586595  MISS:         11  HIT %:        100  MISS %: 2.58297e-05   MPKI: 5.5e-05
L1I LOAD      ACCESS:   42586606  HIT:   42586595  MISS:         11  HIT %:        100  MISS %: 2.58297e-05   MPKI: 5.5e-05
L1I RFO       ACCESS:          0  HIT:          0  MISS:          0  HIT %:       -nan  MISS %:       -nan   MPKI: 0
L1I PREFETCH  ACCESS:          0  HIT:          0  MISS:          0  HIT %:       -nan  MISS %:       -nan   MPKI: 0
L1I WRITEBACK ACCESS:          0  HIT:          0  MISS:          0  HIT %:       -nan  MISS %:       -nan   MPKI: 0
L2C TOTAL     ACCESS:   28059301  HIT:   21950199  MISS:    6109102  HIT %:    78.2279  MISS %:    21.7721   MPKI: 30.5455
L2C LOAD      ACCESS:    3156437  HIT:    1932156  MISS:    1224281  HIT %:    61.2132  MISS %:    38.7868   MPKI: 6.12141
L2C RFO       ACCESS:     237312  HIT:       6240  MISS:     231072  HIT %:    2.62945  MISS %:    97.3706   MPKI: 1.15536
L2C PREFETCH  ACCESS:   23772766  HIT:   19208811  MISS:    4563955  HIT %:    80.8018  MISS %:    19.1982   MPKI: 22.8198
L2C WRITEBACK ACCESS:     668250  HIT:     612117  MISS:      56133  HIT %:       91.6  MISS %:        8.4   MPKI: 0.280665
PSCL5 TOTAL     ACCESS:     223598  HIT:     223598  MISS:          0  HIT %:        100  MISS %:          0   MPKI: 0
PSCL5 LOAD      ACCESS:          0  HIT:          0  MISS:          0  HIT %:       -nan  MISS %:       -nan   MPKI: 0
PSCL5 RFO       ACCESS:          0  HIT:          0  MISS:          0  HIT %:       -nan  MISS %:       -nan   MPKI: 0
PSCL5 PREFETCH  ACCESS:          0  HIT:          0  MISS:          0  HIT %:       -nan  MISS %:       -nan   MPKI: 0
PSCL5 WRITEBACK ACCESS:          0  HIT:          0  MISS:          0  HIT %:       -nan  MISS %:       -nan   MPKI: 0
PSCL4 TOTAL     ACCESS:     223598  HIT:     223598  MISS:          0  HIT %:        100  MISS %:          0   MPKI: 0
PSCL4 LOAD      ACCESS:          0  HIT:          0  MISS:          0  HIT %:       -nan  MISS %:       -nan   MPKI: 0
PSCL4 RFO       ACCESS:          0  HIT:          0  MISS:          0  HIT %:       -nan  MISS %:       -nan   MPKI: 0
PSCL4 PREFETCH  ACCESS:          0  HIT:          0  MISS:          0  HIT %:       -nan  MISS %:       -nan   MPKI: 0
PSCL4 WRITEBACK ACCESS:          0  HIT:          0  MISS:          0  HIT %:       -nan  MISS %:       -nan   MPKI: 0
PSCL3 TOTAL     ACCESS:     223598  HIT:     223598  MISS:          0  HIT %:        100  MISS %:          0   MPKI: 0
PSCL3 LOAD      ACCESS:          0  HIT:          0  MISS:          0  HIT %:       -nan  MISS %:       -nan   MPKI: 0
PSCL3 RFO       ACCESS:          0  HIT:          0  MISS:          0  HIT %:       -nan  MISS %:       -nan   MPKI: 0
PSCL3 PREFETCH  ACCESS:          0  HIT:          0  MISS:          0  HIT %:       -nan  MISS %:       -nan   MPKI: 0
PSCL3 WRITEBACK ACCESS:          0  HIT:          0  MISS:          0  HIT %:       -nan  MISS %:       -nan   MPKI: 0
PSCL2 TOTAL     ACCESS:     223559  HIT:     222660  MISS:        899  HIT %:    99.5979  MISS %:   0.402131   MPKI: 0.004495
PSCL2 LOAD      ACCESS:          0  HIT:          0  MISS:          0  HIT %:       -nan  MISS %:       -nan   MPKI: 0
PSCL2 RFO       ACCESS:          0  HIT:          0  MISS:          0  HIT %:       -nan  MISS %:       -nan   MPKI: 0
PSCL2 PREFETCH  ACCESS:          0  HIT:          0  MISS:          0  HIT %:       -nan  MISS %:       -nan   MPKI: 0
PSCL2 WRITEBACK ACCESS:          0  HIT:          0  MISS:          0  HIT %:       -nan  MISS %:       -nan   MPKI: 0
LLC TOTAL     ACCESS:    6691236  HIT:    1221863  MISS:    5469373  HIT %:    18.2606  MISS %:    81.7394   MPKI: 27.3469
LLC LOAD      ACCESS:    1048526  HIT:     554360  MISS:     494166  HIT %:    52.8704  MISS %:    47.1296   MPKI: 2.47083
LLC RFO       ACCESS:     231070  HIT:       7298  MISS:     223772  HIT %:    3.15835  MISS %:    96.8416   MPKI: 1.11886
LLC PREFETCH  ACCESS:    4739711  HIT:      87007  MISS:    4652704  HIT %:     1.8357  MISS %:    98.1643   MPKI: 23.2635
LLC WRITEBACK ACCESS:     638268  HIT:     570641  MISS:      67627  HIT %:    89.4046  MISS %:    10.5954   MPKI: 0.338135

RAW hits: 252955
Loads Generated: 49553504
Loads sent to L1D: 49300548
Stores Generated: 7245109
Stores sent to L1D: 7245108

CPU 2 cumulative IPC: 0.617867 instructions: 477964812 cycles: 773571799
ITLB TOTAL     ACCESS:   83158977  HIT:   83158977  MISS:          0  HIT %:        100  MISS %:          0   MPKI: 0
ITLB LOAD      ACCESS:          0  HIT:          0  MISS:          0  HIT %:       -nan  MISS %:       -nan   MPKI: 0
ITLB RFO       ACCESS:          0  HIT:          0  MISS:          0  HIT %:       -nan  MISS %:       -nan   MPKI: 0
ITLB PREFETCH  ACCESS:          0  HIT:          0  MISS:          0  HIT %:       -nan  MISS %:       -nan   MPKI: 0
ITLB WRITEBACK ACCESS:          0  HIT:          0  MISS:          0  HIT %:       -nan  MISS %:       -nan   MPKI: 0
DTLB TOTAL     ACCESS:   73591233  HIT:   72538621  MISS:    1052612  HIT %:    98.5697  MISS %:    1.43035   MPKI: 2.20228
DTLB LOAD      ACCESS:          0  HIT:          0  MISS:          0  HIT %:       -nan  MISS %:       -nan   MPKI: 0
DTLB RFO       ACCESS:          0  HIT:          0  MISS:          0  HIT %:       -nan  MISS %:       -nan   MPKI: 0
DTLB PREFETCH  ACCESS:          0  HIT:          0  MISS:          0  HIT %:       -nan  MISS %:       -nan   MPKI: 0
DTLB WRITEBACK ACCESS:          0  HIT:          0  MISS:          0  HIT %:       -nan  MISS %:       -nan   MPKI: 0
STLB TOTAL     ACCESS:   36786549  HIT:   36473923  MISS:     312626  HIT %:    99.1502  MISS %:   0.849838   MPKI: 0.654077
STLB LOAD      ACCESS:          0  HIT:          0  MISS:          0  HIT %:       -nan  MISS %:       -nan   MPKI: 0
STLB RFO       ACCESS:          0  HIT:          0  MISS:          0  HIT %:       -nan  MISS %:       -nan   MPKI: 0
STLB PREFETCH  ACCESS:          0  HIT:          0  MISS:          0  HIT %:       -nan  MISS %:       -nan   MPKI: 0
STLB WRITEBACK ACCESS:          0  HIT:          0  MISS:          0  HIT %:       -nan  MISS %:       -nan   MPKI: 0
L1D TOTAL     ACCESS:  170534636  HIT:  161220261  MISS:    9314375  HIT %:    94.5381  MISS %:    5.46187   MPKI: 19.4876
L1D LOAD      ACCESS:   71240711  HIT:   66245114  MISS:    4995597  HIT %:    92.9877  MISS %:    7.01228   MPKI: 10.4518
L1D RFO       ACCESS:   13027366  HIT:   12555603  MISS:     471763  HIT %:    96.3787  MISS %:    3.62132   MPKI: 0.987025
L1D PREFETCH  ACCESS:   86266559  HIT:   82419544  MISS:    3847015  HIT %:    95.5405  MISS %:    4.45945   MPKI: 8.04874
L1D WRITEBACK ACCESS:          0  HIT:          0  MISS:          0  HIT %:       -nan  MISS %:       -nan   MPKI: 0
L1I TOTAL     ACCESS:   93641870  HIT:   93641264  MISS:        606  HIT %:    99.9994  MISS %: 0.000647146   MPKI: 0.00126788
L1I LOAD      ACCESS:   93641870  HIT:   93641264  MISS:        606  HIT %:    99.9994  MISS %: 0.000647146   MPKI: 0.00126788
L1I RFO       ACCESS:          0  HIT:          0  MISS:          0  HIT %:       -nan  MISS %:       -nan   MPKI: 0
L1I PREFETCH  ACCESS:          0  HIT:          0  MISS:          0  HIT %:       -nan  MISS %:       -nan   MPKI: 0
L1I WRITEBACK ACCESS:          0  HIT:          0  MISS:          0  HIT %:       -nan  MISS %:       -nan   MPKI: 0
L2C TOTAL     ACCESS:   56121020  HIT:   44755734  MISS:   11365286  HIT %:    79.7486  MISS %:    20.2514   MPKI: 23.7785
L2C LOAD      ACCESS:    4873552  HIT:    3156654  MISS:    1716898  HIT %:    64.7711  MISS %:    35.2289   MPKI: 3.5921
L2C RFO       ACCESS:     471703  HIT:     107000  MISS:     364703  HIT %:    22.6838  MISS %:    77.3162   MPKI: 0.763033
L2C PREFETCH  ACCESS:   49352862  HIT:   40176562  MISS:    9176300  HIT %:    81.4068  MISS %:    18.5932   MPKI: 19.1987
L2C WRITEBACK ACCESS:     864451  HIT:     819839  MISS:      44612  HIT %:    94.8393  MISS %:    5.16073   MPKI: 0.0933374
PSCL5 TOTAL     ACCESS:     558452  HIT:     558452  MISS:          0  HIT %:        100  MISS %:          0   MPKI: 0
PSCL5 LOAD      ACCESS:          0  HIT:          0  MISS:          0  HIT %:       -nan  MISS %:       -nan   MPKI: 0
PSCL5 RFO       ACCESS:          0  HIT:          0  MISS:          0  HIT %:       -nan  MISS %:       -nan   MPKI: 0
PSCL5 PREFETCH  ACCESS:          0  HIT:          0  MISS:          0  HIT %:       -nan  MISS %:       -nan   MPKI: 0
PSCL5 WRITEBACK ACCESS:          0  HIT:          0  MISS:          0  HIT %:       -nan  MISS %:       -nan   MPKI: 0
PSCL4 TOTAL     ACCESS:     558452  HIT:     558452  MISS:          0  HIT %:        100  MISS %:          0   MPKI: 0
PSCL4 LOAD      ACCESS:          0  HIT:          0  MISS:          0  HIT %:       -nan  MISS %:       -nan   MPKI: 0
PSCL4 RFO       ACCESS:          0  HIT:          0  MISS:          0  HIT %:       -nan  MISS %:       -nan   MPKI: 0
PSCL4 PREFETCH  ACCESS:          0  HIT:          0  MISS:          0  HIT %:       -nan  MISS %:       -nan   MPKI: 0
PSCL4 WRITEBACK ACCESS:          0  HIT:          0  MISS:          0  HIT %:       -nan  MISS %:       -nan   MPKI: 0
PSCL3 TOTAL     ACCESS:     558452  HIT:     558452  MISS:          0  HIT %:        100  MISS %:          0   MPKI: 0
PSCL3 LOAD      ACCESS:          0  HIT:          0  MISS:          0  HIT %:       -nan  MISS %:       -nan   MPKI: 0
PSCL3 RFO       ACCESS:          0  HIT:          0  MISS:          0  HIT %:       -nan  MISS %:       -nan   MPKI: 0
PSCL3 PREFETCH  ACCESS:          0  HIT:          0  MISS:          0  HIT %:       -nan  MISS %:       -nan   MPKI: 0
PSCL3 WRITEBACK ACCESS:          0  HIT:          0  MISS:          0  HIT %:       -nan  MISS %:       -nan   MPKI: 0
PSCL2 TOTAL     ACCESS:     558294  HIT:     558294  MISS:          0  HIT %:        100  MISS %:          0   MPKI: 0
PSCL2 LOAD      ACCESS:          0  HIT:          0  MISS:          0  HIT %:       -nan  MISS %:       -nan   MPKI: 0
PSCL2 RFO       ACCESS:          0  HIT:          0  MISS:          0  HIT %:       -nan  MISS %:       -nan   MPKI: 0
PSCL2 PREFETCH  ACCESS:          0  HIT:          0  MISS:          0  HIT %:       -nan  MISS %:       -nan   MPKI: 0
PSCL2 WRITEBACK ACCESS:          0  HIT:          0  MISS:          0  HIT %:       -nan  MISS %:       -nan   MPKI: 0
LLC TOTAL     ACCESS:   12022116  HIT:    2028164  MISS:    9993952  HIT %:    16.8703  MISS %:    83.1297   MPKI: 20.9094
LLC LOAD      ACCESS:    1481186  HIT:     646242  MISS:     834944  HIT %:      43.63  MISS %:      56.37   MPKI: 1.74687
LLC RFO       ACCESS:     364606  HIT:     124682  MISS:     239924  HIT %:    34.1964  MISS %:    65.8036   MPKI: 0.50197
LLC PREFETCH  ACCESS:    9412093  HIT:     562517  MISS:    8849576  HIT %:    5.97653  MISS %:    94.0235   MPKI: 18.5151
LLC WRITEBACK ACCESS:     701458  HIT:     683216  MISS:      18242  HIT %:    97.3994  MISS %:    2.60058   MPKI: 0.038166

RAW hits: 977628
Loads Generated: 126962204
Loads sent to L1D: 125984576
Stores Generated: 15099674
Stores sent to L1D: 15099674

CPU 3 cumulative IPC: 0.859815 instructions: 665128310 cycles: 773571799
ITLB TOTAL     ACCESS:  103575764  HIT:  103575754  MISS:         10  HIT %:        100  MISS %: 9.65477e-06   MPKI: 1.50347e-05
ITLB LOAD      ACCESS:          0  HIT:          0  MISS:          0  HIT %:       -nan  MISS %:       -nan   MPKI: 0
ITLB RFO       ACCESS:          0  HIT:          0  MISS:          0  HIT %:       -nan  MISS %:       -nan   MPKI: 0
ITLB PREFETCH  ACCESS:          0  HIT:          0  MISS:          0  HIT %:       -nan  MISS %:       -nan   MPKI: 0
ITLB WRITEBACK ACCESS:          0  HIT:          0  MISS:          0  HIT %:       -nan  MISS %:       -nan   MPKI: 0
DTLB TOTAL     ACCESS:  266935281  HIT:  265933809  MISS:    1001472  HIT %:    99.6248  MISS %:   0.375174   MPKI: 1.50568
DTLB LOAD      ACCESS:          0  HIT:          0  MISS:          0  HIT %:       -nan  MISS %:       -nan   MPKI: 0
DTLB RFO       ACCESS:          0  HIT:          0  MISS:          0  HIT %:       -nan  MISS %:       -nan   MPKI: 0
DTLB PREFETCH  ACCESS:          0  HIT:          0  MISS:          0  HIT %:       -nan  MISS %:       -nan   MPKI: 0
DTLB WRITEBACK ACCESS:          0  HIT:          0  MISS:          0  HIT %:       -nan  MISS %:       -nan   MPKI: 0
STLB TOTAL     ACCESS:   83235698  HIT:   82642799  MISS:     592899  HIT %:    99.2877  MISS %:   0.712313   MPKI: 0.891405
STLB LOAD      ACCESS:          0  HIT:          0  MISS:          0  HIT %:       -nan  MISS %:       -nan   MPKI: 0
STLB RFO       ACCESS:          0  HIT:          0  MISS:          0  HIT %:       -nan  MISS %:       -nan   MPKI: 0
STLB PREFETCH  ACCESS:          0  HIT:          0  MISS:          0  HIT %:       -nan  MISS %:       -nan   MPKI: 0
STLB WRITEBACK ACCESS:          0  HIT:          0  MISS:          0  HIT %:       -nan  MISS %:       -nan   MPKI: 0
L1D TOTAL     ACCESS:  492169673  HIT:  480710814  MISS:   11458859  HIT %:    97.6718  MISS %:    2.32823   MPKI: 17.228
L1D LOAD      ACCESS:  266509914  HIT:  265138543  MISS:    1371371  HIT %:    99.4854  MISS %:   0.514567   MPKI: 2.06181
L1D RFO       ACCESS:   46726971  HIT:   46726897  MISS:         74  HIT %:    99.9998  MISS %: 0.000158367   MPKI: 0.000111257
L1D PREFETCH  ACCESS:  178932788  HIT:  168845374  MISS:   10087414  HIT %:    94.3625  MISS %:    5.63754   MPKI: 15.1661
L1D WRITEBACK ACCESS:          0  HIT:          0  MISS:          0  HIT %:       -nan  MISS %:       -nan   MPKI: 0
L1I TOTAL     ACCESS:  134195646  HIT:  134195322  MISS:        324  HIT %:    99.9998  MISS %: 0.000241439   MPKI: 0.000487124
L1I LOAD      ACCESS:  134195646  HIT:  134195322  MISS:        324  HIT %:    99.9998  MISS %: 0.000241439   MPKI: 0.000487124
L1I RFO       ACCESS:          0  HIT:          0  MISS:          0  HIT %:       -nan  MISS %:       -nan   MPKI: 0
L1I PREFETCH  ACCESS:          0  HIT:          0  MISS:          0  HIT %:       -nan  MISS %:       -nan   MPKI: 0
L1I WRITEBACK ACCESS:          0  HIT:          0  MISS:          0  HIT %:       -nan  MISS %:       -nan   MPKI: 0
L2C TOTAL     ACCESS:   76996795  HIT:   64615742  MISS:   12381053  HIT %:      83.92  MISS %:      16.08   MPKI: 18.6145
L2C LOAD      ACCESS:    1184941  HIT:     725621  MISS:     459320  HIT %:    61.2369  MISS %:    38.7631   MPKI: 0.690574
L2C RFO       ACCESS:         73  HIT:         33  MISS:         40  HIT %:    45.2055  MISS %:    54.7945   MPKI: 6.01388e-05
L2C PREFETCH  ACCESS:   56805141  HIT:   45109467  MISS:   11695674  HIT %:    79.4109  MISS %:    20.5891   MPKI: 17.5841
L2C WRITEBACK ACCESS:    4328417  HIT:    4185337  MISS:     143080  HIT %:    96.6944  MISS %:     3.3056   MPKI: 0.215116
PSCL5 TOTAL     ACCESS:    9684758  HIT:    9684758  MISS:          0  HIT %:        100  MISS %:          0   MPKI: 0
PSCL5 LOAD      ACCESS:          0  HIT:          0  MISS:          0  HIT %:       -nan  MISS %:       -nan   MPKI: 0
PSCL5 RFO       ACCESS:          0  HIT:          0  MISS:          0  HIT %:       -nan  MISS %:       -nan   MPKI: 0
PSCL5 PREFETCH  ACCESS:          0  HIT:          0  MISS:          0  HIT %:       -nan  MISS %:       -nan   MPKI: 0
PSCL5 WRITEBACK ACCESS:          0  HIT:          0  MISS:          0  HIT %:       -nan  MISS %:       -nan   MPKI: 0
PSCL4 TOTAL     ACCESS:    9684758  HIT:    9684758  MISS:          0  HIT %:        100  MISS %:          0   MPKI: 0
PSCL4 LOAD      ACCESS:          0  HIT:          0  MISS:          0  HIT %:       -nan  MISS %:       -nan   MPKI: 0
PSCL4 RFO       ACCESS:          0  HIT:          0  MISS:          0  HIT %:       -nan  MISS %:       -nan   MPKI: 0
PSCL4 PREFETCH  ACCESS:          0  HIT:          0  MISS:          0  HIT %:       -nan  MISS %:       -nan   MPKI: 0
PSCL4 WRITEBACK ACCESS:          0  HIT:          0  MISS:          0  HIT %:       -nan  MISS %:       -nan   MPKI: 0
PSCL3 TOTAL     ACCESS:    9684758  HIT:    9684758  MISS:          0  HIT %:        100  MISS %:          0   MPKI: 0
PSCL3 LOAD      ACCESS:          0  HIT:          0  MISS:          0  HIT %:       -nan  MISS %:       -nan   MPKI: 0
PSCL3 RFO       ACCESS:          0  HIT:          0  MISS:          0  HIT %:       -nan  MISS %:       -nan   MPKI: 0
PSCL3 PREFETCH  ACCESS:          0  HIT:          0  MISS:          0  HIT %:       -nan  MISS %:       -nan   MPKI: 0
PSCL3 WRITEBACK ACCESS:          0  HIT:          0  MISS:          0  HIT %:       -nan  MISS %:       -nan   MPKI: 0
PSCL2 TOTAL     ACCESS:    4688787  HIT:    4686348  MISS:       2439  HIT %:     99.948  MISS %:  0.0520177   MPKI: 0.00366696
PSCL2 LOAD      ACCESS:          0  HIT:          0  MISS:          0  HIT %:       -nan  MISS %:       -nan   MPKI: 0
PSCL2 RFO       ACCESS:          0  HIT:          0  MISS:          0  HIT %:       -nan  MISS %:       -nan   MPKI: 0
PSCL2 PREFETCH  ACCESS:          0  HIT:          0  MISS:          0  HIT %:       -nan  MISS %:       -nan   MPKI: 0
PSCL2 WRITEBACK ACCESS:          0  HIT:          0  MISS:          0  HIT %:       -nan  MISS %:       -nan   MPKI: 0
LLC TOTAL     ACCESS:   16563840  HIT:    6026436  MISS:   10537404  HIT %:    36.3831  MISS %:    63.6169   MPKI: 15.8427
LLC LOAD      ACCESS:     397236  HIT:      33182  MISS:     364054  HIT %:    8.35322  MISS %:    91.6468   MPKI: 0.547344
LLC RFO       ACCESS:         40  HIT:          7  MISS:         33  HIT %:       17.5  MISS %:       82.5   MPKI: 4.96145e-05
LLC PREFETCH  ACCESS:   11757758  HIT:    1742913  MISS:   10014845  HIT %:    14.8235  MISS %:    85.1765   MPKI: 15.057
LLC WRITEBACK ACCESS:    4325867  HIT:    4248397  MISS:      77470  HIT %:    98.2091  MISS %:    1.79085   MPKI: 0.116474

RAW hits: 19674629
Loads Generated: 353877633
Loads sent to L1D: 334203002
Stores Generated: 46727012
Stores sent to L1D: 46727015

Region of Interest Statistics

CPU 0 cumulative IPC: 1.37339 instructions: 200000002 cycles: 145624635
ITLB TOTAL     ACCESS:   43367246  HIT:   43367246  MISS:          0  HIT %:        100  MISS %:          0   MPKI: 0
ITLB LOAD TRANSLATION ACCESS:   43367246  HIT:   43367246  MISS:          0  HIT %:        100  MISS %:          0   MPKI: 0
ITLB PREFETCH  REQUESTED:          0  ISSUED:          0  USEFUL:          0  USELESS:          0
ITLB USEFUL LOAD PREFETCHES:          0 PREFETCH ISSUED TO LOWER LEVEL:          0  ACCURACY: -nan
ITLB TIMELY PREFETCHES:          0 LATE PREFETCHES: 0 DROPPED PREFETCHES: 0
ITLB PREFETCHES SAME FILL-ORIGIN LEVEL: 0 DIFFERENT FILL-ORIGIN LEVEL: 0
ITLB AVERAGE MISS LATENCY: -nan cycles
ITLB RQ	ACCESS:  251562078	FORWARD:          0	MERGED:    3129854	TO_CACHE:  248432224

DTLB TOTAL     ACCESS:   14873337  HIT:   14866196  MISS:       7141  HIT %:     99.952  MISS %:  0.0480121   MPKI: 0.035705
DTLB LOAD TRANSLATION ACCESS:   14873337  HIT:   14866196  MISS:       7141  HIT %:     99.952  MISS %:  0.0480121   MPKI: 0.035705
DTLB PREFETCH  REQUESTED:          0  ISSUED:          0  USEFUL:          0  USELESS:          0
DTLB USEFUL LOAD PREFETCHES:          0 PREFETCH ISSUED TO LOWER LEVEL:          0  ACCURACY: -nan
DTLB TIMELY PREFETCHES:          0 LATE PREFETCHES: 0 DROPPED PREFETCHES: 0
DTLB PREFETCHES SAME FILL-ORIGIN LEVEL: 0 DIFFERENT FILL-ORIGIN LEVEL: 0
DTLB AVERAGE MISS LATENCY: 164.385 cycles
DTLB RQ	ACCESS:   87297948	FORWARD:          0	MERGED:    5072600	TO_CACHE:   82225348

STLB TOTAL     ACCESS:    7035181  HIT:    7028040  MISS:       7141  HIT %:    99.8985  MISS %:   0.101504   MPKI: 0.035705
STLB LOAD TRANSLATION ACCESS:       7141  HIT:          0  MISS:       7141  HIT %:          0  MISS %:        100   MPKI: 0.035705
STLB TRANSLATION FROM L1D PREFETCHER ACCESS:    7028040  HIT:    7028040  MISS:          0  HIT %:        100  MISS %:          0   MPKI: 0
STLB PREFETCH  REQUESTED:          0  ISSUED:          0  USEFUL:      33518  USELESS:          0
STLB USEFUL LOAD PREFETCHES:      33518 PREFETCH ISSUED TO LOWER LEVEL:          0  ACCURACY: inf
STLB TIMELY PREFETCHES:      33518 LATE PREFETCHES: 1955 DROPPED PREFETCHES: 376282
STLB PREFETCHES SAME FILL-ORIGIN LEVEL: 0 DIFFERENT FILL-ORIGIN LEVEL: 0
STLB AVERAGE MISS LATENCY: 625.667 cycles
STLB RQ	ACCESS:  288991305	FORWARD:          0	MERGED:  244906788	TO_CACHE:   44084517

STLB Hit, L1D data hit: 0
STLB Hit, L2C data hit: 0
STLB Hit, LLC data hit: 0
STLB Hit, LLC data miss: 0
STLB STLB hints to L2: 0
L1D TOTAL     ACCESS:   49736169  HIT:   49279125  MISS:     457044  HIT %:    99.0811  MISS %:   0.918937   MPKI: 2.28522
L1D LOAD      ACCESS:   10787614  HIT:   10768994  MISS:      18620  HIT %:    99.8274  MISS %:   0.172605   MPKI: 0.0931
L1D RFO       ACCESS:    4898898  HIT:    4898898  MISS:          0  HIT %:        100  MISS %:          0   MPKI: 0
L1D PREFETCH  ACCESS:   34049657  HIT:   33611233  MISS:     438424  HIT %:    98.7124  MISS %:     1.2876   MPKI: 2.19212
L1D PREFETCH  REQUESTED: 1141195561  ISSUED: 1141195140  USEFUL:    2545447  USELESS:         32
L1D USEFUL LOAD PREFETCHES:    2545447 PREFETCH ISSUED TO LOWER LEVEL:   10880876  ACCURACY: 23.3938
L1D TIMELY PREFETCHES:    2545447 LATE PREFETCHES: 57516 DROPPED PREFETCHES: 1713156
L1D PREFETCHES SAME FILL-ORIGIN LEVEL: 2602995 DIFFERENT FILL-ORIGIN LEVEL: 8277881
L1D AVERAGE MISS LATENCY: 3470.47 cycles
L1D RQ	ACCESS:  166981128	FORWARD:          0	MERGED:  105525958	TO_CACHE:   61455170
L1D WQ	ACCESS:   25842778	FORWARD:          0	MERGED:          0	TO_CACHE:   25842778
L1D PQ	ACCESS:  852244606	FORWARD:          0	MERGED:  563294072	TO_CACHE:  288950534

L1D UNIQUE REGIONS ACCESSED: 0
L1D REGIONS CONFLICTS: 0
L1D Cross Page Prefetch Requests: 65405243
L1D Same Page Prefetch Requests: 890566551
L1D ROI Sum of L1D PQ occupancy: 3403235425
L1D PREFETCHES PUSHED FROM L2C: 0
L1I TOTAL     ACCESS:   44146661  HIT:   44146661  MISS:          0  HIT %:        100  MISS %:          0   MPKI: 0
L1I LOAD      ACCESS:   44146661  HIT:   44146661  MISS:          0  HIT %:        100  MISS %:          0   MPKI: 0
L1I PREFETCH  REQUESTED:          0  ISSUED:          0  USEFUL:          0  USELESS:          0
L1I USEFUL LOAD PREFETCHES:          0 PREFETCH ISSUED TO LOWER LEVEL:          0  ACCURACY: -nan
L1I TIMELY PREFETCHES:          0 LATE PREFETCHES: 0 DROPPED PREFETCHES: 0
L1I PREFETCHES SAME FILL-ORIGIN LEVEL: 0 DIFFERENT FILL-ORIGIN LEVEL: 0
L1I AVERAGE MISS LATENCY: -nan cycles
L1I RQ	ACCESS:  344470464	FORWARD:          0	MERGED:   92908386	TO_CACHE:  251562078

BTB TOTAL     ACCESS:   58501726  HIT:   58501724  MISS:          2  HIT %:        100  MISS %: 3.4187e-06   MPKI: 1e-05
BTB BRANCH_DIRECT_JUMP	ACCESS:          0  HIT:          0  MISS:          0
BTB BRANCH_INDIRECT	ACCESS:          0  HIT:          0  MISS:          0
BTB BRANCH_CONDITIONAL	ACCESS:   58501726  HIT:   58501724  MISS:          2
BTB BRANCH_DIRECT_CALL	ACCESS:          0  HIT:          0  MISS:          0
BTB BRANCH_INDIRECT_CALL	ACCESS:          0  HIT:          0  MISS:          0
BTB BRANCH_RETURN	ACCESS:          0  HIT:          0  MISS:          0
BTB BRANCH_OTHER ACCESS:          0  HIT:          0  MISS:          0

L2C TOTAL     ACCESS:    1750560  HIT:    1246239  MISS:     504321  HIT %:    71.1909  MISS %:    28.8091   MPKI: 2.5216
L2C LOAD      ACCESS:       6092  HIT:         37  MISS:       6055  HIT %:   0.607354  MISS %:    99.3926   MPKI: 0.030275
L2C DATA LOAD MPKI: 0.030275
L2C INSTRUCTION LOAD MPKI: 0
L2C PREFETCH  ACCESS:     902154  HIT:     451165  MISS:     450989  HIT %:    50.0098  MISS %:    49.9902   MPKI: 2.25494
L2C DATA PREFETCH MPKI: 2.25494
L2C INSTRUCTION PREFETCH MPKI: 0
L2C WRITEBACK ACCESS:     457044  HIT:     410673  MISS:      46371  HIT %:    89.8541  MISS %:    10.1459   MPKI: 0.231855
L2C LOAD TRANSLATION ACCESS:       7141  HIT:       7141  MISS:          0  HIT %:        100  MISS %:          0   MPKI: 0
L2C TRANSLATION FROM L1D PREFETCHER ACCESS:     378129  HIT:     377223  MISS:        906  HIT %:    99.7604  MISS %:   0.239601   MPKI: 0.00453
L2C PREFETCH  REQUESTED:          0  ISSUED:          0  USEFUL:       5172  USELESS:    2603046
L2C USEFUL LOAD PREFETCHES:       5172 PREFETCH ISSUED TO LOWER LEVEL:    2603065  ACCURACY: 0.198689
L2C TIMELY PREFETCHES:       5172 LATE PREFETCHES: 10 DROPPED PREFETCHES: 0
L2C PREFETCHES SAME FILL-ORIGIN LEVEL: 335812 DIFFERENT FILL-ORIGIN LEVEL: 0
L2C AVERAGE MISS LATENCY: 3625.8 cycles
L2C RQ	ACCESS:     425021	FORWARD:          0	MERGED:          0	TO_CACHE:     425021
L2C WQ	ACCESS:    2609079	FORWARD:          0	MERGED:          0	TO_CACHE:    2609079
L2C PQ	ACCESS:   10880876	FORWARD:          0	MERGED:      10016	TO_CACHE:   10870860

L2C Instructions Evicting Data 0
L2C Translations Evicting Data 5126
L2C Data Evicting Data 2604423
L2C Instructions Evicting Instructions 0
L2C Translations Evicting Instructions 0
L2C Data Evicting Instructions 0
L2C Instructions Evicting Translations 0
L2C Translations Evicting Translations 3
L2C Data Evicting Translations 4686
L2C Dense regions hint from L2: 0
PSCL5 TOTAL     ACCESS:     385270  HIT:     385270  MISS:          0  HIT %:        100  MISS %:          0   MPKI: 0
PSCL5 LOAD TRANSLATION ACCESS:       7141  HIT:       7141  MISS:          0  HIT %:        100  MISS %:          0   MPKI: 0
PSCL5 TRANSLATION FROM L1D PREFETCHER ACCESS:     378129  HIT:     378129  MISS:          0  HIT %:        100  MISS %:          0   MPKI: 0
PSCL5 PREFETCH  REQUESTED:          0  ISSUED:          0  USEFUL:          0  USELESS:          0
PSCL5 USEFUL LOAD PREFETCHES:          0 PREFETCH ISSUED TO LOWER LEVEL:          0  ACCURACY: -nan
PSCL5 TIMELY PREFETCHES:          0 LATE PREFETCHES: 0 DROPPED PREFETCHES: 0
PSCL5 PREFETCHES SAME FILL-ORIGIN LEVEL: 0 DIFFERENT FILL-ORIGIN LEVEL: 0

PSCL4 TOTAL     ACCESS:     385270  HIT:     385270  MISS:          0  HIT %:        100  MISS %:          0   MPKI: 0
PSCL4 LOAD TRANSLATION ACCESS:       7141  HIT:       7141  MISS:          0  HIT %:        100  MISS %:          0   MPKI: 0
PSCL4 TRANSLATION FROM L1D PREFETCHER ACCESS:     378129  HIT:     378129  MISS:          0  HIT %:        100  MISS %:          0   MPKI: 0
PSCL4 PREFETCH  REQUESTED:          0  ISSUED:          0  USEFUL:          0  USELESS:          0
PSCL4 USEFUL LOAD PREFETCHES:          0 PREFETCH ISSUED TO LOWER LEVEL:          0  ACCURACY: -nan
PSCL4 TIMELY PREFETCHES:          0 LATE PREFETCHES: 0 DROPPED PREFETCHES: 0
PSCL4 PREFETCHES SAME FILL-ORIGIN LEVEL: 0 DIFFERENT FILL-ORIGIN LEVEL: 0

PSCL3 TOTAL     ACCESS:     385270  HIT:     385270  MISS:          0  HIT %:        100  MISS %:          0   MPKI: 0
PSCL3 LOAD TRANSLATION ACCESS:       7141  HIT:       7141  MISS:          0  HIT %:        100  MISS %:          0   MPKI: 0
PSCL3 TRANSLATION FROM L1D PREFETCHER ACCESS:     378129  HIT:     378129  MISS:          0  HIT %:        100  MISS %:          0   MPKI: 0
PSCL3 PREFETCH  REQUESTED:          0  ISSUED:          0  USEFUL:          0  USELESS:          0
PSCL3 USEFUL LOAD PREFETCHES:          0 PREFETCH ISSUED TO LOWER LEVEL:          0  ACCURACY: -nan
PSCL3 TIMELY PREFETCHES:          0 LATE PREFETCHES: 0 DROPPED PREFETCHES: 0
PSCL3 PREFETCHES SAME FILL-ORIGIN LEVEL: 0 DIFFERENT FILL-ORIGIN LEVEL: 0

PSCL2 TOTAL     ACCESS:     384765  HIT:     384751  MISS:         14  HIT %:    99.9964  MISS %: 0.00363858   MPKI: 7e-05
PSCL2 LOAD TRANSLATION ACCESS:       7141  HIT:       7127  MISS:         14  HIT %:    99.8039  MISS %:   0.196051   MPKI: 7e-05
PSCL2 TRANSLATION FROM L1D PREFETCHER ACCESS:     377624  HIT:     377624  MISS:          0  HIT %:        100  MISS %:          0   MPKI: 0
PSCL2 PREFETCH  REQUESTED:          0  ISSUED:          0  USEFUL:          0  USELESS:          0
PSCL2 USEFUL LOAD PREFETCHES:          0 PREFETCH ISSUED TO LOWER LEVEL:          0  ACCURACY: -nan
PSCL2 TIMELY PREFETCHES:          0 LATE PREFETCHES: 0 DROPPED PREFETCHES: 0
PSCL2 PREFETCHES SAME FILL-ORIGIN LEVEL: 0 DIFFERENT FILL-ORIGIN LEVEL: 0

LLC TOTAL     ACCESS:     915011  HIT:     269034  MISS:     645977  HIT %:    29.4023  MISS %:    70.5977   MPKI: 3.22988
LLC LOAD      ACCESS:       6045  HIT:          0  MISS:       6045  HIT %:          0  MISS %:        100   MPKI: 0.030225
LLC PREFETCH  ACCESS:     450999  HIT:          0  MISS:     450999  HIT %:          0  MISS %:        100   MPKI: 2.25499
LLC WRITEBACK ACCESS:     457061  HIT:     269034  MISS:     188027  HIT %:    58.8617  MISS %:    41.1383   MPKI: 0.940135
LLC TRANSLATION FROM L1D PREFETCHER ACCESS:        906  HIT:          0  MISS:        906  HIT %:          0  MISS %:        100   MPKI: 0.00453
[...]
L2C PREFETCH  REQUESTED:          0  ISSUED:          0  USEFUL:    1675671  USELESS:    7530188
L2C USEFUL LOAD PREFETCHES:    1675671 PREFETCH ISSUED TO LOWER LEVEL:    9412112  ACCURACY: 17.8033
L2C TIMELY PREFETCHES:    1675671 LATE PREFETCHES: 235797 DROPPED PREFETCHES: 0
L2C PREFETCHES SAME FILL-ORIGIN LEVEL: 7865734 DIFFERENT FILL-ORIGIN LEVEL: 0
L2C AVERAGE MISS LATENCY: 1465.3 cycles
L2C RQ	ACCESS:    5903752	FORWARD:          0	MERGED:          0	TO_CACHE:    5903710
L2C WQ	ACCESS:     864451	FORWARD:         56	MERGED:          0	TO_CACHE:     864451
L2C PQ	ACCESS:   63408735	FORWARD:          0	MERGED:     770749	TO_CACHE:   62637972

L2C Instructions Evicting Data 595
L2C Translations Evicting Data 62405
L2C Data Evicting Data 11194608
L2C Instructions Evicting Instructions 6
L2C Translations Evicting Instructions 1
L2C Data Evicting Instructions 592
L2C Instructions Evicting Translations 5
L2C Translations Evicting Translations 367
L2C Data Evicting Translations 62095
L2C Dense regions hint from L2: 0
PSCL5 TOTAL     ACCESS:     259905  HIT:     259905  MISS:          0  HIT %:        100  MISS %:          0   MPKI: 0
PSCL5 LOAD TRANSLATION ACCESS:      58474  HIT:      58474  MISS:          0  HIT %:        100  MISS %:          0   MPKI: 0
PSCL5 TRANSLATION FROM L1D PREFETCHER ACCESS:     201431  HIT:     201431  MISS:          0  HIT %:        100  MISS %:          0   MPKI: 0
PSCL5 PREFETCH  REQUESTED:          0  ISSUED:          0  USEFUL:          0  USELESS:          0
PSCL5 USEFUL LOAD PREFETCHES:          0 PREFETCH ISSUED TO LOWER LEVEL:          0  ACCURACY: -nan
PSCL5 TIMELY PREFETCHES:          0 LATE PREFETCHES: 0 DROPPED PREFETCHES: 0
PSCL5 PREFETCHES SAME FILL-ORIGIN LEVEL: 0 DIFFERENT FILL-ORIGIN LEVEL: 0

PSCL4 TOTAL     ACCESS:     259905  HIT:     259905  MISS:          0  HIT %:        100  MISS %:          0   MPKI: 0
PSCL4 LOAD TRANSLATION ACCESS:      58474  HIT:      58474  MISS:          0  HIT %:        100  MISS %:          0   MPKI: 0
PSCL4 TRANSLATION FROM L1D PREFETCHER ACCESS:     201431  HIT:     201431  MISS:          0  HIT %:        100  MISS %:          0   MPKI: 0
PSCL4 PREFETCH  REQUESTED:          0  ISSUED:          0  USEFUL:          0  USELESS:          0
PSCL4 USEFUL LOAD PREFETCHES:          0 PREFETCH ISSUED TO LOWER LEVEL:          0  ACCURACY: -nan
PSCL4 TIMELY PREFETCHES:          0 LATE PREFETCHES: 0 DROPPED PREFETCHES: 0
PSCL4 PREFETCHES SAME FILL-ORIGIN LEVEL: 0 DIFFERENT FILL-ORIGIN LEVEL: 0

PSCL3 TOTAL     ACCESS:     259905  HIT:     259905  MISS:          0  HIT %:        100  MISS %:          0   MPKI: 0
PSCL3 LOAD TRANSLATION ACCESS:      58474  HIT:      58474  MISS:          0  HIT %:        100  MISS %:          0   MPKI: 0
PSCL3 TRANSLATION FROM L1D PREFETCHER ACCESS:     201431  HIT:     201431  MISS:          0  HIT %:        100  MISS %:          0   MPKI: 0
PSCL3 PREFETCH  REQUESTED:          0  ISSUED:          0  USEFUL:          0  USELESS:          0
PSCL3 USEFUL LOAD PREFETCHES:          0 PREFETCH ISSUED TO LOWER LEVEL:          0  ACCURACY: -nan
PSCL3 TIMELY PREFETCHES:          0 LATE PREFETCHES: 0 DROPPED PREFETCHES: 0
PSCL3 PREFETCHES SAME FILL-ORIGIN LEVEL: 0 DIFFERENT FILL-ORIGIN LEVEL: 0

PSCL2 TOTAL     ACCESS:     259837  HIT:     259837  MISS:          0  HIT %:        100  MISS %:          0   MPKI: 0
PSCL2 LOAD TRANSLATION ACCESS:      58474  HIT:      58474  MISS:          0  HIT %:        100  MISS %:          0   MPKI: 0
PSCL2 TRANSLATION FROM L1D PREFETCHER ACCESS:     201363  HIT:     201363  MISS:          0  HIT %:        100  MISS %:          0   MPKI: 0
PSCL2 PREFETCH  REQUESTED:          0  ISSUED:          0  USEFUL:          0  USELESS:          0
PSCL2 USEFUL LOAD PREFETCHES:          0 PREFETCH ISSUED TO LOWER LEVEL:          0  ACCURACY: -nan
PSCL2 TIMELY PREFETCHES:          0 LATE PREFETCHES: 0 DROPPED PREFETCHES: 0
PSCL2 PREFETCHES SAME FILL-ORIGIN LEVEL: 0 DIFFERENT FILL-ORIGIN LEVEL: 0

LLC TOTAL     ACCESS:    4973660  HIT:     791099  MISS:    4182561  HIT %:    15.9058  MISS %:    84.0942   MPKI: 20.9128
LLC LOAD      ACCESS:     609476  HIT:     235297  MISS:     374179  HIT %:    38.6064  MISS %:    61.3936   MPKI: 1.87089
LLC RFO       ACCESS:     158976  HIT:      49674  MISS:     109302  HIT %:    31.2462  MISS %:    68.7538   MPKI: 0.54651
LLC PREFETCH  ACCESS:    3887715  HIT:     227005  MISS:    3660710  HIT %:    5.83903  MISS %:     94.161   MPKI: 18.3036
LLC WRITEBACK ACCESS:     290170  HIT:     274495  MISS:      15675  HIT %:     94.598  MISS %:    5.40201   MPKI: 0.078375
LLC LOAD TRANSLATION ACCESS:      14723  HIT:       2225  MISS:      12498  HIT %:    15.1124  MISS %:    84.8876   MPKI: 0.06249
LLC TRANSLATION FROM L1D PREFETCHER ACCESS:      12600  HIT:       2403  MISS:      10197  HIT %:    19.0714  MISS %:    80.9286   MPKI: 0.050985
LLC PREFETCH  REQUESTED:          0  ISSUED:          0  USEFUL:      81988  USELESS:   26156775
LLC USEFUL LOAD PREFETCHES:      81988 PREFETCH ISSUED TO LOWER LEVEL:   46848563  ACCURACY: 0.175006
LLC TIMELY PREFETCHES:      81988 LATE PREFETCHES: 0 DROPPED PREFETCHES: 0
LLC PREFETCHES SAME FILL-ORIGIN LEVEL: 0 DIFFERENT FILL-ORIGIN LEVEL: 0
LLC AVERAGE MISS LATENCY: 4514.85 cycles
LLC RQ	ACCESS:    3713230	FORWARD:          0	MERGED:          0	TO_CACHE:    3713218
LLC WQ	ACCESS:    8274690	FORWARD:         17	MERGED:          0	TO_CACHE:    8274690
LLC PQ	ACCESS:   28512658	FORWARD:          0	MERGED:          0	TO_CACHE:   28512653

LLC Dense regions hint to LLC: 0

RAW hits: 408031
Loads Generated: 52944641
Loads sent to L1D: 52536608
Stores Generated: 6390788
Stores sent to L1D: 6390788
Major fault: 0 Minor fault: 4449
Allocated PAGES: 204280

CPU 3 cumulative IPC: 0.886638 instructions: 200000000 cycles: 225571222
ITLB TOTAL     ACCESS:   28936275  HIT:   28936275  MISS:          0  HIT %:        100  MISS %:          0   MPKI: 0
ITLB LOAD TRANSLATION ACCESS:   28936275  HIT:   28936275  MISS:          0  HIT %:        100  MISS %:          0   MPKI: 0
ITLB PREFETCH  REQUESTED:          0  ISSUED:          0  USEFUL:          0  USELESS:          0
ITLB USEFUL LOAD PREFETCHES:          0 PREFETCH ISSUED TO LOWER LEVEL:          0  ACCURACY: -nan
ITLB TIMELY PREFETCHES:          0 LATE PREFETCHES: 0 DROPPED PREFETCHES: 0
ITLB PREFETCHES SAME FILL-ORIGIN LEVEL: 0 DIFFERENT FILL-ORIGIN LEVEL: 0
ITLB AVERAGE MISS LATENCY: inf cycles
ITLB RQ	ACCESS:  134195793	FORWARD:          0	MERGED:   30620025	TO_CACHE:  103575768

DTLB TOTAL     ACCESS:   65434726  HIT:   65350684  MISS:      84042  HIT %:    99.8716  MISS %:   0.128436   MPKI: 0.42021
DTLB LOAD TRANSLATION ACCESS:   65434726  HIT:   65350684  MISS:      84042  HIT %:    99.8716  MISS %:   0.128436   MPKI: 0.42021
DTLB PREFETCH  REQUESTED:          0  ISSUED:          0  USEFUL:          0  USELESS:          0
DTLB USEFUL LOAD PREFETCHES:          0 PREFETCH ISSUED TO LOWER LEVEL:          0  ACCURACY: -nan
DTLB TIMELY PREFETCHES:          0 LATE PREFETCHES: 0 DROPPED PREFETCHES: 0
DTLB PREFETCHES SAME FILL-ORIGIN LEVEL: 0 DIFFERENT FILL-ORIGIN LEVEL: 0
DTLB AVERAGE MISS LATENCY: 665.875 cycles
DTLB RQ	ACCESS:  313888905	FORWARD:          0	MERGED:   46933252	TO_CACHE:  266955653

STLB TOTAL     ACCESS:   23426090  HIT:   23363081  MISS:      63009  HIT %:     99.731  MISS %:   0.268969   MPKI: 0.315045
STLB LOAD TRANSLATION ACCESS:      84042  HIT:      21034  MISS:      63008  HIT %:     25.028  MISS %:     74.972   MPKI: 0.31504
STLB TRANSLATION FROM L1D PREFETCHER ACCESS:   23342048  HIT:   23342047  MISS:          1  HIT %:        100  MISS %: 4.28411e-06   MPKI: 5e-06
STLB PREFETCH  REQUESTED:          0  ISSUED:          0  USEFUL:     426137  USELESS:       1766
STLB USEFUL LOAD PREFETCHES:     426137 PREFETCH ISSUED TO LOWER LEVEL:          0  ACCURACY: inf
STLB TIMELY PREFETCHES:     426137 LATE PREFETCHES: 13530 DROPPED PREFETCHES: 9080603
STLB PREFETCHES SAME FILL-ORIGIN LEVEL: 0 DIFFERENT FILL-ORIGIN LEVEL: 0
STLB AVERAGE MISS LATENCY: 1881.13 cycles
STLB RQ	ACCESS:  274151145	FORWARD:          0	MERGED:  181104238	TO_CACHE:   93046907

STLB Hit, L1D data hit: 0
STLB Hit, L2C data hit: 0
STLB Hit, LLC data hit: 0
STLB Hit, LLC data miss: 0
STLB STLB hints to L2: 0
L1D TOTAL     ACCESS:  125804773  HIT:  120507823  MISS:    5296950  HIT %:    95.7895  MISS %:    4.21045   MPKI: 26.4847
L1D LOAD      ACCESS:   52477906  HIT:   51889847  MISS:     588059  HIT %:    98.8794  MISS %:    1.12058   MPKI: 2.94029
L1D RFO       ACCESS:   14373332  HIT:   14373332  MISS:          0  HIT %:        100  MISS %:          0   MPKI: 0
L1D PREFETCH  ACCESS:   58953535  HIT:   54244644  MISS:    4708891  HIT %:    92.0125  MISS %:    7.98746   MPKI: 23.5445
L1D PREFETCH  REQUESTED: 1635649062  ISSUED:  624639427  USEFUL:    8923563  USELESS:    1163837
L1D USEFUL LOAD PREFETCHES:    8923563 PREFETCH ISSUED TO LOWER LEVEL:   77355862  ACCURACY: 11.5357
L1D TIMELY PREFETCHES:    8923563 LATE PREFETCHES: 186752 DROPPED PREFETCHES: 20005187
L1D PREFETCHES SAME FILL-ORIGIN LEVEL: 10758804 DIFFERENT FILL-ORIGIN LEVEL: 66597058
L1D AVERAGE MISS LATENCY: 738.019 cycles
L1D RQ	ACCESS:  334203002	FORWARD:          0	MERGED:   66473610	TO_CACHE:  267161890
L1D WQ	ACCESS:   46727015	FORWARD:     568419	MERGED:          0	TO_CACHE:   46727015
L1D PQ	ACCESS:  351489764	FORWARD:          0	MERGED:   78339184	TO_CACHE:  273149663

L1D UNIQUE REGIONS ACCESSED: 0
L1D REGIONS CONFLICTS: 0
L1D Cross Page Prefetch Requests: 76802344
L1D Same Page Prefetch Requests: 301008342
L1D ROI Sum of L1D PQ occupancy: 6874769007
L1D PREFETCHES PUSHED FROM L2C: 0
L1I TOTAL     ACCESS:   43110401  HIT:   43110401  MISS:          0  HIT %:        100  MISS %:          0   MPKI: 0
L1I LOAD      ACCESS:   43110401  HIT:   43110401  MISS:          0  HIT %:        100  MISS %:          0   MPKI: 0
L1I PREFETCH  REQUESTED:          0  ISSUED:          0  USEFUL:          0  USELESS:          0
L1I USEFUL LOAD PREFETCHES:          0 PREFETCH ISSUED TO LOWER LEVEL:          0  ACCURACY: -nan
L1I TIMELY PREFETCHES:          0 LATE PREFETCHES: 0 DROPPED PREFETCHES: 0
L1I PREFETCHES SAME FILL-ORIGIN LEVEL: 0 DIFFERENT FILL-ORIGIN LEVEL: 0
L1I AVERAGE MISS LATENCY: inf cycles
L1I RQ	ACCESS:  183512718	FORWARD:          0	MERGED:   49316925	TO_CACHE:  134195793

BTB TOTAL     ACCESS:    4782833  HIT:    4782833  MISS:          0  HIT %:        100  MISS %:          0   MPKI: 0
BTB BRANCH_DIRECT_JUMP	ACCESS:      22667  HIT:      22667  MISS:          0
BTB BRANCH_INDIRECT	ACCESS:          0  HIT:          0  MISS:          0
BTB BRANCH_CONDITIONAL	ACCESS:    4760166  HIT:    4760166  MISS:          0
BTB BRANCH_DIRECT_CALL	ACCESS:          0  HIT:          0  MISS:          0
BTB BRANCH_INDIRECT_CALL	ACCESS:          0  HIT:          0  MISS:          0
BTB BRANCH_RETURN	ACCESS:          0  HIT:          0  MISS:          0
BTB BRANCH_OTHER ACCESS:          0  HIT:          0  MISS:          0

L2C TOTAL     ACCESS:   12166346  HIT:    6825352  MISS:    5340994  HIT %:    56.1003  MISS %:    43.8997   MPKI: 26.705
L2C LOAD      ACCESS:     449377  HIT:     286510  MISS:     162867  HIT %:    63.7572  MISS %:    36.2428   MPKI: 0.814335
L2C DATA LOAD MPKI: 0.814335
L2C INSTRUCTION LOAD MPKI: 0
L2C PREFETCH  ACCESS:    8831900  HIT:    3678317  MISS:    5153583  HIT %:    41.6481  MISS %:    58.3519   MPKI: 25.7679
L2C DATA PREFETCH MPKI: 25.7679
L2C INSTRUCTION PREFETCH MPKI: 0
L2C WRITEBACK ACCESS:    1836035  HIT:    1820126  MISS:      15909  HIT %:    99.1335  MISS %:   0.866487   MPKI: 0.079545
L2C LOAD TRANSLATION ACCESS:      63008  HIT:      62315  MISS:        693  HIT %:    98.9001  MISS %:    1.09986   MPKI: 0.003465
L2C TRANSLATION FROM L1D PREFETCHER ACCESS:     986026  HIT:     978084  MISS:       7942  HIT %:    99.1945  MISS %:   0.805455   MPKI: 0.03971
L2C PREFETCH  REQUESTED:          0  ISSUED:          0  USEFUL:     745522  USELESS:   11024776
L2C USEFUL LOAD PREFETCHES:     745522 PREFETCH ISSUED TO LOWER LEVEL:   11757760  ACCURACY: 6.34068
L2C TIMELY PREFETCHES:     745522 LATE PREFETCHES: 62084 DROPPED PREFETCHES: 0
L2C PREFETCHES SAME FILL-ORIGIN LEVEL: 6743184 DIFFERENT FILL-ORIGIN LEVEL: 0
L2C AVERAGE MISS LATENCY: 1382.01 cycles
L2C RQ	ACCESS:   15863240	FORWARD:          0	MERGED:          0	TO_CACHE:   15863237
L2C WQ	ACCESS:    4328417	FORWARD:          4	MERGED:          0	TO_CACHE:    4328417
L2C PQ	ACCESS:   67524681	FORWARD:          0	MERGED:     278936	TO_CACHE:   67245744

L2C Instructions Evicting Data 313
L2C Translations Evicting Data 81777
L2C Data Evicting Data 12074302
L2C Instructions Evicting Instructions 0
L2C Translations Evicting Instructions 8
L2C Data Evicting Instructions 301
L2C Instructions Evicting Translations 11
L2C Translations Evicting Translations 1154
L2C Data Evicting Translations 80107
L2C Dense regions hint from L2: 0
PSCL5 TOTAL     ACCESS:    1049033  HIT:    1049033  MISS:          0  HIT %:        100  MISS %:          0   MPKI: 0
PSCL5 LOAD TRANSLATION ACCESS:      63008  HIT:      63008  MISS:          0  HIT %:        100  MISS %:          0   MPKI: 0
PSCL5 TRANSLATION FROM L1D PREFETCHER ACCESS:     986025  HIT:     986025  MISS:          0  HIT %:        100  MISS %:          0   MPKI: 0
PSCL5 PREFETCH  REQUESTED:          0  ISSUED:          0  USEFUL:          0  USELESS:          0
PSCL5 USEFUL LOAD PREFETCHES:          0 PREFETCH ISSUED TO LOWER LEVEL:          0  ACCURACY: -nan
PSCL5 TIMELY PREFETCHES:          0 LATE PREFETCHES: 0 DROPPED PREFETCHES: 0
PSCL5 PREFETCHES SAME FILL-ORIGIN LEVEL: 0 DIFFERENT FILL-ORIGIN LEVEL: 0

PSCL4 TOTAL     ACCESS:    1049033  HIT:    1049033  MISS:          0  HIT %:        100  MISS %:          0   MPKI: 0
PSCL4 LOAD TRANSLATION ACCESS:      63008  HIT:      63008  MISS:          0  HIT %:        100  MISS %:          0   MPKI: 0
PSCL4 TRANSLATION FROM L1D PREFETCHER ACCESS:     986025  HIT:     986025  MISS:          0  HIT %:        100  MISS %:          0   MPKI: 0
PSCL4 PREFETCH  REQUESTED:          0  ISSUED:          0  USEFUL:          0  USELESS:          0
PSCL4 USEFUL LOAD PREFETCHES:          0 PREFETCH ISSUED TO LOWER LEVEL:          0  ACCURACY: -nan
PSCL4 TIMELY PREFETCHES:          0 LATE PREFETCHES: 0 DROPPED PREFETCHES: 0
PSCL4 PREFETCHES SAME FILL-ORIGIN LEVEL: 0 DIFFERENT FILL-ORIGIN LEVEL: 0

PSCL3 TOTAL     ACCESS:    1049033  HIT:    1049033  MISS:          0  HIT %:        100  MISS %:          0   MPKI: 0
PSCL3 LOAD TRANSLATION ACCESS:      63008  HIT:      63008  MISS:          0  HIT %:        100  MISS %:          0   MPKI: 0
PSCL3 TRANSLATION FROM L1D PREFETCHER ACCESS:     986025  HIT:     986025  MISS:          0  HIT %:        100  MISS %:          0   MPKI: 0
PSCL3 PREFETCH  REQUESTED:          0  ISSUED:          0  USEFUL:          0  USELESS:          0
PSCL3 USEFUL LOAD PREFETCHES:          0 PREFETCH ISSUED TO LOWER LEVEL:          0  ACCURACY: -nan
PSCL3 TIMELY PREFETCHES:          0 LATE PREFETCHES: 0 DROPPED PREFETCHES: 0
PSCL3 PREFETCHES SAME FILL-ORIGIN LEVEL: 0 DIFFERENT FILL-ORIGIN LEVEL: 0

PSCL2 TOTAL     ACCESS:    1047385  HIT:    1047247  MISS:        138  HIT %:    99.9868  MISS %:  0.0131757   MPKI: 0.00069
PSCL2 LOAD TRANSLATION ACCESS:      63009  HIT:      62871  MISS:        138  HIT %:     99.781  MISS %:   0.219016   MPKI: 0.00069
PSCL2 TRANSLATION FROM L1D PREFETCHER ACCESS:     984376  HIT:     984376  MISS:          0  HIT %:        100  MISS %:          0   MPKI: 0
PSCL2 PREFETCH  REQUESTED:          0  ISSUED:          0  USEFUL:          0  USELESS:          0
PSCL2 USEFUL LOAD PREFETCHES:          0 PREFETCH ISSUED TO LOWER LEVEL:          0  ACCURACY: -nan
PSCL2 TIMELY PREFETCHES:          0 LATE PREFETCHES: 0 DROPPED PREFETCHES: 0
PSCL2 PREFETCHES SAME FILL-ORIGIN LEVEL: 0 DIFFERENT FILL-ORIGIN LEVEL: 0

LLC TOTAL     ACCESS:    7161373  HIT:    2708792  MISS:    4452581  HIT %:     37.825  MISS %:     62.175   MPKI: 22.2629
LLC LOAD      ACCESS:     130399  HIT:      14503  MISS:     115896  HIT %:     11.122  MISS %:     88.878   MPKI: 0.57948
LLC PREFETCH  ACCESS:    5186052  HIT:     867596  MISS:    4318456  HIT %:    16.7294  MISS %:    83.2706   MPKI: 21.5923
LLC WRITEBACK ACCESS:    1836287  HIT:    1826670  MISS:       9617  HIT %:    99.4763  MISS %:    0.52372   MPKI: 0.048085
LLC LOAD TRANSLATION ACCESS:        693  HIT:          0  MISS:        693  HIT %:          0  MISS %:        100   MPKI: 0.003465
LLC TRANSLATION FROM L1D PREFETCHER ACCESS:       7942  HIT:         23  MISS:       7919  HIT %:     0.2896  MISS %:    99.7104   MPKI: 0.039595
LLC PREFETCH  REQUESTED:          0  ISSUED:          0  USEFUL:      81988  USELESS:   26156775
LLC USEFUL LOAD PREFETCHES:      81988 PREFETCH ISSUED TO LOWER LEVEL:   46848563  ACCURACY: 0.175006
LLC TIMELY PREFETCHES:      81988 LATE PREFETCHES: 0 DROPPED PREFETCHES: 0
LLC PREFETCHES SAME FILL-ORIGIN LEVEL: 0 DIFFERENT FILL-ORIGIN LEVEL: 0
LLC AVERAGE MISS LATENCY: 4241.06 cycles
LLC RQ	ACCESS:    3713230	FORWARD:          0	MERGED:          0	TO_CACHE:    3713218
LLC WQ	ACCESS:    8274690	FORWARD:         17	MERGED:          0	TO_CACHE:    8274690
LLC PQ	ACCESS:   28512658	FORWARD:          0	MERGED:          0	TO_CACHE:   28512653

LLC Dense regions hint to LLC: 0

RAW hits: 151623
Loads Generated: 62203077
Loads sent to L1D: 62051448
Stores Generated: 14373326
Stores sent to L1D: 14373329
Major fault: 0 Minor fault: 163453
Allocated PAGES: 204280

DRAM Statistics
 CHANNEL 0
 RQ ROW_BUFFER_HIT:    9585817  ROW_BUFFER_MISS:   18865513
 DBUS_CONGESTED:         25
 WQ ROW_BUFFER_HIT:     607048  ROW_BUFFER_MISS:    7412198  FULL:          0

 AVG_CONGESTED_CYCLE: 5
 All warmup complete: 5
Channel 0 Bank busy for read cycles: 0
Channel 0 Bank busy for write cycles: 0
Channel 0
Rank 0
0banks busy for read cycles: 43912
0banks busy for write cycles: 36
1banks busy for read cycles: 5406021
1banks busy for write cycles: 868529
2banks busy for read cycles: 13071003
2banks busy for write cycles: 867228
3banks busy for read cycles: 23470187
3banks busy for write cycles: 868625
4banks busy for read cycles: 36371341
4banks busy for write cycles: 869714
5banks busy for read cycles: 52663881
5banks busy for write cycles: 909017
6banks busy for read cycles: 75463428
6banks busy for write cycles: 2710625
7banks busy for read cycles: 118168563
7banks busy for write cycles: 32807873
8banks busy for read cycles: 228178114
8banks busy for write cycles: 180833702

CPU 0 Branch Prediction Accuracy: 99.1275% MPKI: 2.77551 Average ROB Occupancy at Mispredict: 21.4044
Branch types
NOT_BRANCH: 771295508 68.1898%
BRANCH_DIRECT_JUMP: 0 0%
BRANCH_INDIRECT: 0 0%
BRANCH_CONDITIONAL: 359804978 31.8102%
BRANCH_DIRECT_CALL: 0 0%
BRANCH_INDIRECT_CALL: 0 0%
BRANCH_RETURN: 0 0%
BRANCH_OTHER: 0 0%


CPU 1 Branch Prediction Accuracy: 86.3278% MPKI: 28.766 Average ROB Occupancy at Mispredict: 10.4799
Branch types
NOT_BRANCH: 157230628 78.6153%
BRANCH_DIRECT_JUMP: 40164 0.020082%
BRANCH_INDIRECT: 3 1.5e-06%
BRANCH_CONDITIONAL: 42728565 21.3643%
BRANCH_DIRECT_CALL: 310 0.000155%
BRANCH_INDIRECT_CALL: 9 4.5e-06%
BRANCH_RETURN: 320 0.00016%
BRANCH_OTHER: 0 0%


CPU 2 Branch Prediction Accuracy: 98.1892% MPKI: 1.79393 Average ROB Occupancy at Mispredict: 96.1066
Branch types
NOT_BRANCH: 430020036 89.969%
BRANCH_DIRECT_JUMP: 1282948 0.268419%
BRANCH_INDIRECT: 0 0%
BRANCH_CONDITIONAL: 44335882 9.27597%
BRANCH_DIRECT_CALL: 1163050 0.243334%
BRANCH_INDIRECT_CALL: 93 1.94575e-05%
BRANCH_RETURN: 1163141 0.243353%
BRANCH_OTHER: 0 0%


CPU 3 Branch Prediction Accuracy: 99.6067% MPKI: 0.048659 Average ROB Occupancy at Mispredict: 172.202
Branch types
NOT_BRANCH: 656852288 98.7557%
BRANCH_DIRECT_JUMP: 83400 0.0125389%
BRANCH_INDIRECT: 0 0%
BRANCH_CONDITIONAL: 8192635 1.23174%
BRANCH_DIRECT_CALL: 1 1.50347e-07%
BRANCH_INDIRECT_CALL: 0 0%
BRANCH_RETURN: 1 1.50347e-07%
BRANCH_OTHER: 0 0%

DRAM PAGES: 1048576
Allocated PAGES: 204280
