
*** ChampSim Multicore Out-of-Order Simulator ***

Warmup Instructions: 50000000
Simulation Instructions: 200000000
Number of CPUs: 4
LLC sets: 8192
LLC ways: 16
Off-chip DRAM Size: 4096 MB Channels: 1 Width: 64-bit Data Rate: 6400 MT/s
CPU 0 runs ./traces/ligra/ligra_Triangle.com-lj.ungraph.gcc_6.3.0_O3.drop_6000M.length_250M.champsimtrace.xz
.xz
CPU 1 runs ./traces/ligra/ligra_Triangle.com-lj.ungraph.gcc_6.3.0_O3.drop_6000M.length_250M.champsimtrace.xz
.xz
CPU 2 runs ./traces/ligra/ligra_Triangle.com-lj.ungraph.gcc_6.3.0_O3.drop_6000M.length_250M.champsimtrace.xz
.xz
CPU 3 runs ./traces/ligra/ligra_Triangle.com-lj.ungraph.gcc_6.3.0_O3.drop_6000M.length_250M.champsimtrace.xz
.xz
BTB has LRU replacement policy
ITLB has LRU replacement policy
DTLB has LRU replacement policy
STLB has LRU replacement policy
L1I has LRU replacement policy
History Sets: 8
History Ways: 16
BERTI Size: 16
BERTI Stride Size: 8
L1D has LRU replacement policy
Initialize SRRIP state for L2C
Initialize DRRIP state for LLC
BTB has LRU replacement policy
ITLB has LRU replacement policy
DTLB has LRU replacement policy
STLB has LRU replacement policy
L1I has LRU replacement policy
History Sets: 8
History Ways: 16
BERTI Size: 16
BERTI Stride Size: 8
L1D has LRU replacement policy
Initialize SRRIP state for L2C
Initialize DRRIP state for LLC
BTB has LRU replacement policy
ITLB has LRU replacement policy
DTLB has LRU replacement policy
STLB has LRU replacement policy
L1I has LRU replacement policy
History Sets: 8
History Ways: 16
BERTI Size: 16
BERTI Stride Size: 8
L1D has LRU replacement policy
Initialize SRRIP state for L2C
Initialize DRRIP state for LLC
BTB has LRU replacement policy
ITLB has LRU replacement policy
DTLB has LRU replacement policy
STLB has LRU replacement policy
L1I has LRU replacement policy
History Sets: 8
History Ways: 16
BERTI Size: 16
BERTI Stride Size: 8
L1D has LRU replacement policy
Initialize SRRIP state for L2C
Initialize DRRIP state for LLC
Heartbeat CPU 0 instructions: 10000001 cycles: 3836021 heartbeat IPC: 2.60687 cumulative IPC: 2.60687 (Simulation time: 0 hr 3 min 39 sec) 
Heartbeat CPU 1 instructions: 10000001 cycles: 3836030 heartbeat IPC: 2.60686 cumulative IPC: 2.60686 (Simulation time: 0 hr 3 min 39 sec) 
Heartbeat CPU 2 instructions: 10000001 cycles: 3836041 heartbeat IPC: 2.60685 cumulative IPC: 2.60685 (Simulation time: 0 hr 3 min 39 sec) 
Heartbeat CPU 3 instructions: 10000001 cycles: 3836051 heartbeat IPC: 2.60685 cumulative IPC: 2.60685 (Simulation time: 0 hr 3 min 39 sec) 
Heartbeat CPU 0 instructions: 20000001 cycles: 7671993 heartbeat IPC: 2.6069 cumulative IPC: 2.60688 (Simulation time: 0 hr 7 min 30 sec) 
Heartbeat CPU 1 instructions: 20000001 cycles: 7672002 heartbeat IPC: 2.6069 cumulative IPC: 2.60688 (Simulation time: 0 hr 7 min 30 sec) 
Heartbeat CPU 2 instructions: 20000001 cycles: 7672013 heartbeat IPC: 2.6069 cumulative IPC: 2.60688 (Simulation time: 0 hr 7 min 30 sec) 
Heartbeat CPU 3 instructions: 20000001 cycles: 7672023 heartbeat IPC: 2.6069 cumulative IPC: 2.60687 (Simulation time: 0 hr 7 min 30 sec) 
Heartbeat CPU 0 instructions: 30000002 cycles: 11507929 heartbeat IPC: 2.60693 cumulative IPC: 2.6069 (Simulation time: 0 hr 11 min 19 sec) 
Heartbeat CPU 1 instructions: 30000002 cycles: 11507938 heartbeat IPC: 2.60693 cumulative IPC: 2.6069 (Simulation time: 0 hr 11 min 19 sec) 
Heartbeat CPU 2 instructions: 30000002 cycles: 11507949 heartbeat IPC: 2.60693 cumulative IPC: 2.60689 (Simulation time: 0 hr 11 min 19 sec) 
Heartbeat CPU 3 instructions: 30000002 cycles: 11507959 heartbeat IPC: 2.60693 cumulative IPC: 2.60689 (Simulation time: 0 hr 11 min 19 sec) 
Heartbeat CPU 0 instructions: 40000000 cycles: 15343944 heartbeat IPC: 2.60687 cumulative IPC: 2.60689 (Simulation time: 0 hr 15 min 29 sec) 
Heartbeat CPU 1 instructions: 40000000 cycles: 15343953 heartbeat IPC: 2.60687 cumulative IPC: 2.60689 (Simulation time: 0 hr 15 min 29 sec) 
Heartbeat CPU 2 instructions: 40000000 cycles: 15343964 heartbeat IPC: 2.60687 cumulative IPC: 2.60689 (Simulation time: 0 hr 15 min 29 sec) 
Heartbeat CPU 3 instructions: 40000000 cycles: 15343974 heartbeat IPC: 2.60687 cumulative IPC: 2.60689 (Simulation time: 0 hr 15 min 29 sec) 
Heartbeat CPU 0 instructions: 50000002 cycles: 19179885 heartbeat IPC: 2.60692 cumulative IPC: 2.6069 (Simulation time: 0 hr 18 min 53 sec) 
Heartbeat CPU 1 instructions: 50000002 cycles: 19179894 heartbeat IPC: 2.60692 cumulative IPC: 2.6069 (Simulation time: 0 hr 18 min 53 sec) 
Heartbeat CPU 2 instructions: 50000002 cycles: 19179905 heartbeat IPC: 2.60692 cumulative IPC: 2.6069 (Simulation time: 0 hr 18 min 53 sec) 
Heartbeat CPU 3 instructions: 50000002 cycles: 19179915 heartbeat IPC: 2.60692 cumulative IPC: 2.60689 (Simulation time: 0 hr 18 min 53 sec) 

Warmup complete CPU 0 instructions: 50000080 cycles: 19179915 (Simulation time: 0 hr 18 min 53 sec) 
Warmup complete CPU 1 instructions: 50000057 cycles: 19179915 (Simulation time: 0 hr 18 min 53 sec) 
Warmup complete CPU 2 instructions: 50000028 cycles: 19179915 (Simulation time: 0 hr 18 min 53 sec) 
Warmup complete CPU 3 instructions: 50000002 cycles: 19179915 (Simulation time: 0 hr 18 min 53 sec) 

Heartbeat CPU 0 instructions: 60000001 cycles: 27086212 heartbeat IPC: 1.26481 cumulative IPC: 1.2648 (Simulation time: 0 hr 22 min 20 sec) 
Heartbeat CPU 2 instructions: 60000001 cycles: 27087547 heartbeat IPC: 1.2646 cumulative IPC: 1.2646 (Simulation time: 0 hr 22 min 20 sec) 
Heartbeat CPU 1 instructions: 60000001 cycles: 27094868 heartbeat IPC: 1.26343 cumulative IPC: 1.26342 (Simulation time: 0 hr 22 min 20 sec) 
Heartbeat CPU 3 instructions: 60000001 cycles: 27100058 heartbeat IPC: 1.2626 cumulative IPC: 1.2626 (Simulation time: 0 hr 22 min 21 sec) 
Heartbeat CPU 0 instructions: 70000002 cycles: 34992326 heartbeat IPC: 1.26484 cumulative IPC: 1.26482 (Simulation time: 0 hr 25 min 39 sec) 
Heartbeat CPU 2 instructions: 70000002 cycles: 34997965 heartbeat IPC: 1.26416 cumulative IPC: 1.26438 (Simulation time: 0 hr 25 min 39 sec) 
Heartbeat CPU 1 instructions: 70000002 cycles: 34999942 heartbeat IPC: 1.26501 cumulative IPC: 1.26422 (Simulation time: 0 hr 25 min 39 sec) 
Heartbeat CPU 3 instructions: 70000002 cycles: 35011591 heartbeat IPC: 1.26398 cumulative IPC: 1.26329 (Simulation time: 0 hr 25 min 39 sec) 
Heartbeat CPU 0 instructions: 80000002 cycles: 42905503 heartbeat IPC: 1.26371 cumulative IPC: 1.26445 (Simulation time: 0 hr 29 min 11 sec) 
Heartbeat CPU 2 instructions: 80000002 cycles: 42912287 heartbeat IPC: 1.26353 cumulative IPC: 1.2641 (Simulation time: 0 hr 29 min 12 sec) 
Heartbeat CPU 1 instructions: 80000002 cycles: 42917514 heartbeat IPC: 1.26301 cumulative IPC: 1.26382 (Simulation time: 0 hr 29 min 12 sec) 
Heartbeat CPU 3 instructions: 80000002 cycles: 42924095 heartbeat IPC: 1.26382 cumulative IPC: 1.26347 (Simulation time: 0 hr 29 min 12 sec) 
Heartbeat CPU 0 instructions: 90000000 cycles: 50820450 heartbeat IPC: 1.26343 cumulative IPC: 1.2642 (Simulation time: 0 hr 32 min 52 sec) 
Heartbeat CPU 2 instructions: 90000000 cycles: 50824657 heartbeat IPC: 1.26384 cumulative IPC: 1.26403 (Simulation time: 0 hr 32 min 52 sec) 
Heartbeat CPU 1 instructions: 90000000 cycles: 50827896 heartbeat IPC: 1.26416 cumulative IPC: 1.2639 (Simulation time: 0 hr 32 min 52 sec) 
Heartbeat CPU 3 instructions: 90000000 cycles: 50840048 heartbeat IPC: 1.26327 cumulative IPC: 1.26342 (Simulation time: 0 hr 32 min 53 sec) 
Heartbeat CPU 0 instructions: 100000001 cycles: 58726587 heartbeat IPC: 1.26484 cumulative IPC: 1.26433 (Simulation time: 0 hr 36 min 42 sec) 
Heartbeat CPU 2 instructions: 100000001 cycles: 58733934 heartbeat IPC: 1.26434 cumulative IPC: 1.26409 (Simulation time: 0 hr 36 min 42 sec) 
Heartbeat CPU 1 instructions: 100000001 cycles: 58743581 heartbeat IPC: 1.26331 cumulative IPC: 1.26378 (Simulation time: 0 hr 36 min 42 sec) 
Heartbeat CPU 3 instructions: 100000001 cycles: 58747137 heartbeat IPC: 1.26469 cumulative IPC: 1.26367 (Simulation time: 0 hr 36 min 42 sec) 
Heartbeat CPU 0 instructions: 110000000 cycles: 66637558 heartbeat IPC: 1.26407 cumulative IPC: 1.26428 (Simulation time: 0 hr 40 min 4 sec) 
Heartbeat CPU 2 instructions: 110000000 cycles: 66648496 heartbeat IPC: 1.26349 cumulative IPC: 1.26399 (Simulation time: 0 hr 40 min 5 sec) 
Heartbeat CPU 1 instructions: 110000000 cycles: 66651291 heartbeat IPC: 1.26459 cumulative IPC: 1.26392 (Simulation time: 0 hr 40 min 5 sec) 
Heartbeat CPU 3 instructions: 110000000 cycles: 66659594 heartbeat IPC: 1.26383 cumulative IPC: 1.2637 (Simulation time: 0 hr 40 min 5 sec) 
Heartbeat CPU 0 instructions: 120000002 cycles: 74561273 heartbeat IPC: 1.26203 cumulative IPC: 1.26396 (Simulation time: 0 hr 43 min 50 sec) 
Heartbeat CPU 2 instructions: 120000002 cycles: 74573075 heartbeat IPC: 1.2619 cumulative IPC: 1.26369 (Simulation time: 0 hr 43 min 51 sec) 
Heartbeat CPU 1 instructions: 120000002 cycles: 74575689 heartbeat IPC: 1.26193 cumulative IPC: 1.26363 (Simulation time: 0 hr 43 min 51 sec) 
Heartbeat CPU 3 instructions: 120000002 cycles: 74585523 heartbeat IPC: 1.26168 cumulative IPC: 1.26341 (Simulation time: 0 hr 43 min 51 sec) 
Heartbeat CPU 0 instructions: 130000000 cycles: 82470343 heartbeat IPC: 1.26437 cumulative IPC: 1.26401 (Simulation time: 0 hr 47 min 18 sec) 
Heartbeat CPU 2 instructions: 130000000 cycles: 82485063 heartbeat IPC: 1.2639 cumulative IPC: 1.26372 (Simulation time: 0 hr 47 min 18 sec) 
Heartbeat CPU 1 instructions: 130000000 cycles: 82489784 heartbeat IPC: 1.26357 cumulative IPC: 1.26363 (Simulation time: 0 hr 47 min 18 sec) 
Heartbeat CPU 3 instructions: 130000000 cycles: 82490362 heartbeat IPC: 1.26505 cumulative IPC: 1.26361 (Simulation time: 0 hr 47 min 18 sec) 
Heartbeat CPU 0 instructions: 140000002 cycles: 90387855 heartbeat IPC: 1.26302 cumulative IPC: 1.2639 (Simulation time: 0 hr 50 min 57 sec) 
Heartbeat CPU 2 instructions: 140000002 cycles: 90394876 heartbeat IPC: 1.26425 cumulative IPC: 1.26378 (Simulation time: 0 hr 50 min 57 sec) 
Heartbeat CPU 1 instructions: 140000002 cycles: 90407335 heartbeat IPC: 1.26302 cumulative IPC: 1.26356 (Simulation time: 0 hr 50 min 58 sec) 
Heartbeat CPU 3 instructions: 140000002 cycles: 90408760 heartbeat IPC: 1.26288 cumulative IPC: 1.26353 (Simulation time: 0 hr 50 min 58 sec) 
Heartbeat CPU 0 instructions: 150000001 cycles: 98293599 heartbeat IPC: 1.2649 cumulative IPC: 1.264 (Simulation time: 0 hr 54 min 45 sec) 
Heartbeat CPU 2 instructions: 150000001 cycles: 98301489 heartbeat IPC: 1.26476 cumulative IPC: 1.26388 (Simulation time: 0 hr 54 min 46 sec) 
Heartbeat CPU 1 instructions: 150000001 cycles: 98317361 heartbeat IPC: 1.26422 cumulative IPC: 1.26362 (Simulation time: 0 hr 54 min 46 sec) 
Heartbeat CPU 3 instructions: 150000001 cycles: 98325060 heartbeat IPC: 1.26322 cumulative IPC: 1.2635 (Simulation time: 0 hr 54 min 46 sec) 
Heartbeat CPU 0 instructions: 160000002 cycles: 106210501 heartbeat IPC: 1.26312 cumulative IPC: 1.26392 (Simulation time: 0 hr 58 min 21 sec) 
Heartbeat CPU 2 instructions: 160000002 cycles: 106217237 heartbeat IPC: 1.2633 cumulative IPC: 1.26383 (Simulation time: 0 hr 58 min 22 sec) 
Heartbeat CPU 1 instructions: 160000002 cycles: 106231922 heartbeat IPC: 1.26349 cumulative IPC: 1.26361 (Simulation time: 0 hr 58 min 22 sec) 
Heartbeat CPU 3 instructions: 160000002 cycles: 106237158 heartbeat IPC: 1.26389 cumulative IPC: 1.26354 (Simulation time: 0 hr 58 min 22 sec) 
Heartbeat CPU 0 instructions: 170000000 cycles: 114125434 heartbeat IPC: 1.26343 cumulative IPC: 1.26388 (Simulation time: 1 hr 2 min 21 sec) 
Heartbeat CPU 2 instructions: 170000000 cycles: 114134042 heartbeat IPC: 1.26314 cumulative IPC: 1.26377 (Simulation time: 1 hr 2 min 21 sec) 
Heartbeat CPU 1 instructions: 170000000 cycles: 114143003 heartbeat IPC: 1.26405 cumulative IPC: 1.26365 (Simulation time: 1 hr 2 min 22 sec) 
Heartbeat CPU 3 instructions: 170000000 cycles: 114157145 heartbeat IPC: 1.26263 cumulative IPC: 1.26346 (Simulation time: 1 hr 2 min 22 sec) 
Heartbeat CPU 0 instructions: 180000000 cycles: 122027656 heartbeat IPC: 1.26547 cumulative IPC: 1.264 (Simulation time: 1 hr 5 min 53 sec) 
Heartbeat CPU 2 instructions: 180000000 cycles: 122041393 heartbeat IPC: 1.26465 cumulative IPC: 1.26384 (Simulation time: 1 hr 5 min 53 sec) 
Heartbeat CPU 1 instructions: 180000000 cycles: 122054694 heartbeat IPC: 1.26395 cumulative IPC: 1.26367 (Simulation time: 1 hr 5 min 54 sec) 
Heartbeat CPU 3 instructions: 180000000 cycles: 122063606 heartbeat IPC: 1.26479 cumulative IPC: 1.26356 (Simulation time: 1 hr 5 min 54 sec) 
Heartbeat CPU 0 instructions: 190000001 cycles: 129934630 heartbeat IPC: 1.26471 cumulative IPC: 1.26405 (Simulation time: 1 hr 10 min 10 sec) 
Heartbeat CPU 2 instructions: 190000001 cycles: 129952995 heartbeat IPC: 1.26397 cumulative IPC: 1.26384 (Simulation time: 1 hr 10 min 10 sec) 
Heartbeat CPU 1 instructions: 190000001 cycles: 129954877 heartbeat IPC: 1.26579 cumulative IPC: 1.26382 (Simulation time: 1 hr 10 min 10 sec) 
Heartbeat CPU 3 instructions: 190000001 cycles: 129978817 heartbeat IPC: 1.26339 cumulative IPC: 1.26355 (Simulation time: 1 hr 10 min 11 sec) 
Heartbeat CPU 0 instructions: 200000002 cycles: 137842826 heartbeat IPC: 1.26451 cumulative IPC: 1.26408 (Simulation time: 1 hr 14 min 25 sec) 
Heartbeat CPU 2 instructions: 200000002 cycles: 137866796 heartbeat IPC: 1.26362 cumulative IPC: 1.26383 (Simulation time: 1 hr 14 min 26 sec) 
Heartbeat CPU 1 instructions: 200000002 cycles: 137869974 heartbeat IPC: 1.26341 cumulative IPC: 1.2638 (Simulation time: 1 hr 14 min 26 sec) 
Heartbeat CPU 3 instructions: 200000002 cycles: 137890627 heartbeat IPC: 1.26393 cumulative IPC: 1.26358 (Simulation time: 1 hr 14 min 27 sec) 
Heartbeat CPU 0 instructions: 210000002 cycles: 146756811 heartbeat IPC: 1.12183 cumulative IPC: 1.25415 (Simulation time: 1 hr 18 min 21 sec) 
Heartbeat CPU 1 instructions: 210000002 cycles: 146860753 heartbeat IPC: 1.11225 cumulative IPC: 1.25312 (Simulation time: 1 hr 18 min 22 sec) 
Heartbeat CPU 2 instructions: 210000002 cycles: 146884497 heartbeat IPC: 1.10893 cumulative IPC: 1.25289 (Simulation time: 1 hr 18 min 22 sec) 
Heartbeat CPU 3 instructions: 210000002 cycles: 146913143 heartbeat IPC: 1.10834 cumulative IPC: 1.25261 (Simulation time: 1 hr 18 min 22 sec) 
Heartbeat CPU 0 instructions: 220000000 cycles: 213371048 heartbeat IPC: 0.150118 cumulative IPC: 0.875426 (Simulation time: 1 hr 26 min 28 sec) 
Heartbeat CPU 1 instructions: 220000000 cycles: 213425255 heartbeat IPC: 0.15023 cumulative IPC: 0.875182 (Simulation time: 1 hr 26 min 28 sec) 
Heartbeat CPU 3 instructions: 220000000 cycles: 213481711 heartbeat IPC: 0.150221 cumulative IPC: 0.874928 (Simulation time: 1 hr 26 min 29 sec) 
Heartbeat CPU 2 instructions: 220000000 cycles: 213662727 heartbeat IPC: 0.149749 cumulative IPC: 0.874113 (Simulation time: 1 hr 26 min 30 sec) 
Heartbeat CPU 1 instructions: 230000001 cycles: 279761593 heartbeat IPC: 0.150747 cumulative IPC: 0.690762 (Simulation time: 1 hr 34 min 51 sec) 
Heartbeat CPU 0 instructions: 230000001 cycles: 279910460 heartbeat IPC: 0.150287 cumulative IPC: 0.690368 (Simulation time: 1 hr 34 min 52 sec) 
Heartbeat CPU 3 instructions: 230000001 cycles: 280127839 heartbeat IPC: 0.150046 cumulative IPC: 0.689793 (Simulation time: 1 hr 34 min 54 sec) 
Heartbeat CPU 2 instructions: 230000001 cycles: 280327711 heartbeat IPC: 0.150004 cumulative IPC: 0.689265 (Simulation time: 1 hr 34 min 55 sec) 
Heartbeat CPU 1 instructions: 240000002 cycles: 346318791 heartbeat IPC: 0.150247 cumulative IPC: 0.580793 (Simulation time: 1 hr 43 min 15 sec) 
Heartbeat CPU 0 instructions: 240000002 cycles: 346514932 heartbeat IPC: 0.15014 cumulative IPC: 0.580445 (Simulation time: 1 hr 43 min 17 sec) 
Heartbeat CPU 3 instructions: 240000002 cycles: 346745891 heartbeat IPC: 0.150109 cumulative IPC: 0.580036 (Simulation time: 1 hr 43 min 19 sec) 
Heartbeat CPU 2 instructions: 240000001 cycles: 347006404 heartbeat IPC: 0.149973 cumulative IPC: 0.579575 (Simulation time: 1 hr 43 min 20 sec) 
*** Reached end of trace for Core: 1 Repeating trace: ./traces/ligra/ligra_Triangle.com-lj.ungraph.gcc_6.3.0_O3.drop_6000M.length_250M.champsimtrace.xz
Heartbeat CPU 1 instructions: 250000002 cycles: 413003610 heartbeat IPC: 0.149959 cumulative IPC: 0.507841 (Simulation time: 1 hr 51 min 14 sec) 
Finished CPU 1 instructions: 200000000 cycles: 393824216 cumulative IPC: 0.507841 (Simulation time: 1 hr 51 min 14 sec) 
*** Reached end of trace for Core: 0 Repeating trace: ./traces/ligra/ligra_Triangle.com-lj.ungraph.gcc_6.3.0_O3.drop_6000M.length_250M.champsimtrace.xz
Heartbeat CPU 0 instructions: 250000002 cycles: 413032607 heartbeat IPC: 0.150336 cumulative IPC: 0.507804 (Simulation time: 1 hr 51 min 14 sec) 
Finished CPU 0 instructions: 200000002 cycles: 393852748 cumulative IPC: 0.507804 (Simulation time: 1 hr 51 min 14 sec) 
*** Reached end of trace for Core: 3 Repeating trace: ./traces/ligra/ligra_Triangle.com-lj.ungraph.gcc_6.3.0_O3.drop_6000M.length_250M.champsimtrace.xz
Heartbeat CPU 3 instructions: 250000002 cycles: 413395205 heartbeat IPC: 0.150039 cumulative IPC: 0.507337 (Simulation time: 1 hr 51 min 22 sec) 
Finished CPU 3 instructions: 200000000 cycles: 394215290 cumulative IPC: 0.507337 (Simulation time: 1 hr 51 min 22 sec) 
*** Reached end of trace for Core: 2 Repeating trace: ./traces/ligra/ligra_Triangle.com-lj.ungraph.gcc_6.3.0_O3.drop_6000M.length_250M.champsimtrace.xz
Heartbeat CPU 2 instructions: 250000002 cycles: 413500285 heartbeat IPC: 0.15039 cumulative IPC: 0.507202 (Simulation time: 1 hr 51 min 24 sec) 
Finished CPU 2 instructions: 200000002 cycles: 394320377 cumulative IPC: 0.507202 (Simulation time: 1 hr 51 min 24 sec) 

ChampSim completed all CPUs

Total Simulation Statistics (not including warmup)

CPU 0 cumulative IPC: 0.508555 instructions: 200533412 cycles: 394320377
ITLB TOTAL     ACCESS:   44556510  HIT:   44556501  MISS:          9  HIT %:        100  MISS %: 2.01991e-05   MPKI: 4.48803e-05
ITLB LOAD      ACCESS:          0  HIT:          0  MISS:          0  HIT %:       -nan  MISS %:       -nan   MPKI: 0
ITLB RFO       ACCESS:          0  HIT:          0  MISS:          0  HIT %:       -nan  MISS %:       -nan   MPKI: 0
ITLB PREFETCH  ACCESS:          0  HIT:          0  MISS:          0  HIT %:       -nan  MISS %:       -nan   MPKI: 0
ITLB WRITEBACK ACCESS:          0  HIT:          0  MISS:          0  HIT %:       -nan  MISS %:       -nan   MPKI: 0
DTLB TOTAL     ACCESS:   20269815  HIT:   20210041  MISS:      59774  HIT %:    99.7051  MISS %:   0.294892   MPKI: 0.298075
DTLB LOAD      ACCESS:          0  HIT:          0  MISS:          0  HIT %:       -nan  MISS %:       -nan   MPKI: 0
DTLB RFO       ACCESS:          0  HIT:          0  MISS:          0  HIT %:       -nan  MISS %:       -nan   MPKI: 0
DTLB PREFETCH  ACCESS:          0  HIT:          0  MISS:          0  HIT %:       -nan  MISS %:       -nan   MPKI: 0
DTLB WRITEBACK ACCESS:          0  HIT:          0  MISS:          0  HIT %:       -nan  MISS %:       -nan   MPKI: 0
STLB TOTAL     ACCESS:    8399769  HIT:    8339986  MISS:      59783  HIT %:    99.2883  MISS %:   0.711722   MPKI: 0.29812
STLB LOAD      ACCESS:          0  HIT:          0  MISS:          0  HIT %:       -nan  MISS %:       -nan   MPKI: 0
STLB RFO       ACCESS:          0  HIT:          0  MISS:          0  HIT %:       -nan  MISS %:       -nan   MPKI: 0
STLB PREFETCH  ACCESS:          0  HIT:          0  MISS:          0  HIT %:       -nan  MISS %:       -nan   MPKI: 0
STLB WRITEBACK ACCESS:          0  HIT:          0  MISS:          0  HIT %:       -nan  MISS %:       -nan   MPKI: 0
L1D TOTAL     ACCESS:   54293059  HIT:   50468429  MISS:    3824630  HIT %:    92.9556  MISS %:    7.04442   MPKI: 19.0723
L1D LOAD      ACCESS:   12275670  HIT:   11282548  MISS:     993122  HIT %:    91.9098  MISS %:    8.09017   MPKI: 4.9524
L1D RFO       ACCESS:    2555244  HIT:     643873  MISS:    1911371  HIT %:    25.1981  MISS %:    74.8019   MPKI: 9.53143
L1D PREFETCH  ACCESS:   39462145  HIT:   38542008  MISS:     920137  HIT %:    97.6683  MISS %:     2.3317   MPKI: 4.58845
L1D WRITEBACK ACCESS:          0  HIT:          0  MISS:          0  HIT %:       -nan  MISS %:       -nan   MPKI: 0
L1I TOTAL     ACCESS:   53273401  HIT:   53273328  MISS:         73  HIT %:    99.9999  MISS %: 0.000137029   MPKI: 0.000364029
L1I LOAD      ACCESS:   53273401  HIT:   53273328  MISS:         73  HIT %:    99.9999  MISS %: 0.000137029   MPKI: 0.000364029
L1I RFO       ACCESS:          0  HIT:          0  MISS:          0  HIT %:       -nan  MISS %:       -nan   MPKI: 0
L1I PREFETCH  ACCESS:          0  HIT:          0  MISS:          0  HIT %:       -nan  MISS %:       -nan   MPKI: 0
L1I WRITEBACK ACCESS:          0  HIT:          0  MISS:          0  HIT %:       -nan  MISS %:       -nan   MPKI: 0
L2C TOTAL     ACCESS:    7344725  HIT:    3175828  MISS:    4168897  HIT %:    43.2396  MISS %:    56.7604   MPKI: 20.789
L2C LOAD      ACCESS:     440675  HIT:     189783  MISS:     250892  HIT %:    43.0664  MISS %:    56.9336   MPKI: 1.25112
L2C RFO       ACCESS:    1911371  HIT:          0  MISS:    1911371  HIT %:          0  MISS %:        100   MPKI: 9.53143
L2C PREFETCH  ACCESS:    2599510  HIT:     937060  MISS:    1662450  HIT %:    36.0476  MISS %:    63.9524   MPKI: 8.29014
L2C WRITEBACK ACCESS:    1911373  HIT:    1574822  MISS:     336551  HIT %:    82.3922  MISS %:    17.6078   MPKI: 1.67828
PSCL5 TOTAL     ACCESS:     480733  HIT:     480733  MISS:          0  HIT %:        100  MISS %:          0   MPKI: 0
PSCL5 LOAD      ACCESS:          0  HIT:          0  MISS:          0  HIT %:       -nan  MISS %:       -nan   MPKI: 0
PSCL5 RFO       ACCESS:          0  HIT:          0  MISS:          0  HIT %:       -nan  MISS %:       -nan   MPKI: 0
PSCL5 PREFETCH  ACCESS:          0  HIT:          0  MISS:          0  HIT %:       -nan  MISS %:       -nan   MPKI: 0
PSCL5 WRITEBACK ACCESS:          0  HIT:          0  MISS:          0  HIT %:       -nan  MISS %:       -nan   MPKI: 0
PSCL4 TOTAL     ACCESS:     480733  HIT:     480733  MISS:          0  HIT %:        100  MISS %:          0   MPKI: 0
PSCL4 LOAD      ACCESS:          0  HIT:          0  MISS:          0  HIT %:       -nan  MISS %:       -nan   MPKI: 0
PSCL4 RFO       ACCESS:          0  HIT:          0  MISS:          0  HIT %:       -nan  MISS %:       -nan   MPKI: 0
PSCL4 PREFETCH  ACCESS:          0  HIT:          0  MISS:          0  HIT %:       -nan  MISS %:       -nan   MPKI: 0
PSCL4 WRITEBACK ACCESS:          0  HIT:          0  MISS:          0  HIT %:       -nan  MISS %:       -nan   MPKI: 0
PSCL3 TOTAL     ACCESS:     480733  HIT:     480733  MISS:          0  HIT %:        100  MISS %:          0   MPKI: 0
PSCL3 LOAD      ACCESS:          0  HIT:          0  MISS:          0  HIT %:       -nan  MISS %:       -nan   MPKI: 0
PSCL3 RFO       ACCESS:          0  HIT:          0  MISS:          0  HIT %:       -nan  MISS %:       -nan   MPKI: 0
PSCL3 PREFETCH  ACCESS:          0  HIT:          0  MISS:          0  HIT %:       -nan  MISS %:       -nan   MPKI: 0
PSCL3 WRITEBACK ACCESS:          0  HIT:          0  MISS:          0  HIT %:       -nan  MISS %:       -nan   MPKI: 0
PSCL2 TOTAL     ACCESS:     479087  HIT:     478959  MISS:        128  HIT %:    99.9733  MISS %:  0.0267175   MPKI: 0.000638298
PSCL2 LOAD      ACCESS:          0  HIT:          0  MISS:          0  HIT %:       -nan  MISS %:       -nan   MPKI: 0
PSCL2 RFO       ACCESS:          0  HIT:          0  MISS:          0  HIT %:       -nan  MISS %:       -nan   MPKI: 0
PSCL2 PREFETCH  ACCESS:          0  HIT:          0  MISS:          0  HIT %:       -nan  MISS %:       -nan   MPKI: 0
PSCL2 WRITEBACK ACCESS:          0  HIT:          0  MISS:          0  HIT %:       -nan  MISS %:       -nan   MPKI: 0
LLC TOTAL     ACCESS:    5743605  HIT:    1838502  MISS:    3905103  HIT %:    32.0095  MISS %:    67.9905   MPKI: 19.4736
LLC LOAD      ACCESS:      57811  HIT:          0  MISS:      57811  HIT %:          0  MISS %:        100   MPKI: 0.288286
LLC RFO       ACCESS:    1911371  HIT:          0  MISS:    1911371  HIT %:          0  MISS %:        100   MPKI: 9.53143
LLC PREFETCH  ACCESS:    1855531  HIT:          0  MISS:    1855531  HIT %:          0  MISS %:        100   MPKI: 9.25298
LLC WRITEBACK ACCESS:    1911259  HIT:    1838483  MISS:      72776  HIT %:    96.1922  MISS %:    3.80775   MPKI: 0.362912

RAW hits: 1
Loads Generated: 36277233
Loads sent to L1D: 36277232
Stores Generated: 9551357
Stores sent to L1D: 9551359

CPU 1 cumulative IPC: 0.508686 instructions: 200585440 cycles: 394320377
ITLB TOTAL     ACCESS:   44573201  HIT:   44573192  MISS:          9  HIT %:        100  MISS %: 2.01915e-05   MPKI: 4.48687e-05
ITLB LOAD      ACCESS:          0  HIT:          0  MISS:          0  HIT %:       -nan  MISS %:       -nan   MPKI: 0
ITLB RFO       ACCESS:          0  HIT:          0  MISS:          0  HIT %:       -nan  MISS %:       -nan   MPKI: 0
ITLB PREFETCH  ACCESS:          0  HIT:          0  MISS:          0  HIT %:       -nan  MISS %:       -nan   MPKI: 0
ITLB WRITEBACK ACCESS:          0  HIT:          0  MISS:          0  HIT %:       -nan  MISS %:       -nan   MPKI: 0
DTLB TOTAL     ACCESS:   20275494  HIT:   20215715  MISS:      59779  HIT %:    99.7052  MISS %:   0.294834   MPKI: 0.298023
DTLB LOAD      ACCESS:          0  HIT:          0  MISS:          0  HIT %:       -nan  MISS %:       -nan   MPKI: 0
DTLB RFO       ACCESS:          0  HIT:          0  MISS:          0  HIT %:       -nan  MISS %:       -nan   MPKI: 0
DTLB PREFETCH  ACCESS:          0  HIT:          0  MISS:          0  HIT %:       -nan  MISS %:       -nan   MPKI: 0
DTLB WRITEBACK ACCESS:          0  HIT:          0  MISS:          0  HIT %:       -nan  MISS %:       -nan   MPKI: 0
STLB TOTAL     ACCESS:    8401112  HIT:    8341324  MISS:      59788  HIT %:    99.2883  MISS %:   0.711668   MPKI: 0.298067
STLB LOAD      ACCESS:          0  HIT:          0  MISS:          0  HIT %:       -nan  MISS %:       -nan   MPKI: 0
STLB RFO       ACCESS:          0  HIT:          0  MISS:          0  HIT %:       -nan  MISS %:       -nan   MPKI: 0
STLB PREFETCH  ACCESS:          0  HIT:          0  MISS:          0  HIT %:       -nan  MISS %:       -nan   MPKI: 0
STLB WRITEBACK ACCESS:          0  HIT:          0  MISS:          0  HIT %:       -nan  MISS %:       -nan   MPKI: 0
L1D TOTAL     ACCESS:   54346457  HIT:   50521508  MISS:    3824949  HIT %:    92.9619  MISS %:    7.03808   MPKI: 19.0689
L1D LOAD      ACCESS:   12279118  HIT:   11288071  MISS:     991047  HIT %:     91.929  MISS %:      8.071   MPKI: 4.94077
L1D RFO       ACCESS:    2560623  HIT:     649096  MISS:    1911527  HIT %:    25.3491  MISS %:    74.6509   MPKI: 9.52974
L1D PREFETCH  ACCESS:   39506716  HIT:   38584341  MISS:     922375  HIT %:    97.6653  MISS %:    2.33473   MPKI: 4.59841
L1D WRITEBACK ACCESS:          0  HIT:          0  MISS:          0  HIT %:       -nan  MISS %:       -nan   MPKI: 0
L1I TOTAL     ACCESS:   53289132  HIT:   53289059  MISS:         73  HIT %:    99.9999  MISS %: 0.000136989   MPKI: 0.000363935
L1I LOAD      ACCESS:   53289132  HIT:   53289059  MISS:         73  HIT %:    99.9999  MISS %: 0.000136989   MPKI: 0.000363935
L1I RFO       ACCESS:          0  HIT:          0  MISS:          0  HIT %:       -nan  MISS %:       -nan   MPKI: 0
L1I PREFETCH  ACCESS:          0  HIT:          0  MISS:          0  HIT %:       -nan  MISS %:       -nan   MPKI: 0
L1I WRITEBACK ACCESS:          0  HIT:          0  MISS:          0  HIT %:       -nan  MISS %:       -nan   MPKI: 0
L2C TOTAL     ACCESS:    7337910  HIT:    3170802  MISS:    4167108  HIT %:    43.2112  MISS %:    56.7888   MPKI: 20.7747
L2C LOAD      ACCESS:     439880  HIT:     189677  MISS:     250203  HIT %:    43.1202  MISS %:    56.8798   MPKI: 1.24736
L2C RFO       ACCESS:    1911527  HIT:          0  MISS:    1911527  HIT %:          0  MISS %:        100   MPKI: 9.52974
L2C PREFETCH  ACCESS:    2593574  HIT:     930273  MISS:    1663301  HIT %:    35.8684  MISS %:    64.1316   MPKI: 8.29223
L2C WRITEBACK ACCESS:    1911536  HIT:    1577093  MISS:     334443  HIT %:     82.504  MISS %:     17.496   MPKI: 1.66733
PSCL5 TOTAL     ACCESS:     480330  HIT:     480330  MISS:          0  HIT %:        100  MISS %:          0   MPKI: 0
PSCL5 LOAD      ACCESS:          0  HIT:          0  MISS:          0  HIT %:       -nan  MISS %:       -nan   MPKI: 0
PSCL5 RFO       ACCESS:          0  HIT:          0  MISS:          0  HIT %:       -nan  MISS %:       -nan   MPKI: 0
PSCL5 PREFETCH  ACCESS:          0  HIT:          0  MISS:          0  HIT %:       -nan  MISS %:       -nan   MPKI: 0
PSCL5 WRITEBACK ACCESS:          0  HIT:          0  MISS:          0  HIT %:       -nan  MISS %:       -nan   MPKI: 0
PSCL4 TOTAL     ACCESS:     480330  HIT:     480330  MISS:          0  HIT %:        100  MISS %:          0   MPKI: 0
PSCL4 LOAD      ACCESS:          0  HIT:          0  MISS:          0  HIT %:       -nan  MISS %:       -nan   MPKI: 0
PSCL4 RFO       ACCESS:          0  HIT:          0  MISS:          0  HIT %:       -nan  MISS %:       -nan   MPKI: 0
PSCL4 PREFETCH  ACCESS:          0  HIT:          0  MISS:          0  HIT %:       -nan  MISS %:       -nan   MPKI: 0
PSCL4 WRITEBACK ACCESS:          0  HIT:          0  MISS:          0  HIT %:       -nan  MISS %:       -nan   MPKI: 0
PSCL3 TOTAL     ACCESS:     480330  HIT:     480330  MISS:          0  HIT %:        100  MISS %:          0   MPKI: 0
PSCL3 LOAD      ACCESS:          0  HIT:          0  MISS:          0  HIT %:       -nan  MISS %:       -nan   MPKI: 0
PSCL3 RFO       ACCESS:          0  HIT:          0  MISS:          0  HIT %:       -nan  MISS %:       -nan   MPKI: 0
PSCL3 PREFETCH  ACCESS:          0  HIT:          0  MISS:          0  HIT %:       -nan  MISS %:       -nan   MPKI: 0
PSCL3 WRITEBACK ACCESS:          0  HIT:          0  MISS:          0  HIT %:       -nan  MISS %:       -nan   MPKI: 0
PSCL2 TOTAL     ACCESS:     478658  HIT:     478530  MISS:        128  HIT %:    99.9733  MISS %:  0.0267414   MPKI: 0.000638132
PSCL2 LOAD      ACCESS:          0  HIT:          0  MISS:          0  HIT %:       -nan  MISS %:       -nan   MPKI: 0
PSCL2 RFO       ACCESS:          0  HIT:          0  MISS:          0  HIT %:       -nan  MISS %:       -nan   MPKI: 0
PSCL2 PREFETCH  ACCESS:          0  HIT:          0  MISS:          0  HIT %:       -nan  MISS %:       -nan   MPKI: 0
PSCL2 WRITEBACK ACCESS:          0  HIT:          0  MISS:          0  HIT %:       -nan  MISS %:       -nan   MPKI: 0
LLC TOTAL     ACCESS:    5744195  HIT:    1836350  MISS:    3907845  HIT %:    31.9688  MISS %:    68.0312   MPKI: 19.4822
LLC LOAD      ACCESS:      58014  HIT:          0  MISS:      58014  HIT %:          0  MISS %:        100   MPKI: 0.289223
LLC RFO       ACCESS:    1911527  HIT:          0  MISS:    1911527  HIT %:          0  MISS %:        100   MPKI: 9.52974
LLC PREFETCH  ACCESS:    1855490  HIT:          0  MISS:    1855490  HIT %:          0  MISS %:        100   MPKI: 9.25037
LLC WRITEBACK ACCESS:    1911530  HIT:    1836337  MISS:      75193  HIT %:    96.0663  MISS %:    3.93366   MPKI: 0.374868

RAW hits: 2
Loads Generated: 36287135
Loads sent to L1D: 36287132
Stores Generated: 9552593
Stores sent to L1D: 9552595

CPU 2 cumulative IPC: 0.507202 instructions: 200000002 cycles: 394320377
ITLB TOTAL     ACCESS:   44438990  HIT:   44438981  MISS:          9  HIT %:        100  MISS %: 2.02525e-05   MPKI: 4.5e-05
ITLB LOAD      ACCESS:          0  HIT:          0  MISS:          0  HIT %:       -nan  MISS %:       -nan   MPKI: 0
ITLB RFO       ACCESS:          0  HIT:          0  MISS:          0  HIT %:       -nan  MISS %:       -nan   MPKI: 0
ITLB PREFETCH  ACCESS:          0  HIT:          0  MISS:          0  HIT %:       -nan  MISS %:       -nan   MPKI: 0
ITLB WRITEBACK ACCESS:          0  HIT:          0  MISS:          0  HIT %:       -nan  MISS %:       -nan   MPKI: 0
DTLB TOTAL     ACCESS:   20222124  HIT:   20162403  MISS:      59721  HIT %:    99.7047  MISS %:   0.295325   MPKI: 0.298605
DTLB LOAD      ACCESS:          0  HIT:          0  MISS:          0  HIT %:       -nan  MISS %:       -nan   MPKI: 0
DTLB RFO       ACCESS:          0  HIT:          0  MISS:          0  HIT %:       -nan  MISS %:       -nan   MPKI: 0
DTLB PREFETCH  ACCESS:          0  HIT:          0  MISS:          0  HIT %:       -nan  MISS %:       -nan   MPKI: 0
DTLB WRITEBACK ACCESS:          0  HIT:          0  MISS:          0  HIT %:       -nan  MISS %:       -nan   MPKI: 0
STLB TOTAL     ACCESS:    8372633  HIT:    8312903  MISS:      59730  HIT %:    99.2866  MISS %:   0.713396   MPKI: 0.29865
STLB LOAD      ACCESS:          0  HIT:          0  MISS:          0  HIT %:       -nan  MISS %:       -nan   MPKI: 0
STLB RFO       ACCESS:          0  HIT:          0  MISS:          0  HIT %:       -nan  MISS %:       -nan   MPKI: 0
STLB PREFETCH  ACCESS:          0  HIT:          0  MISS:          0  HIT %:       -nan  MISS %:       -nan   MPKI: 0
STLB WRITEBACK ACCESS:          0  HIT:          0  MISS:          0  HIT %:       -nan  MISS %:       -nan   MPKI: 0
L1D TOTAL     ACCESS:   54141185  HIT:   50319732  MISS:    3821453  HIT %:    92.9417  MISS %:    7.05831   MPKI: 19.1073
L1D LOAD      ACCESS:   12241053  HIT:   11250251  MISS:     990802  HIT %:    91.9059  MISS %:    8.09409   MPKI: 4.95401
L1D RFO       ACCESS:    2550846  HIT:     641060  MISS:    1909786  HIT %:    25.1313  MISS %:    74.8687   MPKI: 9.54893
L1D PREFETCH  ACCESS:   39349286  HIT:   38428421  MISS:     920865  HIT %:    97.6598  MISS %:    2.34023   MPKI: 4.60432
L1D WRITEBACK ACCESS:          0  HIT:          0  MISS:          0  HIT %:       -nan  MISS %:       -nan   MPKI: 0
L1I TOTAL     ACCESS:   53119177  HIT:   53119104  MISS:         73  HIT %:    99.9999  MISS %: 0.000137427   MPKI: 0.000365
L1I LOAD      ACCESS:   53119177  HIT:   53119104  MISS:         73  HIT %:    99.9999  MISS %: 0.000137427   MPKI: 0.000365
L1I RFO       ACCESS:          0  HIT:          0  MISS:          0  HIT %:       -nan  MISS %:       -nan   MPKI: 0
L1I PREFETCH  ACCESS:          0  HIT:          0  MISS:          0  HIT %:       -nan  MISS %:       -nan   MPKI: 0
L1I WRITEBACK ACCESS:          0  HIT:          0  MISS:          0  HIT %:       -nan  MISS %:       -nan   MPKI: 0
L2C TOTAL     ACCESS:    7340595  HIT:    3175298  MISS:    4165297  HIT %:    43.2567  MISS %:    56.7433   MPKI: 20.8265
L2C LOAD      ACCESS:     439120  HIT:     189357  MISS:     249763  HIT %:    43.1219  MISS %:    56.8781   MPKI: 1.24881
L2C RFO       ACCESS:    1909786  HIT:          0  MISS:    1909786  HIT %:          0  MISS %:        100   MPKI: 9.54893
L2C PREFETCH  ACCESS:    2600403  HIT:     938421  MISS:    1661982  HIT %:    36.0875  MISS %:    63.9125   MPKI: 8.30991
L2C WRITEBACK ACCESS:    1909793  HIT:    1573650  MISS:     336143  HIT %:     82.399  MISS %:     17.601   MPKI: 1.68071
PSCL5 TOTAL     ACCESS:     480433  HIT:     480433  MISS:          0  HIT %:        100  MISS %:          0   MPKI: 0
PSCL5 LOAD      ACCESS:          0  HIT:          0  MISS:          0  HIT %:       -nan  MISS %:       -nan   MPKI: 0
PSCL5 RFO       ACCESS:          0  HIT:          0  MISS:          0  HIT %:       -nan  MISS %:       -nan   MPKI: 0
PSCL5 PREFETCH  ACCESS:          0  HIT:          0  MISS:          0  HIT %:       -nan  MISS %:       -nan   MPKI: 0
PSCL5 WRITEBACK ACCESS:          0  HIT:          0  MISS:          0  HIT %:       -nan  MISS %:       -nan   MPKI: 0
PSCL4 TOTAL     ACCESS:     480433  HIT:     480433  MISS:          0  HIT %:        100  MISS %:          0   MPKI: 0
PSCL4 LOAD      ACCESS:          0  HIT:          0  MISS:          0  HIT %:       -nan  MISS %:       -nan   MPKI: 0
PSCL4 RFO       ACCESS:          0  HIT:          0  MISS:          0  HIT %:       -nan  MISS %:       -nan   MPKI: 0
PSCL4 PREFETCH  ACCESS:          0  HIT:          0  MISS:          0  HIT %:       -nan  MISS %:       -nan   MPKI: 0
PSCL4 WRITEBACK ACCESS:          0  HIT:          0  MISS:          0  HIT %:       -nan  MISS %:       -nan   MPKI: 0
PSCL3 TOTAL     ACCESS:     480433  HIT:     480433  MISS:          0  HIT %:        100  MISS %:          0   MPKI: 0
PSCL3 LOAD      ACCESS:          0  HIT:          0  MISS:          0  HIT %:       -nan  MISS %:       -nan   MPKI: 0
PSCL3 RFO       ACCESS:          0  HIT:          0  MISS:          0  HIT %:       -nan  MISS %:       -nan   MPKI: 0
PSCL3 PREFETCH  ACCESS:          0  HIT:          0  MISS:          0  HIT %:       -nan  MISS %:       -nan   MPKI: 0
PSCL3 WRITEBACK ACCESS:          0  HIT:          0  MISS:          0  HIT %:       -nan  MISS %:       -nan   MPKI: 0
PSCL2 TOTAL     ACCESS:     478766  HIT:     478641  MISS:        125  HIT %:    99.9739  MISS %:  0.0261088   MPKI: 0.000625
PSCL2 LOAD      ACCESS:          0  HIT:          0  MISS:          0  HIT %:       -nan  MISS %:       -nan   MPKI: 0
PSCL2 RFO       ACCESS:          0  HIT:          0  MISS:          0  HIT %:       -nan  MISS %:       -nan   MPKI: 0
PSCL2 PREFETCH  ACCESS:          0  HIT:          0  MISS:          0  HIT %:       -nan  MISS %:       -nan   MPKI: 0
PSCL2 WRITEBACK ACCESS:          0  HIT:          0  MISS:          0  HIT %:       -nan  MISS %:       -nan   MPKI: 0
LLC TOTAL     ACCESS:    5738975  HIT:    1834628  MISS:    3904347  HIT %:    31.9679  MISS %:    68.0321   MPKI: 19.5217
LLC LOAD      ACCESS:      57921  HIT:          0  MISS:      57921  HIT %:          0  MISS %:        100   MPKI: 0.289605
LLC RFO       ACCESS:    1909786  HIT:          0  MISS:    1909786  HIT %:          0  MISS %:        100   MPKI: 9.54893
LLC PREFETCH  ACCESS:    1853824  HIT:          0  MISS:    1853824  HIT %:          0  MISS %:        100   MPKI: 9.26912
LLC WRITEBACK ACCESS:    1909821  HIT:    1834610  MISS:      75211  HIT %:    96.0619  MISS %:    3.93812   MPKI: 0.376055

RAW hits: 3
Loads Generated: 36175646
Loads sent to L1D: 36175643
Stores Generated: 9538677
Stores sent to L1D: 9538680

CPU 3 cumulative IPC: 0.507483 instructions: 200110945 cycles: 394320377
ITLB TOTAL     ACCESS:   44464550  HIT:   44464541  MISS:          9  HIT %:        100  MISS %: 2.02408e-05   MPKI: 4.49751e-05
ITLB LOAD      ACCESS:          0  HIT:          0  MISS:          0  HIT %:       -nan  MISS %:       -nan   MPKI: 0
ITLB RFO       ACCESS:          0  HIT:          0  MISS:          0  HIT %:       -nan  MISS %:       -nan   MPKI: 0
ITLB PREFETCH  ACCESS:          0  HIT:          0  MISS:          0  HIT %:       -nan  MISS %:       -nan   MPKI: 0
ITLB WRITEBACK ACCESS:          0  HIT:          0  MISS:          0  HIT %:       -nan  MISS %:       -nan   MPKI: 0
DTLB TOTAL     ACCESS:   20233258  HIT:   20173523  MISS:      59735  HIT %:    99.7048  MISS %:   0.295232   MPKI: 0.298509
DTLB LOAD      ACCESS:          0  HIT:          0  MISS:          0  HIT %:       -nan  MISS %:       -nan   MPKI: 0
DTLB RFO       ACCESS:          0  HIT:          0  MISS:          0  HIT %:       -nan  MISS %:       -nan   MPKI: 0
DTLB PREFETCH  ACCESS:          0  HIT:          0  MISS:          0  HIT %:       -nan  MISS %:       -nan   MPKI: 0
DTLB WRITEBACK ACCESS:          0  HIT:          0  MISS:          0  HIT %:       -nan  MISS %:       -nan   MPKI: 0
STLB TOTAL     ACCESS:    8377151  HIT:    8317407  MISS:      59744  HIT %:    99.2868  MISS %:   0.713178   MPKI: 0.298554
STLB LOAD      ACCESS:          0  HIT:          0  MISS:          0  HIT %:       -nan  MISS %:       -nan   MPKI: 0
STLB RFO       ACCESS:          0  HIT:          0  MISS:          0  HIT %:       -nan  MISS %:       -nan   MPKI: 0
STLB PREFETCH  ACCESS:          0  HIT:          0  MISS:          0  HIT %:       -nan  MISS %:       -nan   MPKI: 0
STLB WRITEBACK ACCESS:          0  HIT:          0  MISS:          0  HIT %:       -nan  MISS %:       -nan   MPKI: 0
L1D TOTAL     ACCESS:   54188288  HIT:   50366170  MISS:    3822118  HIT %:    92.9466  MISS %:     7.0534   MPKI: 19.1
L1D LOAD      ACCESS:   12248404  HIT:   11257137  MISS:     991267  HIT %:     91.907  MISS %:    8.09303   MPKI: 4.95359
L1D RFO       ACCESS:    2559854  HIT:     649737  MISS:    1910117  HIT %:    25.3818  MISS %:    74.6182   MPKI: 9.54529
L1D PREFETCH  ACCESS:   39380030  HIT:   38459296  MISS:     920734  HIT %:    97.6619  MISS %:    2.33807   MPKI: 4.60112
L1D WRITEBACK ACCESS:          0  HIT:          0  MISS:          0  HIT %:       -nan  MISS %:       -nan   MPKI: 0
L1I TOTAL     ACCESS:   53152542  HIT:   53152469  MISS:         73  HIT %:    99.9999  MISS %: 0.000137341   MPKI: 0.000364798
L1I LOAD      ACCESS:   53152542  HIT:   53152469  MISS:         73  HIT %:    99.9999  MISS %: 0.000137341   MPKI: 0.000364798
L1I RFO       ACCESS:          0  HIT:          0  MISS:          0  HIT %:       -nan  MISS %:       -nan   MPKI: 0
L1I PREFETCH  ACCESS:          0  HIT:          0  MISS:          0  HIT %:       -nan  MISS %:       -nan   MPKI: 0
L1I WRITEBACK ACCESS:          0  HIT:          0  MISS:          0  HIT %:       -nan  MISS %:       -nan   MPKI: 0
L2C TOTAL     ACCESS:    7339999  HIT:    3178473  MISS:    4161526  HIT %:    43.3035  MISS %:    56.6965   MPKI: 20.7961
L2C LOAD      ACCESS:     439187  HIT:     189082  MISS:     250105  HIT %:    43.0527  MISS %:    56.9473   MPKI: 1.24983
L2C RFO       ACCESS:    1910117  HIT:          0  MISS:    1910117  HIT %:          0  MISS %:        100   MPKI: 9.54529
L2C PREFETCH  ACCESS:    2599514  HIT:     937540  MISS:    1661974  HIT %:     36.066  MISS %:     63.934   MPKI: 8.30526
L2C WRITEBACK ACCESS:    1910129  HIT:    1578428  MISS:     331701  HIT %:    82.6346  MISS %:    17.3654   MPKI: 1.65759
PSCL5 TOTAL     ACCESS:     479989  HIT:     479989  MISS:          0  HIT %:        100  MISS %:          0   MPKI: 0
PSCL5 LOAD      ACCESS:          0  HIT:          0  MISS:          0  HIT %:       -nan  MISS %:       -nan   MPKI: 0
PSCL5 RFO       ACCESS:          0  HIT:          0  MISS:          0  HIT %:       -nan  MISS %:       -nan   MPKI: 0
PSCL5 PREFETCH  ACCESS:          0  HIT:          0  MISS:          0  HIT %:       -nan  MISS %:       -nan   MPKI: 0
PSCL5 WRITEBACK ACCESS:          0  HIT:          0  MISS:          0  HIT %:       -nan  MISS %:       -nan   MPKI: 0
PSCL4 TOTAL     ACCESS:     479989  HIT:     479989  MISS:          0  HIT %:        100  MISS %:          0   MPKI: 0
PSCL4 LOAD      ACCESS:          0  HIT:          0  MISS:          0  HIT %:       -nan  MISS %:       -nan   MPKI: 0
PSCL4 RFO       ACCESS:          0  HIT:          0  MISS:          0  HIT %:       -nan  MISS %:       -nan   MPKI: 0
PSCL4 PREFETCH  ACCESS:          0  HIT:          0  MISS:          0  HIT %:       -nan  MISS %:       -nan   MPKI: 0
PSCL4 WRITEBACK ACCESS:          0  HIT:          0  MISS:          0  HIT %:       -nan  MISS %:       -nan   MPKI: 0
PSCL3 TOTAL     ACCESS:     479989  HIT:     479989  MISS:          0  HIT %:        100  MISS %:          0   MPKI: 0
PSCL3 LOAD      ACCESS:          0  HIT:          0  MISS:          0  HIT %:       -nan  MISS %:       -nan   MPKI: 0
PSCL3 RFO       ACCESS:          0  HIT:          0  MISS:          0  HIT %:       -nan  MISS %:       -nan   MPKI: 0
PSCL3 PREFETCH  ACCESS:          0  HIT:          0  MISS:          0  HIT %:       -nan  MISS %:       -nan   MPKI: 0
PSCL3 WRITEBACK ACCESS:          0  HIT:          0  MISS:          0  HIT %:       -nan  MISS %:       -nan   MPKI: 0
PSCL2 TOTAL     ACCESS:     478353  HIT:     478225  MISS:        128  HIT %:    99.9732  MISS %:  0.0267585   MPKI: 0.000639645
PSCL2 LOAD      ACCESS:          0  HIT:          0  MISS:          0  HIT %:       -nan  MISS %:       -nan   MPKI: 0
PSCL2 RFO       ACCESS:          0  HIT:          0  MISS:          0  HIT %:       -nan  MISS %:       -nan   MPKI: 0
PSCL2 PREFETCH  ACCESS:          0  HIT:          0  MISS:          0  HIT %:       -nan  MISS %:       -nan   MPKI: 0
PSCL2 WRITEBACK ACCESS:          0  HIT:          0  MISS:          0  HIT %:       -nan  MISS %:       -nan   MPKI: 0
LLC TOTAL     ACCESS:    5740022  HIT:    1837904  MISS:    3902118  HIT %:    32.0191  MISS %:    67.9809   MPKI: 19.4998
LLC LOAD      ACCESS:      58070  HIT:          0  MISS:      58070  HIT %:          0  MISS %:        100   MPKI: 0.290189
LLC RFO       ACCESS:    1910117  HIT:          0  MISS:    1910117  HIT %:          0  MISS %:        100   MPKI: 9.54529
LLC PREFETCH  ACCESS:    1854009  HIT:          0  MISS:    1854009  HIT %:          0  MISS %:        100   MPKI: 9.26491
LLC WRITEBACK ACCESS:    1910197  HIT:    1837890  MISS:      72307  HIT %:    96.2147  MISS %:    3.78532   MPKI: 0.361335

RAW hits: 3
Loads Generated: 36196792
Loads sent to L1D: 36196788
Stores Generated: 9541316
Stores sent to L1D: 9541316

Region of Interest Statistics

CPU 0 cumulative IPC: 0.507804 instructions: 200000002 cycles: 393852748
ITLB TOTAL     ACCESS:   44433735  HIT:   44433726  MISS:          9  HIT %:        100  MISS %: 2.02549e-05   MPKI: 4.5e-05
ITLB LOAD TRANSLATION ACCESS:   44433735  HIT:   44433726  MISS:          9  HIT %:        100  MISS %: 2.02549e-05   MPKI: 4.5e-05
ITLB PREFETCH  REQUESTED:          0  ISSUED:          0  USEFUL:          0  USELESS:          0
ITLB USEFUL LOAD PREFETCHES:          0 PREFETCH ISSUED TO LOWER LEVEL:          0  ACCURACY: -nan
ITLB TIMELY PREFETCHES:          0 LATE PREFETCHES: 0 DROPPED PREFETCHES: 0
ITLB PREFETCHES SAME FILL-ORIGIN LEVEL: 0 DIFFERENT FILL-ORIGIN LEVEL: 0
ITLB AVERAGE MISS LATENCY: 432 cycles
ITLB RQ	ACCESS:   53273412	FORWARD:          0	MERGED:    8716902	TO_CACHE:   44556510

DTLB TOTAL     ACCESS:   20222803  HIT:   20163082  MISS:      59721  HIT %:    99.7047  MISS %:   0.295315   MPKI: 0.298605
DTLB LOAD TRANSLATION ACCESS:   20222803  HIT:   20163082  MISS:      59721  HIT %:    99.7047  MISS %:   0.295315   MPKI: 0.298605
DTLB PREFETCH  REQUESTED:          0  ISSUED:          0  USEFUL:          0  USELESS:          0
DTLB USEFUL LOAD PREFETCHES:          0 PREFETCH ISSUED TO LOWER LEVEL:          0  ACCURACY: -nan
DTLB TIMELY PREFETCHES:          0 LATE PREFETCHES: 0 DROPPED PREFETCHES: 0
DTLB PREFETCHES SAME FILL-ORIGIN LEVEL: 0 DIFFERENT FILL-ORIGIN LEVEL: 0
DTLB AVERAGE MISS LATENCY: 219.772 cycles
DTLB RQ	ACCESS:   22225338	FORWARD:          0	MERGED:    1738121	TO_CACHE:   20487217

STLB TOTAL     ACCESS:    8372308  HIT:    8312578  MISS:      59730  HIT %:    99.2866  MISS %:   0.713423   MPKI: 0.29865
STLB LOAD TRANSLATION ACCESS:      59730  HIT:          0  MISS:      59730  HIT %:          0  MISS %:        100   MPKI: 0.29865
STLB TRANSLATION FROM L1D PREFETCHER ACCESS:    8312578  HIT:    8312578  MISS:          0  HIT %:        100  MISS %:          0   MPKI: 0
STLB PREFETCH  REQUESTED:          0  ISSUED:          0  USEFUL:         25  USELESS:          0
STLB USEFUL LOAD PREFETCHES:         25 PREFETCH ISSUED TO LOWER LEVEL:          0  ACCURACY: inf
STLB TIMELY PREFETCHES:         25 LATE PREFETCHES: 13582 DROPPED PREFETCHES: 407368
STLB PREFETCHES SAME FILL-ORIGIN LEVEL: 0 DIFFERENT FILL-ORIGIN LEVEL: 0
STLB AVERAGE MISS LATENCY: 189.971 cycles
STLB RQ	ACCESS:   52502550	FORWARD:          0	MERGED:   43598479	TO_CACHE:    8904071

STLB Hit, L1D data hit: 0
STLB Hit, L2C data hit: 0
STLB Hit, LLC data hit: 0
STLB Hit, LLC data miss: 0
STLB STLB hints to L2: 0
L1D TOTAL     ACCESS:   54162139  HIT:   50340691  MISS:    3821448  HIT %:    92.9444  MISS %:    7.05557   MPKI: 19.1072
L1D LOAD      ACCESS:   12241334  HIT:   11248286  MISS:     993048  HIT %:    91.8877  MISS %:    8.11225   MPKI: 4.96524
L1D RFO       ACCESS:    2553575  HIT:     643789  MISS:    1909786  HIT %:    25.2113  MISS %:    74.7887   MPKI: 9.54893
L1D PREFETCH  ACCESS:   39367230  HIT:   38448616  MISS:     918614  HIT %:    97.6666  MISS %:    2.33345   MPKI: 4.59307
L1D PREFETCH  REQUESTED:  227228184  ISSUED:  227162958  USEFUL:     920135  USELESS:          8
L1D USEFUL LOAD PREFETCHES:     920135 PREFETCH ISSUED TO LOWER LEVEL:    5022044  ACCURACY: 18.3219
L1D TIMELY PREFETCHES:     920135 LATE PREFETCHES: 552520 DROPPED PREFETCHES: 1800677
L1D PREFETCHES SAME FILL-ORIGIN LEVEL: 1472661 DIFFERENT FILL-ORIGIN LEVEL: 3549383
L1D AVERAGE MISS LATENCY: 644.278 cycles
L1D RQ	ACCESS:   36277232	FORWARD:          0	MERGED:   23603253	TO_CACHE:   12673979
L1D WQ	ACCESS:    9551359	FORWARD:          0	MERGED:          0	TO_CACHE:    9551359
L1D PQ	ACCESS:  174720191	FORWARD:          0	MERGED:  122277424	TO_CACHE:   52442767

L1D UNIQUE REGIONS ACCESSED: 0
L1D REGIONS CONFLICTS: 0
L1D Cross Page Prefetch Requests: 20239861
L1D Same Page Prefetch Requests: 279403166
L1D ROI Sum of L1D PQ occupancy: 1180256386
L1D PREFETCHES PUSHED FROM L2C: 0
L1I TOTAL     ACCESS:   53120180  HIT:   53120107  MISS:         73  HIT %:    99.9999  MISS %: 0.000137424   MPKI: 0.000365
L1I LOAD      ACCESS:   53120180  HIT:   53120107  MISS:         73  HIT %:    99.9999  MISS %: 0.000137424   MPKI: 0.000365
L1I PREFETCH  REQUESTED:          0  ISSUED:          0  USEFUL:          0  USELESS:          0
L1I USEFUL LOAD PREFETCHES:          0 PREFETCH ISSUED TO LOWER LEVEL:          0  ACCURACY: -nan
L1I TIMELY PREFETCHES:          0 LATE PREFETCHES: 0 DROPPED PREFETCHES: 0
L1I PREFETCHES SAME FILL-ORIGIN LEVEL: 0 DIFFERENT FILL-ORIGIN LEVEL: 0
L1I AVERAGE MISS LATENCY: 275.795 cycles
L1I RQ	ACCESS:   92759041	FORWARD:          0	MERGED:   39485629	TO_CACHE:   53273412

BTB TOTAL     ACCESS:   66537166  HIT:   66537091  MISS:         75  HIT %:    99.9999  MISS %: 0.000112719   MPKI: 0.000375
BTB BRANCH_DIRECT_JUMP	ACCESS:         14  HIT:          0  MISS:         14
BTB BRANCH_INDIRECT	ACCESS:          0  HIT:          0  MISS:          0
BTB BRANCH_CONDITIONAL	ACCESS:   66537137  HIT:   66537091  MISS:         46
BTB BRANCH_DIRECT_CALL	ACCESS:          6  HIT:          0  MISS:          6
BTB BRANCH_INDIRECT_CALL	ACCESS:          1  HIT:          0  MISS:          1
BTB BRANCH_RETURN	ACCESS:          8  HIT:          0  MISS:          8
BTB BRANCH_OTHER ACCESS:          0  HIT:          0  MISS:          0

L2C TOTAL     ACCESS:    7339374  HIT:    3174381  MISS:    4164993  HIT %:    43.2514  MISS %:    56.7486   MPKI: 20.825
L2C LOAD      ACCESS:     440672  HIT:     189783  MISS:     250889  HIT %:    43.0667  MISS %:    56.9333   MPKI: 1.25444
L2C DATA LOAD MPKI: 1.25408
L2C INSTRUCTION LOAD MPKI: 0.000365
L2C RFO       ACCESS:    1909786  HIT:          0  MISS:    1909786  HIT %:          0  MISS %:        100   MPKI: 9.54893
L2C PREFETCH  ACCESS:    2597383  HIT:     936527  MISS:    1660856  HIT %:    36.0566  MISS %:    63.9434   MPKI: 8.30428
L2C DATA PREFETCH MPKI: 8.30428
L2C INSTRUCTION PREFETCH MPKI: 0
L2C WRITEBACK ACCESS:    1909793  HIT:    1573952  MISS:     335841  HIT %:    82.4148  MISS %:    17.5852   MPKI: 1.6792
L2C LOAD TRANSLATION ACCESS:      59734  HIT:      55929  MISS:       3805  HIT %:    93.6301  MISS %:    6.36991   MPKI: 0.019025
L2C TRANSLATION FROM L1D PREFETCHER ACCESS:     422006  HIT:     418190  MISS:       3816  HIT %:    99.0957  MISS %:   0.904253   MPKI: 0.01908
L2C PREFETCH  REQUESTED:          0  ISSUED:          0  USEFUL:     193602  USELESS:    1473584
L2C USEFUL LOAD PREFETCHES:     193602 PREFETCH ISSUED TO LOWER LEVEL:    1855535  ACCURACY: 10.4338
L2C TIMELY PREFETCHES:     193602 LATE PREFETCHES: 193081 DROPPED PREFETCHES: 0
L2C PREFETCHES SAME FILL-ORIGIN LEVEL: 1167437 DIFFERENT FILL-ORIGIN LEVEL: 0
L2C AVERAGE MISS LATENCY: 909.034 cycles
L2C RQ	ACCESS:    2833846	FORWARD:          0	MERGED:          0	TO_CACHE:    2833846
L2C WQ	ACCESS:    1911373	FORWARD:          0	MERGED:          0	TO_CACHE:    1911373
L2C PQ	ACCESS:    5022044	FORWARD:          0	MERGED:     250567	TO_CACHE:    4771477

L2C Instructions Evicting Data 73
L2C Translations Evicting Data 7631
L2C Data Evicting Data 3817417
L2C Instructions Evicting Instructions 0
L2C Translations Evicting Instructions 0
L2C Data Evicting Instructions 67
L2C Instructions Evicting Translations 0
L2C Translations Evicting Translations 2
L2C Data Evicting Translations 7156
L2C Dense regions hint from L2: 0
PSCL5 TOTAL     ACCESS:     480681  HIT:     480681  MISS:          0  HIT %:        100  MISS %:          0   MPKI: 0
PSCL5 LOAD TRANSLATION ACCESS:      59731  HIT:      59731  MISS:          0  HIT %:        100  MISS %:          0   MPKI: 0
PSCL5 TRANSLATION FROM L1D PREFETCHER ACCESS:     420950  HIT:     420950  MISS:          0  HIT %:        100  MISS %:          0   MPKI: 0
PSCL5 PREFETCH  REQUESTED:          0  ISSUED:          0  USEFUL:          0  USELESS:          0
PSCL5 USEFUL LOAD PREFETCHES:          0 PREFETCH ISSUED TO LOWER LEVEL:          0  ACCURACY: -nan
PSCL5 TIMELY PREFETCHES:          0 LATE PREFETCHES: 0 DROPPED PREFETCHES: 0
PSCL5 PREFETCHES SAME FILL-ORIGIN LEVEL: 0 DIFFERENT FILL-ORIGIN LEVEL: 0

PSCL4 TOTAL     ACCESS:     480681  HIT:     480681  MISS:          0  HIT %:        100  MISS %:          0   MPKI: 0
PSCL4 LOAD TRANSLATION ACCESS:      59731  HIT:      59731  MISS:          0  HIT %:        100  MISS %:          0   MPKI: 0
PSCL4 TRANSLATION FROM L1D PREFETCHER ACCESS:     420950  HIT:     420950  MISS:          0  HIT %:        100  MISS %:          0   MPKI: 0
PSCL4 PREFETCH  REQUESTED:          0  ISSUED:          0  USEFUL:          0  USELESS:          0
PSCL4 USEFUL LOAD PREFETCHES:          0 PREFETCH ISSUED TO LOWER LEVEL:          0  ACCURACY: -nan
PSCL4 TIMELY PREFETCHES:          0 LATE PREFETCHES: 0 DROPPED PREFETCHES: 0
PSCL4 PREFETCHES SAME FILL-ORIGIN LEVEL: 0 DIFFERENT FILL-ORIGIN LEVEL: 0

PSCL3 TOTAL     ACCESS:     480681  HIT:     480681  MISS:          0  HIT %:        100  MISS %:          0   MPKI: 0
PSCL3 LOAD TRANSLATION ACCESS:      59731  HIT:      59731  MISS:          0  HIT %:        100  MISS %:          0   MPKI: 0
PSCL3 TRANSLATION FROM L1D PREFETCHER ACCESS:     420950  HIT:     420950  MISS:          0  HIT %:        100  MISS %:          0   MPKI: 0
PSCL3 PREFETCH  REQUESTED:          0  ISSUED:          0  USEFUL:          0  USELESS:          0
PSCL3 USEFUL LOAD PREFETCHES:          0 PREFETCH ISSUED TO LOWER LEVEL:          0  ACCURACY: -nan
PSCL3 TIMELY PREFETCHES:          0 LATE PREFETCHES: 0 DROPPED PREFETCHES: 0
PSCL3 PREFETCHES SAME FILL-ORIGIN LEVEL: 0 DIFFERENT FILL-ORIGIN LEVEL: 0

PSCL2 TOTAL     ACCESS:     479034  HIT:     478909  MISS:        125  HIT %:    99.9739  MISS %:  0.0260942   MPKI: 0.000625
PSCL2 LOAD TRANSLATION ACCESS:      59730  HIT:      59605  MISS:        125  HIT %:    99.7907  MISS %:   0.209275   MPKI: 0.000625
PSCL2 TRANSLATION FROM L1D PREFETCHER ACCESS:     419304  HIT:     419304  MISS:          0  HIT %:        100  MISS %:          0   MPKI: 0
PSCL2 PREFETCH  REQUESTED:          0  ISSUED:          0  USEFUL:          0  USELESS:          0
PSCL2 USEFUL LOAD PREFETCHES:          0 PREFETCH ISSUED TO LOWER LEVEL:          0  ACCURACY: -nan
PSCL2 TIMELY PREFETCHES:          0 LATE PREFETCHES: 0 DROPPED PREFETCHES: 0
PSCL2 PREFETCHES SAME FILL-ORIGIN LEVEL: 0 DIFFERENT FILL-ORIGIN LEVEL: 0

LLC TOTAL     ACCESS:    5739021  HIT:    1837138  MISS:    3901883  HIT %:    32.0113  MISS %:    67.9887   MPKI: 19.5094
LLC LOAD      ACCESS:      57808  HIT:          0  MISS:      57808  HIT %:          0  MISS %:        100   MPKI: 0.28904
LLC RFO       ACCESS:    1909786  HIT:          0  MISS:    1909786  HIT %:          0  MISS %:        100   MPKI: 9.54893
LLC PREFETCH  ACCESS:    1853937  HIT:          0  MISS:    1853937  HIT %:          0  MISS %:        100   MPKI: 9.26968
LLC WRITEBACK ACCESS:    1909869  HIT:    1837119  MISS:      72750  HIT %:    96.1908  MISS %:    3.80916   MPKI: 0.36375
LLC LOAD TRANSLATION ACCESS:       3805  HIT:          2  MISS:       3803  HIT %:  0.0525624  MISS %:    99.9474   MPKI: 0.019015
LLC TRANSLATION FROM L1D PREFETCHER ACCESS:       3816  HIT:         17  MISS:       3799  HIT %:   0.445493  MISS %:    99.5545   MPKI: 0.018995
LLC PREFETCH  REQUESTED:          0  ISSUED:          0  USEFUL:         11  USELESS:    7434204
LLC USEFUL LOAD PREFETCHES:         11 PREFETCH ISSUED TO LOWER LEVEL:  197769193  ACCURACY: 5.56204e-06
LLC TIMELY PREFETCHES:         11 LATE PREFETCHES: 0 DROPPED PREFETCHES: 0
LLC PREFETCHES SAME FILL-ORIGIN LEVEL: 0 DIFFERENT FILL-ORIGIN LEVEL: 0
LLC AVERAGE MISS LATENCY: 3812.39 cycles
LLC RQ	ACCESS:    7905147	FORWARD:          0	MERGED:          0	TO_CACHE:    7905147
LLC WQ	ACCESS:    7642807	FORWARD:          0	MERGED:          0	TO_CACHE:    7642807
LLC PQ	ACCESS:    7418864	FORWARD:          0	MERGED:          0	TO_CACHE:    7418864

LLC Dense regions hint to LLC: 0

RAW hits: 1
Loads Generated: 36175648
Loads sent to L1D: 36175646
Stores Generated: 9538678
Stores sent to L1D: 9538680
Major fault: 0 Minor fault: 64529
Allocated PAGES: 258116

CPU 1 cumulative IPC: 0.507841 instructions: 200000000 cycles: 393824216
ITLB TOTAL     ACCESS:   44438320  HIT:   44438311  MISS:          9  HIT %:        100  MISS %: 2.02528e-05   MPKI: 4.5e-05
ITLB LOAD TRANSLATION ACCESS:   44438320  HIT:   44438311  MISS:          9  HIT %:        100  MISS %: 2.02528e-05   MPKI: 4.5e-05
ITLB PREFETCH  REQUESTED:          0  ISSUED:          0  USEFUL:          0  USELESS:          0
ITLB USEFUL LOAD PREFETCHES:          0 PREFETCH ISSUED TO LOWER LEVEL:          0  ACCURACY: -nan
ITLB TIMELY PREFETCHES:          0 LATE PREFETCHES: 0 DROPPED PREFETCHES: 0
ITLB PREFETCHES SAME FILL-ORIGIN LEVEL: 0 DIFFERENT FILL-ORIGIN LEVEL: 0
ITLB AVERAGE MISS LATENCY: 429.889 cycles
ITLB RQ	ACCESS:   53289144	FORWARD:          0	MERGED:    8715942	TO_CACHE:   44573202

DTLB TOTAL     ACCESS:   20223967  HIT:   20164246  MISS:      59721  HIT %:    99.7047  MISS %:   0.295298   MPKI: 0.298605
DTLB LOAD TRANSLATION ACCESS:   20223967  HIT:   20164246  MISS:      59721  HIT %:    99.7047  MISS %:   0.295298   MPKI: 0.298605
DTLB PREFETCH  REQUESTED:          0  ISSUED:          0  USEFUL:          0  USELESS:          0
DTLB USEFUL LOAD PREFETCHES:          0 PREFETCH ISSUED TO LOWER LEVEL:          0  ACCURACY: -nan
DTLB TIMELY PREFETCHES:          0 LATE PREFETCHES: 0 DROPPED PREFETCHES: 0
DTLB PREFETCHES SAME FILL-ORIGIN LEVEL: 0 DIFFERENT FILL-ORIGIN LEVEL: 0
DTLB AVERAGE MISS LATENCY: 219.711 cycles
DTLB RQ	ACCESS:   22230598	FORWARD:          0	MERGED:    1737845	TO_CACHE:   20492753

STLB TOTAL     ACCESS:    8371370  HIT:    8311640  MISS:      59730  HIT %:    99.2865  MISS %:   0.713503   MPKI: 0.29865
STLB LOAD TRANSLATION ACCESS:      59730  HIT:          0  MISS:      59730  HIT %:          0  MISS %:        100   MPKI: 0.29865
STLB TRANSLATION FROM L1D PREFETCHER ACCESS:    8311640  HIT:    8311640  MISS:          0  HIT %:        100  MISS %:          0   MPKI: 0
STLB PREFETCH  REQUESTED:          0  ISSUED:          0  USEFUL:         24  USELESS:          0
STLB USEFUL LOAD PREFETCHES:         24 PREFETCH ISSUED TO LOWER LEVEL:          0  ACCURACY: inf
STLB TIMELY PREFETCHES:         24 LATE PREFETCHES: 13565 DROPPED PREFETCHES: 406980
STLB PREFETCHES SAME FILL-ORIGIN LEVEL: 0 DIFFERENT FILL-ORIGIN LEVEL: 0
STLB AVERAGE MISS LATENCY: 189.464 cycles
STLB RQ	ACCESS:   52518022	FORWARD:          0	MERGED:   43612939	TO_CACHE:    8905083

STLB Hit, L1D data hit: 0
STLB Hit, L2C data hit: 0
STLB Hit, LLC data hit: 0
STLB Hit, LLC data miss: 0
STLB STLB hints to L2: 0
L1D TOTAL     ACCESS:   54203936  HIT:   50382486  MISS:    3821450  HIT %:    92.9499  MISS %:    7.05013   MPKI: 19.1073
L1D LOAD      ACCESS:   12241404  HIT:   11250430  MISS:     990974  HIT %:    91.9047  MISS %:    8.09526   MPKI: 4.95487
L1D RFO       ACCESS:    2558820  HIT:     649034  MISS:    1909786  HIT %:    25.3646  MISS %:    74.6354   MPKI: 9.54893
L1D PREFETCH  ACCESS:   39403712  HIT:   38483022  MISS:     920690  HIT %:    97.6634  MISS %:    2.33656   MPKI: 4.60345
L1D PREFETCH  REQUESTED:  227307257  ISSUED:  227241625  USEFUL:     922364  USELESS:         13
L1D USEFUL LOAD PREFETCHES:     922364 PREFETCH ISSUED TO LOWER LEVEL:    5010612  ACCURACY: 18.4082
L1D TIMELY PREFETCHES:     922364 LATE PREFETCHES: 551240 DROPPED PREFETCHES: 1800689
L1D PREFETCHES SAME FILL-ORIGIN LEVEL: 1473615 DIFFERENT FILL-ORIGIN LEVEL: 3536997
L1D AVERAGE MISS LATENCY: 644.269 cycles
L1D RQ	ACCESS:   36287132	FORWARD:          0	MERGED:   23609129	TO_CACHE:   12678003
L1D WQ	ACCESS:    9552595	FORWARD:          0	MERGED:          0	TO_CACHE:    9552595
L1D PQ	ACCESS:  174783391	FORWARD:          0	MERGED:  122325157	TO_CACHE:   52458234

L1D UNIQUE REGIONS ACCESSED: 0
L1D REGIONS CONFLICTS: 0
L1D Cross Page Prefetch Requests: 20249497
L1D Same Page Prefetch Requests: 279456104
L1D ROI Sum of L1D PQ occupancy: 1179859777
L1D PREFETCHES PUSHED FROM L2C: 0
L1I TOTAL     ACCESS:   53121107  HIT:   53121034  MISS:         73  HIT %:    99.9999  MISS %: 0.000137422   MPKI: 0.000365
L1I LOAD      ACCESS:   53121107  HIT:   53121034  MISS:         73  HIT %:    99.9999  MISS %: 0.000137422   MPKI: 0.000365
L1I PREFETCH  REQUESTED:          0  ISSUED:          0  USEFUL:          0  USELESS:          0
L1I USEFUL LOAD PREFETCHES:          0 PREFETCH ISSUED TO LOWER LEVEL:          0  ACCURACY: -nan
L1I TIMELY PREFETCHES:          0 LATE PREFETCHES: 0 DROPPED PREFETCHES: 0
L1I PREFETCHES SAME FILL-ORIGIN LEVEL: 0 DIFFERENT FILL-ORIGIN LEVEL: 0
L1I AVERAGE MISS LATENCY: 544.151 cycles
L1I RQ	ACCESS:   92784316	FORWARD:          0	MERGED:   39495172	TO_CACHE:   53289144

BTB TOTAL     ACCESS:   66537148  HIT:   66537073  MISS:         75  HIT %:    99.9999  MISS %: 0.000112719   MPKI: 0.000375
BTB BRANCH_DIRECT_JUMP	ACCESS:         14  HIT:          0  MISS:         14
BTB BRANCH_INDIRECT	ACCESS:          0  HIT:          0  MISS:          0
BTB BRANCH_CONDITIONAL	ACCESS:   66537119  HIT:   66537073  MISS:         46
BTB BRANCH_DIRECT_CALL	ACCESS:          6  HIT:          0  MISS:          6
BTB BRANCH_INDIRECT_CALL	ACCESS:          1  HIT:          0  MISS:          1
BTB BRANCH_RETURN	ACCESS:          8  HIT:          0  MISS:          8
BTB BRANCH_OTHER ACCESS:          0  HIT:          0  MISS:          0

L2C TOTAL     ACCESS:    7332078  HIT:    3169226  MISS:    4162852  HIT %:    43.2241  MISS %:    56.7759   MPKI: 20.8143
L2C LOAD      ACCESS:     439877  HIT:     189676  MISS:     250201  HIT %:    43.1202  MISS %:    56.8798   MPKI: 1.251
L2C DATA LOAD MPKI: 1.25064
L2C INSTRUCTION LOAD MPKI: 0.000365
L2C RFO       ACCESS:    1909786  HIT:          0  MISS:    1909786  HIT %:          0  MISS %:        100   MPKI: 9.54893
L2C PREFETCH  ACCESS:    2591292  HIT:     929748  MISS:    1661544  HIT %:    35.8797  MISS %:    64.1203   MPKI: 8.30772
L2C DATA PREFETCH MPKI: 8.30772
L2C INSTRUCTION PREFETCH MPKI: 0
L2C WRITEBACK ACCESS:    1909791  HIT:    1576091  MISS:     333700  HIT %:    82.5269  MISS %:    17.4731   MPKI: 1.6685
L2C LOAD TRANSLATION ACCESS:      59734  HIT:      55927  MISS:       3807  HIT %:    93.6267  MISS %:    6.37325   MPKI: 0.019035
L2C TRANSLATION FROM L1D PREFETCHER ACCESS:     421598  HIT:     417784  MISS:       3814  HIT %:    99.0953  MISS %:   0.904653   MPKI: 0.01907
L2C PREFETCH  REQUESTED:          0  ISSUED:          0  USEFUL:     193494  USELESS:    1474462
L2C USEFUL LOAD PREFETCHES:     193494 PREFETCH ISSUED TO LOWER LEVEL:    1855490  ACCURACY: 10.4282
L2C TIMELY PREFETCHES:     193494 LATE PREFETCHES: 192189 DROPPED PREFETCHES: 0
L2C PREFETCHES SAME FILL-ORIGIN LEVEL: 1165776 DIFFERENT FILL-ORIGIN LEVEL: 0
L2C AVERAGE MISS LATENCY: 909.534 cycles
L2C RQ	ACCESS:    2832802	FORWARD:          0	MERGED:          0	TO_CACHE:    2832802
L2C WQ	ACCESS:    1911536	FORWARD:          0	MERGED:          0	TO_CACHE:    1911536
L2C PQ	ACCESS:    5010612	FORWARD:          0	MERGED:     249631	TO_CACHE:    4760981

L2C Instructions Evicting Data 71
L2C Translations Evicting Data 7632
L2C Data Evicting Data 3817699
L2C Instructions Evicting Instructions 0
L2C Translations Evicting Instructions 0
L2C Data Evicting Instructions 70
L2C Instructions Evicting Translations 2
L2C Translations Evicting Translations 2
L2C Data Evicting Translations 7189
L2C Dense regions hint from L2: 0
PSCL5 TOTAL     ACCESS:     480273  HIT:     480273  MISS:          0  HIT %:        100  MISS %:          0   MPKI: 0
PSCL5 LOAD TRANSLATION ACCESS:      59731  HIT:      59731  MISS:          0  HIT %:        100  MISS %:          0   MPKI: 0
PSCL5 TRANSLATION FROM L1D PREFETCHER ACCESS:     420542  HIT:     420542  MISS:          0  HIT %:        100  MISS %:          0   MPKI: 0
PSCL5 PREFETCH  REQUESTED:          0  ISSUED:          0  USEFUL:          0  USELESS:          0
PSCL5 USEFUL LOAD PREFETCHES:          0 PREFETCH ISSUED TO LOWER LEVEL:          0  ACCURACY: -nan
PSCL5 TIMELY PREFETCHES:          0 LATE PREFETCHES: 0 DROPPED PREFETCHES: 0
PSCL5 PREFETCHES SAME FILL-ORIGIN LEVEL: 0 DIFFERENT FILL-ORIGIN LEVEL: 0

PSCL4 TOTAL     ACCESS:     480273  HIT:     480273  MISS:          0  HIT %:        100  MISS %:          0   MPKI: 0
PSCL4 LOAD TRANSLATION ACCESS:      59731  HIT:      59731  MISS:          0  HIT %:        100  MISS %:          0   MPKI: 0
PSCL4 TRANSLATION FROM L1D PREFETCHER ACCESS:     420542  HIT:     420542  MISS:          0  HIT %:        100  MISS %:          0   MPKI: 0
PSCL4 PREFETCH  REQUESTED:          0  ISSUED:          0  USEFUL:          0  USELESS:          0
PSCL4 USEFUL LOAD PREFETCHES:          0 PREFETCH ISSUED TO LOWER LEVEL:          0  ACCURACY: -nan
PSCL4 TIMELY PREFETCHES:          0 LATE PREFETCHES: 0 DROPPED PREFETCHES: 0
PSCL4 PREFETCHES SAME FILL-ORIGIN LEVEL: 0 DIFFERENT FILL-ORIGIN LEVEL: 0

PSCL3 TOTAL     ACCESS:     480273  HIT:     480273  MISS:          0  HIT %:        100  MISS %:          0   MPKI: 0
PSCL3 LOAD TRANSLATION ACCESS:      59731  HIT:      59731  MISS:          0  HIT %:        100  MISS %:          0   MPKI: 0
PSCL3 TRANSLATION FROM L1D PREFETCHER ACCESS:     420542  HIT:     420542  MISS:          0  HIT %:        100  MISS %:          0   MPKI: 0
PSCL3 PREFETCH  REQUESTED:          0  ISSUED:          0  USEFUL:          0  USELESS:          0
PSCL3 USEFUL LOAD PREFETCHES:          0 PREFETCH ISSUED TO LOWER LEVEL:          0  ACCURACY: -nan
PSCL3 TIMELY PREFETCHES:          0 LATE PREFETCHES: 0 DROPPED PREFETCHES: 0
PSCL3 PREFETCHES SAME FILL-ORIGIN LEVEL: 0 DIFFERENT FILL-ORIGIN LEVEL: 0

PSCL2 TOTAL     ACCESS:     478600  HIT:     478475  MISS:        125  HIT %:    99.9739  MISS %:  0.0261178   MPKI: 0.000625
PSCL2 LOAD TRANSLATION ACCESS:      59730  HIT:      59605  MISS:        125  HIT %:    99.7907  MISS %:   0.209275   MPKI: 0.000625
PSCL2 TRANSLATION FROM L1D PREFETCHER ACCESS:     418870  HIT:     418870  MISS:          0  HIT %:        100  MISS %:          0   MPKI: 0
PSCL2 PREFETCH  REQUESTED:          0  ISSUED:          0  USEFUL:          0  USELESS:          0
PSCL2 USEFUL LOAD PREFETCHES:          0 PREFETCH ISSUED TO LOWER LEVEL:          0  ACCURACY: -nan
PSCL2 TIMELY PREFETCHES:          0 LATE PREFETCHES: 0 DROPPED PREFETCHES: 0
PSCL2 PREFETCHES SAME FILL-ORIGIN LEVEL: 0 DIFFERENT FILL-ORIGIN LEVEL: 0

LLC TOTAL     ACCESS:    5738998  HIT:    1834698  MISS:    3904300  HIT %:     31.969  MISS %:     68.031   MPKI: 19.5215
LLC LOAD      ACCESS:      58012  HIT:          0  MISS:      58012  HIT %:          0  MISS %:        100   MPKI: 0.29006
LLC RFO       ACCESS:    1909786  HIT:          0  MISS:    1909786  HIT %:          0  MISS %:        100   MPKI: 9.54893
LLC PREFETCH  ACCESS:    1853733  HIT:          0  MISS:    1853733  HIT %:          0  MISS %:        100   MPKI: 9.26867
LLC WRITEBACK ACCESS:    1909846  HIT:    1834685  MISS:      75161  HIT %:    96.0646  MISS %:    3.93545   MPKI: 0.375805
LLC LOAD TRANSLATION ACCESS:       3807  HIT:          4  MISS:       3803  HIT %:    0.10507  MISS %:    99.8949   MPKI: 0.019015
LLC TRANSLATION FROM L1D PREFETCHER ACCESS:       3814  HIT:          9  MISS:       3805  HIT %:   0.235973  MISS %:     99.764   MPKI: 0.019025
LLC PREFETCH  REQUESTED:          0  ISSUED:          0  USEFUL:         11  USELESS:    7434204
LLC USEFUL LOAD PREFETCHES:         11 PREFETCH ISSUED TO LOWER LEVEL:  197769193  ACCURACY: 5.56204e-06
LLC TIMELY PREFETCHES:         11 LATE PREFETCHES: 0 DROPPED PREFETCHES: 0
LLC PREFETCHES SAME FILL-ORIGIN LEVEL: 0 DIFFERENT FILL-ORIGIN LEVEL: 0
LLC AVERAGE MISS LATENCY: 3810.03 cycles
LLC RQ	ACCESS:    7905147	FORWARD:          0	MERGED:          0	TO_CACHE:    7905147
LLC WQ	ACCESS:    7642807	FORWARD:          0	MERGED:          0	TO_CACHE:    7642807
LLC PQ	ACCESS:    7418864	FORWARD:          0	MERGED:          0	TO_CACHE:    7418864

LLC Dense regions hint to LLC: 0

RAW hits: 2
Loads Generated: 36175641
Loads sent to L1D: 36175639
Stores Generated: 9538676
Stores sent to L1D: 9538679
Major fault: 0 Minor fault: 64529
Allocated PAGES: 258116

CPU 2 cumulative IPC: 0.507202 instructions: 200000002 cycles: 394320377
ITLB TOTAL     ACCESS:   44438990  HIT:   44438981  MISS:          9  HIT %:        100  MISS %: 2.02525e-05   MPKI: 4.5e-05
ITLB LOAD TRANSLATION ACCESS:   44438990  HIT:   44438981  MISS:          9  HIT %:        100  MISS %: 2.02525e-05   MPKI: 4.5e-05
ITLB PREFETCH  REQUESTED:          0  ISSUED:          0  USEFUL:          0  USELESS:          0
ITLB USEFUL LOAD PREFETCHES:          0 PREFETCH ISSUED TO LOWER LEVEL:          0  ACCURACY: -nan
ITLB TIMELY PREFETCHES:          0 LATE PREFETCHES: 0 DROPPED PREFETCHES: 0
ITLB PREFETCHES SAME FILL-ORIGIN LEVEL: 0 DIFFERENT FILL-ORIGIN LEVEL: 0
ITLB AVERAGE MISS LATENCY: 502 cycles
ITLB RQ	ACCESS:   53119188	FORWARD:          0	MERGED:    8680197	TO_CACHE:   44438991

DTLB TOTAL     ACCESS:   20222124  HIT:   20162403  MISS:      59721  HIT %:    99.7047  MISS %:   0.295325   MPKI: 0.298605
DTLB LOAD TRANSLATION ACCESS:   20222124  HIT:   20162403  MISS:      59721  HIT %:    99.7047  MISS %:   0.295325   MPKI: 0.298605
DTLB PREFETCH  REQUESTED:          0  ISSUED:          0  USEFUL:          0  USELESS:          0
DTLB USEFUL LOAD PREFETCHES:          0 PREFETCH ISSUED TO LOWER LEVEL:          0  ACCURACY: -nan
DTLB TIMELY PREFETCHES:          0 LATE PREFETCHES: 0 DROPPED PREFETCHES: 0
DTLB PREFETCHES SAME FILL-ORIGIN LEVEL: 0 DIFFERENT FILL-ORIGIN LEVEL: 0
DTLB AVERAGE MISS LATENCY: 219.184 cycles
DTLB RQ	ACCESS:   22178330	FORWARD:          0	MERGED:    1737668	TO_CACHE:   20440662

STLB TOTAL     ACCESS:    8372633  HIT:    8312903  MISS:      59730  HIT %:    99.2866  MISS %:   0.713396   MPKI: 0.29865
STLB LOAD TRANSLATION ACCESS:      59730  HIT:          0  MISS:      59730  HIT %:          0  MISS %:        100   MPKI: 0.29865
STLB TRANSLATION FROM L1D PREFETCHER ACCESS:    8312903  HIT:    8312903  MISS:          0  HIT %:        100  MISS %:          0   MPKI: 0
STLB PREFETCH  REQUESTED:          0  ISSUED:          0  USEFUL:          0  USELESS:          0
STLB USEFUL LOAD PREFETCHES:          0 PREFETCH ISSUED TO LOWER LEVEL:          0  ACCURACY: -nan
STLB TIMELY PREFETCHES:          0 LATE PREFETCHES: 13578 DROPPED PREFETCHES: 407125
STLB PREFETCHES SAME FILL-ORIGIN LEVEL: 0 DIFFERENT FILL-ORIGIN LEVEL: 0
STLB AVERAGE MISS LATENCY: 189.477 cycles
STLB RQ	ACCESS:   52346771	FORWARD:          0	MERGED:   43470225	TO_CACHE:    8876546

STLB Hit, L1D data hit: 0
STLB Hit, L2C data hit: 0
STLB Hit, LLC data hit: 0
STLB Hit, LLC data miss: 0
STLB STLB hints to L2: 0
L1D TOTAL     ACCESS:   54141185  HIT:   50319732  MISS:    3821453  HIT %:    92.9417  MISS %:    7.05831   MPKI: 19.1073
L1D LOAD      ACCESS:   12241053  HIT:   11250251  MISS:     990802  HIT %:    91.9059  MISS %:    8.09409   MPKI: 4.95401
L1D RFO       ACCESS:    2550846  HIT:     641060  MISS:    1909786  HIT %:    25.1313  MISS %:    74.8687   MPKI: 9.54893
L1D PREFETCH  ACCESS:   39349286  HIT:   38428421  MISS:     920865  HIT %:    97.6598  MISS %:    2.34023   MPKI: 4.60432
L1D PREFETCH  REQUESTED:  226598961  ISSUED:  226534267  USEFUL:     920862  USELESS:          8
L1D USEFUL LOAD PREFETCHES:     920862 PREFETCH ISSUED TO LOWER LEVEL:    5018768  ACCURACY: 18.3484
L1D TIMELY PREFETCHES:     920862 LATE PREFETCHES: 551755 DROPPED PREFETCHES: 1800328
L1D PREFETCHES SAME FILL-ORIGIN LEVEL: 1472620 DIFFERENT FILL-ORIGIN LEVEL: 3546148
L1D AVERAGE MISS LATENCY: 643.514 cycles
L1D RQ	ACCESS:   36175643	FORWARD:          0	MERGED:   23535993	TO_CACHE:   12639650
L1D WQ	ACCESS:    9538680	FORWARD:          0	MERGED:          0	TO_CACHE:    9538680
L1D PQ	ACCESS:  174247227	FORWARD:          0	MERGED:  121960187	TO_CACHE:   52287040

L1D UNIQUE REGIONS ACCESSED: 0
L1D REGIONS CONFLICTS: 0
L1D Cross Page Prefetch Requests: 20202524
L1D Same Page Prefetch Requests: 278967226
L1D ROI Sum of L1D PQ occupancy: 1176716979
L1D PREFETCHES PUSHED FROM L2C: 0
L1I TOTAL     ACCESS:   53119177  HIT:   53119104  MISS:         73  HIT %:    99.9999  MISS %: 0.000137427   MPKI: 0.000365
L1I LOAD      ACCESS:   53119177  HIT:   53119104  MISS:         73  HIT %:    99.9999  MISS %: 0.000137427   MPKI: 0.000365
L1I PREFETCH  REQUESTED:          0  ISSUED:          0  USEFUL:          0  USELESS:          0
L1I USEFUL LOAD PREFETCHES:          0 PREFETCH ISSUED TO LOWER LEVEL:          0  ACCURACY: -nan
L1I TIMELY PREFETCHES:          0 LATE PREFETCHES: 0 DROPPED PREFETCHES: 0
L1I PREFETCHES SAME FILL-ORIGIN LEVEL: 0 DIFFERENT FILL-ORIGIN LEVEL: 0
L1I AVERAGE MISS LATENCY: 588.384 cycles
L1I RQ	ACCESS:   92485368	FORWARD:          0	MERGED:   39366180	TO_CACHE:   53119188

BTB TOTAL     ACCESS:   66537155  HIT:   66537079  MISS:         76  HIT %:    99.9999  MISS %: 0.000114222   MPKI: 0.00038
BTB BRANCH_DIRECT_JUMP	ACCESS:         14  HIT:          0  MISS:         14
BTB BRANCH_INDIRECT	ACCESS:          0  HIT:          0  MISS:          0
BTB BRANCH_CONDITIONAL	ACCESS:   66537126  HIT:   66537079  MISS:         47
BTB BRANCH_DIRECT_CALL	ACCESS:          6  HIT:          0  MISS:          6
BTB BRANCH_INDIRECT_CALL	ACCESS:          1  HIT:          0  MISS:          1
BTB BRANCH_RETURN	ACCESS:          8  HIT:          0  MISS:          8
BTB BRANCH_OTHER ACCESS:          0  HIT:          0  MISS:          0

L2C TOTAL     ACCESS:    7340595  HIT:    3175298  MISS:    4165297  HIT %:    43.2567  MISS %:    56.7433   MPKI: 20.8265
L2C LOAD      ACCESS:     439120  HIT:     189357  MISS:     249763  HIT %:    43.1219  MISS %:    56.8781   MPKI: 1.24881
L2C DATA LOAD MPKI: 1.24845
L2C INSTRUCTION LOAD MPKI: 0.000365
L2C RFO       ACCESS:    1909786  HIT:          0  MISS:    1909786  HIT %:          0  MISS %:        100   MPKI: 9.54893
L2C PREFETCH  ACCESS:    2600403  HIT:     938421  MISS:    1661982  HIT %:    36.0875  MISS %:    63.9125   MPKI: 8.30991
L2C DATA PREFETCH MPKI: 8.30991
L2C INSTRUCTION PREFETCH MPKI: 0
L2C WRITEBACK ACCESS:    1909793  HIT:    1573650  MISS:     336143  HIT %:     82.399  MISS %:     17.601   MPKI: 1.68071
L2C LOAD TRANSLATION ACCESS:      59734  HIT:      55925  MISS:       3809  HIT %:    93.6234  MISS %:     6.3766   MPKI: 0.019045
L2C TRANSLATION FROM L1D PREFETCHER ACCESS:     421759  HIT:     417945  MISS:       3814  HIT %:    99.0957  MISS %:   0.904308   MPKI: 0.01907
L2C PREFETCH  REQUESTED:          0  ISSUED:          0  USEFUL:     193171  USELESS:    1473707
L2C USEFUL LOAD PREFETCHES:     193171 PREFETCH ISSUED TO LOWER LEVEL:    1853826  ACCURACY: 10.4201
L2C TIMELY PREFETCHES:     193171 LATE PREFETCHES: 191842 DROPPED PREFETCHES: 0
L2C PREFETCHES SAME FILL-ORIGIN LEVEL: 1165716 DIFFERENT FILL-ORIGIN LEVEL: 0
L2C AVERAGE MISS LATENCY: 908.312 cycles
L2C RQ	ACCESS:    2830402	FORWARD:          0	MERGED:          0	TO_CACHE:    2830402
L2C WQ	ACCESS:    1909793	FORWARD:          0	MERGED:          0	TO_CACHE:    1909793
L2C PQ	ACCESS:    5018768	FORWARD:          0	MERGED:     250744	TO_CACHE:    4768024

L2C Instructions Evicting Data 73
L2C Translations Evicting Data 7612
L2C Data Evicting Data 3814201
L2C Instructions Evicting Instructions 0
L2C Translations Evicting Instructions 0
L2C Data Evicting Instructions 70
L2C Instructions Evicting Translations 0
L2C Translations Evicting Translations 11
L2C Data Evicting Translations 7187
L2C Dense regions hint from L2: 0
PSCL5 TOTAL     ACCESS:     480433  HIT:     480433  MISS:          0  HIT %:        100  MISS %:          0   MPKI: 0
PSCL5 LOAD TRANSLATION ACCESS:      59730  HIT:      59730  MISS:          0  HIT %:        100  MISS %:          0   MPKI: 0
PSCL5 TRANSLATION FROM L1D PREFETCHER ACCESS:     420703  HIT:     420703  MISS:          0  HIT %:        100  MISS %:          0   MPKI: 0
PSCL5 PREFETCH  REQUESTED:          0  ISSUED:          0  USEFUL:          0  USELESS:          0
PSCL5 USEFUL LOAD PREFETCHES:          0 PREFETCH ISSUED TO LOWER LEVEL:          0  ACCURACY: -nan
PSCL5 TIMELY PREFETCHES:          0 LATE PREFETCHES: 0 DROPPED PREFETCHES: 0
PSCL5 PREFETCHES SAME FILL-ORIGIN LEVEL: 0 DIFFERENT FILL-ORIGIN LEVEL: 0

PSCL4 TOTAL     ACCESS:     480433  HIT:     480433  MISS:          0  HIT %:        100  MISS %:          0   MPKI: 0
PSCL4 LOAD TRANSLATION ACCESS:      59730  HIT:      59730  MISS:          0  HIT %:        100  MISS %:          0   MPKI: 0
PSCL4 TRANSLATION FROM L1D PREFETCHER ACCESS:     420703  HIT:     420703  MISS:          0  HIT %:        100  MISS %:          0   MPKI: 0
PSCL4 PREFETCH  REQUESTED:          0  ISSUED:          0  USEFUL:          0  USELESS:          0
PSCL4 USEFUL LOAD PREFETCHES:          0 PREFETCH ISSUED TO LOWER LEVEL:          0  ACCURACY: -nan
PSCL4 TIMELY PREFETCHES:          0 LATE PREFETCHES: 0 DROPPED PREFETCHES: 0
PSCL4 PREFETCHES SAME FILL-ORIGIN LEVEL: 0 DIFFERENT FILL-ORIGIN LEVEL: 0

PSCL3 TOTAL     ACCESS:     480433  HIT:     480433  MISS:          0  HIT %:        100  MISS %:          0   MPKI: 0
PSCL3 LOAD TRANSLATION ACCESS:      59730  HIT:      59730  MISS:          0  HIT %:        100  MISS %:          0   MPKI: 0
PSCL3 TRANSLATION FROM L1D PREFETCHER ACCESS:     420703  HIT:     420703  MISS:          0  HIT %:        100  MISS %:          0   MPKI: 0
PSCL3 PREFETCH  REQUESTED:          0  ISSUED:          0  USEFUL:          0  USELESS:          0
PSCL3 USEFUL LOAD PREFETCHES:          0 PREFETCH ISSUED TO LOWER LEVEL:          0  ACCURACY: -nan
PSCL3 TIMELY PREFETCHES:          0 LATE PREFETCHES: 0 DROPPED PREFETCHES: 0
PSCL3 PREFETCHES SAME FILL-ORIGIN LEVEL: 0 DIFFERENT FILL-ORIGIN LEVEL: 0

PSCL2 TOTAL     ACCESS:     478766  HIT:     478641  MISS:        125  HIT %:    99.9739  MISS %:  0.0261088   MPKI: 0.000625
PSCL2 LOAD TRANSLATION ACCESS:      59730  HIT:      59605  MISS:        125  HIT %:    99.7907  MISS %:   0.209275   MPKI: 0.000625
PSCL2 TRANSLATION FROM L1D PREFETCHER ACCESS:     419036  HIT:     419036  MISS:          0  HIT %:        100  MISS %:          0   MPKI: 0
PSCL2 PREFETCH  REQUESTED:          0  ISSUED:          0  USEFUL:          0  USELESS:          0
PSCL2 USEFUL LOAD PREFETCHES:          0 PREFETCH ISSUED TO LOWER LEVEL:          0  ACCURACY: -nan
PSCL2 TIMELY PREFETCHES:          0 LATE PREFETCHES: 0 DROPPED PREFETCHES: 0
PSCL2 PREFETCHES SAME FILL-ORIGIN LEVEL: 0 DIFFERENT FILL-ORIGIN LEVEL: 0

LLC TOTAL     ACCESS:    5738975  HIT:    1834628  MISS:    3904347  HIT %:    31.9679  MISS %:    68.0321   MPKI: 19.5217
LLC LOAD      ACCESS:      57921  HIT:          0  MISS:      57921  HIT %:          0  MISS %:        100   MPKI: 0.289605
LLC RFO       ACCESS:    1909786  HIT:          0  MISS:    1909786  HIT %:          0  MISS %:        100   MPKI: 9.54893
LLC PREFETCH  ACCESS:    1853824  HIT:          0  MISS:    1853824  HIT %:          0  MISS %:        100   MPKI: 9.26912
LLC WRITEBACK ACCESS:    1909821  HIT:    1834610  MISS:      75211  HIT %:    96.0619  MISS %:    3.93812   MPKI: 0.376055
LLC LOAD TRANSLATION ACCESS:       3809  HIT:          6  MISS:       3803  HIT %:   0.157522  MISS %:    99.8425   MPKI: 0.019015
LLC TRANSLATION FROM L1D PREFETCHER ACCESS:       3814  HIT:         12  MISS:       3802  HIT %:    0.31463  MISS %:    99.6854   MPKI: 0.01901
LLC PREFETCH  REQUESTED:          0  ISSUED:          0  USEFUL:         11  USELESS:    7434204
LLC USEFUL LOAD PREFETCHES:         11 PREFETCH ISSUED TO LOWER LEVEL:  197769193  ACCURACY: 5.56204e-06
LLC TIMELY PREFETCHES:         11 LATE PREFETCHES: 0 DROPPED PREFETCHES: 0
LLC PREFETCHES SAME FILL-ORIGIN LEVEL: 0 DIFFERENT FILL-ORIGIN LEVEL: 0
LLC AVERAGE MISS LATENCY: 3809.99 cycles
LLC RQ	ACCESS:    7905147	FORWARD:          0	MERGED:          0	TO_CACHE:    7905147
LLC WQ	ACCESS:    7642807	FORWARD:          0	MERGED:          0	TO_CACHE:    7642807
LLC PQ	ACCESS:    7418864	FORWARD:          0	MERGED:          0	TO_CACHE:    7418864

LLC Dense regions hint to LLC: 0

RAW hits: 3
Loads Generated: 36175646
Loads sent to L1D: 36175643
Stores Generated: 9538677
Stores sent to L1D: 9538680
Major fault: 0 Minor fault: 64529
Allocated PAGES: 258116

CPU 3 cumulative IPC: 0.507337 instructions: 200000000 cycles: 394215290
ITLB TOTAL     ACCESS:   44439517  HIT:   44439508  MISS:          9  HIT %:        100  MISS %: 2.02522e-05   MPKI: 4.5e-05
ITLB LOAD TRANSLATION ACCESS:   44439517  HIT:   44439508  MISS:          9  HIT %:        100  MISS %: 2.02522e-05   MPKI: 4.5e-05
ITLB PREFETCH  REQUESTED:          0  ISSUED:          0  USEFUL:          0  USELESS:          0
ITLB USEFUL LOAD PREFETCHES:          0 PREFETCH ISSUED TO LOWER LEVEL:          0  ACCURACY: -nan
ITLB TIMELY PREFETCHES:          0 LATE PREFETCHES: 0 DROPPED PREFETCHES: 0
ITLB PREFETCHES SAME FILL-ORIGIN LEVEL: 0 DIFFERENT FILL-ORIGIN LEVEL: 0
ITLB AVERAGE MISS LATENCY: 610.667 cycles
ITLB RQ	ACCESS:   53152553	FORWARD:          0	MERGED:    8688003	TO_CACHE:   44464550

DTLB TOTAL     ACCESS:   20223521  HIT:   20163800  MISS:      59721  HIT %:    99.7047  MISS %:   0.295305   MPKI: 0.298605
DTLB LOAD TRANSLATION ACCESS:   20223521  HIT:   20163800  MISS:      59721  HIT %:    99.7047  MISS %:   0.295305   MPKI: 0.298605
DTLB PREFETCH  REQUESTED:          0  ISSUED:          0  USEFUL:          0  USELESS:          0
DTLB USEFUL LOAD PREFETCHES:          0 PREFETCH ISSUED TO LOWER LEVEL:          0  ACCURACY: -nan
DTLB TIMELY PREFETCHES:          0 LATE PREFETCHES: 0 DROPPED PREFETCHES: 0
DTLB PREFETCHES SAME FILL-ORIGIN LEVEL: 0 DIFFERENT FILL-ORIGIN LEVEL: 0
DTLB AVERAGE MISS LATENCY: 220.76 cycles
DTLB RQ	ACCESS:   22186931	FORWARD:          0	MERGED:    1737465	TO_CACHE:   20449466

STLB TOTAL     ACCESS:    8371279  HIT:    8311549  MISS:      59730  HIT %:    99.2865  MISS %:   0.713511   MPKI: 0.29865
STLB LOAD TRANSLATION ACCESS:      59730  HIT:          0  MISS:      59730  HIT %:          0  MISS %:        100   MPKI: 0.29865
STLB TRANSLATION FROM L1D PREFETCHER ACCESS:    8311549  HIT:    8311549  MISS:          0  HIT %:        100  MISS %:          0   MPKI: 0
STLB PREFETCH  REQUESTED:          0  ISSUED:          0  USEFUL:          5  USELESS:          0
STLB USEFUL LOAD PREFETCHES:          5 PREFETCH ISSUED TO LOWER LEVEL:          0  ACCURACY: inf
STLB TIMELY PREFETCHES:          5 LATE PREFETCHES: 13546 DROPPED PREFETCHES: 406699
STLB PREFETCHES SAME FILL-ORIGIN LEVEL: 0 DIFFERENT FILL-ORIGIN LEVEL: 0
STLB AVERAGE MISS LATENCY: 190.58 cycles
STLB RQ	ACCESS:   52367504	FORWARD:          0	MERGED:   43486845	TO_CACHE:    8880659

STLB Hit, L1D data hit: 0
STLB Hit, L2C data hit: 0
STLB Hit, LLC data hit: 0
STLB Hit, LLC data miss: 0
STLB STLB hints to L2: 0
L1D TOTAL     ACCESS:   54161929  HIT:   50340480  MISS:    3821449  HIT %:    92.9444  MISS %:     7.0556   MPKI: 19.1072
L1D LOAD      ACCESS:   12241363  HIT:   11250119  MISS:     991244  HIT %:    91.9025  MISS %:     8.0975   MPKI: 4.95622
L1D RFO       ACCESS:    2559501  HIT:     649714  MISS:    1909787  HIT %:    25.3844  MISS %:    74.6156   MPKI: 9.54894
L1D PREFETCH  ACCESS:   39361065  HIT:   38440647  MISS:     920418  HIT %:    97.6616  MISS %:     2.3384   MPKI: 4.60209
L1D PREFETCH  REQUESTED:  226694995  ISSUED:  226629530  USEFUL:     920730  USELESS:          8
L1D USEFUL LOAD PREFETCHES:     920730 PREFETCH ISSUED TO LOWER LEVEL:    5008261  ACCURACY: 18.3842
L1D TIMELY PREFETCHES:     920730 LATE PREFETCHES: 552153 DROPPED PREFETCHES: 1799353
L1D PREFETCHES SAME FILL-ORIGIN LEVEL: 1472891 DIFFERENT FILL-ORIGIN LEVEL: 3535370
L1D AVERAGE MISS LATENCY: 643.796 cycles
L1D RQ	ACCESS:   36196788	FORWARD:          0	MERGED:   23551173	TO_CACHE:   12645615
L1D WQ	ACCESS:    9541316	FORWARD:          0	MERGED:          0	TO_CACHE:    9541316
L1D PQ	ACCESS:  174321770	FORWARD:          0	MERGED:  122014010	TO_CACHE:   52307760

L1D UNIQUE REGIONS ACCESSED: 0
L1D REGIONS CONFLICTS: 0
L1D Cross Page Prefetch Requests: 20208899
L1D Same Page Prefetch Requests: 279035743
L1D ROI Sum of L1D PQ occupancy: 1179081296
L1D PREFETCHES PUSHED FROM L2C: 0
L1I TOTAL     ACCESS:   53120562  HIT:   53120489  MISS:         73  HIT %:    99.9999  MISS %: 0.000137423   MPKI: 0.000365
L1I LOAD      ACCESS:   53120562  HIT:   53120489  MISS:         73  HIT %:    99.9999  MISS %: 0.000137423   MPKI: 0.000365
L1I PREFETCH  REQUESTED:          0  ISSUED:          0  USEFUL:          0  USELESS:          0
L1I USEFUL LOAD PREFETCHES:          0 PREFETCH ISSUED TO LOWER LEVEL:          0  ACCURACY: -nan
L1I TIMELY PREFETCHES:          0 LATE PREFETCHES: 0 DROPPED PREFETCHES: 0
L1I PREFETCHES SAME FILL-ORIGIN LEVEL: 0 DIFFERENT FILL-ORIGIN LEVEL: 0
L1I AVERAGE MISS LATENCY: 711.973 cycles
L1I RQ	ACCESS:   92543430	FORWARD:          0	MERGED:   39390877	TO_CACHE:   53152553

BTB TOTAL     ACCESS:   66537148  HIT:   66537071  MISS:         77  HIT %:    99.9999  MISS %: 0.000115725   MPKI: 0.000385
BTB BRANCH_DIRECT_JUMP	ACCESS:         14  HIT:          0  MISS:         14
BTB BRANCH_INDIRECT	ACCESS:          0  HIT:          0  MISS:          0
BTB BRANCH_CONDITIONAL	ACCESS:   66537119  HIT:   66537071  MISS:         48
BTB BRANCH_DIRECT_CALL	ACCESS:          6  HIT:          0  MISS:          6
BTB BRANCH_INDIRECT_CALL	ACCESS:          1  HIT:          0  MISS:          1
BTB BRANCH_RETURN	ACCESS:          8  HIT:          0  MISS:          8
BTB BRANCH_OTHER ACCESS:          0  HIT:          0  MISS:          0

L2C TOTAL     ACCESS:    7338811  HIT:    3177992  MISS:    4160819  HIT %:    43.3039  MISS %:    56.6961   MPKI: 20.8041
L2C LOAD      ACCESS:     439184  HIT:     189082  MISS:     250102  HIT %:     43.053  MISS %:     56.947   MPKI: 1.25051
L2C DATA LOAD MPKI: 1.25015
L2C INSTRUCTION LOAD MPKI: 0.000365
L2C RFO       ACCESS:    1909787  HIT:          0  MISS:    1909787  HIT %:          0  MISS %:        100   MPKI: 9.54894
L2C PREFETCH  ACCESS:    2599014  HIT:     937379  MISS:    1661635  HIT %:    36.0667  MISS %:    63.9333   MPKI: 8.30818
L2C DATA PREFETCH MPKI: 8.30818
L2C INSTRUCTION PREFETCH MPKI: 0
L2C WRITEBACK ACCESS:    1909791  HIT:    1578118  MISS:     331673  HIT %:     82.633  MISS %:     17.367   MPKI: 1.65837
L2C LOAD TRANSLATION ACCESS:      59734  HIT:      55928  MISS:       3806  HIT %:    93.6284  MISS %:    6.37158   MPKI: 0.01903
L2C TRANSLATION FROM L1D PREFETCHER ACCESS:     421301  HIT:     417485  MISS:       3816  HIT %:    99.0942  MISS %:   0.905766   MPKI: 0.01908
L2C PREFETCH  REQUESTED:          0  ISSUED:          0  USEFUL:     192898  USELESS:    1473722
L2C USEFUL LOAD PREFETCHES:     192898 PREFETCH ISSUED TO LOWER LEVEL:    1854013  ACCURACY: 10.4043
L2C TIMELY PREFETCHES:     192898 LATE PREFETCHES: 192035 DROPPED PREFETCHES: 0
L2C PREFETCHES SAME FILL-ORIGIN LEVEL: 1165269 DIFFERENT FILL-ORIGIN LEVEL: 0
L2C AVERAGE MISS LATENCY: 909.599 cycles
L2C RQ	ACCESS:    2830359	FORWARD:          0	MERGED:          0	TO_CACHE:    2830359
L2C WQ	ACCESS:    1910129	FORWARD:          0	MERGED:          0	TO_CACHE:    1910129
L2C PQ	ACCESS:    5008261	FORWARD:          0	MERGED:     249148	TO_CACHE:    4759113

L2C Instructions Evicting Data 73
L2C Translations Evicting Data 7623
L2C Data Evicting Data 3814796
L2C Instructions Evicting Instructions 0
L2C Translations Evicting Instructions 0
L2C Data Evicting Instructions 69
L2C Instructions Evicting Translations 0
L2C Translations Evicting Translations 6
L2C Data Evicting Translations 7258
L2C Dense regions hint from L2: 0
PSCL5 TOTAL     ACCESS:     479975  HIT:     479975  MISS:          0  HIT %:        100  MISS %:          0   MPKI: 0
PSCL5 LOAD TRANSLATION ACCESS:      59730  HIT:      59730  MISS:          0  HIT %:        100  MISS %:          0   MPKI: 0
PSCL5 TRANSLATION FROM L1D PREFETCHER ACCESS:     420245  HIT:     420245  MISS:          0  HIT %:        100  MISS %:          0   MPKI: 0
PSCL5 PREFETCH  REQUESTED:          0  ISSUED:          0  USEFUL:          0  USELESS:          0
PSCL5 USEFUL LOAD PREFETCHES:          0 PREFETCH ISSUED TO LOWER LEVEL:          0  ACCURACY: -nan
PSCL5 TIMELY PREFETCHES:          0 LATE PREFETCHES: 0 DROPPED PREFETCHES: 0
PSCL5 PREFETCHES SAME FILL-ORIGIN LEVEL: 0 DIFFERENT FILL-ORIGIN LEVEL: 0

PSCL4 TOTAL     ACCESS:     479975  HIT:     479975  MISS:          0  HIT %:        100  MISS %:          0   MPKI: 0
PSCL4 LOAD TRANSLATION ACCESS:      59730  HIT:      59730  MISS:          0  HIT %:        100  MISS %:          0   MPKI: 0
PSCL4 TRANSLATION FROM L1D PREFETCHER ACCESS:     420245  HIT:     420245  MISS:          0  HIT %:        100  MISS %:          0   MPKI: 0
PSCL4 PREFETCH  REQUESTED:          0  ISSUED:          0  USEFUL:          0  USELESS:          0
PSCL4 USEFUL LOAD PREFETCHES:          0 PREFETCH ISSUED TO LOWER LEVEL:          0  ACCURACY: -nan
PSCL4 TIMELY PREFETCHES:          0 LATE PREFETCHES: 0 DROPPED PREFETCHES: 0
PSCL4 PREFETCHES SAME FILL-ORIGIN LEVEL: 0 DIFFERENT FILL-ORIGIN LEVEL: 0

PSCL3 TOTAL     ACCESS:     479975  HIT:     479975  MISS:          0  HIT %:        100  MISS %:          0   MPKI: 0
PSCL3 LOAD TRANSLATION ACCESS:      59730  HIT:      59730  MISS:          0  HIT %:        100  MISS %:          0   MPKI: 0
PSCL3 TRANSLATION FROM L1D PREFETCHER ACCESS:     420245  HIT:     420245  MISS:          0  HIT %:        100  MISS %:          0   MPKI: 0
PSCL3 PREFETCH  REQUESTED:          0  ISSUED:          0  USEFUL:          0  USELESS:          0
PSCL3 USEFUL LOAD PREFETCHES:          0 PREFETCH ISSUED TO LOWER LEVEL:          0  ACCURACY: -nan
PSCL3 TIMELY PREFETCHES:          0 LATE PREFETCHES: 0 DROPPED PREFETCHES: 0
PSCL3 PREFETCHES SAME FILL-ORIGIN LEVEL: 0 DIFFERENT FILL-ORIGIN LEVEL: 0

PSCL2 TOTAL     ACCESS:     478339  HIT:     478214  MISS:        125  HIT %:    99.9739  MISS %:  0.0261321   MPKI: 0.000625
PSCL2 LOAD TRANSLATION ACCESS:      59730  HIT:      59605  MISS:        125  HIT %:    99.7907  MISS %:   0.209275   MPKI: 0.000625
PSCL2 TRANSLATION FROM L1D PREFETCHER ACCESS:     418609  HIT:     418609  MISS:          0  HIT %:        100  MISS %:          0   MPKI: 0
PSCL2 PREFETCH  REQUESTED:          0  ISSUED:          0  USEFUL:          0  USELESS:          0
PSCL2 USEFUL LOAD PREFETCHES:          0 PREFETCH ISSUED TO LOWER LEVEL:          0  ACCURACY: -nan
PSCL2 TIMELY PREFETCHES:          0 LATE PREFETCHES: 0 DROPPED PREFETCHES: 0
PSCL2 PREFETCHES SAME FILL-ORIGIN LEVEL: 0 DIFFERENT FILL-ORIGIN LEVEL: 0

LLC TOTAL     ACCESS:    5738997  HIT:    1837563  MISS:    3901434  HIT %:    32.0189  MISS %:    67.9811   MPKI: 19.5072
LLC LOAD      ACCESS:      58067  HIT:          0  MISS:      58067  HIT %:          0  MISS %:        100   MPKI: 0.290335
LLC RFO       ACCESS:    1909787  HIT:          0  MISS:    1909787  HIT %:          0  MISS %:        100   MPKI: 9.54894
LLC PREFETCH  ACCESS:    1853670  HIT:          0  MISS:    1853670  HIT %:          0  MISS %:        100   MPKI: 9.26835
LLC WRITEBACK ACCESS:    1909851  HIT:    1837549  MISS:      72302  HIT %:    96.2143  MISS %:    3.78574   MPKI: 0.36151
LLC LOAD TRANSLATION ACCESS:       3806  HIT:          3  MISS:       3803  HIT %:  0.0788229  MISS %:    99.9212   MPKI: 0.019015
LLC TRANSLATION FROM L1D PREFETCHER ACCESS:       3816  HIT:         11  MISS:       3805  HIT %:    0.28826  MISS %:    99.7117   MPKI: 0.019025
LLC PREFETCH  REQUESTED:          0  ISSUED:          0  USEFUL:         11  USELESS:    7434204
LLC USEFUL LOAD PREFETCHES:         11 PREFETCH ISSUED TO LOWER LEVEL:  197769193  ACCURACY: 5.56204e-06
LLC TIMELY PREFETCHES:         11 LATE PREFETCHES: 0 DROPPED PREFETCHES: 0
LLC PREFETCHES SAME FILL-ORIGIN LEVEL: 0 DIFFERENT FILL-ORIGIN LEVEL: 0
LLC AVERAGE MISS LATENCY: 3812.83 cycles
LLC RQ	ACCESS:    7905147	FORWARD:          0	MERGED:          0	TO_CACHE:    7905147
LLC WQ	ACCESS:    7642807	FORWARD:          0	MERGED:          0	TO_CACHE:    7642807
LLC PQ	ACCESS:    7418864	FORWARD:          0	MERGED:          0	TO_CACHE:    7418864

LLC Dense regions hint to LLC: 0

RAW hits: 3
Loads Generated: 36175644
Loads sent to L1D: 36175641
Stores Generated: 9538677
Stores sent to L1D: 9538679
Major fault: 0 Minor fault: 64529
Allocated PAGES: 258116

DRAM Statistics
 CHANNEL 0
 RQ ROW_BUFFER_HIT:    8947508  ROW_BUFFER_MISS:    6376420
 DBUS_CONGESTED:          7
 WQ ROW_BUFFER_HIT:    1497002  ROW_BUFFER_MISS:    6146990  FULL:       1028

 AVG_CONGESTED_CYCLE: 6
 All warmup complete: 5
Channel 0 Bank busy for read cycles: 0
Channel 0 Bank busy for write cycles: 0
Channel 0
Rank 0
0banks busy for read cycles: 82971
0banks busy for write cycles: 0
1banks busy for read cycles: 5103376
1banks busy for write cycles: 754717
2banks busy for read cycles: 9734276
2banks busy for write cycles: 754714
3banks busy for read cycles: 11512456
3banks busy for write cycles: 754711
4banks busy for read cycles: 12088643
4banks busy for write cycles: 754710
5banks busy for read cycles: 13653283
5banks busy for write cycles: 754960
6banks busy for read cycles: 14950620
6banks busy for write cycles: 826469
7banks busy for read cycles: 25309631
7banks busy for write cycles: 9989090
8banks busy for read cycles: 135889544
8banks busy for write cycles: 151406207

CPU 0 Branch Prediction Accuracy: 99.9775% MPKI: 0.0747606 Average ROB Occupancy at Mispredict: 205.202
Branch types
NOT_BRANCH: 133763241 66.7037%
BRANCH_DIRECT_JUMP: 14 6.98138e-06%
BRANCH_INDIRECT: 0 0%
BRANCH_CONDITIONAL: 66769912 33.2962%
BRANCH_DIRECT_CALL: 6 2.99202e-06%
BRANCH_INDIRECT_CALL: 1 4.9867e-07%
BRANCH_RETURN: 8 3.98936e-06%
BRANCH_OTHER: 0 0%


CPU 1 Branch Prediction Accuracy: 99.9775% MPKI: 0.0747661 Average ROB Occupancy at Mispredict: 205.065
Branch types
NOT_BRANCH: 133795436 66.7025%
BRANCH_DIRECT_JUMP: 14 6.97957e-06%
BRANCH_INDIRECT: 0 0%
BRANCH_CONDITIONAL: 66789693 33.2974%
BRANCH_DIRECT_CALL: 6 2.99124e-06%
BRANCH_INDIRECT_CALL: 1 4.98541e-07%
BRANCH_RETURN: 8 3.98833e-06%
BRANCH_OTHER: 0 0%


CPU 2 Branch Prediction Accuracy: 99.9776% MPKI: 0.07458 Average ROB Occupancy at Mispredict: 205.634
Branch types
NOT_BRANCH: 133432786 66.7164%
BRANCH_DIRECT_JUMP: 14 7e-06%
BRANCH_INDIRECT: 0 0%
BRANCH_CONDITIONAL: 66566866 33.2834%
BRANCH_DIRECT_CALL: 6 3e-06%
BRANCH_INDIRECT_CALL: 1 5e-07%
BRANCH_RETURN: 8 4e-06%
BRANCH_OTHER: 0 0%


CPU 3 Branch Prediction Accuracy: 99.9776% MPKI: 0.0746336 Average ROB Occupancy at Mispredict: 205.157
Branch types
NOT_BRANCH: 133501623 66.7138%
BRANCH_DIRECT_JUMP: 14 6.99612e-06%
BRANCH_INDIRECT: 0 0%
BRANCH_CONDITIONAL: 66609165 33.2861%
BRANCH_DIRECT_CALL: 6 2.99834e-06%
BRANCH_INDIRECT_CALL: 1 4.99723e-07%
BRANCH_RETURN: 8 3.99778e-06%
BRANCH_OTHER: 0 0%

DRAM PAGES: 1048576
Allocated PAGES: 258116
