
*** ChampSim Multicore Out-of-Order Simulator ***

Warmup Instructions: 50000000
Simulation Instructions: 200000000
Number of CPUs: 4
LLC sets: 8192
LLC ways: 16
Off-chip DRAM Size: 4096 MB Channels: 1 Width: 64-bit Data Rate: 6400 MT/s
CPU 0 runs ./traces/spec/473.astar-359B.champsimtrace.xz
.xz
CPU 1 runs ./traces/spec/473.astar-359B.champsimtrace.xz
.xz
CPU 2 runs ./traces/spec/473.astar-359B.champsimtrace.xz
.xz
CPU 3 runs ./traces/spec/473.astar-359B.champsimtrace.xz
.xz
BTB has LRU replacement policy
ITLB has LRU replacement policy
DTLB has LRU replacement policy
STLB has LRU replacement policy
L1I has LRU replacement policy
History Sets: 8
History Ways: 16
BERTI Size: 16
BERTI Stride Size: 8
L1D has LRU replacement policy
Initialize SRRIP state for L2C
Initialize DRRIP state for LLC
BTB has LRU replacement policy
ITLB has LRU replacement policy
DTLB has LRU replacement policy
STLB has LRU replacement policy
L1I has LRU replacement policy
History Sets: 8
History Ways: 16
BERTI Size: 16
BERTI Stride Size: 8
L1D has LRU replacement policy
Initialize SRRIP state for L2C
Initialize DRRIP state for LLC
BTB has LRU replacement policy
ITLB has LRU replacement policy
DTLB has LRU replacement policy
STLB has LRU replacement policy
L1I has LRU replacement policy
History Sets: 8
History Ways: 16
BERTI Size: 16
BERTI Stride Size: 8
L1D has LRU replacement policy
Initialize SRRIP state for L2C
Initialize DRRIP state for LLC
BTB has LRU replacement policy
ITLB has LRU replacement policy
DTLB has LRU replacement policy
STLB has LRU replacement policy
L1I has LRU replacement policy
History Sets: 8
History Ways: 16
BERTI Size: 16
BERTI Stride Size: 8
L1D has LRU replacement policy
Initialize SRRIP state for L2C
Initialize DRRIP state for LLC
Heartbeat CPU 0 instructions: 10000001 cycles: 4263759 heartbeat IPC: 2.34535 cumulative IPC: 2.34535 (Simulation time: 0 hr 4 min 15 sec) 
Heartbeat CPU 1 instructions: 10000001 cycles: 4269001 heartbeat IPC: 2.34247 cumulative IPC: 2.34247 (Simulation time: 0 hr 4 min 15 sec) 
Heartbeat CPU 2 instructions: 10000001 cycles: 4290606 heartbeat IPC: 2.33067 cumulative IPC: 2.33067 (Simulation time: 0 hr 4 min 16 sec) 
Heartbeat CPU 3 instructions: 10000001 cycles: 4380233 heartbeat IPC: 2.28298 cumulative IPC: 2.28298 (Simulation time: 0 hr 4 min 20 sec) 
Heartbeat CPU 0 instructions: 20000003 cycles: 8395107 heartbeat IPC: 2.42052 cumulative IPC: 2.38234 (Simulation time: 0 hr 8 min 23 sec) 
Heartbeat CPU 1 instructions: 20000003 cycles: 8403838 heartbeat IPC: 2.41848 cumulative IPC: 2.37987 (Simulation time: 0 hr 8 min 24 sec) 
Heartbeat CPU 2 instructions: 20000003 cycles: 8486915 heartbeat IPC: 2.38305 cumulative IPC: 2.35657 (Simulation time: 0 hr 8 min 29 sec) 
Heartbeat CPU 3 instructions: 20000003 cycles: 8635941 heartbeat IPC: 2.34979 cumulative IPC: 2.3159 (Simulation time: 0 hr 8 min 40 sec) 
Heartbeat CPU 0 instructions: 30000000 cycles: 12471857 heartbeat IPC: 2.45293 cumulative IPC: 2.40542 (Simulation time: 0 hr 12 min 44 sec) 
Heartbeat CPU 1 instructions: 30000003 cycles: 12487152 heartbeat IPC: 2.44899 cumulative IPC: 2.40247 (Simulation time: 0 hr 12 min 45 sec) 
Heartbeat CPU 2 instructions: 30000002 cycles: 12650031 heartbeat IPC: 2.40205 cumulative IPC: 2.37154 (Simulation time: 0 hr 12 min 56 sec) 
Heartbeat CPU 3 instructions: 30000001 cycles: 12808226 heartbeat IPC: 2.39677 cumulative IPC: 2.34224 (Simulation time: 0 hr 13 min 7 sec) 
Heartbeat CPU 0 instructions: 40000002 cycles: 16445646 heartbeat IPC: 2.51649 cumulative IPC: 2.43225 (Simulation time: 0 hr 16 min 45 sec) 
Heartbeat CPU 1 instructions: 40000000 cycles: 16466201 heartbeat IPC: 2.51316 cumulative IPC: 2.42922 (Simulation time: 0 hr 16 min 47 sec) 
Heartbeat CPU 2 instructions: 40000002 cycles: 16740718 heartbeat IPC: 2.44458 cumulative IPC: 2.38938 (Simulation time: 0 hr 17 min 4 sec) 
Heartbeat CPU 3 instructions: 40000001 cycles: 16902943 heartbeat IPC: 2.44217 cumulative IPC: 2.36645 (Simulation time: 0 hr 17 min 13 sec) 
Heartbeat CPU 0 instructions: 50000003 cycles: 20455444 heartbeat IPC: 2.49389 cumulative IPC: 2.44434 (Simulation time: 0 hr 20 min 40 sec) 
Heartbeat CPU 1 instructions: 50000003 cycles: 20484303 heartbeat IPC: 2.48874 cumulative IPC: 2.44089 (Simulation time: 0 hr 20 min 41 sec) 
Heartbeat CPU 2 instructions: 50000003 cycles: 20831199 heartbeat IPC: 2.4447 cumulative IPC: 2.40025 (Simulation time: 0 hr 20 min 55 sec) 
Heartbeat CPU 3 instructions: 50000003 cycles: 20996420 heartbeat IPC: 2.44291 cumulative IPC: 2.38136 (Simulation time: 0 hr 21 min 0 sec) 

Warmup complete CPU 0 instructions: 50967584 cycles: 20996420 (Simulation time: 0 hr 21 min 0 sec) 
Warmup complete CPU 1 instructions: 50916113 cycles: 20996420 (Simulation time: 0 hr 21 min 0 sec) 
Warmup complete CPU 2 instructions: 50295785 cycles: 20996420 (Simulation time: 0 hr 21 min 0 sec) 
Warmup complete CPU 3 instructions: 50000003 cycles: 20996420 (Simulation time: 0 hr 21 min 0 sec) 

Heartbeat CPU 1 instructions: 60000000 cycles: 100375806 heartbeat IPC: 0.12517 cumulative IPC: 0.114436 (Simulation time: 0 hr 26 min 50 sec) 
Heartbeat CPU 0 instructions: 60000000 cycles: 100414924 heartbeat IPC: 0.125063 cumulative IPC: 0.113732 (Simulation time: 0 hr 26 min 50 sec) 
Heartbeat CPU 2 instructions: 60000000 cycles: 104715924 heartbeat IPC: 0.119211 cumulative IPC: 0.115913 (Simulation time: 0 hr 27 min 9 sec) 
Heartbeat CPU 3 instructions: 60000000 cycles: 104805084 heartbeat IPC: 0.119319 cumulative IPC: 0.119319 (Simulation time: 0 hr 27 min 9 sec) 
Heartbeat CPU 0 instructions: 70000000 cycles: 180048398 heartbeat IPC: 0.125575 cumulative IPC: 0.119662 (Simulation time: 0 hr 33 min 11 sec) 
Heartbeat CPU 1 instructions: 70000000 cycles: 180279615 heartbeat IPC: 0.12515 cumulative IPC: 0.119811 (Simulation time: 0 hr 33 min 12 sec) 
Heartbeat CPU 3 instructions: 70000000 cycles: 189319892 heartbeat IPC: 0.118322 cumulative IPC: 0.118819 (Simulation time: 0 hr 34 min 0 sec) 
Heartbeat CPU 2 instructions: 70000000 cycles: 189721607 heartbeat IPC: 0.117639 cumulative IPC: 0.116783 (Simulation time: 0 hr 34 min 3 sec) 
Heartbeat CPU 1 instructions: 80000000 cycles: 271888017 heartbeat IPC: 0.10916 cumulative IPC: 0.115922 (Simulation time: 0 hr 41 min 13 sec) 
Heartbeat CPU 0 instructions: 80000000 cycles: 272019661 heartbeat IPC: 0.10873 cumulative IPC: 0.115656 (Simulation time: 0 hr 41 min 13 sec) 
Heartbeat CPU 3 instructions: 80000000 cycles: 275953212 heartbeat IPC: 0.115429 cumulative IPC: 0.117667 (Simulation time: 0 hr 41 min 29 sec) 
Heartbeat CPU 2 instructions: 80000000 cycles: 275990128 heartbeat IPC: 0.115917 cumulative IPC: 0.11649 (Simulation time: 0 hr 41 min 29 sec) 
Heartbeat CPU 1 instructions: 90000003 cycles: 358761974 heartbeat IPC: 0.115109 cumulative IPC: 0.115713 (Simulation time: 0 hr 48 min 17 sec) 
Heartbeat CPU 0 instructions: 90000003 cycles: 358801601 heartbeat IPC: 0.115231 cumulative IPC: 0.115547 (Simulation time: 0 hr 48 min 17 sec) 
Heartbeat CPU 2 instructions: 90000003 cycles: 361955662 heartbeat IPC: 0.116326 cumulative IPC: 0.116449 (Simulation time: 0 hr 48 min 33 sec) 
Heartbeat CPU 3 instructions: 90000003 cycles: 361965047 heartbeat IPC: 0.116263 cumulative IPC: 0.117313 (Simulation time: 0 hr 48 min 33 sec) 
Heartbeat CPU 1 instructions: 100000001 cycles: 453958508 heartbeat IPC: 0.105046 cumulative IPC: 0.113368 (Simulation time: 0 hr 56 min 32 sec) 
Heartbeat CPU 0 instructions: 100000001 cycles: 454103646 heartbeat IPC: 0.10493 cumulative IPC: 0.113211 (Simulation time: 0 hr 56 min 33 sec) 
Heartbeat CPU 3 instructions: 100000001 cycles: 456799666 heartbeat IPC: 0.105447 cumulative IPC: 0.114731 (Simulation time: 0 hr 56 min 47 sec) 
Heartbeat CPU 2 instructions: 100000001 cycles: 456811000 heartbeat IPC: 0.105424 cumulative IPC: 0.114049 (Simulation time: 0 hr 56 min 47 sec) 
Heartbeat CPU 1 instructions: 110000000 cycles: 551910309 heartbeat IPC: 0.102091 cumulative IPC: 0.111287 (Simulation time: 1 hr 5 min 17 sec) 
Heartbeat CPU 0 instructions: 110000000 cycles: 552350823 heartbeat IPC: 0.101784 cumulative IPC: 0.111098 (Simulation time: 1 hr 5 min 20 sec) 
Heartbeat CPU 3 instructions: 110000000 cycles: 559276383 heartbeat IPC: 0.0975831 cumulative IPC: 0.111466 (Simulation time: 1 hr 5 min 56 sec) 
Heartbeat CPU 2 instructions: 110000000 cycles: 559720111 heartbeat IPC: 0.0971731 cumulative IPC: 0.110825 (Simulation time: 1 hr 5 min 58 sec) 
Heartbeat CPU 1 instructions: 120000000 cycles: 654667794 heartbeat IPC: 0.0973165 cumulative IPC: 0.109022 (Simulation time: 1 hr 14 min 14 sec) 
Heartbeat CPU 0 instructions: 120000000 cycles: 654970828 heartbeat IPC: 0.0974469 cumulative IPC: 0.108888 (Simulation time: 1 hr 14 min 15 sec) 
Heartbeat CPU 2 instructions: 120000000 cycles: 655278053 heartbeat IPC: 0.104649 cumulative IPC: 0.109895 (Simulation time: 1 hr 14 min 16 sec) 
Heartbeat CPU 3 instructions: 120000000 cycles: 655375833 heartbeat IPC: 0.104059 cumulative IPC: 0.110344 (Simulation time: 1 hr 14 min 17 sec) 
Heartbeat CPU 0 instructions: 130000000 cycles: 759611785 heartbeat IPC: 0.0955649 cumulative IPC: 0.107001 (Simulation time: 1 hr 25 min 19 sec) 
Heartbeat CPU 1 instructions: 130000000 cycles: 759626136 heartbeat IPC: 0.0952759 cumulative IPC: 0.107068 (Simulation time: 1 hr 25 min 19 sec) 
Heartbeat CPU 2 instructions: 130000000 cycles: 759649061 heartbeat IPC: 0.095812 cumulative IPC: 0.107905 (Simulation time: 1 hr 25 min 20 sec) 
Heartbeat CPU 3 instructions: 130000000 cycles: 760010013 heartbeat IPC: 0.0955711 cumulative IPC: 0.108252 (Simulation time: 1 hr 25 min 21 sec) 
Heartbeat CPU 1 instructions: 140000002 cycles: 844027584 heartbeat IPC: 0.118481 cumulative IPC: 0.108239 (Simulation time: 1 hr 32 min 38 sec) 
Heartbeat CPU 0 instructions: 140000002 cycles: 844128747 heartbeat IPC: 0.118319 cumulative IPC: 0.108163 (Simulation time: 1 hr 32 min 38 sec) 
Heartbeat CPU 2 instructions: 140000002 cycles: 844260525 heartbeat IPC: 0.118187 cumulative IPC: 0.108962 (Simulation time: 1 hr 32 min 39 sec) 
Heartbeat CPU 3 instructions: 140000002 cycles: 848903680 heartbeat IPC: 0.112494 cumulative IPC: 0.108708 (Simulation time: 1 hr 33 min 0 sec) 
Heartbeat CPU 2 instructions: 150000000 cycles: 933087223 heartbeat IPC: 0.112579 cumulative IPC: 0.109314 (Simulation time: 1 hr 40 min 12 sec) 
Heartbeat CPU 1 instructions: 150000000 cycles: 933124607 heartbeat IPC: 0.112237 cumulative IPC: 0.108629 (Simulation time: 1 hr 40 min 12 sec) 
Heartbeat CPU 0 instructions: 150000000 cycles: 933148335 heartbeat IPC: 0.112335 cumulative IPC: 0.10857 (Simulation time: 1 hr 40 min 12 sec) 
Heartbeat CPU 3 instructions: 150000000 cycles: 935515210 heartbeat IPC: 0.115458 cumulative IPC: 0.109347 (Simulation time: 1 hr 40 min 23 sec) 
Heartbeat CPU 0 instructions: 160000003 cycles: 1031800600 heartbeat IPC: 0.101366 cumulative IPC: 0.107867 (Simulation time: 1 hr 48 min 54 sec) 
Heartbeat CPU 1 instructions: 160000003 cycles: 1031814286 heartbeat IPC: 0.101328 cumulative IPC: 0.107916 (Simulation time: 1 hr 48 min 54 sec) 
Heartbeat CPU 2 instructions: 160000000 cycles: 1032428303 heartbeat IPC: 0.100663 cumulative IPC: 0.108464 (Simulation time: 1 hr 48 min 59 sec) 
Heartbeat CPU 3 instructions: 160000002 cycles: 1040695046 heartbeat IPC: 0.0950753 cumulative IPC: 0.107875 (Simulation time: 1 hr 49 min 41 sec) 
Heartbeat CPU 0 instructions: 170000001 cycles: 1124049766 heartbeat IPC: 0.108402 cumulative IPC: 0.107912 (Simulation time: 1 hr 56 min 44 sec) 
Heartbeat CPU 1 instructions: 170000001 cycles: 1124121709 heartbeat IPC: 0.108334 cumulative IPC: 0.107951 (Simulation time: 1 hr 56 min 44 sec) 
Heartbeat CPU 2 instructions: 170000001 cycles: 1124268160 heartbeat IPC: 0.108885 cumulative IPC: 0.108499 (Simulation time: 1 hr 56 min 45 sec) 
Heartbeat CPU 3 instructions: 170000001 cycles: 1134738849 heartbeat IPC: 0.106333 cumulative IPC: 0.107745 (Simulation time: 1 hr 57 min 56 sec) 
Heartbeat CPU 2 instructions: 180000002 cycles: 1211912644 heartbeat IPC: 0.114097 cumulative IPC: 0.108911 (Simulation time: 2 hr 4 min 1 sec) 
Heartbeat CPU 0 instructions: 180000002 cycles: 1212029919 heartbeat IPC: 0.113662 cumulative IPC: 0.108337 (Simulation time: 2 hr 4 min 2 sec) 
Heartbeat CPU 1 instructions: 180000002 cycles: 1212339012 heartbeat IPC: 0.113356 cumulative IPC: 0.108352 (Simulation time: 2 hr 4 min 5 sec) 
Heartbeat CPU 3 instructions: 180000000 cycles: 1222329023 heartbeat IPC: 0.114168 cumulative IPC: 0.108213 (Simulation time: 2 hr 5 min 3 sec) 
Heartbeat CPU 1 instructions: 190000001 cycles: 1295356948 heartbeat IPC: 0.120456 cumulative IPC: 0.10914 (Simulation time: 2 hr 10 min 40 sec) 
Heartbeat CPU 0 instructions: 190000001 cycles: 1295383833 heartbeat IPC: 0.11997 cumulative IPC: 0.109097 (Simulation time: 2 hr 10 min 40 sec) 
Heartbeat CPU 2 instructions: 190000001 cycles: 1295410248 heartbeat IPC: 0.119764 cumulative IPC: 0.109622 (Simulation time: 2 hr 10 min 40 sec) 
Heartbeat CPU 3 instructions: 190000001 cycles: 1302123259 heartbeat IPC: 0.125322 cumulative IPC: 0.109279 (Simulation time: 2 hr 11 min 9 sec) 
Heartbeat CPU 1 instructions: 200000000 cycles: 1393620202 heartbeat IPC: 0.101767 cumulative IPC: 0.108612 (Simulation time: 2 hr 19 min 57 sec) 
Heartbeat CPU 2 instructions: 200000000 cycles: 1393637860 heartbeat IPC: 0.101804 cumulative IPC: 0.109063 (Simulation time: 2 hr 19 min 57 sec) 
Heartbeat CPU 0 instructions: 200000000 cycles: 1393688405 heartbeat IPC: 0.101725 cumulative IPC: 0.108569 (Simulation time: 2 hr 19 min 57 sec) 
Heartbeat CPU 3 instructions: 200000000 cycles: 1404754344 heartbeat IPC: 0.0974364 cumulative IPC: 0.1084 (Simulation time: 2 hr 20 min 44 sec) 
Heartbeat CPU 1 instructions: 210000001 cycles: 1486785757 heartbeat IPC: 0.107336 cumulative IPC: 0.108531 (Simulation time: 2 hr 27 min 47 sec) 
Heartbeat CPU 2 instructions: 210000001 cycles: 1486786232 heartbeat IPC: 0.107356 cumulative IPC: 0.108954 (Simulation time: 2 hr 27 min 47 sec) 
Heartbeat CPU 0 instructions: 210000001 cycles: 1486842675 heartbeat IPC: 0.107349 cumulative IPC: 0.108492 (Simulation time: 2 hr 27 min 47 sec) 
Heartbeat CPU 3 instructions: 210000001 cycles: 1500788593 heartbeat IPC: 0.10413 cumulative IPC: 0.108123 (Simulation time: 2 hr 28 min 50 sec) 
Heartbeat CPU 1 instructions: 220000000 cycles: 1588405679 heartbeat IPC: 0.0984059 cumulative IPC: 0.107875 (Simulation time: 2 hr 36 min 58 sec) 
Heartbeat CPU 2 instructions: 220000000 cycles: 1588464676 heartbeat IPC: 0.0983493 cumulative IPC: 0.108266 (Simulation time: 2 hr 36 min 59 sec) 
Heartbeat CPU 0 instructions: 220000000 cycles: 1588472189 heartbeat IPC: 0.0983966 cumulative IPC: 0.107837 (Simulation time: 2 hr 36 min 59 sec) 
Heartbeat CPU 3 instructions: 220000000 cycles: 1610814015 heartbeat IPC: 0.0908881 cumulative IPC: 0.106931 (Simulation time: 2 hr 39 min 4 sec) 
Heartbeat CPU 2 instructions: 230000003 cycles: 1674510681 heartbeat IPC: 0.116217 cumulative IPC: 0.10868 (Simulation time: 2 hr 44 min 28 sec) 
Heartbeat CPU 0 instructions: 230000003 cycles: 1674568268 heartbeat IPC: 0.116149 cumulative IPC: 0.10827 (Simulation time: 2 hr 44 min 28 sec) 
Heartbeat CPU 1 instructions: 230000003 cycles: 1674568993 heartbeat IPC: 0.116059 cumulative IPC: 0.108301 (Simulation time: 2 hr 44 min 28 sec) 
Heartbeat CPU 3 instructions: 230000003 cycles: 1689841495 heartbeat IPC: 0.126538 cumulative IPC: 0.107859 (Simulation time: 2 hr 45 min 39 sec) 
Heartbeat CPU 1 instructions: 240000000 cycles: 1759961350 heartbeat IPC: 0.117106 cumulative IPC: 0.108734 (Simulation time: 2 hr 51 min 35 sec) 
Heartbeat CPU 2 instructions: 240000000 cycles: 1759997400 heartbeat IPC: 0.116977 cumulative IPC: 0.109088 (Simulation time: 2 hr 51 min 35 sec) 
Heartbeat CPU 0 instructions: 240000000 cycles: 1760027562 heartbeat IPC: 0.117015 cumulative IPC: 0.1087 (Simulation time: 2 hr 51 min 36 sec) 
Heartbeat CPU 3 instructions: 240000000 cycles: 1784432443 heartbeat IPC: 0.105718 cumulative IPC: 0.107744 (Simulation time: 2 hr 53 min 52 sec) 
Heartbeat CPU 1 instructions: 250000002 cycles: 1850460794 heartbeat IPC: 0.110498 cumulative IPC: 0.108821 (Simulation time: 2 hr 59 min 28 sec) 
Heartbeat CPU 2 instructions: 250000002 cycles: 1850461326 heartbeat IPC: 0.110541 cumulative IPC: 0.10916 (Simulation time: 2 hr 59 min 28 sec) 
Heartbeat CPU 0 instructions: 250000002 cycles: 1850468197 heartbeat IPC: 0.11057 cumulative IPC: 0.108792 (Simulation time: 2 hr 59 min 28 sec) 
Finished CPU 2 instructions: 200000002 cycles: 1831619574 cumulative IPC: 0.109193 (Simulation time: 2 hr 59 min 37 sec) 
Finished CPU 1 instructions: 200000000 cycles: 1836031552 cumulative IPC: 0.108931 (Simulation time: 2 hr 59 min 56 sec) 
Finished CPU 0 instructions: 200000000 cycles: 1836400589 cumulative IPC: 0.108909 (Simulation time: 2 hr 59 min 57 sec) 
Heartbeat CPU 3 instructions: 250000002 cycles: 1872564388 heartbeat IPC: 0.113466 cumulative IPC: 0.108017 (Simulation time: 3 hr 1 min 14 sec) 
Finished CPU 3 instructions: 200000003 cycles: 1851567969 cumulative IPC: 0.108017 (Simulation time: 3 hr 1 min 14 sec) 

ChampSim completed all CPUs

Total Simulation Statistics (not including warmup)

CPU 0 cumulative IPC: 0.109033 instructions: 201881582 cycles: 1851567969
ITLB TOTAL     ACCESS:   35583766  HIT:   35583766  MISS:          0  HIT %:        100  MISS %:          0   MPKI: 0
ITLB LOAD      ACCESS:          0  HIT:          0  MISS:          0  HIT %:       -nan  MISS %:       -nan   MPKI: 0
ITLB RFO       ACCESS:          0  HIT:          0  MISS:          0  HIT %:       -nan  MISS %:       -nan   MPKI: 0
ITLB PREFETCH  ACCESS:          0  HIT:          0  MISS:          0  HIT %:       -nan  MISS %:       -nan   MPKI: 0
ITLB WRITEBACK ACCESS:          0  HIT:          0  MISS:          0  HIT %:       -nan  MISS %:       -nan   MPKI: 0
DTLB TOTAL     ACCESS:   59053549  HIT:   52242562  MISS:    6810987  HIT %:    88.4664  MISS %:    11.5336   MPKI: 33.7375
DTLB LOAD      ACCESS:          0  HIT:          0  MISS:          0  HIT %:       -nan  MISS %:       -nan   MPKI: 0
DTLB RFO       ACCESS:          0  HIT:          0  MISS:          0  HIT %:       -nan  MISS %:       -nan   MPKI: 0
DTLB PREFETCH  ACCESS:          0  HIT:          0  MISS:          0  HIT %:       -nan  MISS %:       -nan   MPKI: 0
DTLB WRITEBACK ACCESS:          0  HIT:          0  MISS:          0  HIT %:       -nan  MISS %:       -nan   MPKI: 0
STLB TOTAL     ACCESS:   10306971  HIT:    6727186  MISS:    3579785  HIT %:    65.2683  MISS %:    34.7317   MPKI: 17.7321
STLB LOAD      ACCESS:          0  HIT:          0  MISS:          0  HIT %:       -nan  MISS %:       -nan   MPKI: 0
STLB RFO       ACCESS:          0  HIT:          0  MISS:          0  HIT %:       -nan  MISS %:       -nan   MPKI: 0
STLB PREFETCH  ACCESS:          0  HIT:          0  MISS:          0  HIT %:       -nan  MISS %:       -nan   MPKI: 0
STLB WRITEBACK ACCESS:          0  HIT:          0  MISS:          0  HIT %:       -nan  MISS %:       -nan   MPKI: 0
L1D TOTAL     ACCESS:   77471918  HIT:   67157397  MISS:   10314521  HIT %:    86.6861  MISS %:    13.3139   MPKI: 51.0919
L1D LOAD      ACCESS:   46884600  HIT:   40608581  MISS:    6276019  HIT %:    86.6139  MISS %:    13.3861   MPKI: 31.0876
L1D RFO       ACCESS:   25569901  HIT:   21826036  MISS:    3743865  HIT %:    85.3583  MISS %:    14.6417   MPKI: 18.5449
L1D PREFETCH  ACCESS:    5017417  HIT:    4722780  MISS:     294637  HIT %:    94.1277  MISS %:    5.87228   MPKI: 1.45945
L1D WRITEBACK ACCESS:          0  HIT:          0  MISS:          0  HIT %:       -nan  MISS %:       -nan   MPKI: 0
L1I TOTAL     ACCESS:   40004878  HIT:   40004862  MISS:         16  HIT %:        100  MISS %: 3.99951e-05   MPKI: 7.92544e-05
L1I LOAD      ACCESS:   40004878  HIT:   40004862  MISS:         16  HIT %:        100  MISS %: 3.99951e-05   MPKI: 7.92544e-05
L1I RFO       ACCESS:          0  HIT:          0  MISS:          0  HIT %:       -nan  MISS %:       -nan   MPKI: 0
L1I PREFETCH  ACCESS:          0  HIT:          0  MISS:          0  HIT %:       -nan  MISS %:       -nan   MPKI: 0
L1I WRITEBACK ACCESS:          0  HIT:          0  MISS:          0  HIT %:       -nan  MISS %:       -nan   MPKI: 0
L2C TOTAL     ACCESS:   25694199  HIT:   16071785  MISS:    9622414  HIT %:    62.5502  MISS %:    37.4498   MPKI: 47.6637
L2C LOAD      ACCESS:    6261507  HIT:    2667133  MISS:    3594374  HIT %:    42.5957  MISS %:    57.4043   MPKI: 17.8044
L2C RFO       ACCESS:    3743865  HIT:     173823  MISS:    3570042  HIT %:    4.64288  MISS %:    95.3571   MPKI: 17.6838
L2C PREFETCH  ACCESS:    6262013  HIT:    5287251  MISS:     974762  HIT %:    84.4337  MISS %:    15.5663   MPKI: 4.82838
L2C WRITEBACK ACCESS:    5322364  HIT:    4728181  MISS:     594183  HIT %:    88.8361  MISS %:    11.1639   MPKI: 2.94323
PSCL5 TOTAL     ACCESS:    3660945  HIT:    3660945  MISS:          0  HIT %:        100  MISS %:          0   MPKI: 0
PSCL5 LOAD      ACCESS:          0  HIT:          0  MISS:          0  HIT %:       -nan  MISS %:       -nan   MPKI: 0
PSCL5 RFO       ACCESS:          0  HIT:          0  MISS:          0  HIT %:       -nan  MISS %:       -nan   MPKI: 0
PSCL5 PREFETCH  ACCESS:          0  HIT:          0  MISS:          0  HIT %:       -nan  MISS %:       -nan   MPKI: 0
PSCL5 WRITEBACK ACCESS:          0  HIT:          0  MISS:          0  HIT %:       -nan  MISS %:       -nan   MPKI: 0
PSCL4 TOTAL     ACCESS:    3660945  HIT:    3660945  MISS:          0  HIT %:        100  MISS %:          0   MPKI: 0
PSCL4 LOAD      ACCESS:          0  HIT:          0  MISS:          0  HIT %:       -nan  MISS %:       -nan   MPKI: 0
PSCL4 RFO       ACCESS:          0  HIT:          0  MISS:          0  HIT %:       -nan  MISS %:       -nan   MPKI: 0
PSCL4 PREFETCH  ACCESS:          0  HIT:          0  MISS:          0  HIT %:       -nan  MISS %:       -nan   MPKI: 0
PSCL4 WRITEBACK ACCESS:          0  HIT:          0  MISS:          0  HIT %:       -nan  MISS %:       -nan   MPKI: 0
PSCL3 TOTAL     ACCESS:    3660945  HIT:    3660945  MISS:          0  HIT %:        100  MISS %:          0   MPKI: 0
PSCL3 LOAD      ACCESS:          0  HIT:          0  MISS:          0  HIT %:       -nan  MISS %:       -nan   MPKI: 0
PSCL3 RFO       ACCESS:          0  HIT:          0  MISS:          0  HIT %:       -nan  MISS %:       -nan   MPKI: 0
PSCL3 PREFETCH  ACCESS:          0  HIT:          0  MISS:          0  HIT %:       -nan  MISS %:       -nan   MPKI: 0
PSCL3 WRITEBACK ACCESS:          0  HIT:          0  MISS:          0  HIT %:       -nan  MISS %:       -nan   MPKI: 0
PSCL2 TOTAL     ACCESS:    3653011  HIT:    3217440  MISS:     435571  HIT %:    88.0764  MISS %:    11.9236   MPKI: 2.15756
PSCL2 LOAD      ACCESS:          0  HIT:          0  MISS:          0  HIT %:       -nan  MISS %:       -nan   MPKI: 0
PSCL2 RFO       ACCESS:          0  HIT:          0  MISS:          0  HIT %:       -nan  MISS %:       -nan   MPKI: 0
PSCL2 PREFETCH  ACCESS:          0  HIT:          0  MISS:          0  HIT %:       -nan  MISS %:       -nan   MPKI: 0
PSCL2 WRITEBACK ACCESS:          0  HIT:          0  MISS:          0  HIT %:       -nan  MISS %:       -nan   MPKI: 0
LLC TOTAL     ACCESS:   14178511  HIT:    6202719  MISS:    7975792  HIT %:    43.7473  MISS %:    56.2527   MPKI: 39.5073
LLC LOAD      ACCESS:    3564178  HIT:     203868  MISS:    3360310  HIT %:    5.71992  MISS %:    94.2801   MPKI: 16.645
LLC RFO       ACCESS:    3570037  HIT:     323608  MISS:    3246429  HIT %:    9.06456  MISS %:    90.9354   MPKI: 16.0809
LLC PREFETCH  ACCESS:    1004959  HIT:      51509  MISS:     953450  HIT %:    5.12548  MISS %:    94.8745   MPKI: 4.72282
LLC WRITEBACK ACCESS:    5150284  HIT:    4951718  MISS:     198566  HIT %:    96.1446  MISS %:    3.85544   MPKI: 0.983577

RAW hits: 9629126
Loads Generated: 93506651
Loads sent to L1D: 83877525
Stores Generated: 25606330
Stores sent to L1D: 25606329

CPU 1 cumulative IPC: 0.10906 instructions: 201932597 cycles: 1851567969
ITLB TOTAL     ACCESS:   35590969  HIT:   35590969  MISS:          0  HIT %:        100  MISS %:          0   MPKI: 0
ITLB LOAD      ACCESS:          0  HIT:          0  MISS:          0  HIT %:       -nan  MISS %:       -nan   MPKI: 0
ITLB RFO       ACCESS:          0  HIT:          0  MISS:          0  HIT %:       -nan  MISS %:       -nan   MPKI: 0
ITLB PREFETCH  ACCESS:          0  HIT:          0  MISS:          0  HIT %:       -nan  MISS %:       -nan   MPKI: 0
ITLB WRITEBACK ACCESS:          0  HIT:          0  MISS:          0  HIT %:       -nan  MISS %:       -nan   MPKI: 0
DTLB TOTAL     ACCESS:   59074654  HIT:   52261882  MISS:    6812772  HIT %:    88.4675  MISS %:    11.5325   MPKI: 33.7379
DTLB LOAD      ACCESS:          0  HIT:          0  MISS:          0  HIT %:       -nan  MISS %:       -nan   MPKI: 0
DTLB RFO       ACCESS:          0  HIT:          0  MISS:          0  HIT %:       -nan  MISS %:       -nan   MPKI: 0
DTLB PREFETCH  ACCESS:          0  HIT:          0  MISS:          0  HIT %:       -nan  MISS %:       -nan   MPKI: 0
DTLB WRITEBACK ACCESS:          0  HIT:          0  MISS:          0  HIT %:       -nan  MISS %:       -nan   MPKI: 0
STLB TOTAL     ACCESS:   10312260  HIT:    6731590  MISS:    3580670  HIT %:    65.2775  MISS %:    34.7225   MPKI: 17.732
STLB LOAD      ACCESS:          0  HIT:          0  MISS:          0  HIT %:       -nan  MISS %:       -nan   MPKI: 0
STLB RFO       ACCESS:          0  HIT:          0  MISS:          0  HIT %:       -nan  MISS %:       -nan   MPKI: 0
STLB PREFETCH  ACCESS:          0  HIT:          0  MISS:          0  HIT %:       -nan  MISS %:       -nan   MPKI: 0
STLB WRITEBACK ACCESS:          0  HIT:          0  MISS:          0  HIT %:       -nan  MISS %:       -nan   MPKI: 0
L1D TOTAL     ACCESS:   77516223  HIT:   67199393  MISS:   10316830  HIT %:    86.6907  MISS %:    13.3093   MPKI: 51.0905
L1D LOAD      ACCESS:   46900125  HIT:   40622046  MISS:    6278079  HIT %:    86.6139  MISS %:    13.3861   MPKI: 31.09
L1D RFO       ACCESS:   25576634  HIT:   21832386  MISS:    3744248  HIT %:    85.3607  MISS %:    14.6393   MPKI: 18.5421
L1D PREFETCH  ACCESS:    5039464  HIT:    4744961  MISS:     294503  HIT %:    94.1561  MISS %:    5.84393   MPKI: 1.45842
L1D WRITEBACK ACCESS:          0  HIT:          0  MISS:          0  HIT %:       -nan  MISS %:       -nan   MPKI: 0
L1I TOTAL     ACCESS:   40013341  HIT:   40013325  MISS:         16  HIT %:        100  MISS %: 3.99867e-05   MPKI: 7.92344e-05
L1I LOAD      ACCESS:   40013341  HIT:   40013325  MISS:         16  HIT %:        100  MISS %: 3.99867e-05   MPKI: 7.92344e-05
L1I RFO       ACCESS:          0  HIT:          0  MISS:          0  HIT %:       -nan  MISS %:       -nan   MPKI: 0
L1I PREFETCH  ACCESS:          0  HIT:          0  MISS:          0  HIT %:       -nan  MISS %:       -nan   MPKI: 0
L1I WRITEBACK ACCESS:          0  HIT:          0  MISS:          0  HIT %:       -nan  MISS %:       -nan   MPKI: 0
L2C TOTAL     ACCESS:   25712152  HIT:   16095997  MISS:    9616155  HIT %:    62.6007  MISS %:    37.3993   MPKI: 47.6206
L2C LOAD      ACCESS:    6263865  HIT:    2669970  MISS:    3593895  HIT %:     42.625  MISS %:     57.375   MPKI: 17.7975
L2C RFO       ACCESS:    3744248  HIT:     174186  MISS:    3570062  HIT %:     4.6521  MISS %:    95.3479   MPKI: 17.6795
L2C PREFETCH  ACCESS:    6274681  HIT:    5300038  MISS:     974643  HIT %:    84.4671  MISS %:    15.5329   MPKI: 4.82658
L2C WRITEBACK ACCESS:    5323225  HIT:    4726151  MISS:     597074  HIT %:    88.7836  MISS %:    11.2164   MPKI: 2.9568
PSCL5 TOTAL     ACCESS:    3662071  HIT:    3662071  MISS:          0  HIT %:        100  MISS %:          0   MPKI: 0
PSCL5 LOAD      ACCESS:          0  HIT:          0  MISS:          0  HIT %:       -nan  MISS %:       -nan   MPKI: 0
PSCL5 RFO       ACCESS:          0  HIT:          0  MISS:          0  HIT %:       -nan  MISS %:       -nan   MPKI: 0
PSCL5 PREFETCH  ACCESS:          0  HIT:          0  MISS:          0  HIT %:       -nan  MISS %:       -nan   MPKI: 0
PSCL5 WRITEBACK ACCESS:          0  HIT:          0  MISS:          0  HIT %:       -nan  MISS %:       -nan   MPKI: 0
PSCL4 TOTAL     ACCESS:    3662071  HIT:    3662071  MISS:          0  HIT %:        100  MISS %:          0   MPKI: 0
PSCL4 LOAD      ACCESS:          0  HIT:          0  MISS:          0  HIT %:       -nan  MISS %:       -nan   MPKI: 0
PSCL4 RFO       ACCESS:          0  HIT:          0  MISS:          0  HIT %:       -nan  MISS %:       -nan   MPKI: 0
PSCL4 PREFETCH  ACCESS:          0  HIT:          0  MISS:          0  HIT %:       -nan  MISS %:       -nan   MPKI: 0
PSCL4 WRITEBACK ACCESS:          0  HIT:          0  MISS:          0  HIT %:       -nan  MISS %:       -nan   MPKI: 0
PSCL3 TOTAL     ACCESS:    3662071  HIT:    3662071  MISS:          0  HIT %:        100  MISS %:          0   MPKI: 0
PSCL3 LOAD      ACCESS:          0  HIT:          0  MISS:          0  HIT %:       -nan  MISS %:       -nan   MPKI: 0
PSCL3 RFO       ACCESS:          0  HIT:          0  MISS:          0  HIT %:       -nan  MISS %:       -nan   MPKI: 0
PSCL3 PREFETCH  ACCESS:          0  HIT:          0  MISS:          0  HIT %:       -nan  MISS %:       -nan   MPKI: 0
PSCL3 WRITEBACK ACCESS:          0  HIT:          0  MISS:          0  HIT %:       -nan  MISS %:       -nan   MPKI: 0
PSCL2 TOTAL     ACCESS:    3653793  HIT:    3218009  MISS:     435784  HIT %:    88.0731  MISS %:    11.9269   MPKI: 2.15807
PSCL2 LOAD      ACCESS:          0  HIT:          0  MISS:          0  HIT %:       -nan  MISS %:       -nan   MPKI: 0
PSCL2 RFO       ACCESS:          0  HIT:          0  MISS:          0  HIT %:       -nan  MISS %:       -nan   MPKI: 0
PSCL2 PREFETCH  ACCESS:          0  HIT:          0  MISS:          0  HIT %:       -nan  MISS %:       -nan   MPKI: 0
PSCL2 WRITEBACK ACCESS:          0  HIT:          0  MISS:          0  HIT %:       -nan  MISS %:       -nan   MPKI: 0
LLC TOTAL     ACCESS:   14169479  HIT:    6195541  MISS:    7973938  HIT %:    43.7246  MISS %:    56.2754   MPKI: 39.4881
LLC LOAD      ACCESS:    3563481  HIT:     201398  MISS:    3362083  HIT %:    5.65172  MISS %:    94.3483   MPKI: 16.6495
LLC RFO       ACCESS:    3570058  HIT:     331793  MISS:    3238265  HIT %:    9.29377  MISS %:    90.7062   MPKI: 16.0364
LLC PREFETCH  ACCESS:    1005058  HIT:      50029  MISS:     955029  HIT %:    4.97772  MISS %:    95.0223   MPKI: 4.72944
LLC WRITEBACK ACCESS:    5150401  HIT:    4946370  MISS:     204031  HIT %:    96.0385  MISS %:    3.96146   MPKI: 1.01039

RAW hits: 9631079
Loads Generated: 93530554
Loads sent to L1D: 83899475
Stores Generated: 25612738
Stores sent to L1D: 25612738

CPU 2 cumulative IPC: 0.109402 instructions: 202565084 cycles: 1851567969
ITLB TOTAL     ACCESS:   35705246  HIT:   35705246  MISS:          0  HIT %:        100  MISS %:          0   MPKI: 0
ITLB LOAD      ACCESS:          0  HIT:          0  MISS:          0  HIT %:       -nan  MISS %:       -nan   MPKI: 0
ITLB RFO       ACCESS:          0  HIT:          0  MISS:          0  HIT %:       -nan  MISS %:       -nan   MPKI: 0
ITLB PREFETCH  ACCESS:          0  HIT:          0  MISS:          0  HIT %:       -nan  MISS %:       -nan   MPKI: 0
ITLB WRITEBACK ACCESS:          0  HIT:          0  MISS:          0  HIT %:       -nan  MISS %:       -nan   MPKI: 0
DTLB TOTAL     ACCESS:   59248475  HIT:   52420513  MISS:    6827962  HIT %:    88.4757  MISS %:    11.5243   MPKI: 33.7075
DTLB LOAD      ACCESS:          0  HIT:          0  MISS:          0  HIT %:       -nan  MISS %:       -nan   MPKI: 0
DTLB RFO       ACCESS:          0  HIT:          0  MISS:          0  HIT %:       -nan  MISS %:       -nan   MPKI: 0
DTLB PREFETCH  ACCESS:          0  HIT:          0  MISS:          0  HIT %:       -nan  MISS %:       -nan   MPKI: 0
DTLB WRITEBACK ACCESS:          0  HIT:          0  MISS:          0  HIT %:       -nan  MISS %:       -nan   MPKI: 0
STLB TOTAL     ACCESS:   10344786  HIT:    6760533  MISS:    3584253  HIT %:    65.3521  MISS %:    34.6479   MPKI: 17.6943
STLB LOAD      ACCESS:          0  HIT:          0  MISS:          0  HIT %:       -nan  MISS %:       -nan   MPKI: 0
STLB RFO       ACCESS:          0  HIT:          0  MISS:          0  HIT %:       -nan  MISS %:       -nan   MPKI: 0
STLB PREFETCH  ACCESS:          0  HIT:          0  MISS:          0  HIT %:       -nan  MISS %:       -nan   MPKI: 0
STLB WRITEBACK ACCESS:          0  HIT:          0  MISS:          0  HIT %:       -nan  MISS %:       -nan   MPKI: 0
L1D TOTAL     ACCESS:   77819783  HIT:   67482157  MISS:   10337626  HIT %:    86.7159  MISS %:    13.2841   MPKI: 51.0336
L1D LOAD      ACCESS:   47049645  HIT:   40755893  MISS:    6293752  HIT %:    86.6232  MISS %:    13.3768   MPKI: 31.0703
L1D RFO       ACCESS:   25652940  HIT:   21910468  MISS:    3742472  HIT %:    85.4111  MISS %:    14.5889   MPKI: 18.4754
L1D PREFETCH  ACCESS:    5117198  HIT:    4815796  MISS:     301402  HIT %:      94.11  MISS %:    5.88998   MPKI: 1.48793
L1D WRITEBACK ACCESS:          0  HIT:          0  MISS:          0  HIT %:       -nan  MISS %:       -nan   MPKI: 0
L1I TOTAL     ACCESS:   40143332  HIT:   40143316  MISS:         16  HIT %:        100  MISS %: 3.98572e-05   MPKI: 7.8987e-05
L1I LOAD      ACCESS:   40143332  HIT:   40143316  MISS:         16  HIT %:        100  MISS %: 3.98572e-05   MPKI: 7.8987e-05
L1I RFO       ACCESS:          0  HIT:          0  MISS:          0  HIT %:       -nan  MISS %:       -nan   MPKI: 0
L1I PREFETCH  ACCESS:          0  HIT:          0  MISS:          0  HIT %:       -nan  MISS %:       -nan   MPKI: 0
L1I WRITEBACK ACCESS:          0  HIT:          0  MISS:          0  HIT %:       -nan  MISS %:       -nan   MPKI: 0
L2C TOTAL     ACCESS:   25769651  HIT:   16129628  MISS:    9640023  HIT %:    62.5916  MISS %:    37.4084   MPKI: 47.5898
L2C LOAD      ACCESS:    6280081  HIT:    2674927  MISS:    3605154  HIT %:    42.5938  MISS %:    57.4062   MPKI: 17.7975
L2C RFO       ACCESS:    3742471  HIT:     175271  MISS:    3567200  HIT %:     4.6833  MISS %:    95.3167   MPKI: 17.6101
L2C PREFETCH  ACCESS:    6308966  HIT:    5328229  MISS:     980737  HIT %:    84.4549  MISS %:    15.5451   MPKI: 4.84159
L2C WRITEBACK ACCESS:    5327040  HIT:    4729348  MISS:     597692  HIT %:      88.78  MISS %:      11.22   MPKI: 2.95062
PSCL5 TOTAL     ACCESS:    3666041  HIT:    3666041  MISS:          0  HIT %:        100  MISS %:          0   MPKI: 0
PSCL5 LOAD      ACCESS:          0  HIT:          0  MISS:          0  HIT %:       -nan  MISS %:       -nan   MPKI: 0
PSCL5 RFO       ACCESS:          0  HIT:          0  MISS:          0  HIT %:       -nan  MISS %:       -nan   MPKI: 0
PSCL5 PREFETCH  ACCESS:          0  HIT:          0  MISS:          0  HIT %:       -nan  MISS %:       -nan   MPKI: 0
PSCL5 WRITEBACK ACCESS:          0  HIT:          0  MISS:          0  HIT %:       -nan  MISS %:       -nan   MPKI: 0
PSCL4 TOTAL     ACCESS:    3666041  HIT:    3666041  MISS:          0  HIT %:        100  MISS %:          0   MPKI: 0
PSCL4 LOAD      ACCESS:          0  HIT:          0  MISS:          0  HIT %:       -nan  MISS %:       -nan   MPKI: 0
PSCL4 RFO       ACCESS:          0  HIT:          0  MISS:          0  HIT %:       -nan  MISS %:       -nan   MPKI: 0
PSCL4 PREFETCH  ACCESS:          0  HIT:          0  MISS:          0  HIT %:       -nan  MISS %:       -nan   MPKI: 0
PSCL4 WRITEBACK ACCESS:          0  HIT:          0  MISS:          0  HIT %:       -nan  MISS %:       -nan   MPKI: 0
PSCL3 TOTAL     ACCESS:    3666041  HIT:    3666041  MISS:          0  HIT %:        100  MISS %:          0   MPKI: 0
PSCL3 LOAD      ACCESS:          0  HIT:          0  MISS:          0  HIT %:       -nan  MISS %:       -nan   MPKI: 0
PSCL3 RFO       ACCESS:          0  HIT:          0  MISS:          0  HIT %:       -nan  MISS %:       -nan   MPKI: 0
PSCL3 PREFETCH  ACCESS:          0  HIT:          0  MISS:          0  HIT %:       -nan  MISS %:       -nan   MPKI: 0
PSCL3 WRITEBACK ACCESS:          0  HIT:          0  MISS:          0  HIT %:       -nan  MISS %:       -nan   MPKI: 0
PSCL2 TOTAL     ACCESS:    3658138  HIT:    3220989  MISS:     437149  HIT %:      88.05  MISS %:      11.95   MPKI: 2.15807
PSCL2 LOAD      ACCESS:          0  HIT:          0  MISS:          0  HIT %:       -nan  MISS %:       -nan   MPKI: 0
PSCL2 RFO       ACCESS:          0  HIT:          0  MISS:          0  HIT %:       -nan  MISS %:       -nan   MPKI: 0
PSCL2 PREFETCH  ACCESS:          0  HIT:          0  MISS:          0  HIT %:       -nan  MISS %:       -nan   MPKI: 0
PSCL2 WRITEBACK ACCESS:          0  HIT:          0  MISS:          0  HIT %:       -nan  MISS %:       -nan   MPKI: 0
LLC TOTAL     ACCESS:   14196361  HIT:    6199107  MISS:    7997254  HIT %:    43.6669  MISS %:    56.3331   MPKI: 39.4799
LLC LOAD      ACCESS:    3575805  HIT:     228414  MISS:    3347391  HIT %:    6.38776  MISS %:    93.6122   MPKI: 16.525
LLC RFO       ACCESS:    3567197  HIT:     285063  MISS:    3282134  HIT %:    7.99123  MISS %:    92.0088   MPKI: 16.2029
LLC PREFETCH  ACCESS:    1010088  HIT:      51705  MISS:     958383  HIT %:    5.11886  MISS %:    94.8811   MPKI: 4.73123
LLC WRITEBACK ACCESS:    5154031  HIT:    4962854  MISS:     191177  HIT %:    96.2907  MISS %:    3.70927   MPKI: 0.943781

RAW hits: 9666718
Loads Generated: 93826957
Loads sent to L1D: 84160239
Stores Generated: 25691518
Stores sent to L1D: 25691518

CPU 3 cumulative IPC: 0.108017 instructions: 200000003 cycles: 1851567969
ITLB TOTAL     ACCESS:   35293754  HIT:   35293754  MISS:          0  HIT %:        100  MISS %:          0   MPKI: 0
ITLB LOAD      ACCESS:          0  HIT:          0  MISS:          0  HIT %:       -nan  MISS %:       -nan   MPKI: 0
ITLB RFO       ACCESS:          0  HIT:          0  MISS:          0  HIT %:       -nan  MISS %:       -nan   MPKI: 0
ITLB PREFETCH  ACCESS:          0  HIT:          0  MISS:          0  HIT %:       -nan  MISS %:       -nan   MPKI: 0
ITLB WRITEBACK ACCESS:          0  HIT:          0  MISS:          0  HIT %:       -nan  MISS %:       -nan   MPKI: 0
DTLB TOTAL     ACCESS:   58099035  HIT:   51357014  MISS:    6742021  HIT %:    88.3956  MISS %:    11.6044   MPKI: 33.7101
DTLB LOAD      ACCESS:          0  HIT:          0  MISS:          0  HIT %:       -nan  MISS %:       -nan   MPKI: 0
DTLB RFO       ACCESS:          0  HIT:          0  MISS:          0  HIT %:       -nan  MISS %:       -nan   MPKI: 0
DTLB PREFETCH  ACCESS:          0  HIT:          0  MISS:          0  HIT %:       -nan  MISS %:       -nan   MPKI: 0
DTLB WRITEBACK ACCESS:          0  HIT:          0  MISS:          0  HIT %:       -nan  MISS %:       -nan   MPKI: 0
STLB TOTAL     ACCESS:   10190232  HIT:    6646165  MISS:    3544067  HIT %:    65.2209  MISS %:    34.7791   MPKI: 17.7203
STLB LOAD      ACCESS:          0  HIT:          0  MISS:          0  HIT %:       -nan  MISS %:       -nan   MPKI: 0
STLB RFO       ACCESS:          0  HIT:          0  MISS:          0  HIT %:       -nan  MISS %:       -nan   MPKI: 0
STLB PREFETCH  ACCESS:          0  HIT:          0  MISS:          0  HIT %:       -nan  MISS %:       -nan   MPKI: 0
STLB WRITEBACK ACCESS:          0  HIT:          0  MISS:          0  HIT %:       -nan  MISS %:       -nan   MPKI: 0
L1D TOTAL     ACCESS:   77296016  HIT:   67085651  MISS:   10210365  HIT %:    86.7906  MISS %:    13.2094   MPKI: 51.0518
L1D LOAD      ACCESS:   46234539  HIT:   40175455  MISS:    6059084  HIT %:    86.8949  MISS %:    13.1051   MPKI: 30.2954
L1D RFO       ACCESS:   25307835  HIT:   21594287  MISS:    3713548  HIT %:    85.3265  MISS %:    14.6735   MPKI: 18.5677
L1D PREFETCH  ACCESS:    5753642  HIT:    5315909  MISS:     437733  HIT %:    92.3921  MISS %:    7.60793   MPKI: 2.18866
L1D WRITEBACK ACCESS:          0  HIT:          0  MISS:          0  HIT %:       -nan  MISS %:       -nan   MPKI: 0
L1I TOTAL     ACCESS:   39659432  HIT:   39659416  MISS:         16  HIT %:        100  MISS %: 4.03435e-05   MPKI: 8e-05
L1I LOAD      ACCESS:   39659432  HIT:   39659416  MISS:         16  HIT %:        100  MISS %: 4.03435e-05   MPKI: 8e-05
L1I RFO       ACCESS:          0  HIT:          0  MISS:          0  HIT %:       -nan  MISS %:       -nan   MPKI: 0
L1I PREFETCH  ACCESS:          0  HIT:          0  MISS:          0  HIT %:       -nan  MISS %:       -nan   MPKI: 0
L1I WRITEBACK ACCESS:          0  HIT:          0  MISS:          0  HIT %:       -nan  MISS %:       -nan   MPKI: 0
L2C TOTAL     ACCESS:   25309215  HIT:   15809512  MISS:    9499703  HIT %:    62.4654  MISS %:    37.5346   MPKI: 47.4985
L2C LOAD      ACCESS:    6052929  HIT:    2518268  MISS:    3534661  HIT %:    41.6041  MISS %:    58.3959   MPKI: 17.6733
L2C RFO       ACCESS:    3713547  HIT:     169770  MISS:    3543777  HIT %:    4.57164  MISS %:    95.4284   MPKI: 17.7189
L2C PREFETCH  ACCESS:    6205746  HIT:    5209348  MISS:     996398  HIT %:    83.9439  MISS %:    16.0561   MPKI: 4.98199
L2C WRITEBACK ACCESS:    5275375  HIT:    4735400  MISS:     539975  HIT %:    89.7642  MISS %:    10.2358   MPKI: 2.69987
PSCL5 TOTAL     ACCESS:    3624379  HIT:    3624379  MISS:          0  HIT %:        100  MISS %:          0   MPKI: 0
PSCL5 LOAD      ACCESS:          0  HIT:          0  MISS:          0  HIT %:       -nan  MISS %:       -nan   MPKI: 0
PSCL5 RFO       ACCESS:          0  HIT:          0  MISS:          0  HIT %:       -nan  MISS %:       -nan   MPKI: 0
PSCL5 PREFETCH  ACCESS:          0  HIT:          0  MISS:          0  HIT %:       -nan  MISS %:       -nan   MPKI: 0
PSCL5 WRITEBACK ACCESS:          0  HIT:          0  MISS:          0  HIT %:       -nan  MISS %:       -nan   MPKI: 0
PSCL4 TOTAL     ACCESS:    3624379  HIT:    3624379  MISS:          0  HIT %:        100  MISS %:          0   MPKI: 0
PSCL4 LOAD      ACCESS:          0  HIT:          0  MISS:          0  HIT %:       -nan  MISS %:       -nan   MPKI: 0
PSCL4 RFO       ACCESS:          0  HIT:          0  MISS:          0  HIT %:       -nan  MISS %:       -nan   MPKI: 0
PSCL4 PREFETCH  ACCESS:          0  HIT:          0  MISS:          0  HIT %:       -nan  MISS %:       -nan   MPKI: 0
PSCL4 WRITEBACK ACCESS:          0  HIT:          0  MISS:          0  HIT %:       -nan  MISS %:       -nan   MPKI: 0
PSCL3 TOTAL     ACCESS:    3624379  HIT:    3624379  MISS:          0  HIT %:        100  MISS %:          0   MPKI: 0
PSCL3 LOAD      ACCESS:          0  HIT:          0  MISS:          0  HIT %:       -nan  MISS %:       -nan   MPKI: 0
PSCL3 RFO       ACCESS:          0  HIT:          0  MISS:          0  HIT %:       -nan  MISS %:       -nan   MPKI: 0
PSCL3 PREFETCH  ACCESS:          0  HIT:          0  MISS:          0  HIT %:       -nan  MISS %:       -nan   MPKI: 0
PSCL3 WRITEBACK ACCESS:          0  HIT:          0  MISS:          0  HIT %:       -nan  MISS %:       -nan   MPKI: 0
PSCL2 TOTAL     ACCESS:    3616597  HIT:    3187140  MISS:     429457  HIT %:    88.1254  MISS %:    11.8746   MPKI: 2.14728
PSCL2 LOAD      ACCESS:          0  HIT:          0  MISS:          0  HIT %:       -nan  MISS %:       -nan   MPKI: 0
PSCL2 RFO       ACCESS:          0  HIT:          0  MISS:          0  HIT %:       -nan  MISS %:       -nan   MPKI: 0
PSCL2 PREFETCH  ACCESS:          0  HIT:          0  MISS:          0  HIT %:       -nan  MISS %:       -nan   MPKI: 0
PSCL2 WRITEBACK ACCESS:          0  HIT:          0  MISS:          0  HIT %:       -nan  MISS %:       -nan   MPKI: 0
LLC TOTAL     ACCESS:   14069294  HIT:    3859258  MISS:   10210036  HIT %:    27.4304  MISS %:    72.5696   MPKI: 51.0502
LLC LOAD      ACCESS:    3517269  HIT:     357194  MISS:    3160075  HIT %:    10.1554  MISS %:    89.8446   MPKI: 15.8004
LLC RFO       ACCESS:    3543769  HIT:     389568  MISS:    3154201  HIT %:     10.993  MISS %:     89.007   MPKI: 15.771
LLC PREFETCH  ACCESS:    1013795  HIT:      40961  MISS:     972834  HIT %:    4.04036  MISS %:    95.9596   MPKI: 4.86417
LLC WRITEBACK ACCESS:    5109569  HIT:    2656856  MISS:    2452713  HIT %:    51.9977  MISS %:    48.0023   MPKI: 12.2636

RAW hits: 9534723
Loads Generated: 92624464
Loads sent to L1D: 83089740
Stores Generated: 25372361
Stores sent to L1D: 25372365

Region of Interest Statistics

CPU 0 cumulative IPC: 0.108909 instructions: 200000000 cycles: 1836400589
ITLB TOTAL     ACCESS:   35261962  HIT:   35261962  MISS:          0  HIT %:        100  MISS %:          0   MPKI: 0
ITLB LOAD TRANSLATION ACCESS:   35261962  HIT:   35261962  MISS:          0  HIT %:        100  MISS %:          0   MPKI: 0
ITLB PREFETCH  REQUESTED:          0  ISSUED:          0  USEFUL:          0  USELESS:          0
ITLB USEFUL LOAD PREFETCHES:          0 PREFETCH ISSUED TO LOWER LEVEL:          0  ACCURACY: -nan
ITLB TIMELY PREFETCHES:          0 LATE PREFETCHES: 0 DROPPED PREFETCHES: 0
ITLB PREFETCHES SAME FILL-ORIGIN LEVEL: 0 DIFFERENT FILL-ORIGIN LEVEL: 0
ITLB AVERAGE MISS LATENCY: -nan cycles
ITLB RQ	ACCESS:   40004879	FORWARD:          0	MERGED:    4421113	TO_CACHE:   35583766

DTLB TOTAL     ACCESS:   58476028  HIT:   51715950  MISS:    6760078  HIT %:    88.4396  MISS %:    11.5604   MPKI: 33.8004
DTLB LOAD TRANSLATION ACCESS:   58476028  HIT:   51715950  MISS:    6760078  HIT %:    88.4396  MISS %:    11.5604   MPKI: 33.8004
DTLB PREFETCH  REQUESTED:          0  ISSUED:          0  USEFUL:          0  USELESS:          0
DTLB USEFUL LOAD PREFETCHES:          0 PREFETCH ISSUED TO LOWER LEVEL:          0  ACCURACY: -nan
DTLB TIMELY PREFETCHES:          0 LATE PREFETCHES: 0 DROPPED PREFETCHES: 0
DTLB PREFETCHES SAME FILL-ORIGIN LEVEL: 0 DIFFERENT FILL-ORIGIN LEVEL: 0
DTLB AVERAGE MISS LATENCY: 266.682 cycles
DTLB RQ	ACCESS:   72645528	FORWARD:          0	MERGED:   13087897	TO_CACHE:   59557631

STLB TOTAL     ACCESS:   10229283  HIT:    6668934  MISS:    3560349  HIT %:    65.1945  MISS %:    34.8055   MPKI: 17.8017
STLB LOAD TRANSLATION ACCESS:    6760078  HIT:    3327716  MISS:    3432362  HIT %:     49.226  MISS %:     50.774   MPKI: 17.1618
STLB TRANSLATION FROM L1D PREFETCHER ACCESS:    3469205  HIT:    3341218  MISS:     127987  HIT %:    96.3108  MISS %:    3.68923   MPKI: 0.639935
STLB PREFETCH  REQUESTED:          0  ISSUED:          0  USEFUL:      94896  USELESS:      33948
STLB USEFUL LOAD PREFETCHES:      94896 PREFETCH ISSUED TO LOWER LEVEL:          0  ACCURACY: inf
STLB TIMELY PREFETCHES:      94896 LATE PREFETCHES: 224 DROPPED PREFETCHES: 81160
STLB PREFETCHES SAME FILL-ORIGIN LEVEL: 0 DIFFERENT FILL-ORIGIN LEVEL: 0
STLB AVERAGE MISS LATENCY: 492.495 cycles
STLB RQ	ACCESS:   18440093	FORWARD:          0	MERGED:    8045928	TO_CACHE:   10394165

STLB Hit, L1D data hit: 0
STLB Hit, L2C data hit: 0
STLB Hit, LLC data hit: 0
STLB Hit, LLC data miss: 0
STLB STLB hints to L2: 0
L1D TOTAL     ACCESS:   76725205  HIT:   66484367  MISS:   10240838  HIT %:    86.6526  MISS %:    13.3474   MPKI: 51.2042
L1D LOAD      ACCESS:   46416664  HIT:   40210256  MISS:    6206408  HIT %:    86.6289  MISS %:    13.3711   MPKI: 31.032
L1D RFO       ACCESS:   25335843  HIT:   21594072  MISS:    3741771  HIT %:    85.2313  MISS %:    14.7687   MPKI: 18.7089
L1D PREFETCH  ACCESS:    4972698  HIT:    4680039  MISS:     292659  HIT %:    94.1147  MISS %:    5.88532   MPKI: 1.4633
L1D PREFETCH  REQUESTED:   34118084  ISSUED:   34111482  USEFUL:     286335  USELESS:       8311
L1D USEFUL LOAD PREFETCHES:     286335 PREFETCH ISSUED TO LOWER LEVEL:    6567858  ACCURACY: 4.35964
L1D TIMELY PREFETCHES:     286335 LATE PREFETCHES: 14518 DROPPED PREFETCHES: 96429
L1D PREFETCHES SAME FILL-ORIGIN LEVEL: 309155 DIFFERENT FILL-ORIGIN LEVEL: 6258703
L1D AVERAGE MISS LATENCY: 658.33 cycles
L1D RQ	ACCESS:   83877525	FORWARD:          0	MERGED:   32775022	TO_CACHE:   47075380
L1D WQ	ACCESS:   25570204	FORWARD:    4027741	MERGED:         56	TO_CACHE:   25570148
L1D PQ	ACCESS:   22482376	FORWARD:          0	MERGED:   10852652	TO_CACHE:   11629106

L1D UNIQUE REGIONS ACCESSED: 0
L1D REGIONS CONFLICTS: 0
L1D Cross Page Prefetch Requests: 3739644
L1D Same Page Prefetch Requests: 28122139
L1D ROI Sum of L1D PQ occupancy: 2567914581
L1D PREFETCHES PUSHED FROM L2C: 0
L1I TOTAL     ACCESS:   39630337  HIT:   39630321  MISS:         16  HIT %:        100  MISS %: 4.03731e-05   MPKI: 8e-05
L1I LOAD      ACCESS:   39630337  HIT:   39630321  MISS:         16  HIT %:        100  MISS %: 4.03731e-05   MPKI: 8e-05
L1I PREFETCH  REQUESTED:          0  ISSUED:          0  USEFUL:          0  USELESS:          0
L1I USEFUL LOAD PREFETCHES:          0 PREFETCH ISSUED TO LOWER LEVEL:          0  ACCURACY: -nan
L1I TIMELY PREFETCHES:          0 LATE PREFETCHES: 0 DROPPED PREFETCHES: 0
L1I PREFETCHES SAME FILL-ORIGIN LEVEL: 0 DIFFERENT FILL-ORIGIN LEVEL: 0
L1I AVERAGE MISS LATENCY: 465.375 cycles
L1I RQ	ACCESS:   60774075	FORWARD:          0	MERGED:   20769196	TO_CACHE:   40004879

BTB TOTAL     ACCESS:   36003260  HIT:   35995512  MISS:       7748  HIT %:    99.9785  MISS %:  0.0215203   MPKI: 0.03874
BTB BRANCH_DIRECT_JUMP	ACCESS:    1555514  HIT:    1555498  MISS:         16
BTB BRANCH_INDIRECT	ACCESS:          0  HIT:          0  MISS:          0
BTB BRANCH_CONDITIONAL	ACCESS:   19079748  HIT:   19079682  MISS:         66
BTB BRANCH_DIRECT_CALL	ACCESS:    1562673  HIT:    1562662  MISS:         11
BTB BRANCH_INDIRECT_CALL	ACCESS:    6121326  HIT:    6121326  MISS:          0
BTB BRANCH_RETURN	ACCESS:    7683999  HIT:    7676344  MISS:       7655
BTB BRANCH_OTHER ACCESS:          0  HIT:          0  MISS:          0

L2C TOTAL     ACCESS:   25513586  HIT:   15940272  MISS:    9573314  HIT %:    62.4776  MISS %:    37.5224   MPKI: 47.8666
L2C LOAD      ACCESS:    6191897  HIT:    2636362  MISS:    3555535  HIT %:    42.5776  MISS %:    57.4224   MPKI: 17.7777
L2C DATA LOAD MPKI: 17.7776
L2C INSTRUCTION LOAD MPKI: 8e-05
L2C RFO       ACCESS:    3741771  HIT:     171787  MISS:    3569984  HIT %:    4.59106  MISS %:    95.4089   MPKI: 17.8499
L2C PREFETCH  ACCESS:    6196595  HIT:    5225424  MISS:     971171  HIT %:    84.3273  MISS %:    15.6727   MPKI: 4.85586
L2C DATA PREFETCH MPKI: 4.85586
L2C INSTRUCTION PREFETCH MPKI: 0
L2C WRITEBACK ACCESS:    5303532  HIT:    4710575  MISS:     592957  HIT %:    88.8196  MISS %:    11.1804   MPKI: 2.96479
L2C LOAD TRANSLATION ACCESS:    3845902  HIT:    2987659  MISS:     858243  HIT %:    77.6842  MISS %:    22.3158   MPKI: 4.29122
L2C TRANSLATION FROM L1D PREFETCHER ACCESS:     233889  HIT:     208465  MISS:      25424  HIT %:    89.1299  MISS %:    10.8701   MPKI: 0.12712
L2C PREFETCH  REQUESTED:          0  ISSUED:          0  USEFUL:     386008  USELESS:     615047
L2C USEFUL LOAD PREFETCHES:     386008 PREFETCH ISSUED TO LOWER LEVEL:    1004959  ACCURACY: 38.4103
L2C TIMELY PREFETCHES:     386008 LATE PREFETCHES: 30197 DROPPED PREFETCHES: 0
L2C PREFETCHES SAME FILL-ORIGIN LEVEL: 969472 DIFFERENT FILL-ORIGIN LEVEL: 0
L2C AVERAGE MISS LATENCY: 793.905 cycles
L2C RQ	ACCESS:   14109832	FORWARD:          0	MERGED:          0	TO_CACHE:   14109823
L2C WQ	ACCESS:    5322364	FORWARD:         10	MERGED:          0	TO_CACHE:    5322364
L2C PQ	ACCESS:    6567858	FORWARD:          0	MERGED:       8348	TO_CACHE:    6559509

L2C Instructions Evicting Data 15
L2C Translations Evicting Data 801016
L2C Data Evicting Data 7390524
L2C Instructions Evicting Instructions 0
L2C Translations Evicting Instructions 2
L2C Data Evicting Instructions 12
L2C Instructions Evicting Translations 1
L2C Translations Evicting Translations 88035
L2C Data Evicting Translations 748626
L2C Dense regions hint from L2: 0
PSCL5 TOTAL     ACCESS:    3640868  HIT:    3640868  MISS:          0  HIT %:        100  MISS %:          0   MPKI: 0
PSCL5 LOAD TRANSLATION ACCESS:    3432142  HIT:    3432142  MISS:          0  HIT %:        100  MISS %:          0   MPKI: 0
PSCL5 TRANSLATION FROM L1D PREFETCHER ACCESS:     208726  HIT:     208726  MISS:          0  HIT %:        100  MISS %:          0   MPKI: 0
PSCL5 PREFETCH  REQUESTED:          0  ISSUED:          0  USEFUL:          0  USELESS:          0
PSCL5 USEFUL LOAD PREFETCHES:          0 PREFETCH ISSUED TO LOWER LEVEL:          0  ACCURACY: -nan
PSCL5 TIMELY PREFETCHES:          0 LATE PREFETCHES: 0 DROPPED PREFETCHES: 0
PSCL5 PREFETCHES SAME FILL-ORIGIN LEVEL: 0 DIFFERENT FILL-ORIGIN LEVEL: 0

PSCL4 TOTAL     ACCESS:    3640868  HIT:    3640868  MISS:          0  HIT %:        100  MISS %:          0   MPKI: 0
PSCL4 LOAD TRANSLATION ACCESS:    3432142  HIT:    3432142  MISS:          0  HIT %:        100  MISS %:          0   MPKI: 0
PSCL4 TRANSLATION FROM L1D PREFETCHER ACCESS:     208726  HIT:     208726  MISS:          0  HIT %:        100  MISS %:          0   MPKI: 0
PSCL4 PREFETCH  REQUESTED:          0  ISSUED:          0  USEFUL:          0  USELESS:          0
PSCL4 USEFUL LOAD PREFETCHES:          0 PREFETCH ISSUED TO LOWER LEVEL:          0  ACCURACY: -nan
PSCL4 TIMELY PREFETCHES:          0 LATE PREFETCHES: 0 DROPPED PREFETCHES: 0
PSCL4 PREFETCHES SAME FILL-ORIGIN LEVEL: 0 DIFFERENT FILL-ORIGIN LEVEL: 0

PSCL3 TOTAL     ACCESS:    3640868  HIT:    3640868  MISS:          0  HIT %:        100  MISS %:          0   MPKI: 0
PSCL3 LOAD TRANSLATION ACCESS:    3432142  HIT:    3432142  MISS:          0  HIT %:        100  MISS %:          0   MPKI: 0
PSCL3 TRANSLATION FROM L1D PREFETCHER ACCESS:     208726  HIT:     208726  MISS:          0  HIT %:        100  MISS %:          0   MPKI: 0
PSCL3 PREFETCH  REQUESTED:          0  ISSUED:          0  USEFUL:          0  USELESS:          0
PSCL3 USEFUL LOAD PREFETCHES:          0 PREFETCH ISSUED TO LOWER LEVEL:          0  ACCURACY: -nan
PSCL3 TIMELY PREFETCHES:          0 LATE PREFETCHES: 0 DROPPED PREFETCHES: 0
PSCL3 PREFETCHES SAME FILL-ORIGIN LEVEL: 0 DIFFERENT FILL-ORIGIN LEVEL: 0

PSCL2 TOTAL     ACCESS:    3633017  HIT:    3201945  MISS:     431072  HIT %:    88.1346  MISS %:    11.8654   MPKI: 2.15536
PSCL2 LOAD TRANSLATION ACCESS:    3449454  HIT:    3018382  MISS:     431072  HIT %:    87.5032  MISS %:    12.4968   MPKI: 2.15536
PSCL2 TRANSLATION FROM L1D PREFETCHER ACCESS:     183563  HIT:     183563  MISS:          0  HIT %:        100  MISS %:          0   MPKI: 0
PSCL2 PREFETCH  REQUESTED:          0  ISSUED:          0  USEFUL:          0  USELESS:          0
PSCL2 USEFUL LOAD PREFETCHES:          0 PREFETCH ISSUED TO LOWER LEVEL:          0  ACCURACY: -nan
PSCL2 TIMELY PREFETCHES:          0 LATE PREFETCHES: 0 DROPPED PREFETCHES: 0
PSCL2 PREFETCHES SAME FILL-ORIGIN LEVEL: 0 DIFFERENT FILL-ORIGIN LEVEL: 0

LLC TOTAL     ACCESS:   14113822  HIT:    6181384  MISS:    7932438  HIT %:    43.7967  MISS %:    56.2033   MPKI: 39.6622
LLC LOAD      ACCESS:    3525380  HIT:     202633  MISS:    3322747  HIT %:    5.74783  MISS %:    94.2522   MPKI: 16.6137
LLC RFO       ACCESS:    3569979  HIT:     323550  MISS:    3246429  HIT %:    9.06308  MISS %:    90.9369   MPKI: 16.2321
LLC PREFETCH  ACCESS:    1001327  HIT:      51354  MISS:     949973  HIT %:    5.12859  MISS %:    94.8714   MPKI: 4.74986
LLC WRITEBACK ACCESS:    5133469  HIT:    4936277  MISS:     197192  HIT %:    96.1587  MISS %:     3.8413   MPKI: 0.98596
LLC LOAD TRANSLATION ACCESS:     858243  HIT:     650916  MISS:     207327  HIT %:    75.8429  MISS %:    24.1571   MPKI: 1.03663
LLC TRANSLATION FROM L1D PREFETCHER ACCESS:      25424  HIT:      16654  MISS:       8770  HIT %:     65.505  MISS %:     34.495   MPKI: 0.04385
LLC PREFETCH  REQUESTED:          0  ISSUED:          0  USEFUL:     167200  USELESS:    3721203
LLC USEFUL LOAD PREFETCHES:     167200 PREFETCH ISSUED TO LOWER LEVEL:   27315672  ACCURACY: 0.612103
LLC TIMELY PREFETCHES:     167200 LATE PREFETCHES: 0 DROPPED PREFETCHES: 0
LLC PREFETCHES SAME FILL-ORIGIN LEVEL: 0 DIFFERENT FILL-ORIGIN LEVEL: 0
LLC AVERAGE MISS LATENCY: 3416.56 cycles
LLC RQ	ACCESS:   32015474	FORWARD:          0	MERGED:          0	TO_CACHE:   32015463
LLC WQ	ACCESS:   20564285	FORWARD:         11	MERGED:          0	TO_CACHE:   20564285
LLC PQ	ACCESS:    4033900	FORWARD:          0	MERGED:          0	TO_CACHE:    4033900

LLC Dense regions hint to LLC: 0

RAW hits: 9528243
Loads Generated: 92624568
Loads sent to L1D: 83096324
Stores Generated: 25372272
Stores sent to L1D: 25372271
Major fault: 0 Minor fault: 30043
Allocated PAGES: 120172

CPU 1 cumulative IPC: 0.108931 instructions: 200000000 cycles: 1836031552
ITLB TOTAL     ACCESS:   35260421  HIT:   35260421  MISS:          0  HIT %:        100  MISS %:          0   MPKI: 0
ITLB LOAD TRANSLATION ACCESS:   35260421  HIT:   35260421  MISS:          0  HIT %:        100  MISS %:          0   MPKI: 0
ITLB PREFETCH  REQUESTED:          0  ISSUED:          0  USEFUL:          0  USELESS:          0
ITLB USEFUL LOAD PREFETCHES:          0 PREFETCH ISSUED TO LOWER LEVEL:          0  ACCURACY: -nan
ITLB TIMELY PREFETCHES:          0 LATE PREFETCHES: 0 DROPPED PREFETCHES: 0
ITLB PREFETCHES SAME FILL-ORIGIN LEVEL: 0 DIFFERENT FILL-ORIGIN LEVEL: 0
ITLB AVERAGE MISS LATENCY: -nan cycles
ITLB RQ	ACCESS:   40013342	FORWARD:          0	MERGED:    4422373	TO_CACHE:   35590969

DTLB TOTAL     ACCESS:   58481402  HIT:   51720902  MISS:    6760500  HIT %:    88.4399  MISS %:    11.5601   MPKI: 33.8025
DTLB LOAD TRANSLATION ACCESS:   58481402  HIT:   51720902  MISS:    6760500  HIT %:    88.4399  MISS %:    11.5601   MPKI: 33.8025
DTLB PREFETCH  REQUESTED:          0  ISSUED:          0  USEFUL:          0  USELESS:          0
DTLB USEFUL LOAD PREFETCHES:          0 PREFETCH ISSUED TO LOWER LEVEL:          0  ACCURACY: -nan
DTLB TIMELY PREFETCHES:          0 LATE PREFETCHES: 0 DROPPED PREFETCHES: 0
DTLB PREFETCHES SAME FILL-ORIGIN LEVEL: 0 DIFFERENT FILL-ORIGIN LEVEL: 0
DTLB AVERAGE MISS LATENCY: 258.107 cycles
DTLB RQ	ACCESS:   72667933	FORWARD:          0	MERGED:   13087782	TO_CACHE:   59580151

STLB TOTAL     ACCESS:   10232652  HIT:    6671865  MISS:    3560787  HIT %:    65.2017  MISS %:    34.7983   MPKI: 17.8039
STLB LOAD TRANSLATION ACCESS:    6760500  HIT:    3327915  MISS:    3432585  HIT %:    49.2259  MISS %:    50.7741   MPKI: 17.1629
STLB TRANSLATION FROM L1D PREFETCHER ACCESS:    3472152  HIT:    3343950  MISS:     128202  HIT %:    96.3077  MISS %:    3.69229   MPKI: 0.64101
STLB PREFETCH  REQUESTED:          0  ISSUED:          0  USEFUL:      95139  USELESS:      33891
STLB USEFUL LOAD PREFETCHES:      95139 PREFETCH ISSUED TO LOWER LEVEL:          0  ACCURACY: inf
STLB TIMELY PREFETCHES:      95139 LATE PREFETCHES: 199 DROPPED PREFETCHES: 81401
STLB PREFETCHES SAME FILL-ORIGIN LEVEL: 0 DIFFERENT FILL-ORIGIN LEVEL: 0
STLB AVERAGE MISS LATENCY: 476.093 cycles
STLB RQ	ACCESS:   18476601	FORWARD:          0	MERGED:    8077016	TO_CACHE:   10399585

STLB Hit, L1D data hit: 0
STLB Hit, L2C data hit: 0
STLB Hit, LLC data hit: 0
STLB Hit, LLC data miss: 0
STLB STLB hints to L2: 0
L1D TOTAL     ACCESS:   76750655  HIT:   66509427  MISS:   10241228  HIT %:    86.6565  MISS %:    13.3435   MPKI: 51.2061
L1D LOAD      ACCESS:   46419428  HIT:   40212919  MISS:    6206509  HIT %:    86.6295  MISS %:    13.3705   MPKI: 31.0325
L1D RFO       ACCESS:   25336248  HIT:   21594150  MISS:    3742098  HIT %:    85.2303  MISS %:    14.7697   MPKI: 18.7105
L1D PREFETCH  ACCESS:    4994979  HIT:    4702358  MISS:     292621  HIT %:    94.1417  MISS %:     5.8583   MPKI: 1.46311
L1D PREFETCH  REQUESTED:   34180819  ISSUED:   34173770  USEFUL:     286186  USELESS:       8315
L1D USEFUL LOAD PREFETCHES:     286186 PREFETCH ISSUED TO LOWER LEVEL:    6580435  ACCURACY: 4.34904
L1D TIMELY PREFETCHES:     286186 LATE PREFETCHES: 14222 DROPPED PREFETCHES: 96400
L1D PREFETCHES SAME FILL-ORIGIN LEVEL: 308725 DIFFERENT FILL-ORIGIN LEVEL: 6271710
L1D AVERAGE MISS LATENCY: 654.375 cycles
L1D RQ	ACCESS:   83899475	FORWARD:          0	MERGED:   32779368	TO_CACHE:   47091057
L1D WQ	ACCESS:   25576916	FORWARD:    4029699	MERGED:         40	TO_CACHE:   25576876
L1D PQ	ACCESS:   22509941	FORWARD:          0	MERGED:   10845463	TO_CACHE:   11663829

L1D UNIQUE REGIONS ACCESSED: 0
L1D REGIONS CONFLICTS: 0
L1D Cross Page Prefetch Requests: 3712788
L1D Same Page Prefetch Requests: 27822988
L1D ROI Sum of L1D PQ occupancy: 2557911228
L1D PREFETCHES PUSHED FROM L2C: 0
L1I TOTAL     ACCESS:   39628647  HIT:   39628631  MISS:         16  HIT %:        100  MISS %: 4.03748e-05   MPKI: 8e-05
L1I LOAD      ACCESS:   39628647  HIT:   39628631  MISS:         16  HIT %:        100  MISS %: 4.03748e-05   MPKI: 8e-05
L1I PREFETCH  REQUESTED:          0  ISSUED:          0  USEFUL:          0  USELESS:          0
L1I USEFUL LOAD PREFETCHES:          0 PREFETCH ISSUED TO LOWER LEVEL:          0  ACCURACY: -nan
L1I TIMELY PREFETCHES:          0 LATE PREFETCHES: 0 DROPPED PREFETCHES: 0
L1I PREFETCHES SAME FILL-ORIGIN LEVEL: 0 DIFFERENT FILL-ORIGIN LEVEL: 0
L1I AVERAGE MISS LATENCY: 392.375 cycles
L1I RQ	ACCESS:   60787308	FORWARD:          0	MERGED:   20773966	TO_CACHE:   40013342

BTB TOTAL     ACCESS:   36002754  HIT:   35995006  MISS:       7748  HIT %:    99.9785  MISS %:  0.0215206   MPKI: 0.03874
BTB BRANCH_DIRECT_JUMP	ACCESS:    1555511  HIT:    1555495  MISS:         16
BTB BRANCH_INDIRECT	ACCESS:          0  HIT:          0  MISS:          0
BTB BRANCH_CONDITIONAL	ACCESS:   19079257  HIT:   19079191  MISS:         66
BTB BRANCH_DIRECT_CALL	ACCESS:    1562684  HIT:    1562673  MISS:         11
BTB BRANCH_INDIRECT_CALL	ACCESS:    6121309  HIT:    6121309  MISS:          0
BTB BRANCH_RETURN	ACCESS:    7683993  HIT:    7676338  MISS:       7655
BTB BRANCH_OTHER ACCESS:          0  HIT:          0  MISS:          0

L2C TOTAL     ACCESS:   25526398  HIT:   15960372  MISS:    9566026  HIT %:     62.525  MISS %:     37.475   MPKI: 47.8301
L2C LOAD      ACCESS:    6192297  HIT:    2638305  MISS:    3553992  HIT %:    42.6062  MISS %:    57.3938   MPKI: 17.77
L2C DATA LOAD MPKI: 17.7699
L2C INSTRUCTION LOAD MPKI: 8e-05
L2C RFO       ACCESS:    3742098  HIT:     172089  MISS:    3570009  HIT %:    4.59873  MISS %:    95.4013   MPKI: 17.85
L2C PREFETCH  ACCESS:    6207124  HIT:    5236033  MISS:     971091  HIT %:    84.3552  MISS %:    15.6448   MPKI: 4.85546
L2C DATA PREFETCH MPKI: 4.85546
L2C INSTRUCTION PREFETCH MPKI: 0
L2C WRITEBACK ACCESS:    5303894  HIT:    4708053  MISS:     595841  HIT %:     88.766  MISS %:     11.234   MPKI: 2.9792
L2C LOAD TRANSLATION ACCESS:    3846418  HIT:    2996772  MISS:     849646  HIT %:    77.9107  MISS %:    22.0893   MPKI: 4.24823
L2C TRANSLATION FROM L1D PREFETCHER ACCESS:     234567  HIT:     209120  MISS:      25447  HIT %:    89.1515  MISS %:    10.8485   MPKI: 0.127235
L2C PREFETCH  REQUESTED:          0  ISSUED:          0  USEFUL:     386579  USELESS:     614448
L2C USEFUL LOAD PREFETCHES:     386579 PREFETCH ISSUED TO LOWER LEVEL:    1005058  ACCURACY: 38.4634
L2C TIMELY PREFETCHES:     386579 LATE PREFETCHES: 30415 DROPPED PREFETCHES: 0
L2C PREFETCHES SAME FILL-ORIGIN LEVEL: 969366 DIFFERENT FILL-ORIGIN LEVEL: 0
L2C AVERAGE MISS LATENCY: 789.118 cycles
L2C RQ	ACCESS:   14114255	FORWARD:          0	MERGED:          0	TO_CACHE:   14114247
L2C WQ	ACCESS:    5323225	FORWARD:          8	MERGED:          0	TO_CACHE:    5323225
L2C PQ	ACCESS:    6580435	FORWARD:          0	MERGED:       8072	TO_CACHE:    6572363

L2C Instructions Evicting Data 16
L2C Translations Evicting Data 796348
L2C Data Evicting Data 7393610
L2C Instructions Evicting Instructions 0
L2C Translations Evicting Instructions 1
L2C Data Evicting Instructions 15
L2C Instructions Evicting Translations 0
L2C Translations Evicting Translations 84132
L2C Data Evicting Translations 744959
L2C Dense regions hint from L2: 0
PSCL5 TOTAL     ACCESS:    3641590  HIT:    3641590  MISS:          0  HIT %:        100  MISS %:          0   MPKI: 0
PSCL5 LOAD TRANSLATION ACCESS:    3432387  HIT:    3432387  MISS:          0  HIT %:        100  MISS %:          0   MPKI: 0
PSCL5 TRANSLATION FROM L1D PREFETCHER ACCESS:     209203  HIT:     209203  MISS:          0  HIT %:        100  MISS %:          0   MPKI: 0
PSCL5 PREFETCH  REQUESTED:          0  ISSUED:          0  USEFUL:          0  USELESS:          0
PSCL5 USEFUL LOAD PREFETCHES:          0 PREFETCH ISSUED TO LOWER LEVEL:          0  ACCURACY: -nan
PSCL5 TIMELY PREFETCHES:          0 LATE PREFETCHES: 0 DROPPED PREFETCHES: 0
PSCL5 PREFETCHES SAME FILL-ORIGIN LEVEL: 0 DIFFERENT FILL-ORIGIN LEVEL: 0

PSCL4 TOTAL     ACCESS:    3641590  HIT:    3641590  MISS:          0  HIT %:        100  MISS %:          0   MPKI: 0
PSCL4 LOAD TRANSLATION ACCESS:    3432387  HIT:    3432387  MISS:          0  HIT %:        100  MISS %:          0   MPKI: 0
PSCL4 TRANSLATION FROM L1D PREFETCHER ACCESS:     209203  HIT:     209203  MISS:          0  HIT %:        100  MISS %:          0   MPKI: 0
PSCL4 PREFETCH  REQUESTED:          0  ISSUED:          0  USEFUL:          0  USELESS:          0
PSCL4 USEFUL LOAD PREFETCHES:          0 PREFETCH ISSUED TO LOWER LEVEL:          0  ACCURACY: -nan
PSCL4 TIMELY PREFETCHES:          0 LATE PREFETCHES: 0 DROPPED PREFETCHES: 0
PSCL4 PREFETCHES SAME FILL-ORIGIN LEVEL: 0 DIFFERENT FILL-ORIGIN LEVEL: 0

PSCL3 TOTAL     ACCESS:    3641590  HIT:    3641590  MISS:          0  HIT %:        100  MISS %:          0   MPKI: 0
PSCL3 LOAD TRANSLATION ACCESS:    3432387  HIT:    3432387  MISS:          0  HIT %:        100  MISS %:          0   MPKI: 0
PSCL3 TRANSLATION FROM L1D PREFETCHER ACCESS:     209203  HIT:     209203  MISS:          0  HIT %:        100  MISS %:          0   MPKI: 0
PSCL3 PREFETCH  REQUESTED:          0  ISSUED:          0  USEFUL:          0  USELESS:          0
PSCL3 USEFUL LOAD PREFETCHES:          0 PREFETCH ISSUED TO LOWER LEVEL:          0  ACCURACY: -nan
PSCL3 TIMELY PREFETCHES:          0 LATE PREFETCHES: 0 DROPPED PREFETCHES: 0
PSCL3 PREFETCHES SAME FILL-ORIGIN LEVEL: 0 DIFFERENT FILL-ORIGIN LEVEL: 0

PSCL2 TOTAL     ACCESS:    3633376  HIT:    3202195  MISS:     431181  HIT %:    88.1328  MISS %:    11.8672   MPKI: 2.15591
PSCL2 LOAD TRANSLATION ACCESS:    3449537  HIT:    3018356  MISS:     431181  HIT %:    87.5003  MISS %:    12.4997   MPKI: 2.15591
PSCL2 TRANSLATION FROM L1D PREFETCHER ACCESS:     183839  HIT:     183839  MISS:          0  HIT %:        100  MISS %:          0   MPKI: 0
PSCL2 PREFETCH  REQUESTED:          0  ISSUED:          0  USEFUL:          0  USELESS:          0
PSCL2 USEFUL LOAD PREFETCHES:          0 PREFETCH ISSUED TO LOWER LEVEL:          0  ACCURACY: -nan
PSCL2 TIMELY PREFETCHES:          0 LATE PREFETCHES: 0 DROPPED PREFETCHES: 0
PSCL2 PREFETCHES SAME FILL-ORIGIN LEVEL: 0 DIFFERENT FILL-ORIGIN LEVEL: 0

LLC TOTAL     ACCESS:   14103351  HIT:    6173794  MISS:    7929557  HIT %:    43.7754  MISS %:    56.2246   MPKI: 39.6478
LLC LOAD      ACCESS:    3523624  HIT:     200106  MISS:    3323518  HIT %:    5.67898  MISS %:     94.321   MPKI: 16.6176
LLC RFO       ACCESS:    3570005  HIT:     331741  MISS:    3238264  HIT %:    9.29245  MISS %:    90.7075   MPKI: 16.1913
LLC PREFETCH  ACCESS:    1001460  HIT:      49871  MISS:     951589  HIT %:    4.97983  MISS %:    95.0202   MPKI: 4.75795
LLC WRITEBACK ACCESS:    5133169  HIT:    4930545  MISS:     202624  HIT %:    96.0527  MISS %:    3.94735   MPKI: 1.01312
LLC LOAD TRANSLATION ACCESS:     849646  HIT:     644725  MISS:     204921  HIT %:    75.8816  MISS %:    24.1184   MPKI: 1.0246
LLC TRANSLATION FROM L1D PREFETCHER ACCESS:      25447  HIT:      16806  MISS:       8641  HIT %:    66.0431  MISS %:    33.9569   MPKI: 0.043205
LLC PREFETCH  REQUESTED:          0  ISSUED:          0  USEFUL:     167200  USELESS:    3721203
LLC USEFUL LOAD PREFETCHES:     167200 PREFETCH ISSUED TO LOWER LEVEL:   27315672  ACCURACY: 0.612103
LLC TIMELY PREFETCHES:     167200 LATE PREFETCHES: 0 DROPPED PREFETCHES: 0
LLC PREFETCHES SAME FILL-ORIGIN LEVEL: 0 DIFFERENT FILL-ORIGIN LEVEL: 0
LLC AVERAGE MISS LATENCY: 3417.8 cycles
LLC RQ	ACCESS:   32015474	FORWARD:          0	MERGED:          0	TO_CACHE:   32015463
LLC WQ	ACCESS:   20564285	FORWARD:         11	MERGED:          0	TO_CACHE:   20564285
LLC PQ	ACCESS:    4033900	FORWARD:          0	MERGED:          0	TO_CACHE:    4033900

LLC Dense regions hint to LLC: 0

RAW hits: 9527535
Loads Generated: 92624559
Loads sent to L1D: 83097023
Stores Generated: 25372351
Stores sent to L1D: 25372351
Major fault: 0 Minor fault: 30043
Allocated PAGES: 120172

CPU 2 cumulative IPC: 0.109193 instructions: 200000002 cycles: 1831619574
ITLB TOTAL     ACCESS:   35266143  HIT:   35266143  MISS:          0  HIT %:        100  MISS %:          0   MPKI: 0
ITLB LOAD TRANSLATION ACCESS:   35266143  HIT:   35266143  MISS:          0  HIT %:        100  MISS %:          0   MPKI: 0
ITLB PREFETCH  REQUESTED:          0  ISSUED:          0  USEFUL:          0  USELESS:          0
ITLB USEFUL LOAD PREFETCHES:          0 PREFETCH ISSUED TO LOWER LEVEL:          0  ACCURACY: -nan
ITLB TIMELY PREFETCHES:          0 LATE PREFETCHES: 0 DROPPED PREFETCHES: 0
ITLB PREFETCHES SAME FILL-ORIGIN LEVEL: 0 DIFFERENT FILL-ORIGIN LEVEL: 0
ITLB AVERAGE MISS LATENCY: -nan cycles
ITLB RQ	ACCESS:   40143332	FORWARD:          0	MERGED:    4438087	TO_CACHE:   35705245

DTLB TOTAL     ACCESS:   58460896  HIT:   51702124  MISS:    6758772  HIT %:    88.4388  MISS %:    11.5612   MPKI: 33.7939
DTLB LOAD TRANSLATION ACCESS:   58460896  HIT:   51702124  MISS:    6758772  HIT %:    88.4388  MISS %:    11.5612   MPKI: 33.7939
DTLB PREFETCH  REQUESTED:          0  ISSUED:          0  USEFUL:          0  USELESS:          0
DTLB USEFUL LOAD PREFETCHES:          0 PREFETCH ISSUED TO LOWER LEVEL:          0  ACCURACY: -nan
DTLB TIMELY PREFETCHES:          0 LATE PREFETCHES: 0 DROPPED PREFETCHES: 0
DTLB PREFETCHES SAME FILL-ORIGIN LEVEL: 0 DIFFERENT FILL-ORIGIN LEVEL: 0
DTLB AVERAGE MISS LATENCY: 292.31 cycles
DTLB RQ	ACCESS:   72892835	FORWARD:          0	MERGED:   13143427	TO_CACHE:   59749408

STLB TOTAL     ACCESS:   10237234  HIT:    6679122  MISS:    3558112  HIT %:    65.2434  MISS %:    34.7566   MPKI: 17.7906
STLB LOAD TRANSLATION ACCESS:    6758772  HIT:    3328494  MISS:    3430278  HIT %:     49.247  MISS %:     50.753   MPKI: 17.1514
STLB TRANSLATION FROM L1D PREFETCHER ACCESS:    3478462  HIT:    3350628  MISS:     127834  HIT %:     96.325  MISS %:    3.67501   MPKI: 0.63917
STLB PREFETCH  REQUESTED:          0  ISSUED:          0  USEFUL:      95319  USELESS:      33764
STLB USEFUL LOAD PREFETCHES:      95319 PREFETCH ISSUED TO LOWER LEVEL:          0  ACCURACY: inf
STLB TIMELY PREFETCHES:      95319 LATE PREFETCHES: 186 DROPPED PREFETCHES: 81788
STLB PREFETCHES SAME FILL-ORIGIN LEVEL: 0 DIFFERENT FILL-ORIGIN LEVEL: 0
STLB AVERAGE MISS LATENCY: 541.501 cycles
STLB RQ	ACCESS:   18588285	FORWARD:          0	MERGED:    8155844	TO_CACHE:   10432441

STLB Hit, L1D data hit: 0
STLB Hit, L2C data hit: 0
STLB Hit, LLC data hit: 0
STLB Hit, LLC data miss: 0
STLB STLB hints to L2: 0
L1D TOTAL     ACCESS:   76803427  HIT:   66565322  MISS:   10238105  HIT %:    86.6697  MISS %:    13.3303   MPKI: 51.1905
L1D LOAD      ACCESS:   46411327  HIT:   40212006  MISS:    6199321  HIT %:    86.6427  MISS %:    13.3573   MPKI: 30.9966
L1D RFO       ACCESS:   25333724  HIT:   21594065  MISS:    3739659  HIT %:    85.2384  MISS %:    14.7616   MPKI: 18.6983
L1D PREFETCH  ACCESS:    5058376  HIT:    4759251  MISS:     299125  HIT %:    94.0865  MISS %:    5.91346   MPKI: 1.49562
L1D PREFETCH  REQUESTED:   34378380  ISSUED:   34372114  USEFUL:     292906  USELESS:       8494
L1D USEFUL LOAD PREFETCHES:     292906 PREFETCH ISSUED TO LOWER LEVEL:    6607944  ACCURACY: 4.43263
L1D TIMELY PREFETCHES:     292906 LATE PREFETCHES: 13683 DROPPED PREFETCHES: 96773
L1D PREFETCHES SAME FILL-ORIGIN LEVEL: 315085 DIFFERENT FILL-ORIGIN LEVEL: 6292859
L1D AVERAGE MISS LATENCY: 669.205 cycles
L1D RQ	ACCESS:   84160239	FORWARD:          0	MERGED:   32877535	TO_CACHE:   47239648
L1D WQ	ACCESS:   25653229	FORWARD:    4043701	MERGED:         42	TO_CACHE:   25653187
L1D PQ	ACCESS:   22611791	FORWARD:          0	MERGED:   10850823	TO_CACHE:   11760323

L1D UNIQUE REGIONS ACCESSED: 0
L1D REGIONS CONFLICTS: 0
L1D Cross Page Prefetch Requests: 3788930
L1D Same Page Prefetch Requests: 28726123
L1D ROI Sum of L1D PQ occupancy: 2569604211
L1D PREFETCHES PUSHED FROM L2C: 0
L1I TOTAL     ACCESS:   39632626  HIT:   39632610  MISS:         16  HIT %:        100  MISS %: 4.03708e-05   MPKI: 8e-05
L1I LOAD      ACCESS:   39632626  HIT:   39632610  MISS:         16  HIT %:        100  MISS %: 4.03708e-05   MPKI: 8e-05
L1I PREFETCH  REQUESTED:          0  ISSUED:          0  USEFUL:          0  USELESS:          0
L1I USEFUL LOAD PREFETCHES:          0 PREFETCH ISSUED TO LOWER LEVEL:          0  ACCURACY: -nan
L1I TIMELY PREFETCHES:          0 LATE PREFETCHES: 0 DROPPED PREFETCHES: 0
L1I PREFETCHES SAME FILL-ORIGIN LEVEL: 0 DIFFERENT FILL-ORIGIN LEVEL: 0
L1I AVERAGE MISS LATENCY: 656.125 cycles
L1I RQ	ACCESS:   60979676	FORWARD:          0	MERGED:   20836344	TO_CACHE:   40143332

BTB TOTAL     ACCESS:   35997320  HIT:   35989571  MISS:       7749  HIT %:    99.9785  MISS %:  0.0215266   MPKI: 0.038745
BTB BRANCH_DIRECT_JUMP	ACCESS:    1555456  HIT:    1555440  MISS:         16
BTB BRANCH_INDIRECT	ACCESS:          0  HIT:          0  MISS:          0
BTB BRANCH_CONDITIONAL	ACCESS:   19073775  HIT:   19073709  MISS:         66
BTB BRANCH_DIRECT_CALL	ACCESS:    1562678  HIT:    1562667  MISS:         11
BTB BRANCH_INDIRECT_CALL	ACCESS:    6121366  HIT:    6121366  MISS:          0
BTB BRANCH_RETURN	ACCESS:    7684045  HIT:    7676389  MISS:       7656
BTB BRANCH_OTHER ACCESS:          0  HIT:          0  MISS:          0

L2C TOTAL     ACCESS:   25527119  HIT:   15953751  MISS:    9573368  HIT %:    62.4973  MISS %:    37.5027   MPKI: 47.8668
L2C LOAD      ACCESS:    6185650  HIT:    2633038  MISS:    3552612  HIT %:    42.5669  MISS %:    57.4331   MPKI: 17.7631
L2C DATA LOAD MPKI: 17.763
L2C INSTRUCTION LOAD MPKI: 8e-05
L2C RFO       ACCESS:    3739658  HIT:     172497  MISS:    3567161  HIT %:    4.61264  MISS %:    95.3874   MPKI: 17.8358
L2C PREFETCH  ACCESS:    6222581  HIT:    5247339  MISS:     975242  HIT %:    84.3274  MISS %:    15.6726   MPKI: 4.87621
L2C DATA PREFETCH MPKI: 4.87621
L2C INSTRUCTION PREFETCH MPKI: 0
L2C WRITEBACK ACCESS:    5301346  HIT:    4705234  MISS:     596112  HIT %:    88.7555  MISS %:    11.2445   MPKI: 2.98056
L2C LOAD TRANSLATION ACCESS:    3843867  HIT:    2987619  MISS:     856248  HIT %:    77.7243  MISS %:    22.2757   MPKI: 4.28124
L2C TRANSLATION FROM L1D PREFETCHER ACCESS:     234017  HIT:     208024  MISS:      25993  HIT %:    88.8927  MISS %:    11.1073   MPKI: 0.129965
L2C PREFETCH  REQUESTED:          0  ISSUED:          0  USEFUL:     383185  USELESS:     624129
L2C USEFUL LOAD PREFETCHES:     383185 PREFETCH ISSUED TO LOWER LEVEL:    1010088  ACCURACY: 37.9358
L2C TIMELY PREFETCHES:     383185 LATE PREFETCHES: 29351 DROPPED PREFETCHES: 0
L2C PREFETCHES SAME FILL-ORIGIN LEVEL: 971457 DIFFERENT FILL-ORIGIN LEVEL: 0
L2C AVERAGE MISS LATENCY: 808.637 cycles
L2C RQ	ACCESS:   14133651	FORWARD:          0	MERGED:          0	TO_CACHE:   14133646
L2C WQ	ACCESS:    5327040	FORWARD:          6	MERGED:          0	TO_CACHE:    5327040
L2C PQ	ACCESS:    6607944	FORWARD:          0	MERGED:       8132	TO_CACHE:    6599811

L2C Instructions Evicting Data 15
L2C Translations Evicting Data 782654
L2C Data Evicting Data 7421308
L2C Instructions Evicting Instructions 0
L2C Translations Evicting Instructions 2
L2C Data Evicting Instructions 13
L2C Instructions Evicting Translations 1
L2C Translations Evicting Translations 106584
L2C Data Evicting Translations 731754
L2C Dense regions hint from L2: 0
PSCL5 TOTAL     ACCESS:    3638986  HIT:    3638986  MISS:          0  HIT %:        100  MISS %:          0   MPKI: 0
PSCL5 LOAD TRANSLATION ACCESS:    3430093  HIT:    3430093  MISS:          0  HIT %:        100  MISS %:          0   MPKI: 0
PSCL5 TRANSLATION FROM L1D PREFETCHER ACCESS:     208893  HIT:     208893  MISS:          0  HIT %:        100  MISS %:          0   MPKI: 0
PSCL5 PREFETCH  REQUESTED:          0  ISSUED:          0  USEFUL:          0  USELESS:          0
PSCL5 USEFUL LOAD PREFETCHES:          0 PREFETCH ISSUED TO LOWER LEVEL:          0  ACCURACY: -nan
PSCL5 TIMELY PREFETCHES:          0 LATE PREFETCHES: 0 DROPPED PREFETCHES: 0
PSCL5 PREFETCHES SAME FILL-ORIGIN LEVEL: 0 DIFFERENT FILL-ORIGIN LEVEL: 0

PSCL4 TOTAL     ACCESS:    3638986  HIT:    3638986  MISS:          0  HIT %:        100  MISS %:          0   MPKI: 0
PSCL4 LOAD TRANSLATION ACCESS:    3430093  HIT:    3430093  MISS:          0  HIT %:        100  MISS %:          0   MPKI: 0
PSCL4 TRANSLATION FROM L1D PREFETCHER ACCESS:     208893  HIT:     208893  MISS:          0  HIT %:        100  MISS %:          0   MPKI: 0
PSCL4 PREFETCH  REQUESTED:          0  ISSUED:          0  USEFUL:          0  USELESS:          0
PSCL4 USEFUL LOAD PREFETCHES:          0 PREFETCH ISSUED TO LOWER LEVEL:          0  ACCURACY: -nan
PSCL4 TIMELY PREFETCHES:          0 LATE PREFETCHES: 0 DROPPED PREFETCHES: 0
PSCL4 PREFETCHES SAME FILL-ORIGIN LEVEL: 0 DIFFERENT FILL-ORIGIN LEVEL: 0

PSCL3 TOTAL     ACCESS:    3638986  HIT:    3638986  MISS:          0  HIT %:        100  MISS %:          0   MPKI: 0
PSCL3 LOAD TRANSLATION ACCESS:    3430093  HIT:    3430093  MISS:          0  HIT %:        100  MISS %:          0   MPKI: 0
PSCL3 TRANSLATION FROM L1D PREFETCHER ACCESS:     208893  HIT:     208893  MISS:          0  HIT %:        100  MISS %:          0   MPKI: 0
PSCL3 PREFETCH  REQUESTED:          0  ISSUED:          0  USEFUL:          0  USELESS:          0
PSCL3 USEFUL LOAD PREFETCHES:          0 PREFETCH ISSUED TO LOWER LEVEL:          0  ACCURACY: -nan
PSCL3 TIMELY PREFETCHES:          0 LATE PREFETCHES: 0 DROPPED PREFETCHES: 0
PSCL3 PREFETCHES SAME FILL-ORIGIN LEVEL: 0 DIFFERENT FILL-ORIGIN LEVEL: 0

PSCL2 TOTAL     ACCESS:    3631187  HIT:    3200088  MISS:     431099  HIT %:    88.1279  MISS %:    11.8721   MPKI: 2.15549
PSCL2 LOAD TRANSLATION ACCESS:    3447418  HIT:    3016319  MISS:     431099  HIT %:     87.495  MISS %:     12.505   MPKI: 2.15549
PSCL2 TRANSLATION FROM L1D PREFETCHER ACCESS:     183769  HIT:     183769  MISS:          0  HIT %:        100  MISS %:          0   MPKI: 0
PSCL2 PREFETCH  REQUESTED:          0  ISSUED:          0  USEFUL:          0  USELESS:          0
PSCL2 USEFUL LOAD PREFETCHES:          0 PREFETCH ISSUED TO LOWER LEVEL:          0  ACCURACY: -nan
PSCL2 TIMELY PREFETCHES:          0 LATE PREFETCHES: 0 DROPPED PREFETCHES: 0
PSCL2 PREFETCHES SAME FILL-ORIGIN LEVEL: 0 DIFFERENT FILL-ORIGIN LEVEL: 0

LLC TOTAL     ACCESS:   14108332  HIT:    6169761  MISS:    7938571  HIT %:    43.7313  MISS %:    56.2687   MPKI: 39.6929
LLC LOAD      ACCESS:    3523324  HIT:     226599  MISS:    3296725  HIT %:     6.4314  MISS %:    93.5686   MPKI: 16.4836
LLC RFO       ACCESS:    3567158  HIT:     285025  MISS:    3282133  HIT %:    7.99025  MISS %:    92.0097   MPKI: 16.4107
LLC PREFETCH  ACCESS:    1004532  HIT:      51465  MISS:     953067  HIT %:    5.12328  MISS %:    94.8767   MPKI: 4.76533
LLC WRITEBACK ACCESS:    5131077  HIT:    4941447  MISS:     189630  HIT %:    96.3043  MISS %:    3.69572   MPKI: 0.94815
LLC LOAD TRANSLATION ACCESS:     856248  HIT:     647508  MISS:     208740  HIT %:    75.6215  MISS %:    24.3785   MPKI: 1.0437
LLC TRANSLATION FROM L1D PREFETCHER ACCESS:      25993  HIT:      17717  MISS:       8276  HIT %:    68.1607  MISS %:    31.8393   MPKI: 0.04138
LLC PREFETCH  REQUESTED:          0  ISSUED:          0  USEFUL:     167200  USELESS:    3721203
LLC USEFUL LOAD PREFETCHES:     167200 PREFETCH ISSUED TO LOWER LEVEL:   27315672  ACCURACY: 0.612103
LLC TIMELY PREFETCHES:     167200 LATE PREFETCHES: 0 DROPPED PREFETCHES: 0
LLC PREFETCHES SAME FILL-ORIGIN LEVEL: 0 DIFFERENT FILL-ORIGIN LEVEL: 0
LLC AVERAGE MISS LATENCY: 3413.92 cycles
LLC RQ	ACCESS:   32015474	FORWARD:          0	MERGED:          0	TO_CACHE:   32015463
LLC WQ	ACCESS:   20564285	FORWARD:         11	MERGED:          0	TO_CACHE:   20564285
LLC PQ	ACCESS:    4033900	FORWARD:          0	MERGED:          0	TO_CACHE:    4033900

LLC Dense regions hint to LLC: 0

RAW hits: 9529068
Loads Generated: 92624502
Loads sent to L1D: 83095434
Stores Generated: 25372304
Stores sent to L1D: 25372304
Major fault: 0 Minor fault: 30043
Allocated PAGES: 120172

CPU 3 cumulative IPC: 0.108017 instructions: 200000003 cycles: 1851567969
ITLB TOTAL     ACCESS:   35293754  HIT:   35293754  MISS:          0  HIT %:        100  MISS %:          0   MPKI: 0
ITLB LOAD TRANSLATION ACCESS:   35293754  HIT:   35293754  MISS:          0  HIT %:        100  MISS %:          0   MPKI: 0
ITLB PREFETCH  REQUESTED:          0  ISSUED:          0  USEFUL:          0  USELESS:          0
ITLB USEFUL LOAD PREFETCHES:          0 PREFETCH ISSUED TO LOWER LEVEL:          0  ACCURACY: -nan
ITLB TIMELY PREFETCHES:          0 LATE PREFETCHES: 0 DROPPED PREFETCHES: 0
ITLB PREFETCHES SAME FILL-ORIGIN LEVEL: 0 DIFFERENT FILL-ORIGIN LEVEL: 0
ITLB AVERAGE MISS LATENCY: -nan cycles
ITLB RQ	ACCESS:   39659433	FORWARD:          0	MERGED:    4365679	TO_CACHE:   35293754

DTLB TOTAL     ACCESS:   58099035  HIT:   51357014  MISS:    6742021  HIT %:    88.3956  MISS %:    11.6044   MPKI: 33.7101
DTLB LOAD TRANSLATION ACCESS:   58099035  HIT:   51357014  MISS:    6742021  HIT %:    88.3956  MISS %:    11.6044   MPKI: 33.7101
DTLB PREFETCH  REQUESTED:          0  ISSUED:          0  USEFUL:          0  USELESS:          0
DTLB USEFUL LOAD PREFETCHES:          0 PREFETCH ISSUED TO LOWER LEVEL:          0  ACCURACY: -nan
DTLB TIMELY PREFETCHES:          0 LATE PREFETCHES: 0 DROPPED PREFETCHES: 0
DTLB PREFETCHES SAME FILL-ORIGIN LEVEL: 0 DIFFERENT FILL-ORIGIN LEVEL: 0
DTLB AVERAGE MISS LATENCY: 328.4 cycles
DTLB RQ	ACCESS:   71707125	FORWARD:          0	MERGED:   13228227	TO_CACHE:   58478898

STLB TOTAL     ACCESS:   10190232  HIT:    6646165  MISS:    3544067  HIT %:    65.2209  MISS %:    34.7791   MPKI: 17.7203
STLB LOAD TRANSLATION ACCESS:    6742021  HIT:    3326615  MISS:    3415406  HIT %:    49.3415  MISS %:    50.6585   MPKI: 17.077
STLB TRANSLATION FROM L1D PREFETCHER ACCESS:    3448211  HIT:    3319550  MISS:     128661  HIT %:    96.2688  MISS %:    3.73124   MPKI: 0.643305
STLB PREFETCH  REQUESTED:          0  ISSUED:          0  USEFUL:      95014  USELESS:      33652
STLB USEFUL LOAD PREFETCHES:      95014 PREFETCH ISSUED TO LOWER LEVEL:          0  ACCURACY: inf
STLB TIMELY PREFETCHES:      95014 LATE PREFETCHES: 326 DROPPED PREFETCHES: 80312
STLB PREFETCHES SAME FILL-ORIGIN LEVEL: 0 DIFFERENT FILL-ORIGIN LEVEL: 0
STLB AVERAGE MISS LATENCY: 612.499 cycles
STLB RQ	ACCESS:   18779707	FORWARD:          0	MERGED:    8501631	TO_CACHE:   10278076

STLB Hit, L1D data hit: 0
STLB Hit, L2C data hit: 0
STLB Hit, LLC data hit: 0
STLB Hit, LLC data miss: 0
STLB STLB hints to L2: 0
L1D TOTAL     ACCESS:   77296016  HIT:   67085651  MISS:   10210365  HIT %:    86.7906  MISS %:    13.2094   MPKI: 51.0518
L1D LOAD      ACCESS:   46234539  HIT:   40175455  MISS:    6059084  HIT %:    86.8949  MISS %:    13.1051   MPKI: 30.2954
L1D RFO       ACCESS:   25307835  HIT:   21594287  MISS:    3713548  HIT %:    85.3265  MISS %:    14.6735   MPKI: 18.5677
L1D PREFETCH  ACCESS:    5753642  HIT:    5315909  MISS:     437733  HIT %:    92.3921  MISS %:    7.60793   MPKI: 2.18866
L1D PREFETCH  REQUESTED:   34489231  ISSUED:   34482879  USEFUL:     429633  USELESS:       8101
L1D USEFUL LOAD PREFETCHES:     429633 PREFETCH ISSUED TO LOWER LEVEL:    6413969  ACCURACY: 6.6984
L1D TIMELY PREFETCHES:     429633 LATE PREFETCHES: 6163 DROPPED PREFETCHES: 94956
L1D PREFETCHES SAME FILL-ORIGIN LEVEL: 443896 DIFFERENT FILL-ORIGIN LEVEL: 5970073
L1D AVERAGE MISS LATENCY: 445.058 cycles
L1D RQ	ACCESS:   83089740	FORWARD:          0	MERGED:   32712673	TO_CACHE:   46399065
L1D WQ	ACCESS:   25308125	FORWARD:    3978642	MERGED:         65	TO_CACHE:   25308060
L1D PQ	ACCESS:   22445193	FORWARD:          0	MERGED:   10406867	TO_CACHE:   12037686

L1D UNIQUE REGIONS ACCESSED: 0
L1D REGIONS CONFLICTS: 0
L1D Cross Page Prefetch Requests: 3838944
L1D Same Page Prefetch Requests: 29153192
L1D ROI Sum of L1D PQ occupancy: 1128381753
L1D PREFETCHES PUSHED FROM L2C: 0
L1I TOTAL     ACCESS:   39659432  HIT:   39659416  MISS:         16  HIT %:        100  MISS %: 4.03435e-05   MPKI: 8e-05
L1I LOAD      ACCESS:   39659432  HIT:   39659416  MISS:         16  HIT %:        100  MISS %: 4.03435e-05   MPKI: 8e-05
L1I PREFETCH  REQUESTED:          0  ISSUED:          0  USEFUL:          0  USELESS:          0
L1I USEFUL LOAD PREFETCHES:          0 PREFETCH ISSUED TO LOWER LEVEL:          0  ACCURACY: -nan
L1I TIMELY PREFETCHES:          0 LATE PREFETCHES: 0 DROPPED PREFETCHES: 0
L1I PREFETCHES SAME FILL-ORIGIN LEVEL: 0 DIFFERENT FILL-ORIGIN LEVEL: 0
L1I AVERAGE MISS LATENCY: 289.812 cycles
L1I RQ	ACCESS:   60225709	FORWARD:          0	MERGED:   20566276	TO_CACHE:   39659433

BTB TOTAL     ACCESS:   35994537  HIT:   35986772  MISS:       7765  HIT %:    99.9784  MISS %:  0.0215727   MPKI: 0.038825
BTB BRANCH_DIRECT_JUMP	ACCESS:    1555456  HIT:    1555439  MISS:         17
BTB BRANCH_INDIRECT	ACCESS:          0  HIT:          0  MISS:          0
BTB BRANCH_CONDITIONAL	ACCESS:   19071044  HIT:   19070972  MISS:         72
BTB BRANCH_DIRECT_CALL	ACCESS:    1562683  HIT:    1562669  MISS:         14
BTB BRANCH_INDIRECT_CALL	ACCESS:    6121335  HIT:    6121334  MISS:          1
BTB BRANCH_RETURN	ACCESS:    7684019  HIT:    7676358  MISS:       7661
BTB BRANCH_OTHER ACCESS:          0  HIT:          0  MISS:          0

L2C TOTAL     ACCESS:   25309215  HIT:   15809512  MISS:    9499703  HIT %:    62.4654  MISS %:    37.5346   MPKI: 47.4985
L2C LOAD      ACCESS:    6052929  HIT:    2518268  MISS:    3534661  HIT %:    41.6041  MISS %:    58.3959   MPKI: 17.6733
L2C DATA LOAD MPKI: 17.6732
L2C INSTRUCTION LOAD MPKI: 8e-05
L2C RFO       ACCESS:    3713547  HIT:     169770  MISS:    3543777  HIT %:    4.57164  MISS %:    95.4284   MPKI: 17.7189
L2C PREFETCH  ACCESS:    6205746  HIT:    5209348  MISS:     996398  HIT %:    83.9439  MISS %:    16.0561   MPKI: 4.98199
L2C DATA PREFETCH MPKI: 4.98199
L2C INSTRUCTION PREFETCH MPKI: 0
L2C WRITEBACK ACCESS:    5275375  HIT:    4735400  MISS:     539975  HIT %:    89.7642  MISS %:    10.2358   MPKI: 2.69987
L2C LOAD TRANSLATION ACCESS:    3827536  HIT:    2968650  MISS:     858886  HIT %:    77.5603  MISS %:    22.4397   MPKI: 4.29443
L2C TRANSLATION FROM L1D PREFETCHER ACCESS:     234082  HIT:     208076  MISS:      26006  HIT %:    88.8902  MISS %:    11.1098   MPKI: 0.13003
L2C PREFETCH  REQUESTED:          0  ISSUED:          0  USEFUL:     268459  USELESS:     754089
L2C USEFUL LOAD PREFETCHES:     268459 PREFETCH ISSUED TO LOWER LEVEL:    1013795  ACCURACY: 26.4806
L2C TIMELY PREFETCHES:     268459 LATE PREFETCHES: 17397 DROPPED PREFETCHES: 0
L2C PREFETCHES SAME FILL-ORIGIN LEVEL: 862657 DIFFERENT FILL-ORIGIN LEVEL: 0
L2C AVERAGE MISS LATENCY: 551.077 cycles
L2C RQ	ACCESS:   13828104	FORWARD:          0	MERGED:          0	TO_CACHE:   13828095
L2C WQ	ACCESS:    5275375	FORWARD:         10	MERGED:          0	TO_CACHE:    5275375
L2C PQ	ACCESS:    6413969	FORWARD:          0	MERGED:       4276	TO_CACHE:    6409692

L2C Instructions Evicting Data 14
L2C Translations Evicting Data 796429
L2C Data Evicting Data 7322939
L2C Instructions Evicting Instructions 0
L2C Translations Evicting Instructions 1
L2C Data Evicting Instructions 15
L2C Instructions Evicting Translations 2
L2C Translations Evicting Translations 88462
L2C Data Evicting Translations 751866
L2C Dense regions hint from L2: 0
PSCL5 TOTAL     ACCESS:    3624379  HIT:    3624379  MISS:          0  HIT %:        100  MISS %:          0   MPKI: 0
PSCL5 LOAD TRANSLATION ACCESS:    3415080  HIT:    3415080  MISS:          0  HIT %:        100  MISS %:          0   MPKI: 0
PSCL5 TRANSLATION FROM L1D PREFETCHER ACCESS:     209299  HIT:     209299  MISS:          0  HIT %:        100  MISS %:          0   MPKI: 0
PSCL5 PREFETCH  REQUESTED:          0  ISSUED:          0  USEFUL:          0  USELESS:          0
PSCL5 USEFUL LOAD PREFETCHES:          0 PREFETCH ISSUED TO LOWER LEVEL:          0  ACCURACY: -nan
PSCL5 TIMELY PREFETCHES:          0 LATE PREFETCHES: 0 DROPPED PREFETCHES: 0
PSCL5 PREFETCHES SAME FILL-ORIGIN LEVEL: 0 DIFFERENT FILL-ORIGIN LEVEL: 0

PSCL4 TOTAL     ACCESS:    3624379  HIT:    3624379  MISS:          0  HIT %:        100  MISS %:          0   MPKI: 0
PSCL4 LOAD TRANSLATION ACCESS:    3415080  HIT:    3415080  MISS:          0  HIT %:        100  MISS %:          0   MPKI: 0
PSCL4 TRANSLATION FROM L1D PREFETCHER ACCESS:     209299  HIT:     209299  MISS:          0  HIT %:        100  MISS %:          0   MPKI: 0
PSCL4 PREFETCH  REQUESTED:          0  ISSUED:          0  USEFUL:          0  USELESS:          0
PSCL4 USEFUL LOAD PREFETCHES:          0 PREFETCH ISSUED TO LOWER LEVEL:          0  ACCURACY: -nan
PSCL4 TIMELY PREFETCHES:          0 LATE PREFETCHES: 0 DROPPED PREFETCHES: 0
PSCL4 PREFETCHES SAME FILL-ORIGIN LEVEL: 0 DIFFERENT FILL-ORIGIN LEVEL: 0

PSCL3 TOTAL     ACCESS:    3624379  HIT:    3624379  MISS:          0  HIT %:        100  MISS %:          0   MPKI: 0
PSCL3 LOAD TRANSLATION ACCESS:    3415080  HIT:    3415080  MISS:          0  HIT %:        100  MISS %:          0   MPKI: 0
PSCL3 TRANSLATION FROM L1D PREFETCHER ACCESS:     209299  HIT:     209299  MISS:          0  HIT %:        100  MISS %:          0   MPKI: 0
PSCL3 PREFETCH  REQUESTED:          0  ISSUED:          0  USEFUL:          0  USELESS:          0
PSCL3 USEFUL LOAD PREFETCHES:          0 PREFETCH ISSUED TO LOWER LEVEL:          0  ACCURACY: -nan
PSCL3 TIMELY PREFETCHES:          0 LATE PREFETCHES: 0 DROPPED PREFETCHES: 0
PSCL3 PREFETCHES SAME FILL-ORIGIN LEVEL: 0 DIFFERENT FILL-ORIGIN LEVEL: 0

PSCL2 TOTAL     ACCESS:    3616597  HIT:    3187140  MISS:     429457  HIT %:    88.1254  MISS %:    11.8746   MPKI: 2.14728
PSCL2 LOAD TRANSLATION ACCESS:    3432081  HIT:    3002624  MISS:     429457  HIT %:     87.487  MISS %:     12.513   MPKI: 2.14728
PSCL2 TRANSLATION FROM L1D PREFETCHER ACCESS:     184516  HIT:     184516  MISS:          0  HIT %:        100  MISS %:          0   MPKI: 0
PSCL2 PREFETCH  REQUESTED:          0  ISSUED:          0  USEFUL:          0  USELESS:          0
PSCL2 USEFUL LOAD PREFETCHES:          0 PREFETCH ISSUED TO LOWER LEVEL:          0  ACCURACY: -nan
PSCL2 TIMELY PREFETCHES:          0 LATE PREFETCHES: 0 DROPPED PREFETCHES: 0
PSCL2 PREFETCHES SAME FILL-ORIGIN LEVEL: 0 DIFFERENT FILL-ORIGIN LEVEL: 0

LLC TOTAL     ACCESS:   14069294  HIT:    3859258  MISS:   10210036  HIT %:    27.4304  MISS %:    72.5696   MPKI: 51.0502
LLC LOAD      ACCESS:    3517269  HIT:     357194  MISS:    3160075  HIT %:    10.1554  MISS %:    89.8446   MPKI: 15.8004
LLC RFO       ACCESS:    3543769  HIT:     389568  MISS:    3154201  HIT %:     10.993  MISS %:     89.007   MPKI: 15.771
LLC PREFETCH  ACCESS:    1013795  HIT:      40961  MISS:     972834  HIT %:    4.04036  MISS %:    95.9596   MPKI: 4.86417
LLC WRITEBACK ACCESS:    5109569  HIT:    2656856  MISS:    2452713  HIT %:    51.9977  MISS %:    48.0023   MPKI: 12.2636
LLC LOAD TRANSLATION ACCESS:     858886  HIT:     403386  MISS:     455500  HIT %:    46.9662  MISS %:    53.0338   MPKI: 2.2775
LLC TRANSLATION FROM L1D PREFETCHER ACCESS:      26006  HIT:      11293  MISS:      14713  HIT %:    43.4246  MISS %:    56.5754   MPKI: 0.073565
LLC PREFETCH  REQUESTED:          0  ISSUED:          0  USEFUL:     167200  USELESS:    3721203
LLC USEFUL LOAD PREFETCHES:     167200 PREFETCH ISSUED TO LOWER LEVEL:   27315672  ACCURACY: 0.612103
LLC TIMELY PREFETCHES:     167200 LATE PREFETCHES: 0 DROPPED PREFETCHES: 0
LLC PREFETCHES SAME FILL-ORIGIN LEVEL: 0 DIFFERENT FILL-ORIGIN LEVEL: 0
LLC AVERAGE MISS LATENCY: 2654.42 cycles
LLC RQ	ACCESS:   32015474	FORWARD:          0	MERGED:          0	TO_CACHE:   32015463
LLC WQ	ACCESS:   20564285	FORWARD:         11	MERGED:          0	TO_CACHE:   20564285
LLC PQ	ACCESS:    4033900	FORWARD:          0	MERGED:          0	TO_CACHE:    4033900

LLC Dense regions hint to LLC: 0

RAW hits: 9534723
Loads Generated: 92624464
Loads sent to L1D: 83089740
Stores Generated: 25372361
Stores sent to L1D: 25372365
Major fault: 0 Minor fault: 30043
Allocated PAGES: 120172

DRAM Statistics
 CHANNEL 0
 RQ ROW_BUFFER_HIT:     772958  ROW_BUFFER_MISS:   30335437
 DBUS_CONGESTED:         23
 WQ ROW_BUFFER_HIT:    1612244  ROW_BUFFER_MISS:   17047938  FULL:      29058

 AVG_CONGESTED_CYCLE: 5
 All warmup complete: 5
Channel 0 Bank busy for read cycles: 0
Channel 0 Bank busy for write cycles: 0
Channel 0
Rank 0
0banks busy for read cycles: 1698058
0banks busy for write cycles: 0
1banks busy for read cycles: 222485706
1banks busy for write cycles: 2507969
2banks busy for read cycles: 314037388
2banks busy for write cycles: 2505743
3banks busy for read cycles: 232316761
3banks busy for write cycles: 2503805
4banks busy for read cycles: 126675107
4banks busy for write cycles: 2524879
5banks busy for read cycles: 60279510
5banks busy for write cycles: 3163651
6banks busy for read cycles: 48582325
6banks busy for write cycles: 12331479
7banks busy for read cycles: 91714903
7banks busy for write cycles: 89407995
8banks busy for read cycles: 202656562
8banks busy for write cycles: 436176129

CPU 0 Branch Prediction Accuracy: 93.3626% MPKI: 12.9326 Average ROB Occupancy at Mispredict: 42.4042
Branch types
NOT_BRANCH: 162357395 80.4221%
BRANCH_DIRECT_JUMP: 1572213 0.77878%
BRANCH_INDIRECT: 0 0%
BRANCH_CONDITIONAL: 22417828 11.1044%
BRANCH_DIRECT_CALL: 1579435 0.782357%
BRANCH_INDIRECT_CALL: 6187657 3.06499%
BRANCH_RETURN: 7767092 3.84735%
BRANCH_OTHER: 0 0%


CPU 1 Branch Prediction Accuracy: 93.3624% MPKI: 12.9366 Average ROB Occupancy at Mispredict: 42.4025
Branch types
NOT_BRANCH: 162398059 80.4219%
BRANCH_DIRECT_JUMP: 1572661 0.778805%
BRANCH_INDIRECT: 0 0%
BRANCH_CONDITIONAL: 22423229 11.1043%
BRANCH_DIRECT_CALL: 1579898 0.782389%
BRANCH_INDIRECT_CALL: 6189444 3.0651%
BRANCH_RETURN: 7769342 3.84749%
BRANCH_OTHER: 0 0%


CPU 2 Branch Prediction Accuracy: 93.3597% MPKI: 12.983 Average ROB Occupancy at Mispredict: 42.3978
Branch types
NOT_BRANCH: 162901936 80.4196%
BRANCH_DIRECT_JUMP: 1578216 0.779116%
BRANCH_INDIRECT: 0 0%
BRANCH_CONDITIONAL: 22490322 11.1028%
BRANCH_DIRECT_CALL: 1585546 0.782734%
BRANCH_INDIRECT_CALL: 6211763 3.06655%
BRANCH_RETURN: 7797310 3.84929%
BRANCH_OTHER: 0 0%


CPU 3 Branch Prediction Accuracy: 93.3676% MPKI: 12.9801 Average ROB Occupancy at Mispredict: 42.3711
Branch types
NOT_BRANCH: 160858111 80.4291%
BRANCH_DIRECT_JUMP: 1555456 0.777728%
BRANCH_INDIRECT: 0 0%
BRANCH_CONDITIONAL: 22218062 11.109%
BRANCH_DIRECT_CALL: 1562683 0.781341%
BRANCH_INDIRECT_CALL: 6121335 3.06067%
BRANCH_RETURN: 7684019 3.84201%
BRANCH_OTHER: 0 0%

DRAM PAGES: 1048576
Allocated PAGES: 120172
