
*** ChampSim Multicore Out-of-Order Simulator ***

Warmup Instructions: 50000000
Simulation Instructions: 200000000
Number of CPUs: 4
LLC sets: 8192
LLC ways: 16
Off-chip DRAM Size: 4096 MB Channels: 1 Width: 64-bit Data Rate: 6400 MT/s
CPU 0 runs ./traces/ligra/ligra_BFSCC.com-lj.ungraph.gcc_6.3.0_O3.drop_22000M.length_250M.champsimtrace.xz
.xz
CPU 1 runs ./traces/ligra/ligra_BFSCC.com-lj.ungraph.gcc_6.3.0_O3.drop_22000M.length_250M.champsimtrace.xz
.xz
CPU 2 runs ./traces/ligra/ligra_BFSCC.com-lj.ungraph.gcc_6.3.0_O3.drop_22000M.length_250M.champsimtrace.xz
.xz
CPU 3 runs ./traces/ligra/ligra_BFSCC.com-lj.ungraph.gcc_6.3.0_O3.drop_22000M.length_250M.champsimtrace.xz
.xz
BTB has LRU replacement policy
ITLB has LRU replacement policy
DTLB has LRU replacement policy
STLB has LRU replacement policy
L1I has LRU replacement policy
History Sets: 8
History Ways: 16
BERTI Size: 16
BERTI Stride Size: 8
L1D has LRU replacement policy
Initialize SRRIP state for L2C
Initialize DRRIP state for LLC
BTB has LRU replacement policy
ITLB has LRU replacement policy
DTLB has LRU replacement policy
STLB has LRU replacement policy
L1I has LRU replacement policy
History Sets: 8
History Ways: 16
BERTI Size: 16
BERTI Stride Size: 8
L1D has LRU replacement policy
Initialize SRRIP state for L2C
Initialize DRRIP state for LLC
BTB has LRU replacement policy
ITLB has LRU replacement policy
DTLB has LRU replacement policy
STLB has LRU replacement policy
L1I has LRU replacement policy
History Sets: 8
History Ways: 16
BERTI Size: 16
BERTI Stride Size: 8
L1D has LRU replacement policy
Initialize SRRIP state for L2C
Initialize DRRIP state for LLC
BTB has LRU replacement policy
ITLB has LRU replacement policy
DTLB has LRU replacement policy
STLB has LRU replacement policy
L1I has LRU replacement policy
History Sets: 8
History Ways: 16
BERTI Size: 16
BERTI Stride Size: 8
L1D has LRU replacement policy
Initialize SRRIP state for L2C
Initialize DRRIP state for LLC
Heartbeat CPU 0 instructions: 10000002 cycles: 3201201 heartbeat IPC: 3.12383 cumulative IPC: 3.12383 (Simulation time: 0 hr 4 min 0 sec) 
Heartbeat CPU 1 instructions: 10000002 cycles: 3201345 heartbeat IPC: 3.12369 cumulative IPC: 3.12369 (Simulation time: 0 hr 4 min 0 sec) 
Heartbeat CPU 2 instructions: 10000002 cycles: 3201389 heartbeat IPC: 3.12364 cumulative IPC: 3.12364 (Simulation time: 0 hr 4 min 0 sec) 
Heartbeat CPU 3 instructions: 10000002 cycles: 3201415 heartbeat IPC: 3.12362 cumulative IPC: 3.12362 (Simulation time: 0 hr 4 min 0 sec) 
Heartbeat CPU 0 instructions: 20000002 cycles: 6408460 heartbeat IPC: 3.11793 cumulative IPC: 3.12087 (Simulation time: 0 hr 7 min 46 sec) 
Heartbeat CPU 1 instructions: 20000002 cycles: 6408641 heartbeat IPC: 3.11789 cumulative IPC: 3.12079 (Simulation time: 0 hr 7 min 46 sec) 
Heartbeat CPU 2 instructions: 20000002 cycles: 6408668 heartbeat IPC: 3.11791 cumulative IPC: 3.12077 (Simulation time: 0 hr 7 min 46 sec) 
Heartbeat CPU 3 instructions: 20000002 cycles: 6408716 heartbeat IPC: 3.11789 cumulative IPC: 3.12075 (Simulation time: 0 hr 7 min 46 sec) 
Heartbeat CPU 0 instructions: 30000002 cycles: 9575346 heartbeat IPC: 3.15768 cumulative IPC: 3.13305 (Simulation time: 0 hr 11 min 40 sec) 
Heartbeat CPU 1 instructions: 30000002 cycles: 9575570 heartbeat IPC: 3.15763 cumulative IPC: 3.13297 (Simulation time: 0 hr 11 min 40 sec) 
Heartbeat CPU 2 instructions: 30000002 cycles: 9575600 heartbeat IPC: 3.15763 cumulative IPC: 3.13296 (Simulation time: 0 hr 11 min 40 sec) 
Heartbeat CPU 3 instructions: 30000002 cycles: 9575684 heartbeat IPC: 3.15759 cumulative IPC: 3.13294 (Simulation time: 0 hr 11 min 40 sec) 
Heartbeat CPU 0 instructions: 40000000 cycles: 12702112 heartbeat IPC: 3.19819 cumulative IPC: 3.14908 (Simulation time: 0 hr 15 min 36 sec) 
Heartbeat CPU 1 instructions: 40000000 cycles: 12702303 heartbeat IPC: 3.19823 cumulative IPC: 3.14904 (Simulation time: 0 hr 15 min 36 sec) 
Heartbeat CPU 2 instructions: 40000000 cycles: 12702383 heartbeat IPC: 3.19817 cumulative IPC: 3.14902 (Simulation time: 0 hr 15 min 36 sec) 
Heartbeat CPU 3 instructions: 40000000 cycles: 12702445 heartbeat IPC: 3.1982 cumulative IPC: 3.149 (Simulation time: 0 hr 15 min 36 sec) 
Heartbeat CPU 0 instructions: 50000001 cycles: 15800217 heartbeat IPC: 3.22778 cumulative IPC: 3.16451 (Simulation time: 0 hr 19 min 12 sec) 
Heartbeat CPU 1 instructions: 50000001 cycles: 15800391 heartbeat IPC: 3.2278 cumulative IPC: 3.16448 (Simulation time: 0 hr 19 min 12 sec) 
Heartbeat CPU 2 instructions: 50000001 cycles: 15800575 heartbeat IPC: 3.22769 cumulative IPC: 3.16444 (Simulation time: 0 hr 19 min 12 sec) 
Heartbeat CPU 3 instructions: 50000001 cycles: 15800615 heartbeat IPC: 3.22771 cumulative IPC: 3.16443 (Simulation time: 0 hr 19 min 12 sec) 

Warmup complete CPU 0 instructions: 50000848 cycles: 15800615 (Simulation time: 0 hr 19 min 12 sec) 
Warmup complete CPU 1 instructions: 50000543 cycles: 15800615 (Simulation time: 0 hr 19 min 12 sec) 
Warmup complete CPU 2 instructions: 50000157 cycles: 15800615 (Simulation time: 0 hr 19 min 12 sec) 
Warmup complete CPU 3 instructions: 50000001 cycles: 15800615 (Simulation time: 0 hr 19 min 12 sec) 

Heartbeat CPU 1 instructions: 60000000 cycles: 60269748 heartbeat IPC: 0.224874 cumulative IPC: 0.224863 (Simulation time: 0 hr 23 min 37 sec) 
Heartbeat CPU 3 instructions: 60000000 cycles: 60281671 heartbeat IPC: 0.224815 cumulative IPC: 0.224815 (Simulation time: 0 hr 23 min 37 sec) 
Heartbeat CPU 2 instructions: 60000000 cycles: 60294316 heartbeat IPC: 0.224751 cumulative IPC: 0.224747 (Simulation time: 0 hr 23 min 37 sec) 
Heartbeat CPU 0 instructions: 60000000 cycles: 60444822 heartbeat IPC: 0.223991 cumulative IPC: 0.223974 (Simulation time: 0 hr 23 min 38 sec) 
Heartbeat CPU 1 instructions: 70000000 cycles: 102422746 heartbeat IPC: 0.237231 cumulative IPC: 0.230882 (Simulation time: 0 hr 28 min 11 sec) 
Heartbeat CPU 2 instructions: 70000000 cycles: 102483200 heartbeat IPC: 0.237029 cumulative IPC: 0.230725 (Simulation time: 0 hr 28 min 12 sec) 
Heartbeat CPU 3 instructions: 70000000 cycles: 102659618 heartbeat IPC: 0.235972 cumulative IPC: 0.230258 (Simulation time: 0 hr 28 min 13 sec) 
Heartbeat CPU 0 instructions: 70000000 cycles: 102724187 heartbeat IPC: 0.236522 cumulative IPC: 0.230077 (Simulation time: 0 hr 28 min 14 sec) 
Heartbeat CPU 1 instructions: 80000001 cycles: 130139313 heartbeat IPC: 0.360795 cumulative IPC: 0.262374 (Simulation time: 0 hr 32 min 5 sec) 
Heartbeat CPU 2 instructions: 80000001 cycles: 130292778 heartbeat IPC: 0.359588 cumulative IPC: 0.262025 (Simulation time: 0 hr 32 min 7 sec) 
Heartbeat CPU 3 instructions: 80000001 cycles: 130392496 heartbeat IPC: 0.360583 cumulative IPC: 0.261799 (Simulation time: 0 hr 32 min 9 sec) 
Heartbeat CPU 0 instructions: 80000001 cycles: 130507505 heartbeat IPC: 0.359928 cumulative IPC: 0.261529 (Simulation time: 0 hr 32 min 11 sec) 
Heartbeat CPU 1 instructions: 90000000 cycles: 138514678 heartbeat IPC: 1.19398 cumulative IPC: 0.325957 (Simulation time: 0 hr 34 min 30 sec) 
Heartbeat CPU 2 instructions: 90000000 cycles: 138668542 heartbeat IPC: 1.19392 cumulative IPC: 0.325552 (Simulation time: 0 hr 34 min 33 sec) 
Heartbeat CPU 3 instructions: 90000000 cycles: 138768173 heartbeat IPC: 1.19393 cumulative IPC: 0.325289 (Simulation time: 0 hr 34 min 35 sec) 
Heartbeat CPU 0 instructions: 90000000 cycles: 138883367 heartbeat IPC: 1.19391 cumulative IPC: 0.324978 (Simulation time: 0 hr 34 min 37 sec) 
Heartbeat CPU 1 instructions: 100000000 cycles: 146876305 heartbeat IPC: 1.19594 cumulative IPC: 0.381455 (Simulation time: 0 hr 36 min 51 sec) 
Heartbeat CPU 2 instructions: 100000000 cycles: 147029992 heartbeat IPC: 1.19596 cumulative IPC: 0.381011 (Simulation time: 0 hr 36 min 54 sec) 
Heartbeat CPU 3 instructions: 100000000 cycles: 147129512 heartbeat IPC: 1.19598 cumulative IPC: 0.380724 (Simulation time: 0 hr 36 min 55 sec) 
Heartbeat CPU 0 instructions: 100000000 cycles: 147245165 heartbeat IPC: 1.19591 cumulative IPC: 0.380382 (Simulation time: 0 hr 36 min 57 sec) 
Heartbeat CPU 1 instructions: 110000000 cycles: 155213688 heartbeat IPC: 1.19942 cumulative IPC: 0.430372 (Simulation time: 0 hr 39 min 9 sec) 
Heartbeat CPU 2 instructions: 110000000 cycles: 155367375 heartbeat IPC: 1.19942 cumulative IPC: 0.429901 (Simulation time: 0 hr 39 min 12 sec) 
Heartbeat CPU 3 instructions: 110000000 cycles: 155466895 heartbeat IPC: 1.19942 cumulative IPC: 0.429595 (Simulation time: 0 hr 39 min 13 sec) 
Heartbeat CPU 0 instructions: 110000000 cycles: 155582548 heartbeat IPC: 1.19942 cumulative IPC: 0.429234 (Simulation time: 0 hr 39 min 15 sec) 
Heartbeat CPU 1 instructions: 120000001 cycles: 165875252 heartbeat IPC: 0.937949 cumulative IPC: 0.466431 (Simulation time: 0 hr 41 min 38 sec) 
Heartbeat CPU 2 instructions: 120000001 cycles: 166028801 heartbeat IPC: 0.937961 cumulative IPC: 0.465957 (Simulation time: 0 hr 41 min 39 sec) 
Heartbeat CPU 3 instructions: 120000001 cycles: 166129237 heartbeat IPC: 0.93788 cumulative IPC: 0.465647 (Simulation time: 0 hr 41 min 40 sec) 
Heartbeat CPU 0 instructions: 120000001 cycles: 166244848 heartbeat IPC: 0.937884 cumulative IPC: 0.465283 (Simulation time: 0 hr 41 min 42 sec) 
Heartbeat CPU 1 instructions: 130000000 cycles: 180652926 heartbeat IPC: 0.676696 cumulative IPC: 0.48528 (Simulation time: 0 hr 44 min 32 sec) 
Heartbeat CPU 2 instructions: 130000000 cycles: 180806487 heartbeat IPC: 0.676696 cumulative IPC: 0.48483 (Simulation time: 0 hr 44 min 34 sec) 
Heartbeat CPU 3 instructions: 130000000 cycles: 180906930 heartbeat IPC: 0.676696 cumulative IPC: 0.484536 (Simulation time: 0 hr 44 min 35 sec) 
Heartbeat CPU 0 instructions: 130000000 cycles: 181022533 heartbeat IPC: 0.676696 cumulative IPC: 0.484192 (Simulation time: 0 hr 44 min 36 sec) 
Heartbeat CPU 1 instructions: 140000001 cycles: 191349841 heartbeat IPC: 0.934849 cumulative IPC: 0.512674 (Simulation time: 0 hr 47 min 7 sec) 
Heartbeat CPU 2 instructions: 140000001 cycles: 191503426 heartbeat IPC: 0.934847 cumulative IPC: 0.512228 (Simulation time: 0 hr 47 min 9 sec) 
Heartbeat CPU 3 instructions: 140000001 cycles: 191603848 heartbeat IPC: 0.934849 cumulative IPC: 0.511936 (Simulation time: 0 hr 47 min 10 sec) 
Heartbeat CPU 0 instructions: 140000001 cycles: 191719451 heartbeat IPC: 0.934849 cumulative IPC: 0.511595 (Simulation time: 0 hr 47 min 12 sec) 
Heartbeat CPU 1 instructions: 150000001 cycles: 241369241 heartbeat IPC: 0.199922 cumulative IPC: 0.443322 (Simulation time: 0 hr 54 min 18 sec) 
Heartbeat CPU 2 instructions: 150000000 cycles: 241805147 heartbeat IPC: 0.1988 cumulative IPC: 0.442468 (Simulation time: 0 hr 54 min 22 sec) 
Heartbeat CPU 0 instructions: 150000002 cycles: 241886563 heartbeat IPC: 0.199334 cumulative IPC: 0.442306 (Simulation time: 0 hr 54 min 22 sec) 
Heartbeat CPU 3 instructions: 150000000 cycles: 241981504 heartbeat IPC: 0.198501 cumulative IPC: 0.442124 (Simulation time: 0 hr 54 min 23 sec) 
Heartbeat CPU 1 instructions: 160000001 cycles: 292699301 heartbeat IPC: 0.194818 cumulative IPC: 0.397255 (Simulation time: 1 hr 1 min 5 sec) 
Heartbeat CPU 3 instructions: 160000002 cycles: 292785109 heartbeat IPC: 0.196836 cumulative IPC: 0.397134 (Simulation time: 1 hr 1 min 6 sec) 
Heartbeat CPU 2 instructions: 160000002 cycles: 292858221 heartbeat IPC: 0.195875 cumulative IPC: 0.397029 (Simulation time: 1 hr 1 min 7 sec) 
Heartbeat CPU 0 instructions: 160000001 cycles: 292877031 heartbeat IPC: 0.196115 cumulative IPC: 0.396999 (Simulation time: 1 hr 1 min 8 sec) 
Heartbeat CPU 1 instructions: 170000001 cycles: 320282587 heartbeat IPC: 0.362538 cumulative IPC: 0.39411 (Simulation time: 1 hr 5 min 33 sec) 
Heartbeat CPU 3 instructions: 170000001 cycles: 320336427 heartbeat IPC: 0.362959 cumulative IPC: 0.394042 (Simulation time: 1 hr 5 min 34 sec) 
Heartbeat CPU 2 instructions: 170000001 cycles: 320397910 heartbeat IPC: 0.363112 cumulative IPC: 0.393962 (Simulation time: 1 hr 5 min 34 sec) 
Heartbeat CPU 0 instructions: 170000001 cycles: 320546259 heartbeat IPC: 0.361412 cumulative IPC: 0.393768 (Simulation time: 1 hr 5 min 36 sec) 
Heartbeat CPU 2 instructions: 180000000 cycles: 350607942 heartbeat IPC: 0.331016 cumulative IPC: 0.388283 (Simulation time: 1 hr 10 min 27 sec) 
Heartbeat CPU 1 instructions: 180000000 cycles: 350625428 heartbeat IPC: 0.329567 cumulative IPC: 0.388261 (Simulation time: 1 hr 10 min 27 sec) 
Heartbeat CPU 3 instructions: 180000000 cycles: 350781637 heartbeat IPC: 0.328459 cumulative IPC: 0.388082 (Simulation time: 1 hr 10 min 29 sec) 
Heartbeat CPU 0 instructions: 180000000 cycles: 350883997 heartbeat IPC: 0.329622 cumulative IPC: 0.387961 (Simulation time: 1 hr 10 min 30 sec) 
Heartbeat CPU 1 instructions: 190000002 cycles: 381088167 heartbeat IPC: 0.32827 cumulative IPC: 0.383258 (Simulation time: 1 hr 14 min 57 sec) 
Heartbeat CPU 2 instructions: 190000002 cycles: 381267869 heartbeat IPC: 0.326159 cumulative IPC: 0.383071 (Simulation time: 1 hr 14 min 59 sec) 
Heartbeat CPU 3 instructions: 190000002 cycles: 381312472 heartbeat IPC: 0.327538 cumulative IPC: 0.383025 (Simulation time: 1 hr 14 min 59 sec) 
Heartbeat CPU 0 instructions: 190000002 cycles: 381327076 heartbeat IPC: 0.328482 cumulative IPC: 0.383007 (Simulation time: 1 hr 14 min 59 sec) 
Heartbeat CPU 0 instructions: 200000000 cycles: 414758229 heartbeat IPC: 0.299122 cumulative IPC: 0.375978 (Simulation time: 1 hr 19 min 30 sec) 
Heartbeat CPU 2 instructions: 200000000 cycles: 414763593 heartbeat IPC: 0.298546 cumulative IPC: 0.375974 (Simulation time: 1 hr 19 min 30 sec) 
Heartbeat CPU 1 instructions: 200000000 cycles: 414777038 heartbeat IPC: 0.296834 cumulative IPC: 0.375961 (Simulation time: 1 hr 19 min 30 sec) 
Heartbeat CPU 3 instructions: 200000000 cycles: 414890305 heartbeat IPC: 0.297815 cumulative IPC: 0.375855 (Simulation time: 1 hr 19 min 31 sec) 
Heartbeat CPU 2 instructions: 210000002 cycles: 448896584 heartbeat IPC: 0.292972 cumulative IPC: 0.369433 (Simulation time: 1 hr 24 min 4 sec) 
Heartbeat CPU 3 instructions: 210000002 cycles: 449045594 heartbeat IPC: 0.29278 cumulative IPC: 0.369306 (Simulation time: 1 hr 24 min 5 sec) 
Heartbeat CPU 0 instructions: 210000002 cycles: 449108440 heartbeat IPC: 0.291119 cumulative IPC: 0.369251 (Simulation time: 1 hr 24 min 6 sec) 
Heartbeat CPU 1 instructions: 210000002 cycles: 449123592 heartbeat IPC: 0.29115 cumulative IPC: 0.369238 (Simulation time: 1 hr 24 min 6 sec) 
Heartbeat CPU 3 instructions: 220000000 cycles: 483856058 heartbeat IPC: 0.28727 cumulative IPC: 0.363205 (Simulation time: 1 hr 28 min 36 sec) 
Heartbeat CPU 2 instructions: 220000000 cycles: 483977311 heartbeat IPC: 0.285057 cumulative IPC: 0.36311 (Simulation time: 1 hr 28 min 37 sec) 
Heartbeat CPU 1 instructions: 220000000 cycles: 484111699 heartbeat IPC: 0.285811 cumulative IPC: 0.363005 (Simulation time: 1 hr 28 min 38 sec) 
Heartbeat CPU 0 instructions: 220000000 cycles: 484145014 heartbeat IPC: 0.285416 cumulative IPC: 0.362979 (Simulation time: 1 hr 28 min 38 sec) 
Heartbeat CPU 3 instructions: 230000002 cycles: 520367856 heartbeat IPC: 0.273884 cumulative IPC: 0.356741 (Simulation time: 1 hr 33 min 19 sec) 
Heartbeat CPU 2 instructions: 230000002 cycles: 520645272 heartbeat IPC: 0.272718 cumulative IPC: 0.356545 (Simulation time: 1 hr 33 min 21 sec) 
Heartbeat CPU 1 instructions: 230000002 cycles: 520746533 heartbeat IPC: 0.272964 cumulative IPC: 0.356473 (Simulation time: 1 hr 33 min 22 sec) 
Heartbeat CPU 0 instructions: 230000002 cycles: 520751129 heartbeat IPC: 0.273178 cumulative IPC: 0.356469 (Simulation time: 1 hr 33 min 22 sec) 
Heartbeat CPU 3 instructions: 240000002 cycles: 559009208 heartbeat IPC: 0.25879 cumulative IPC: 0.349774 (Simulation time: 1 hr 37 min 46 sec) 
Heartbeat CPU 2 instructions: 240000002 cycles: 559263124 heartbeat IPC: 0.258948 cumulative IPC: 0.34961 (Simulation time: 1 hr 37 min 47 sec) 
Heartbeat CPU 1 instructions: 240000002 cycles: 559295346 heartbeat IPC: 0.259411 cumulative IPC: 0.349588 (Simulation time: 1 hr 37 min 48 sec) 
Heartbeat CPU 0 instructions: 240000002 cycles: 559387489 heartbeat IPC: 0.258824 cumulative IPC: 0.349529 (Simulation time: 1 hr 37 min 48 sec) 
*** Reached end of trace for Core: 3 Repeating trace: ./traces/ligra/ligra_BFSCC.com-lj.ungraph.gcc_6.3.0_O3.drop_22000M.length_250M.champsimtrace.xz
Heartbeat CPU 3 instructions: 250000000 cycles: 600736422 heartbeat IPC: 0.239652 cumulative IPC: 0.341918 (Simulation time: 1 hr 42 min 33 sec) 
Finished CPU 3 instructions: 200000002 cycles: 584935811 cumulative IPC: 0.341918 (Simulation time: 1 hr 42 min 33 sec) 
*** Reached end of trace for Core: 2 Repeating trace: ./traces/ligra/ligra_BFSCC.com-lj.ungraph.gcc_6.3.0_O3.drop_22000M.length_250M.champsimtrace.xz
Heartbeat CPU 2 instructions: 250000000 cycles: 601063129 heartbeat IPC: 0.239234 cumulative IPC: 0.341727 (Simulation time: 1 hr 42 min 35 sec) 
Finished CPU 2 instructions: 200000001 cycles: 585270450 cumulative IPC: 0.341722 (Simulation time: 1 hr 42 min 35 sec) 
*** Reached end of trace for Core: 1 Repeating trace: ./traces/ligra/ligra_BFSCC.com-lj.ungraph.gcc_6.3.0_O3.drop_22000M.length_250M.champsimtrace.xz
Heartbeat CPU 1 instructions: 250000000 cycles: 601122800 heartbeat IPC: 0.239077 cumulative IPC: 0.341691 (Simulation time: 1 hr 42 min 35 sec) 
Finished CPU 1 instructions: 200000000 cycles: 585338019 cumulative IPC: 0.341683 (Simulation time: 1 hr 42 min 35 sec) 
*** Reached end of trace for Core: 0 Repeating trace: ./traces/ligra/ligra_BFSCC.com-lj.ungraph.gcc_6.3.0_O3.drop_22000M.length_250M.champsimtrace.xz
Heartbeat CPU 0 instructions: 250000000 cycles: 601342893 heartbeat IPC: 0.238348 cumulative IPC: 0.341562 (Simulation time: 1 hr 42 min 36 sec) 
Finished CPU 0 instructions: 200000001 cycles: 585563857 cumulative IPC: 0.341551 (Simulation time: 1 hr 42 min 37 sec) 

ChampSim completed all CPUs

Total Simulation Statistics (not including warmup)

CPU 0 cumulative IPC: 0.341551 instructions: 200000001 cycles: 585563857
ITLB TOTAL     ACCESS:   35404112  HIT:   35404102  MISS:         10  HIT %:        100  MISS %: 2.82453e-05   MPKI: 5e-05
ITLB LOAD      ACCESS:          0  HIT:          0  MISS:          0  HIT %:       -nan  MISS %:       -nan   MPKI: 0
ITLB RFO       ACCESS:          0  HIT:          0  MISS:          0  HIT %:       -nan  MISS %:       -nan   MPKI: 0
ITLB PREFETCH  ACCESS:          0  HIT:          0  MISS:          0  HIT %:       -nan  MISS %:       -nan   MPKI: 0
ITLB WRITEBACK ACCESS:          0  HIT:          0  MISS:          0  HIT %:       -nan  MISS %:       -nan   MPKI: 0
DTLB TOTAL     ACCESS:   39133756  HIT:   37221558  MISS:    1912198  HIT %:    95.1137  MISS %:    4.88631   MPKI: 9.56099
DTLB LOAD      ACCESS:          0  HIT:          0  MISS:          0  HIT %:       -nan  MISS %:       -nan   MPKI: 0
DTLB RFO       ACCESS:          0  HIT:          0  MISS:          0  HIT %:       -nan  MISS %:       -nan   MPKI: 0
DTLB PREFETCH  ACCESS:          0  HIT:          0  MISS:          0  HIT %:       -nan  MISS %:       -nan   MPKI: 0
DTLB WRITEBACK ACCESS:          0  HIT:          0  MISS:          0  HIT %:       -nan  MISS %:       -nan   MPKI: 0
STLB TOTAL     ACCESS:   17690607  HIT:   17603238  MISS:      87369  HIT %:    99.5061  MISS %:   0.493872   MPKI: 0.436845
STLB LOAD      ACCESS:          0  HIT:          0  MISS:          0  HIT %:       -nan  MISS %:       -nan   MPKI: 0
STLB RFO       ACCESS:          0  HIT:          0  MISS:          0  HIT %:       -nan  MISS %:       -nan   MPKI: 0
STLB PREFETCH  ACCESS:          0  HIT:          0  MISS:          0  HIT %:       -nan  MISS %:       -nan   MPKI: 0
STLB WRITEBACK ACCESS:          0  HIT:          0  MISS:          0  HIT %:       -nan  MISS %:       -nan   MPKI: 0
L1D TOTAL     ACCESS:  114477000  HIT:  107766712  MISS:    6710288  HIT %:    94.1383  MISS %:    5.86169   MPKI: 33.5514
L1D LOAD      ACCESS:   32080736  HIT:   28554336  MISS:    3526400  HIT %:    89.0077  MISS %:    10.9923   MPKI: 17.632
L1D RFO       ACCESS:    7122442  HIT:    6759940  MISS:     362502  HIT %:    94.9104  MISS %:    5.08957   MPKI: 1.81251
L1D PREFETCH  ACCESS:   75273822  HIT:   72452436  MISS:    2821386  HIT %:    96.2518  MISS %:    3.74816   MPKI: 14.1069
L1D WRITEBACK ACCESS:          0  HIT:          0  MISS:          0  HIT %:       -nan  MISS %:       -nan   MPKI: 0
L1I TOTAL     ACCESS:   39915263  HIT:   39915117  MISS:        146  HIT %:    99.9996  MISS %: 0.000365775   MPKI: 0.00073
L1I LOAD      ACCESS:   39915263  HIT:   39915117  MISS:        146  HIT %:    99.9996  MISS %: 0.000365775   MPKI: 0.00073
L1I RFO       ACCESS:          0  HIT:          0  MISS:          0  HIT %:       -nan  MISS %:       -nan   MPKI: 0
L1I PREFETCH  ACCESS:          0  HIT:          0  MISS:          0  HIT %:       -nan  MISS %:       -nan   MPKI: 0
L1I WRITEBACK ACCESS:          0  HIT:          0  MISS:          0  HIT %:       -nan  MISS %:       -nan   MPKI: 0
L2C TOTAL     ACCESS:   16384263  HIT:    9532373  MISS:    6851890  HIT %:    58.1801  MISS %:    41.8199   MPKI: 34.2594
L2C LOAD      ACCESS:    3439176  HIT:     982181  MISS:    2456995  HIT %:    28.5586  MISS %:    71.4414   MPKI: 12.285
L2C RFO       ACCESS:     362502  HIT:         14  MISS:     362488  HIT %: 0.00386205  MISS %:    99.9961   MPKI: 1.81244
L2C PREFETCH  ACCESS:   11247136  HIT:    7268594  MISS:    3978542  HIT %:    64.6262  MISS %:    35.3738   MPKI: 19.8927
L2C WRITEBACK ACCESS:     542442  HIT:     500852  MISS:      41590  HIT %:    92.3328  MISS %:    7.66718   MPKI: 0.20795
PSCL5 TOTAL     ACCESS:     792790  HIT:     792790  MISS:          0  HIT %:        100  MISS %:          0   MPKI: 0
PSCL5 LOAD      ACCESS:          0  HIT:          0  MISS:          0  HIT %:       -nan  MISS %:       -nan   MPKI: 0
PSCL5 RFO       ACCESS:          0  HIT:          0  MISS:          0  HIT %:       -nan  MISS %:       -nan   MPKI: 0
PSCL5 PREFETCH  ACCESS:          0  HIT:          0  MISS:          0  HIT %:       -nan  MISS %:       -nan   MPKI: 0
PSCL5 WRITEBACK ACCESS:          0  HIT:          0  MISS:          0  HIT %:       -nan  MISS %:       -nan   MPKI: 0
PSCL4 TOTAL     ACCESS:     792790  HIT:     792790  MISS:          0  HIT %:        100  MISS %:          0   MPKI: 0
PSCL4 LOAD      ACCESS:          0  HIT:          0  MISS:          0  HIT %:       -nan  MISS %:       -nan   MPKI: 0
PSCL4 RFO       ACCESS:          0  HIT:          0  MISS:          0  HIT %:       -nan  MISS %:       -nan   MPKI: 0
PSCL4 PREFETCH  ACCESS:          0  HIT:          0  MISS:          0  HIT %:       -nan  MISS %:       -nan   MPKI: 0
PSCL4 WRITEBACK ACCESS:          0  HIT:          0  MISS:          0  HIT %:       -nan  MISS %:       -nan   MPKI: 0
PSCL3 TOTAL     ACCESS:     792790  HIT:     792790  MISS:          0  HIT %:        100  MISS %:          0   MPKI: 0
PSCL3 LOAD      ACCESS:          0  HIT:          0  MISS:          0  HIT %:       -nan  MISS %:       -nan   MPKI: 0
PSCL3 RFO       ACCESS:          0  HIT:          0  MISS:          0  HIT %:       -nan  MISS %:       -nan   MPKI: 0
PSCL3 PREFETCH  ACCESS:          0  HIT:          0  MISS:          0  HIT %:       -nan  MISS %:       -nan   MPKI: 0
PSCL3 WRITEBACK ACCESS:          0  HIT:          0  MISS:          0  HIT %:       -nan  MISS %:       -nan   MPKI: 0
PSCL2 TOTAL     ACCESS:     789944  HIT:     789735  MISS:        209  HIT %:    99.9735  MISS %:  0.0264576   MPKI: 0.001045
PSCL2 LOAD      ACCESS:          0  HIT:          0  MISS:          0  HIT %:       -nan  MISS %:       -nan   MPKI: 0
PSCL2 RFO       ACCESS:          0  HIT:          0  MISS:          0  HIT %:       -nan  MISS %:       -nan   MPKI: 0
PSCL2 PREFETCH  ACCESS:          0  HIT:          0  MISS:          0  HIT %:       -nan  MISS %:       -nan   MPKI: 0
PSCL2 WRITEBACK ACCESS:          0  HIT:          0  MISS:          0  HIT %:       -nan  MISS %:       -nan   MPKI: 0
LLC TOTAL     ACCESS:    7352413  HIT:    1833342  MISS:    5519071  HIT %:    24.9352  MISS %:    75.0648   MPKI: 27.5954
LLC LOAD      ACCESS:    2302187  HIT:    1227430  MISS:    1074757  HIT %:    53.3158  MISS %:    46.6842   MPKI: 5.37378
LLC RFO       ACCESS:     362488  HIT:         96  MISS:     362392  HIT %:  0.0264836  MISS %:    99.9735   MPKI: 1.81196
LLC PREFETCH  ACCESS:    4133350  HIT:      83276  MISS:    4050074  HIT %:    2.01473  MISS %:    97.9853   MPKI: 20.2504
LLC WRITEBACK ACCESS:     542113  HIT:     521720  MISS:      20393  HIT %:    96.2382  MISS %:    3.76176   MPKI: 0.101965

RAW hits: 646
Loads Generated: 49122635
Loads sent to L1D: 49121989
Stores Generated: 10366144
Stores sent to L1D: 10366144

CPU 1 cumulative IPC: 0.341604 instructions: 200030778 cycles: 585563857
ITLB TOTAL     ACCESS:   35410002  HIT:   35409992  MISS:         10  HIT %:        100  MISS %: 2.82406e-05   MPKI: 4.99923e-05
ITLB LOAD      ACCESS:          0  HIT:          0  MISS:          0  HIT %:       -nan  MISS %:       -nan   MPKI: 0
ITLB RFO       ACCESS:          0  HIT:          0  MISS:          0  HIT %:       -nan  MISS %:       -nan   MPKI: 0
ITLB PREFETCH  ACCESS:          0  HIT:          0  MISS:          0  HIT %:       -nan  MISS %:       -nan   MPKI: 0
ITLB WRITEBACK ACCESS:          0  HIT:          0  MISS:          0  HIT %:       -nan  MISS %:       -nan   MPKI: 0
DTLB TOTAL     ACCESS:   39138216  HIT:   37225015  MISS:    1913201  HIT %:    95.1117  MISS %:    4.88832   MPKI: 9.56453
DTLB LOAD      ACCESS:          0  HIT:          0  MISS:          0  HIT %:       -nan  MISS %:       -nan   MPKI: 0
DTLB RFO       ACCESS:          0  HIT:          0  MISS:          0  HIT %:       -nan  MISS %:       -nan   MPKI: 0
DTLB PREFETCH  ACCESS:          0  HIT:          0  MISS:          0  HIT %:       -nan  MISS %:       -nan   MPKI: 0
DTLB WRITEBACK ACCESS:          0  HIT:          0  MISS:          0  HIT %:       -nan  MISS %:       -nan   MPKI: 0
STLB TOTAL     ACCESS:   17684364  HIT:   17596616  MISS:      87748  HIT %:    99.5038  MISS %:    0.49619   MPKI: 0.438672
STLB LOAD      ACCESS:          0  HIT:          0  MISS:          0  HIT %:       -nan  MISS %:       -nan   MPKI: 0
STLB RFO       ACCESS:          0  HIT:          0  MISS:          0  HIT %:       -nan  MISS %:       -nan   MPKI: 0
STLB PREFETCH  ACCESS:          0  HIT:          0  MISS:          0  HIT %:       -nan  MISS %:       -nan   MPKI: 0
STLB WRITEBACK ACCESS:          0  HIT:          0  MISS:          0  HIT %:       -nan  MISS %:       -nan   MPKI: 0
L1D TOTAL     ACCESS:  114433123  HIT:  107723587  MISS:    6709536  HIT %:    94.1367  MISS %:    5.86328   MPKI: 33.5425
L1D LOAD      ACCESS:   32085513  HIT:   28557022  MISS:    3528491  HIT %:    89.0029  MISS %:    10.9971   MPKI: 17.6397
L1D RFO       ACCESS:    7126799  HIT:    6764286  MISS:     362513  HIT %:    94.9134  MISS %:    5.08662   MPKI: 1.81229
L1D PREFETCH  ACCESS:   75220811  HIT:   72402279  MISS:    2818532  HIT %:     96.253  MISS %:    3.74701   MPKI: 14.0905
L1D WRITEBACK ACCESS:          0  HIT:          0  MISS:          0  HIT %:       -nan  MISS %:       -nan   MPKI: 0
L1I TOTAL     ACCESS:   39921763  HIT:   39921617  MISS:        146  HIT %:    99.9996  MISS %: 0.000365715   MPKI: 0.000729888
L1I LOAD      ACCESS:   39921763  HIT:   39921617  MISS:        146  HIT %:    99.9996  MISS %: 0.000365715   MPKI: 0.000729888
L1I RFO       ACCESS:          0  HIT:          0  MISS:          0  HIT %:       -nan  MISS %:       -nan   MPKI: 0
L1I PREFETCH  ACCESS:          0  HIT:          0  MISS:          0  HIT %:       -nan  MISS %:       -nan   MPKI: 0
L1I WRITEBACK ACCESS:          0  HIT:          0  MISS:          0  HIT %:       -nan  MISS %:       -nan   MPKI: 0
L2C TOTAL     ACCESS:   16400933  HIT:    9558928  MISS:    6842005  HIT %:    58.2828  MISS %:    41.7172   MPKI: 34.2048
L2C LOAD      ACCESS:    3441187  HIT:     995091  MISS:    2446096  HIT %:    28.9171  MISS %:    71.0829   MPKI: 12.2286
L2C RFO       ACCESS:     362513  HIT:         22  MISS:     362491  HIT %: 0.00606875  MISS %:    99.9939   MPKI: 1.81218
L2C PREFETCH  ACCESS:   11252190  HIT:    7273054  MISS:    3979136  HIT %:    64.6368  MISS %:    35.3632   MPKI: 19.8926
L2C WRITEBACK ACCESS:     542509  HIT:     500546  MISS:      41963  HIT %:     92.265  MISS %:    7.73499   MPKI: 0.209783
PSCL5 TOTAL     ACCESS:     802308  HIT:     802308  MISS:          0  HIT %:        100  MISS %:          0   MPKI: 0
PSCL5 LOAD      ACCESS:          0  HIT:          0  MISS:          0  HIT %:       -nan  MISS %:       -nan   MPKI: 0
PSCL5 RFO       ACCESS:          0  HIT:          0  MISS:          0  HIT %:       -nan  MISS %:       -nan   MPKI: 0
PSCL5 PREFETCH  ACCESS:          0  HIT:          0  MISS:          0  HIT %:       -nan  MISS %:       -nan   MPKI: 0
PSCL5 WRITEBACK ACCESS:          0  HIT:          0  MISS:          0  HIT %:       -nan  MISS %:       -nan   MPKI: 0
PSCL4 TOTAL     ACCESS:     802308  HIT:     802308  MISS:          0  HIT %:        100  MISS %:          0   MPKI: 0
PSCL4 LOAD      ACCESS:          0  HIT:          0  MISS:          0  HIT %:       -nan  MISS %:       -nan   MPKI: 0
PSCL4 RFO       ACCESS:          0  HIT:          0  MISS:          0  HIT %:       -nan  MISS %:       -nan   MPKI: 0
PSCL4 PREFETCH  ACCESS:          0  HIT:          0  MISS:          0  HIT %:       -nan  MISS %:       -nan   MPKI: 0
PSCL4 WRITEBACK ACCESS:          0  HIT:          0  MISS:          0  HIT %:       -nan  MISS %:       -nan   MPKI: 0
PSCL3 TOTAL     ACCESS:     802308  HIT:     802308  MISS:          0  HIT %:        100  MISS %:          0   MPKI: 0
PSCL3 LOAD      ACCESS:          0  HIT:          0  MISS:          0  HIT %:       -nan  MISS %:       -nan   MPKI: 0
PSCL3 RFO       ACCESS:          0  HIT:          0  MISS:          0  HIT %:       -nan  MISS %:       -nan   MPKI: 0
PSCL3 PREFETCH  ACCESS:          0  HIT:          0  MISS:          0  HIT %:       -nan  MISS %:       -nan   MPKI: 0
PSCL3 WRITEBACK ACCESS:          0  HIT:          0  MISS:          0  HIT %:       -nan  MISS %:       -nan   MPKI: 0
PSCL2 TOTAL     ACCESS:     800088  HIT:     799879  MISS:        209  HIT %:    99.9739  MISS %:  0.0261221   MPKI: 0.00104484
PSCL2 LOAD      ACCESS:          0  HIT:          0  MISS:          0  HIT %:       -nan  MISS %:       -nan   MPKI: 0
PSCL2 RFO       ACCESS:          0  HIT:          0  MISS:          0  HIT %:       -nan  MISS %:       -nan   MPKI: 0
PSCL2 PREFETCH  ACCESS:          0  HIT:          0  MISS:          0  HIT %:       -nan  MISS %:       -nan   MPKI: 0
PSCL2 WRITEBACK ACCESS:          0  HIT:          0  MISS:          0  HIT %:       -nan  MISS %:       -nan   MPKI: 0
LLC TOTAL     ACCESS:    7342290  HIT:    1822140  MISS:    5520150  HIT %:    24.8171  MISS %:    75.1829   MPKI: 27.5965
LLC LOAD      ACCESS:    2291477  HIT:    1218331  MISS:    1073146  HIT %:    53.1679  MISS %:    46.8321   MPKI: 5.3649
LLC RFO       ACCESS:     362491  HIT:        129  MISS:     362362  HIT %:  0.0355871  MISS %:    99.9644   MPKI: 1.81153
LLC PREFETCH  ACCESS:    4133755  HIT:      81188  MISS:    4052567  HIT %:    1.96403  MISS %:     98.036   MPKI: 20.2597
LLC WRITEBACK ACCESS:     542248  HIT:     521662  MISS:      20586  HIT %:    96.2036  MISS %:    3.79642   MPKI: 0.102914

RAW hits: 646
Loads Generated: 49131485
Loads sent to L1D: 49130839
Stores Generated: 10367040
Stores sent to L1D: 10367040

CPU 2 cumulative IPC: 0.341618 instructions: 200039335 cycles: 585563857
ITLB TOTAL     ACCESS:   35411810  HIT:   35411800  MISS:         10  HIT %:        100  MISS %: 2.82392e-05   MPKI: 4.99902e-05
ITLB LOAD      ACCESS:          0  HIT:          0  MISS:          0  HIT %:       -nan  MISS %:       -nan   MPKI: 0
ITLB RFO       ACCESS:          0  HIT:          0  MISS:          0  HIT %:       -nan  MISS %:       -nan   MPKI: 0
ITLB PREFETCH  ACCESS:          0  HIT:          0  MISS:          0  HIT %:       -nan  MISS %:       -nan   MPKI: 0
ITLB WRITEBACK ACCESS:          0  HIT:          0  MISS:          0  HIT %:       -nan  MISS %:       -nan   MPKI: 0
DTLB TOTAL     ACCESS:   39141264  HIT:   37227756  MISS:    1913508  HIT %:    95.1113  MISS %:    4.88872   MPKI: 9.56566
DTLB LOAD      ACCESS:          0  HIT:          0  MISS:          0  HIT %:       -nan  MISS %:       -nan   MPKI: 0
DTLB RFO       ACCESS:          0  HIT:          0  MISS:          0  HIT %:       -nan  MISS %:       -nan   MPKI: 0
DTLB PREFETCH  ACCESS:          0  HIT:          0  MISS:          0  HIT %:       -nan  MISS %:       -nan   MPKI: 0
DTLB WRITEBACK ACCESS:          0  HIT:          0  MISS:          0  HIT %:       -nan  MISS %:       -nan   MPKI: 0
STLB TOTAL     ACCESS:   17692273  HIT:   17604494  MISS:      87779  HIT %:    99.5039  MISS %:   0.496143   MPKI: 0.438809
STLB LOAD      ACCESS:          0  HIT:          0  MISS:          0  HIT %:       -nan  MISS %:       -nan   MPKI: 0
STLB RFO       ACCESS:          0  HIT:          0  MISS:          0  HIT %:       -nan  MISS %:       -nan   MPKI: 0
STLB PREFETCH  ACCESS:          0  HIT:          0  MISS:          0  HIT %:       -nan  MISS %:       -nan   MPKI: 0
STLB WRITEBACK ACCESS:          0  HIT:          0  MISS:          0  HIT %:       -nan  MISS %:       -nan   MPKI: 0
L1D TOTAL     ACCESS:  114340415  HIT:  107628758  MISS:    6711657  HIT %:    94.1301  MISS %:    5.86989   MPKI: 33.5517
L1D LOAD      ACCESS:   32087932  HIT:   28560297  MISS:    3527635  HIT %:    89.0063  MISS %:    10.9937   MPKI: 17.6347
L1D RFO       ACCESS:    7129978  HIT:    6767463  MISS:     362515  HIT %:    94.9156  MISS %:    5.08438   MPKI: 1.81222
L1D PREFETCH  ACCESS:   75122505  HIT:   72300998  MISS:    2821507  HIT %:    96.2441  MISS %:    3.75587   MPKI: 14.1048
L1D WRITEBACK ACCESS:          0  HIT:          0  MISS:          0  HIT %:       -nan  MISS %:       -nan   MPKI: 0
L1I TOTAL     ACCESS:   39923797  HIT:   39923651  MISS:        146  HIT %:    99.9996  MISS %: 0.000365697   MPKI: 0.000729856
L1I LOAD      ACCESS:   39923797  HIT:   39923651  MISS:        146  HIT %:    99.9996  MISS %: 0.000365697   MPKI: 0.000729856
L1I RFO       ACCESS:          0  HIT:          0  MISS:          0  HIT %:       -nan  MISS %:       -nan   MPKI: 0
L1I PREFETCH  ACCESS:          0  HIT:          0  MISS:          0  HIT %:       -nan  MISS %:       -nan   MPKI: 0
L1I WRITEBACK ACCESS:          0  HIT:          0  MISS:          0  HIT %:       -nan  MISS %:       -nan   MPKI: 0
L2C TOTAL     ACCESS:   16385452  HIT:    9560497  MISS:    6824955  HIT %:    58.3475  MISS %:    41.6525   MPKI: 34.1181
L2C LOAD      ACCESS:    3440443  HIT:    1006905  MISS:    2433538  HIT %:    29.2667  MISS %:    70.7333   MPKI: 12.1653
L2C RFO       ACCESS:     362515  HIT:         35  MISS:     362480  HIT %: 0.00965477  MISS %:    99.9903   MPKI: 1.81204
L2C PREFETCH  ACCESS:   11239646  HIT:    7264979  MISS:    3974667  HIT %:    64.6371  MISS %:    35.3629   MPKI: 19.8694
L2C WRITEBACK ACCESS:     542517  HIT:     500632  MISS:      41885  HIT %:    92.2795  MISS %:     7.7205   MPKI: 0.209384
PSCL5 TOTAL     ACCESS:     800125  HIT:     800125  MISS:          0  HIT %:        100  MISS %:          0   MPKI: 0
PSCL5 LOAD      ACCESS:          0  HIT:          0  MISS:          0  HIT %:       -nan  MISS %:       -nan   MPKI: 0
PSCL5 RFO       ACCESS:          0  HIT:          0  MISS:          0  HIT %:       -nan  MISS %:       -nan   MPKI: 0
PSCL5 PREFETCH  ACCESS:          0  HIT:          0  MISS:          0  HIT %:       -nan  MISS %:       -nan   MPKI: 0
PSCL5 WRITEBACK ACCESS:          0  HIT:          0  MISS:          0  HIT %:       -nan  MISS %:       -nan   MPKI: 0
PSCL4 TOTAL     ACCESS:     800125  HIT:     800125  MISS:          0  HIT %:        100  MISS %:          0   MPKI: 0
PSCL4 LOAD      ACCESS:          0  HIT:          0  MISS:          0  HIT %:       -nan  MISS %:       -nan   MPKI: 0
PSCL4 RFO       ACCESS:          0  HIT:          0  MISS:          0  HIT %:       -nan  MISS %:       -nan   MPKI: 0
PSCL4 PREFETCH  ACCESS:          0  HIT:          0  MISS:          0  HIT %:       -nan  MISS %:       -nan   MPKI: 0
PSCL4 WRITEBACK ACCESS:          0  HIT:          0  MISS:          0  HIT %:       -nan  MISS %:       -nan   MPKI: 0
PSCL3 TOTAL     ACCESS:     800125  HIT:     800125  MISS:          0  HIT %:        100  MISS %:          0   MPKI: 0
PSCL3 LOAD      ACCESS:          0  HIT:          0  MISS:          0  HIT %:       -nan  MISS %:       -nan   MPKI: 0
PSCL3 RFO       ACCESS:          0  HIT:          0  MISS:          0  HIT %:       -nan  MISS %:       -nan   MPKI: 0
PSCL3 PREFETCH  ACCESS:          0  HIT:          0  MISS:          0  HIT %:       -nan  MISS %:       -nan   MPKI: 0
PSCL3 WRITEBACK ACCESS:          0  HIT:          0  MISS:          0  HIT %:       -nan  MISS %:       -nan   MPKI: 0
PSCL2 TOTAL     ACCESS:     798579  HIT:     798370  MISS:        209  HIT %:    99.9738  MISS %:  0.0261715   MPKI: 0.00104479
PSCL2 LOAD      ACCESS:          0  HIT:          0  MISS:          0  HIT %:       -nan  MISS %:       -nan   MPKI: 0
PSCL2 RFO       ACCESS:          0  HIT:          0  MISS:          0  HIT %:       -nan  MISS %:       -nan   MPKI: 0
PSCL2 PREFETCH  ACCESS:          0  HIT:          0  MISS:          0  HIT %:       -nan  MISS %:       -nan   MPKI: 0
PSCL2 WRITEBACK ACCESS:          0  HIT:          0  MISS:          0  HIT %:       -nan  MISS %:       -nan   MPKI: 0
LLC TOTAL     ACCESS:    7325315  HIT:    1805142  MISS:    5520173  HIT %:    24.6425  MISS %:    75.3575   MPKI: 27.5954
LLC LOAD      ACCESS:    2278968  HIT:    1202939  MISS:    1076029  HIT %:    52.7844  MISS %:    47.2156   MPKI: 5.37909
LLC RFO       ACCESS:     362480  HIT:        160  MISS:     362320  HIT %:  0.0441404  MISS %:    99.9559   MPKI: 1.81124
LLC PREFETCH  ACCESS:    4129237  HIT:      79602  MISS:    4049635  HIT %:    1.92777  MISS %:    98.0722   MPKI: 20.2442
LLC WRITEBACK ACCESS:     542245  HIT:     521524  MISS:      20721  HIT %:    96.1787  MISS %:    3.82134   MPKI: 0.103585

RAW hits: 646
Loads Generated: 49133978
Loads sent to L1D: 49133332
Stores Generated: 10367237
Stores sent to L1D: 10367238

CPU 3 cumulative IPC: 0.341719 instructions: 200098539 cycles: 585563857
ITLB TOTAL     ACCESS:   35426056  HIT:   35426046  MISS:         10  HIT %:        100  MISS %: 2.82278e-05   MPKI: 4.99754e-05
ITLB LOAD      ACCESS:          0  HIT:          0  MISS:          0  HIT %:       -nan  MISS %:       -nan   MPKI: 0
ITLB RFO       ACCESS:          0  HIT:          0  MISS:          0  HIT %:       -nan  MISS %:       -nan   MPKI: 0
ITLB PREFETCH  ACCESS:          0  HIT:          0  MISS:          0  HIT %:       -nan  MISS %:       -nan   MPKI: 0
ITLB WRITEBACK ACCESS:          0  HIT:          0  MISS:          0  HIT %:       -nan  MISS %:       -nan   MPKI: 0
DTLB TOTAL     ACCESS:   39152994  HIT:   37237523  MISS:    1915471  HIT %:    95.1077  MISS %:    4.89227   MPKI: 9.57264
DTLB LOAD      ACCESS:          0  HIT:          0  MISS:          0  HIT %:       -nan  MISS %:       -nan   MPKI: 0
DTLB RFO       ACCESS:          0  HIT:          0  MISS:          0  HIT %:       -nan  MISS %:       -nan   MPKI: 0
DTLB PREFETCH  ACCESS:          0  HIT:          0  MISS:          0  HIT %:       -nan  MISS %:       -nan   MPKI: 0
DTLB WRITEBACK ACCESS:          0  HIT:          0  MISS:          0  HIT %:       -nan  MISS %:       -nan   MPKI: 0
STLB TOTAL     ACCESS:   17711738  HIT:   17623890  MISS:      87848  HIT %:     99.504  MISS %:   0.495987   MPKI: 0.439024
STLB LOAD      ACCESS:          0  HIT:          0  MISS:          0  HIT %:       -nan  MISS %:       -nan   MPKI: 0
STLB RFO       ACCESS:          0  HIT:          0  MISS:          0  HIT %:       -nan  MISS %:       -nan   MPKI: 0
STLB PREFETCH  ACCESS:          0  HIT:          0  MISS:          0  HIT %:       -nan  MISS %:       -nan   MPKI: 0
STLB WRITEBACK ACCESS:          0  HIT:          0  MISS:          0  HIT %:       -nan  MISS %:       -nan   MPKI: 0
L1D TOTAL     ACCESS:  114499701  HIT:  107784690  MISS:    6715011  HIT %:    94.1353  MISS %:    5.86465   MPKI: 33.5585
L1D LOAD      ACCESS:   32099817  HIT:   28569292  MISS:    3530525  HIT %:    89.0014  MISS %:    10.9986   MPKI: 17.6439
L1D RFO       ACCESS:    7131529  HIT:    6768998  MISS:     362531  HIT %:    94.9165  MISS %:     5.0835   MPKI: 1.81176
L1D PREFETCH  ACCESS:   75268355  HIT:   72446400  MISS:    2821955  HIT %:    96.2508  MISS %:    3.74919   MPKI: 14.1028
L1D WRITEBACK ACCESS:          0  HIT:          0  MISS:          0  HIT %:       -nan  MISS %:       -nan   MPKI: 0
L1I TOTAL     ACCESS:   39939117  HIT:   39938971  MISS:        146  HIT %:    99.9996  MISS %: 0.000365556   MPKI: 0.000729641
L1I LOAD      ACCESS:   39939117  HIT:   39938971  MISS:        146  HIT %:    99.9996  MISS %: 0.000365556   MPKI: 0.000729641
L1I RFO       ACCESS:          0  HIT:          0  MISS:          0  HIT %:       -nan  MISS %:       -nan   MPKI: 0
L1I PREFETCH  ACCESS:          0  HIT:          0  MISS:          0  HIT %:       -nan  MISS %:       -nan   MPKI: 0
L1I WRITEBACK ACCESS:          0  HIT:          0  MISS:          0  HIT %:       -nan  MISS %:       -nan   MPKI: 0
L2C TOTAL     ACCESS:   16388286  HIT:    9538627  MISS:    6849659  HIT %:    58.2039  MISS %:    41.7961   MPKI: 34.2314
L2C LOAD      ACCESS:    3442983  HIT:     989679  MISS:    2453304  HIT %:    28.7448  MISS %:    71.2552   MPKI: 12.2605
L2C RFO       ACCESS:     362531  HIT:         40  MISS:     362491  HIT %:  0.0110335  MISS %:     99.989   MPKI: 1.81156
L2C PREFETCH  ACCESS:   11251228  HIT:    7271433  MISS:    3979795  HIT %:    64.6279  MISS %:    35.3721   MPKI: 19.8892
L2C WRITEBACK ACCESS:     542567  HIT:     500795  MISS:      41772  HIT %:     92.301  MISS %:    7.69896   MPKI: 0.208757
PSCL5 TOTAL     ACCESS:     788744  HIT:     788744  MISS:          0  HIT %:        100  MISS %:          0   MPKI: 0
PSCL5 LOAD      ACCESS:          0  HIT:          0  MISS:          0  HIT %:       -nan  MISS %:       -nan   MPKI: 0
PSCL5 RFO       ACCESS:          0  HIT:          0  MISS:          0  HIT %:       -nan  MISS %:       -nan   MPKI: 0
PSCL5 PREFETCH  ACCESS:          0  HIT:          0  MISS:          0  HIT %:       -nan  MISS %:       -nan   MPKI: 0
PSCL5 WRITEBACK ACCESS:          0  HIT:          0  MISS:          0  HIT %:       -nan  MISS %:       -nan   MPKI: 0
PSCL4 TOTAL     ACCESS:     788744  HIT:     788744  MISS:          0  HIT %:        100  MISS %:          0   MPKI: 0
PSCL4 LOAD      ACCESS:          0  HIT:          0  MISS:          0  HIT %:       -nan  MISS %:       -nan   MPKI: 0
PSCL4 RFO       ACCESS:          0  HIT:          0  MISS:          0  HIT %:       -nan  MISS %:       -nan   MPKI: 0
PSCL4 PREFETCH  ACCESS:          0  HIT:          0  MISS:          0  HIT %:       -nan  MISS %:       -nan   MPKI: 0
PSCL4 WRITEBACK ACCESS:          0  HIT:          0  MISS:          0  HIT %:       -nan  MISS %:       -nan   MPKI: 0
PSCL3 TOTAL     ACCESS:     788744  HIT:     788744  MISS:          0  HIT %:        100  MISS %:          0   MPKI: 0
PSCL3 LOAD      ACCESS:          0  HIT:          0  MISS:          0  HIT %:       -nan  MISS %:       -nan   MPKI: 0
PSCL3 RFO       ACCESS:          0  HIT:          0  MISS:          0  HIT %:       -nan  MISS %:       -nan   MPKI: 0
PSCL3 PREFETCH  ACCESS:          0  HIT:          0  MISS:          0  HIT %:       -nan  MISS %:       -nan   MPKI: 0
PSCL3 WRITEBACK ACCESS:          0  HIT:          0  MISS:          0  HIT %:       -nan  MISS %:       -nan   MPKI: 0
PSCL2 TOTAL     ACCESS:     787292  HIT:     787083  MISS:        209  HIT %:    99.9735  MISS %:  0.0265467   MPKI: 0.00104449
PSCL2 LOAD      ACCESS:          0  HIT:          0  MISS:          0  HIT %:       -nan  MISS %:       -nan   MPKI: 0
PSCL2 RFO       ACCESS:          0  HIT:          0  MISS:          0  HIT %:       -nan  MISS %:       -nan   MPKI: 0
PSCL2 PREFETCH  ACCESS:          0  HIT:          0  MISS:          0  HIT %:       -nan  MISS %:       -nan   MPKI: 0
PSCL2 WRITEBACK ACCESS:          0  HIT:          0  MISS:          0  HIT %:       -nan  MISS %:       -nan   MPKI: 0
LLC TOTAL     ACCESS:    7350259  HIT:    1827153  MISS:    5523106  HIT %:    24.8583  MISS %:    75.1417   MPKI: 27.6019
LLC LOAD      ACCESS:    2298926  HIT:    1222942  MISS:    1075984  HIT %:    53.1962  MISS %:    46.8038   MPKI: 5.37727
LLC RFO       ACCESS:     362491  HIT:        146  MISS:     362345  HIT %:  0.0402769  MISS %:    99.9597   MPKI: 1.81083
LLC PREFETCH  ACCESS:    4134173  HIT:      80905  MISS:    4053268  HIT %:    1.95698  MISS %:     98.043   MPKI: 20.2564
LLC WRITEBACK ACCESS:     542372  HIT:     522345  MISS:      20027  HIT %:    96.3075  MISS %:    3.69248   MPKI: 0.100086

RAW hits: 646
Loads Generated: 49151329
Loads sent to L1D: 49150682
Stores Generated: 10368467
Stores sent to L1D: 10368471

Region of Interest Statistics

CPU 0 cumulative IPC: 0.341551 instructions: 200000001 cycles: 585563857
ITLB TOTAL     ACCESS:   35404112  HIT:   35404102  MISS:         10  HIT %:        100  MISS %: 2.82453e-05   MPKI: 5e-05
ITLB LOAD TRANSLATION ACCESS:   35404112  HIT:   35404102  MISS:         10  HIT %:        100  MISS %: 2.82453e-05   MPKI: 5e-05
ITLB PREFETCH  REQUESTED:          0  ISSUED:          0  USEFUL:          0  USELESS:          0
ITLB USEFUL LOAD PREFETCHES:          0 PREFETCH ISSUED TO LOWER LEVEL:          0  ACCURACY: -nan
ITLB TIMELY PREFETCHES:          0 LATE PREFETCHES: 0 DROPPED PREFETCHES: 0
ITLB PREFETCHES SAME FILL-ORIGIN LEVEL: 0 DIFFERENT FILL-ORIGIN LEVEL: 0
ITLB AVERAGE MISS LATENCY: 417.3 cycles
ITLB RQ	ACCESS:   39915278	FORWARD:          0	MERGED:    4511165	TO_CACHE:   35404113

DTLB TOTAL     ACCESS:   39133756  HIT:   37221558  MISS:    1912198  HIT %:    95.1137  MISS %:    4.88631   MPKI: 9.56099
DTLB LOAD TRANSLATION ACCESS:   39133756  HIT:   37221558  MISS:    1912198  HIT %:    95.1137  MISS %:    4.88631   MPKI: 9.56099
DTLB PREFETCH  REQUESTED:          0  ISSUED:          0  USEFUL:          0  USELESS:          0
DTLB USEFUL LOAD PREFETCHES:          0 PREFETCH ISSUED TO LOWER LEVEL:          0  ACCURACY: -nan
DTLB TIMELY PREFETCHES:          0 LATE PREFETCHES: 0 DROPPED PREFETCHES: 0
DTLB PREFETCHES SAME FILL-ORIGIN LEVEL: 0 DIFFERENT FILL-ORIGIN LEVEL: 0
DTLB AVERAGE MISS LATENCY: 15.2672 cycles
DTLB RQ	ACCESS:   42612975	FORWARD:          0	MERGED:    3403786	TO_CACHE:   39209189

STLB TOTAL     ACCESS:   17690607  HIT:   17603238  MISS:      87369  HIT %:    99.5061  MISS %:   0.493872   MPKI: 0.436845
STLB LOAD TRANSLATION ACCESS:    1912208  HIT:    1848022  MISS:      64186  HIT %:    96.6434  MISS %:    3.35664   MPKI: 0.32093
STLB TRANSLATION FROM L1D PREFETCHER ACCESS:   15778399  HIT:   15755216  MISS:      23183  HIT %:    99.8531  MISS %:   0.146929   MPKI: 0.115915
STLB PREFETCH  REQUESTED:          0  ISSUED:          0  USEFUL:      23107  USELESS:         76
STLB USEFUL LOAD PREFETCHES:      23107 PREFETCH ISSUED TO LOWER LEVEL:          0  ACCURACY: inf
STLB TIMELY PREFETCHES:      23107 LATE PREFETCHES: 5889 DROPPED PREFETCHES: 699796
STLB PREFETCHES SAME FILL-ORIGIN LEVEL: 0 DIFFERENT FILL-ORIGIN LEVEL: 0
STLB AVERAGE MISS LATENCY: 149.496 cycles
STLB RQ	ACCESS:   99487951	FORWARD:          0	MERGED:   81046171	TO_CACHE:   18441780

STLB Hit, L1D data hit: 0
STLB Hit, L2C data hit: 0
STLB Hit, LLC data hit: 0
STLB Hit, LLC data miss: 0
STLB STLB hints to L2: 0
L1D TOTAL     ACCESS:  114477000  HIT:  107766712  MISS:    6710288  HIT %:    94.1383  MISS %:    5.86169   MPKI: 33.5514
L1D LOAD      ACCESS:   32080736  HIT:   28554336  MISS:    3526400  HIT %:    89.0077  MISS %:    10.9923   MPKI: 17.632
L1D RFO       ACCESS:    7122442  HIT:    6759940  MISS:     362502  HIT %:    94.9104  MISS %:    5.08957   MPKI: 1.81251
L1D PREFETCH  ACCESS:   75273822  HIT:   72452436  MISS:    2821386  HIT %:    96.2518  MISS %:    3.74816   MPKI: 14.1069
L1D PREFETCH  REQUESTED:  343200215  ISSUED:  312044068  USEFUL:    2552259  USELESS:     269090
L1D USEFUL LOAD PREFETCHES:    2552259 PREFETCH ISSUED TO LOWER LEVEL:   14551700  ACCURACY: 17.5392
L1D TIMELY PREFETCHES:    2552259 LATE PREFETCHES: 87370 DROPPED PREFETCHES: 2662233
L1D PREFETCHES SAME FILL-ORIGIN LEVEL: 2908934 DIFFERENT FILL-ORIGIN LEVEL: 11642766
L1D AVERAGE MISS LATENCY: 253.604 cycles
L1D RQ	ACCESS:   49121989	FORWARD:          0	MERGED:   16724280	TO_CACHE:   32397704
L1D WQ	ACCESS:   10366144	FORWARD:          5	MERGED:     150873	TO_CACHE:   10215271
L1D PQ	ACCESS:  214468325	FORWARD:          0	MERGED:  116892582	TO_CACHE:   97575743

L1D UNIQUE REGIONS ACCESSED: 0
L1D REGIONS CONFLICTS: 0
L1D Cross Page Prefetch Requests: 17651458
L1D Same Page Prefetch Requests: 239229845
L1D ROI Sum of L1D PQ occupancy: 1460870631
L1D PREFETCHES PUSHED FROM L2C: 0
L1I TOTAL     ACCESS:   39915263  HIT:   39915117  MISS:        146  HIT %:    99.9996  MISS %: 0.000365775   MPKI: 0.00073
L1I LOAD      ACCESS:   39915263  HIT:   39915117  MISS:        146  HIT %:    99.9996  MISS %: 0.000365775   MPKI: 0.00073
L1I PREFETCH  REQUESTED:          0  ISSUED:          0  USEFUL:          0  USELESS:          0
L1I USEFUL LOAD PREFETCHES:          0 PREFETCH ISSUED TO LOWER LEVEL:          0  ACCURACY: -nan
L1I TIMELY PREFETCHES:          0 LATE PREFETCHES: 0 DROPPED PREFETCHES: 0
L1I PREFETCHES SAME FILL-ORIGIN LEVEL: 0 DIFFERENT FILL-ORIGIN LEVEL: 0
L1I AVERAGE MISS LATENCY: 319.521 cycles
L1I RQ	ACCESS:   60806329	FORWARD:          0	MERGED:   20891051	TO_CACHE:   39915278

BTB TOTAL     ACCESS:   46914210  HIT:   46914006  MISS:        204  HIT %:    99.9996  MISS %: 0.000434836   MPKI: 0.00102
BTB BRANCH_DIRECT_JUMP	ACCESS:    1403520  HIT:    1403487  MISS:         33
BTB BRANCH_INDIRECT	ACCESS:          0  HIT:          0  MISS:          0
BTB BRANCH_CONDITIONAL	ACCESS:   45510610  HIT:   45510499  MISS:        111
BTB BRANCH_DIRECT_CALL	ACCESS:         40  HIT:         11  MISS:         29
BTB BRANCH_INDIRECT_CALL	ACCESS:          0  HIT:          0  MISS:          0
BTB BRANCH_RETURN	ACCESS:         40  HIT:          9  MISS:         31
BTB BRANCH_OTHER ACCESS:          0  HIT:          0  MISS:          0

L2C TOTAL     ACCESS:   16384263  HIT:    9532373  MISS:    6851890  HIT %:    58.1801  MISS %:    41.8199   MPKI: 34.2594
L2C LOAD      ACCESS:    3439176  HIT:     982181  MISS:    2456995  HIT %:    28.5586  MISS %:    71.4414   MPKI: 12.285
L2C DATA LOAD MPKI: 12.2842
L2C INSTRUCTION LOAD MPKI: 0.00073
L2C RFO       ACCESS:     362502  HIT:         14  MISS:     362488  HIT %: 0.00386205  MISS %:    99.9961   MPKI: 1.81244
L2C PREFETCH  ACCESS:   11247136  HIT:    7268594  MISS:    3978542  HIT %:    64.6262  MISS %:    35.3738   MPKI: 19.8927
L2C DATA PREFETCH MPKI: 19.8927
L2C INSTRUCTION PREFETCH MPKI: 0
L2C WRITEBACK ACCESS:     542442  HIT:     500852  MISS:      41590  HIT %:    92.3328  MISS %:    7.66718   MPKI: 0.20795
L2C LOAD TRANSLATION ACCESS:      63971  HIT:      60346  MISS:       3625  HIT %:    94.3334  MISS %:    5.66663   MPKI: 0.018125
L2C TRANSLATION FROM L1D PREFETCHER ACCESS:     729036  HIT:     720386  MISS:       8650  HIT %:    98.8135  MISS %:     1.1865   MPKI: 0.04325
L2C PREFETCH  REQUESTED:          0  ISSUED:          0  USEFUL:     396393  USELESS:    3590056
L2C USEFUL LOAD PREFETCHES:     396393 PREFETCH ISSUED TO LOWER LEVEL:    4133350  ACCURACY: 9.59011
L2C TIMELY PREFETCHES:     396393 LATE PREFETCHES: 154808 DROPPED PREFETCHES: 0
L2C PREFETCHES SAME FILL-ORIGIN LEVEL: 1988458 DIFFERENT FILL-ORIGIN LEVEL: 0
L2C AVERAGE MISS LATENCY: 366.83 cycles
L2C RQ	ACCESS:    4594685	FORWARD:          0	MERGED:          0	TO_CACHE:    4594685
L2C WQ	ACCESS:     542442	FORWARD:          0	MERGED:          0	TO_CACHE:     542442
L2C PQ	ACCESS:   14489248	FORWARD:          0	MERGED:      59861	TO_CACHE:   14429387

L2C Instructions Evicting Data 146
L2C Translations Evicting Data 12260
L2C Data Evicting Data 6785620
L2C Instructions Evicting Instructions 0
L2C Translations Evicting Instructions 0
L2C Data Evicting Instructions 145
L2C Instructions Evicting Translations 0
L2C Translations Evicting Translations 15
L2C Data Evicting Translations 12114
L2C Dense regions hint from L2: 0
PSCL5 TOTAL     ACCESS:     792790  HIT:     792790  MISS:          0  HIT %:        100  MISS %:          0   MPKI: 0
PSCL5 LOAD TRANSLATION ACCESS:      63922  HIT:      63922  MISS:          0  HIT %:        100  MISS %:          0   MPKI: 0
PSCL5 TRANSLATION FROM L1D PREFETCHER ACCESS:     728868  HIT:     728868  MISS:          0  HIT %:        100  MISS %:          0   MPKI: 0
PSCL5 PREFETCH  REQUESTED:          0  ISSUED:          0  USEFUL:          0  USELESS:          0
PSCL5 USEFUL LOAD PREFETCHES:          0 PREFETCH ISSUED TO LOWER LEVEL:          0  ACCURACY: -nan
PSCL5 TIMELY PREFETCHES:          0 LATE PREFETCHES: 0 DROPPED PREFETCHES: 0
PSCL5 PREFETCHES SAME FILL-ORIGIN LEVEL: 0 DIFFERENT FILL-ORIGIN LEVEL: 0

PSCL4 TOTAL     ACCESS:     792790  HIT:     792790  MISS:          0  HIT %:        100  MISS %:          0   MPKI: 0
PSCL4 LOAD TRANSLATION ACCESS:      63922  HIT:      63922  MISS:          0  HIT %:        100  MISS %:          0   MPKI: 0
PSCL4 TRANSLATION FROM L1D PREFETCHER ACCESS:     728868  HIT:     728868  MISS:          0  HIT %:        100  MISS %:          0   MPKI: 0
PSCL4 PREFETCH  REQUESTED:          0  ISSUED:          0  USEFUL:          0  USELESS:          0
PSCL4 USEFUL LOAD PREFETCHES:          0 PREFETCH ISSUED TO LOWER LEVEL:          0  ACCURACY: -nan
PSCL4 TIMELY PREFETCHES:          0 LATE PREFETCHES: 0 DROPPED PREFETCHES: 0
PSCL4 PREFETCHES SAME FILL-ORIGIN LEVEL: 0 DIFFERENT FILL-ORIGIN LEVEL: 0

PSCL3 TOTAL     ACCESS:     792790  HIT:     792790  MISS:          0  HIT %:        100  MISS %:          0   MPKI: 0
PSCL3 LOAD TRANSLATION ACCESS:      63922  HIT:      63922  MISS:          0  HIT %:        100  MISS %:          0   MPKI: 0
PSCL3 TRANSLATION FROM L1D PREFETCHER ACCESS:     728868  HIT:     728868  MISS:          0  HIT %:        100  MISS %:          0   MPKI: 0
PSCL3 PREFETCH  REQUESTED:          0  ISSUED:          0  USEFUL:          0  USELESS:          0
PSCL3 USEFUL LOAD PREFETCHES:          0 PREFETCH ISSUED TO LOWER LEVEL:          0  ACCURACY: -nan
PSCL3 TIMELY PREFETCHES:          0 LATE PREFETCHES: 0 DROPPED PREFETCHES: 0
PSCL3 PREFETCHES SAME FILL-ORIGIN LEVEL: 0 DIFFERENT FILL-ORIGIN LEVEL: 0

PSCL2 TOTAL     ACCESS:     789944  HIT:     789735  MISS:        209  HIT %:    99.9735  MISS %:  0.0264576   MPKI: 0.001045
PSCL2 LOAD TRANSLATION ACCESS:      63972  HIT:      63763  MISS:        209  HIT %:    99.6733  MISS %:   0.326705   MPKI: 0.001045
PSCL2 TRANSLATION FROM L1D PREFETCHER ACCESS:     725972  HIT:     725972  MISS:          0  HIT %:        100  MISS %:          0   MPKI: 0
PSCL2 PREFETCH  REQUESTED:          0  ISSUED:          0  USEFUL:          0  USELESS:          0
PSCL2 USEFUL LOAD PREFETCHES:          0 PREFETCH ISSUED TO LOWER LEVEL:          0  ACCURACY: -nan
PSCL2 TIMELY PREFETCHES:          0 LATE PREFETCHES: 0 DROPPED PREFETCHES: 0
PSCL2 PREFETCHES SAME FILL-ORIGIN LEVEL: 0 DIFFERENT FILL-ORIGIN LEVEL: 0

LLC TOTAL     ACCESS:    7352413  HIT:    1833342  MISS:    5519071  HIT %:    24.9352  MISS %:    75.0648   MPKI: 27.5954
LLC LOAD      ACCESS:    2302187  HIT:    1227430  MISS:    1074757  HIT %:    53.3158  MISS %:    46.6842   MPKI: 5.37378
LLC RFO       ACCESS:     362488  HIT:         96  MISS:     362392  HIT %:  0.0264836  MISS %:    99.9735   MPKI: 1.81196
LLC PREFETCH  ACCESS:    4133350  HIT:      83276  MISS:    4050074  HIT %:    2.01473  MISS %:    97.9853   MPKI: 20.2504
LLC WRITEBACK ACCESS:     542113  HIT:     521720  MISS:      20393  HIT %:    96.2382  MISS %:    3.76176   MPKI: 0.101965
LLC LOAD TRANSLATION ACCESS:       3625  HIT:        498  MISS:       3127  HIT %:    13.7379  MISS %:    86.2621   MPKI: 0.015635
LLC TRANSLATION FROM L1D PREFETCHER ACCESS:       8650  HIT:        322  MISS:       8328  HIT %:    3.72254  MISS %:    96.2775   MPKI: 0.04164
LLC PREFETCH  REQUESTED:          0  ISSUED:          0  USEFUL:      73687  USELESS:   16156547
LLC USEFUL LOAD PREFETCHES:      73687 PREFETCH ISSUED TO LOWER LEVEL:   80194974  ACCURACY: 0.0918848
LLC TIMELY PREFETCHES:      73687 LATE PREFETCHES: 0 DROPPED PREFETCHES: 0
LLC PREFETCHES SAME FILL-ORIGIN LEVEL: 0 DIFFERENT FILL-ORIGIN LEVEL: 0
LLC AVERAGE MISS LATENCY: 1679.98 cycles
LLC RQ	ACCESS:   10670790	FORWARD:          0	MERGED:          0	TO_CACHE:   10670790
LLC WQ	ACCESS:    2168978	FORWARD:          0	MERGED:          0	TO_CACHE:    2168978
LLC PQ	ACCESS:   16530516	FORWARD:          0	MERGED:          0	TO_CACHE:   16530516

LLC Dense regions hint to LLC: 0

RAW hits: 646
Loads Generated: 49122635
Loads sent to L1D: 49121989
Stores Generated: 10366144
Stores sent to L1D: 10366144
Major fault: 0 Minor fault: 66852
Allocated PAGES: 267408

CPU 1 cumulative IPC: 0.341683 instructions: 200000000 cycles: 585338019
ITLB TOTAL     ACCESS:   35403488  HIT:   35403478  MISS:         10  HIT %:        100  MISS %: 2.82458e-05   MPKI: 5e-05
ITLB LOAD TRANSLATION ACCESS:   35403488  HIT:   35403478  MISS:         10  HIT %:        100  MISS %: 2.82458e-05   MPKI: 5e-05
ITLB PREFETCH  REQUESTED:          0  ISSUED:          0  USEFUL:          0  USELESS:          0
ITLB USEFUL LOAD PREFETCHES:          0 PREFETCH ISSUED TO LOWER LEVEL:          0  ACCURACY: -nan
ITLB TIMELY PREFETCHES:          0 LATE PREFETCHES: 0 DROPPED PREFETCHES: 0
ITLB PREFETCHES SAME FILL-ORIGIN LEVEL: 0 DIFFERENT FILL-ORIGIN LEVEL: 0
ITLB AVERAGE MISS LATENCY: 431.6 cycles
ITLB RQ	ACCESS:   39921779	FORWARD:          0	MERGED:    4511776	TO_CACHE:   35410003

DTLB TOTAL     ACCESS:   39131133  HIT:   37218956  MISS:    1912177  HIT %:    95.1134  MISS %:    4.88659   MPKI: 9.56089
DTLB LOAD TRANSLATION ACCESS:   39131133  HIT:   37218956  MISS:    1912177  HIT %:    95.1134  MISS %:    4.88659   MPKI: 9.56089
DTLB PREFETCH  REQUESTED:          0  ISSUED:          0  USEFUL:          0  USELESS:          0
DTLB USEFUL LOAD PREFETCHES:          0 PREFETCH ISSUED TO LOWER LEVEL:          0  ACCURACY: -nan
DTLB TIMELY PREFETCHES:          0 LATE PREFETCHES: 0 DROPPED PREFETCHES: 0
DTLB PREFETCHES SAME FILL-ORIGIN LEVEL: 0 DIFFERENT FILL-ORIGIN LEVEL: 0
DTLB AVERAGE MISS LATENCY: 15.2233 cycles
DTLB RQ	ACCESS:   42618509	FORWARD:          0	MERGED:    3404714	TO_CACHE:   39213795

STLB TOTAL     ACCESS:   17680887  HIT:   17593532  MISS:      87355  HIT %:    99.5059  MISS %:   0.494065   MPKI: 0.436775
STLB LOAD TRANSLATION ACCESS:    1912187  HIT:    1848086  MISS:      64101  HIT %:    96.6478  MISS %:    3.35223   MPKI: 0.320505
STLB TRANSLATION FROM L1D PREFETCHER ACCESS:   15768700  HIT:   15745446  MISS:      23254  HIT %:    99.8525  MISS %:   0.147469   MPKI: 0.11627
STLB PREFETCH  REQUESTED:          0  ISSUED:          0  USEFUL:      23168  USELESS:         95
STLB USEFUL LOAD PREFETCHES:      23168 PREFETCH ISSUED TO LOWER LEVEL:          0  ACCURACY: inf
STLB TIMELY PREFETCHES:      23168 LATE PREFETCHES: 6051 DROPPED PREFETCHES: 708771
STLB PREFETCHES SAME FILL-ORIGIN LEVEL: 0 DIFFERENT FILL-ORIGIN LEVEL: 0
STLB AVERAGE MISS LATENCY: 148.988 cycles
STLB RQ	ACCESS:   99455337	FORWARD:          0	MERGED:   81010341	TO_CACHE:   18444996

STLB Hit, L1D data hit: 0
STLB Hit, L2C data hit: 0
STLB Hit, LLC data hit: 0
STLB Hit, LLC data miss: 0
STLB STLB hints to L2: 0
L1D TOTAL     ACCESS:  114413084  HIT:  107705215  MISS:    6707869  HIT %:    94.1371  MISS %:    5.86285   MPKI: 33.5393
L1D LOAD      ACCESS:   32079032  HIT:   28551706  MISS:    3527326  HIT %:    89.0043  MISS %:    10.9957   MPKI: 17.6366
L1D RFO       ACCESS:    7125922  HIT:    6763420  MISS:     362502  HIT %:    94.9129  MISS %:    5.08709   MPKI: 1.81251
L1D PREFETCH  ACCESS:   75208130  HIT:   72390089  MISS:    2818041  HIT %:     96.253  MISS %:    3.74699   MPKI: 14.0902
L1D PREFETCH  REQUESTED:  343239862  ISSUED:  311807388  USEFUL:    2551626  USELESS:     266904
L1D USEFUL LOAD PREFETCHES:    2551626 PREFETCH ISSUED TO LOWER LEVEL:   14563731  ACCURACY: 17.5204
L1D TIMELY PREFETCHES:    2551626 LATE PREFETCHES: 87450 DROPPED PREFETCHES: 2671139
L1D PREFETCHES SAME FILL-ORIGIN LEVEL: 2905981 DIFFERENT FILL-ORIGIN LEVEL: 11657750
L1D AVERAGE MISS LATENCY: 253.269 cycles
L1D RQ	ACCESS:   49130839	FORWARD:          0	MERGED:   16728703	TO_CACHE:   32402131
L1D WQ	ACCESS:   10367040	FORWARD:          5	MERGED:     150662	TO_CACHE:   10216378
L1D PQ	ACCESS:  214265262	FORWARD:          0	MERGED:  116723136	TO_CACHE:   97542126

L1D UNIQUE REGIONS ACCESSED: 0
L1D REGIONS CONFLICTS: 0
L1D Cross Page Prefetch Requests: 17660351
L1D Same Page Prefetch Requests: 239018620
L1D ROI Sum of L1D PQ occupancy: 1462008867
L1D PREFETCHES PUSHED FROM L2C: 0
L1I TOTAL     ACCESS:   39914491  HIT:   39914345  MISS:        146  HIT %:    99.9996  MISS %: 0.000365782   MPKI: 0.00073
L1I LOAD      ACCESS:   39914491  HIT:   39914345  MISS:        146  HIT %:    99.9996  MISS %: 0.000365782   MPKI: 0.00073
L1I PREFETCH  REQUESTED:          0  ISSUED:          0  USEFUL:          0  USELESS:          0
L1I USEFUL LOAD PREFETCHES:          0 PREFETCH ISSUED TO LOWER LEVEL:          0  ACCURACY: -nan
L1I TIMELY PREFETCHES:          0 LATE PREFETCHES: 0 DROPPED PREFETCHES: 0
L1I PREFETCHES SAME FILL-ORIGIN LEVEL: 0 DIFFERENT FILL-ORIGIN LEVEL: 0
L1I AVERAGE MISS LATENCY: 295.062 cycles
L1I RQ	ACCESS:   60813948	FORWARD:          0	MERGED:   20892169	TO_CACHE:   39921779

BTB TOTAL     ACCESS:   46914192  HIT:   46913988  MISS:        204  HIT %:    99.9996  MISS %: 0.000434836   MPKI: 0.00102
BTB BRANCH_DIRECT_JUMP	ACCESS:    1403523  HIT:    1403490  MISS:         33
BTB BRANCH_INDIRECT	ACCESS:          0  HIT:          0  MISS:          0
BTB BRANCH_CONDITIONAL	ACCESS:   45510589  HIT:   45510478  MISS:        111
BTB BRANCH_DIRECT_CALL	ACCESS:         40  HIT:         11  MISS:         29
BTB BRANCH_INDIRECT_CALL	ACCESS:          0  HIT:          0  MISS:          0
BTB BRANCH_RETURN	ACCESS:         40  HIT:          9  MISS:         31
BTB BRANCH_OTHER ACCESS:          0  HIT:          0  MISS:          0

L2C TOTAL     ACCESS:   16396837  HIT:    9556527  MISS:    6840310  HIT %:    58.2827  MISS %:    41.7173   MPKI: 34.2015
L2C LOAD      ACCESS:    3440022  HIT:     995084  MISS:    2444938  HIT %:    28.9267  MISS %:    71.0733   MPKI: 12.2247
L2C DATA LOAD MPKI: 12.224
L2C INSTRUCTION LOAD MPKI: 0.00073
L2C RFO       ACCESS:     362502  HIT:         22  MISS:     362480  HIT %: 0.00606893  MISS %:    99.9939   MPKI: 1.8124
L2C PREFETCH  ACCESS:   11249733  HIT:    7271090  MISS:    3978643  HIT %:    64.6334  MISS %:    35.3666   MPKI: 19.8932
L2C DATA PREFETCH MPKI: 19.8932
L2C INSTRUCTION PREFETCH MPKI: 0
L2C WRITEBACK ACCESS:     542439  HIT:     500476  MISS:      41963  HIT %:     92.264  MISS %:    7.73599   MPKI: 0.209815
L2C LOAD TRANSLATION ACCESS:      63889  HIT:      60280  MISS:       3609  HIT %:    94.3511  MISS %:    5.64886   MPKI: 0.018045
L2C TRANSLATION FROM L1D PREFETCHER ACCESS:     738252  HIT:     729575  MISS:       8677  HIT %:    98.8247  MISS %:    1.17534   MPKI: 0.043385
L2C PREFETCH  REQUESTED:          0  ISSUED:          0  USEFUL:     397634  USELESS:    3589230
L2C USEFUL LOAD PREFETCHES:     397634 PREFETCH ISSUED TO LOWER LEVEL:    4133754  ACCURACY: 9.6192
L2C TIMELY PREFETCHES:     397634 LATE PREFETCHES: 154619 DROPPED PREFETCHES: 0
L2C PREFETCHES SAME FILL-ORIGIN LEVEL: 1995586 DIFFERENT FILL-ORIGIN LEVEL: 0
L2C AVERAGE MISS LATENCY: 367.888 cycles
L2C RQ	ACCESS:    4606238	FORWARD:          0	MERGED:          0	TO_CACHE:    4606238
L2C WQ	ACCESS:     542509	FORWARD:          0	MERGED:          0	TO_CACHE:     542509
L2C PQ	ACCESS:   14502567	FORWARD:          0	MERGED:      61097	TO_CACHE:   14441470

L2C Instructions Evicting Data 146
L2C Translations Evicting Data 12302
L2C Data Evicting Data 6775321
L2C Instructions Evicting Instructions 0
L2C Translations Evicting Instructions 0
L2C Data Evicting Instructions 146
L2C Instructions Evicting Translations 0
L2C Translations Evicting Translations 17
L2C Data Evicting Translations 12110
L2C Dense regions hint from L2: 0
PSCL5 TOTAL     ACCESS:     801916  HIT:     801916  MISS:          0  HIT %:        100  MISS %:          0   MPKI: 0
PSCL5 LOAD TRANSLATION ACCESS:      63840  HIT:      63840  MISS:          0  HIT %:        100  MISS %:          0   MPKI: 0
PSCL5 TRANSLATION FROM L1D PREFETCHER ACCESS:     738076  HIT:     738076  MISS:          0  HIT %:        100  MISS %:          0   MPKI: 0
PSCL5 PREFETCH  REQUESTED:          0  ISSUED:          0  USEFUL:          0  USELESS:          0
PSCL5 USEFUL LOAD PREFETCHES:          0 PREFETCH ISSUED TO LOWER LEVEL:          0  ACCURACY: -nan
PSCL5 TIMELY PREFETCHES:          0 LATE PREFETCHES: 0 DROPPED PREFETCHES: 0
PSCL5 PREFETCHES SAME FILL-ORIGIN LEVEL: 0 DIFFERENT FILL-ORIGIN LEVEL: 0

PSCL4 TOTAL     ACCESS:     801916  HIT:     801916  MISS:          0  HIT %:        100  MISS %:          0   MPKI: 0
PSCL4 LOAD TRANSLATION ACCESS:      63840  HIT:      63840  MISS:          0  HIT %:        100  MISS %:          0   MPKI: 0
PSCL4 TRANSLATION FROM L1D PREFETCHER ACCESS:     738076  HIT:     738076  MISS:          0  HIT %:        100  MISS %:          0   MPKI: 0
PSCL4 PREFETCH  REQUESTED:          0  ISSUED:          0  USEFUL:          0  USELESS:          0
PSCL4 USEFUL LOAD PREFETCHES:          0 PREFETCH ISSUED TO LOWER LEVEL:          0  ACCURACY: -nan
PSCL4 TIMELY PREFETCHES:          0 LATE PREFETCHES: 0 DROPPED PREFETCHES: 0
PSCL4 PREFETCHES SAME FILL-ORIGIN LEVEL: 0 DIFFERENT FILL-ORIGIN LEVEL: 0

PSCL3 TOTAL     ACCESS:     801916  HIT:     801916  MISS:          0  HIT %:        100  MISS %:          0   MPKI: 0
PSCL3 LOAD TRANSLATION ACCESS:      63840  HIT:      63840  MISS:          0  HIT %:        100  MISS %:          0   MPKI: 0
PSCL3 TRANSLATION FROM L1D PREFETCHER ACCESS:     738076  HIT:     738076  MISS:          0  HIT %:        100  MISS %:          0   MPKI: 0
PSCL3 PREFETCH  REQUESTED:          0  ISSUED:          0  USEFUL:          0  USELESS:          0
PSCL3 USEFUL LOAD PREFETCHES:          0 PREFETCH ISSUED TO LOWER LEVEL:          0  ACCURACY: -nan
PSCL3 TIMELY PREFETCHES:          0 LATE PREFETCHES: 0 DROPPED PREFETCHES: 0
PSCL3 PREFETCHES SAME FILL-ORIGIN LEVEL: 0 DIFFERENT FILL-ORIGIN LEVEL: 0

PSCL2 TOTAL     ACCESS:     799696  HIT:     799487  MISS:        209  HIT %:    99.9739  MISS %:  0.0261349   MPKI: 0.001045
PSCL2 LOAD TRANSLATION ACCESS:      63889  HIT:      63680  MISS:        209  HIT %:    99.6729  MISS %:    0.32713   MPKI: 0.001045
PSCL2 TRANSLATION FROM L1D PREFETCHER ACCESS:     735807  HIT:     735807  MISS:          0  HIT %:        100  MISS %:          0   MPKI: 0
PSCL2 PREFETCH  REQUESTED:          0  ISSUED:          0  USEFUL:          0  USELESS:          0
PSCL2 USEFUL LOAD PREFETCHES:          0 PREFETCH ISSUED TO LOWER LEVEL:          0  ACCURACY: -nan
PSCL2 TIMELY PREFETCHES:          0 LATE PREFETCHES: 0 DROPPED PREFETCHES: 0
PSCL2 PREFETCHES SAME FILL-ORIGIN LEVEL: 0 DIFFERENT FILL-ORIGIN LEVEL: 0

LLC TOTAL     ACCESS:    7340533  HIT:    1822083  MISS:    5518450  HIT %:    24.8222  MISS %:    75.1778   MPKI: 27.5922
LLC LOAD      ACCESS:    2290319  HIT:    1218331  MISS:    1071988  HIT %:    53.1948  MISS %:    46.8052   MPKI: 5.35994
LLC RFO       ACCESS:     362480  HIT:        126  MISS:     362354  HIT %:  0.0347605  MISS %:    99.9652   MPKI: 1.81177
LLC PREFETCH  ACCESS:    4133262  HIT:      81188  MISS:    4052074  HIT %:    1.96426  MISS %:    98.0357   MPKI: 20.2604
LLC WRITEBACK ACCESS:     542186  HIT:     521608  MISS:      20578  HIT %:    96.2046  MISS %:    3.79538   MPKI: 0.10289
LLC LOAD TRANSLATION ACCESS:       3609  HIT:        522  MISS:       3087  HIT %:    14.4638  MISS %:    85.5362   MPKI: 0.015435
LLC TRANSLATION FROM L1D PREFETCHER ACCESS:       8677  HIT:        308  MISS:       8369  HIT %:    3.54961  MISS %:    96.4504   MPKI: 0.041845
LLC PREFETCH  REQUESTED:          0  ISSUED:          0  USEFUL:      73687  USELESS:   16156547
LLC USEFUL LOAD PREFETCHES:      73687 PREFETCH ISSUED TO LOWER LEVEL:   80194974  ACCURACY: 0.0918848
LLC TIMELY PREFETCHES:      73687 LATE PREFETCHES: 0 DROPPED PREFETCHES: 0
LLC PREFETCHES SAME FILL-ORIGIN LEVEL: 0 DIFFERENT FILL-ORIGIN LEVEL: 0
LLC AVERAGE MISS LATENCY: 1680.17 cycles
LLC RQ	ACCESS:   10670790	FORWARD:          0	MERGED:          0	TO_CACHE:   10670790
LLC WQ	ACCESS:    2168978	FORWARD:          0	MERGED:          0	TO_CACHE:    2168978
LLC PQ	ACCESS:   16530516	FORWARD:          0	MERGED:          0	TO_CACHE:   16530516

LLC Dense regions hint to LLC: 0

RAW hits: 646
Loads Generated: 49122649
Loads sent to L1D: 49122003
Stores Generated: 10366144
Stores sent to L1D: 10366144
Major fault: 0 Minor fault: 66852
Allocated PAGES: 267408

CPU 2 cumulative IPC: 0.341722 instructions: 200000001 cycles: 585270450
ITLB TOTAL     ACCESS:   35403378  HIT:   35403368  MISS:         10  HIT %:        100  MISS %: 2.82459e-05   MPKI: 5e-05
ITLB LOAD TRANSLATION ACCESS:   35403378  HIT:   35403368  MISS:         10  HIT %:        100  MISS %: 2.82459e-05   MPKI: 5e-05
ITLB PREFETCH  REQUESTED:          0  ISSUED:          0  USEFUL:          0  USELESS:          0
ITLB USEFUL LOAD PREFETCHES:          0 PREFETCH ISSUED TO LOWER LEVEL:          0  ACCURACY: -nan
ITLB TIMELY PREFETCHES:          0 LATE PREFETCHES: 0 DROPPED PREFETCHES: 0
ITLB PREFETCHES SAME FILL-ORIGIN LEVEL: 0 DIFFERENT FILL-ORIGIN LEVEL: 0
ITLB AVERAGE MISS LATENCY: 394 cycles
ITLB RQ	ACCESS:   39923813	FORWARD:          0	MERGED:    4512002	TO_CACHE:   35411811

DTLB TOTAL     ACCESS:   39132248  HIT:   37220105  MISS:    1912143  HIT %:    95.1136  MISS %:    4.88636   MPKI: 9.56071
DTLB LOAD TRANSLATION ACCESS:   39132248  HIT:   37220105  MISS:    1912143  HIT %:    95.1136  MISS %:    4.88636   MPKI: 9.56071
DTLB PREFETCH  REQUESTED:          0  ISSUED:          0  USEFUL:          0  USELESS:          0
DTLB USEFUL LOAD PREFETCHES:          0 PREFETCH ISSUED TO LOWER LEVEL:          0  ACCURACY: -nan
DTLB TIMELY PREFETCHES:          0 LATE PREFETCHES: 0 DROPPED PREFETCHES: 0
DTLB PREFETCHES SAME FILL-ORIGIN LEVEL: 0 DIFFERENT FILL-ORIGIN LEVEL: 0
DTLB AVERAGE MISS LATENCY: 15.2754 cycles
DTLB RQ	ACCESS:   42620870	FORWARD:          0	MERGED:    3404067	TO_CACHE:   39216803

STLB TOTAL     ACCESS:   17687836  HIT:   17600516  MISS:      87320  HIT %:    99.5063  MISS %:   0.493673   MPKI: 0.4366
STLB LOAD TRANSLATION ACCESS:    1912153  HIT:    1848039  MISS:      64114  HIT %:     96.647  MISS %:    3.35297   MPKI: 0.32057
STLB TRANSLATION FROM L1D PREFETCHER ACCESS:   15775683  HIT:   15752477  MISS:      23206  HIT %:    99.8529  MISS %:     0.1471   MPKI: 0.11603
STLB PREFETCH  REQUESTED:          0  ISSUED:          0  USEFUL:      23135  USELESS:         81
STLB USEFUL LOAD PREFETCHES:      23135 PREFETCH ISSUED TO LOWER LEVEL:          0  ACCURACY: inf
STLB TIMELY PREFETCHES:      23135 LATE PREFETCHES: 5949 DROPPED PREFETCHES: 706652
STLB PREFETCHES SAME FILL-ORIGIN LEVEL: 0 DIFFERENT FILL-ORIGIN LEVEL: 0
STLB AVERAGE MISS LATENCY: 149.722 cycles
STLB RQ	ACCESS:   99476962	FORWARD:          0	MERGED:   81026184	TO_CACHE:   18450778

STLB Hit, L1D data hit: 0
STLB Hit, L2C data hit: 0
STLB Hit, LLC data hit: 0
STLB Hit, LLC data miss: 0
STLB STLB hints to L2: 0
L1D TOTAL     ACCESS:  114315075  HIT:  107605599  MISS:    6709476  HIT %:    94.1307  MISS %:    5.86928   MPKI: 33.5474
L1D LOAD      ACCESS:   32079644  HIT:   28553553  MISS:    3526091  HIT %:    89.0083  MISS %:    10.9917   MPKI: 17.6305
L1D RFO       ACCESS:    7128905  HIT:    6766403  MISS:     362502  HIT %:     94.915  MISS %:    5.08496   MPKI: 1.81251
L1D PREFETCH  ACCESS:   75106526  HIT:   72285643  MISS:    2820883  HIT %:    96.2442  MISS %:    3.75584   MPKI: 14.1044
L1D PREFETCH  REQUESTED:  343306735  ISSUED:  311874886  USEFUL:    2553051  USELESS:     268457
L1D USEFUL LOAD PREFETCHES:    2553051 PREFETCH ISSUED TO LOWER LEVEL:   14550959  ACCURACY: 17.5456
L1D TIMELY PREFETCHES:    2553051 LATE PREFETCHES: 87338 DROPPED PREFETCHES: 2667867
L1D PREFETCHES SAME FILL-ORIGIN LEVEL: 2908980 DIFFERENT FILL-ORIGIN LEVEL: 11641979
L1D AVERAGE MISS LATENCY: 254.268 cycles
L1D RQ	ACCESS:   49133332	FORWARD:          0	MERGED:   16728849	TO_CACHE:   32404478
L1D WQ	ACCESS:   10367238	FORWARD:          5	MERGED:     150846	TO_CACHE:   10216392
L1D PQ	ACCESS:  214311442	FORWARD:          0	MERGED:  116747998	TO_CACHE:   97563444

L1D UNIQUE REGIONS ACCESSED: 0
L1D REGIONS CONFLICTS: 0
L1D Cross Page Prefetch Requests: 17652542
L1D Same Page Prefetch Requests: 239067692
L1D ROI Sum of L1D PQ occupancy: 1463873092
L1D PREFETCHES PUSHED FROM L2C: 0
L1I TOTAL     ACCESS:   39914436  HIT:   39914290  MISS:        146  HIT %:    99.9996  MISS %: 0.000365782   MPKI: 0.00073
L1I LOAD      ACCESS:   39914436  HIT:   39914290  MISS:        146  HIT %:    99.9996  MISS %: 0.000365782   MPKI: 0.00073
L1I PREFETCH  REQUESTED:          0  ISSUED:          0  USEFUL:          0  USELESS:          0
L1I USEFUL LOAD PREFETCHES:          0 PREFETCH ISSUED TO LOWER LEVEL:          0  ACCURACY: -nan
L1I TIMELY PREFETCHES:          0 LATE PREFETCHES: 0 DROPPED PREFETCHES: 0
L1I PREFETCHES SAME FILL-ORIGIN LEVEL: 0 DIFFERENT FILL-ORIGIN LEVEL: 0
L1I AVERAGE MISS LATENCY: 264.534 cycles
L1I RQ	ACCESS:   60816443	FORWARD:          0	MERGED:   20892630	TO_CACHE:   39923813

BTB TOTAL     ACCESS:   46914134  HIT:   46913928  MISS:        206  HIT %:    99.9996  MISS %:  0.0004391   MPKI: 0.00103
BTB BRANCH_DIRECT_JUMP	ACCESS:    1403524  HIT:    1403490  MISS:         34
BTB BRANCH_INDIRECT	ACCESS:          0  HIT:          0  MISS:          0
BTB BRANCH_CONDITIONAL	ACCESS:   45510530  HIT:   45510418  MISS:        112
BTB BRANCH_DIRECT_CALL	ACCESS:         40  HIT:         11  MISS:         29
BTB BRANCH_INDIRECT_CALL	ACCESS:          0  HIT:          0  MISS:          0
BTB BRANCH_RETURN	ACCESS:         40  HIT:          9  MISS:         31
BTB BRANCH_OTHER ACCESS:          0  HIT:          0  MISS:          0

L2C TOTAL     ACCESS:   16380230  HIT:    9557500  MISS:    6822730  HIT %:    58.3478  MISS %:    41.6522   MPKI: 34.1136
L2C LOAD      ACCESS:    3438899  HIT:    1006891  MISS:    2432008  HIT %:    29.2795  MISS %:    70.7205   MPKI: 12.16
L2C DATA LOAD MPKI: 12.1593
L2C INSTRUCTION LOAD MPKI: 0.00073
L2C RFO       ACCESS:     362502  HIT:         35  MISS:     362467  HIT %: 0.00965512  MISS %:    99.9903   MPKI: 1.81233
L2C PREFETCH  ACCESS:   11236519  HIT:    7262478  MISS:    3974041  HIT %:    64.6328  MISS %:    35.3672   MPKI: 19.8702
L2C DATA PREFETCH MPKI: 19.8702
L2C INSTRUCTION PREFETCH MPKI: 0
L2C WRITEBACK ACCESS:     542438  HIT:     500554  MISS:      41884  HIT %:    92.2786  MISS %:    7.72144   MPKI: 0.20942
L2C LOAD TRANSLATION ACCESS:      63909  HIT:      60347  MISS:       3562  HIT %:    94.4265  MISS %:    5.57355   MPKI: 0.01781
L2C TRANSLATION FROM L1D PREFETCHER ACCESS:     735963  HIT:     727195  MISS:       8768  HIT %:    98.8086  MISS %:    1.19136   MPKI: 0.04384
L2C PREFETCH  REQUESTED:          0  ISSUED:          0  USEFUL:     395880  USELESS:    3586881
L2C USEFUL LOAD PREFETCHES:     395880 PREFETCH ISSUED TO LOWER LEVEL:    4129238  ACCURACY: 9.58724
L2C TIMELY PREFETCHES:     395880 LATE PREFETCHES: 154570 DROPPED PREFETCHES: 0
L2C PREFETCHES SAME FILL-ORIGIN LEVEL: 1983608 DIFFERENT FILL-ORIGIN LEVEL: 0
L2C AVERAGE MISS LATENCY: 368.989 cycles
L2C RQ	ACCESS:    4603291	FORWARD:          0	MERGED:          0	TO_CACHE:    4603291
L2C WQ	ACCESS:     542517	FORWARD:          0	MERGED:          0	TO_CACHE:     542517
L2C PQ	ACCESS:   14501521	FORWARD:          0	MERGED:      59831	TO_CACHE:   14441690

L2C Instructions Evicting Data 146
L2C Translations Evicting Data 12339
L2C Data Evicting Data 6758249
L2C Instructions Evicting Instructions 0
L2C Translations Evicting Instructions 0
L2C Data Evicting Instructions 144
L2C Instructions Evicting Translations 0
L2C Translations Evicting Translations 46
L2C Data Evicting Translations 12146
L2C Dense regions hint from L2: 0
PSCL5 TOTAL     ACCESS:     799667  HIT:     799667  MISS:          0  HIT %:        100  MISS %:          0   MPKI: 0
PSCL5 LOAD TRANSLATION ACCESS:      63860  HIT:      63860  MISS:          0  HIT %:        100  MISS %:          0   MPKI: 0
PSCL5 TRANSLATION FROM L1D PREFETCHER ACCESS:     735807  HIT:     735807  MISS:          0  HIT %:        100  MISS %:          0   MPKI: 0
PSCL5 PREFETCH  REQUESTED:          0  ISSUED:          0  USEFUL:          0  USELESS:          0
PSCL5 USEFUL LOAD PREFETCHES:          0 PREFETCH ISSUED TO LOWER LEVEL:          0  ACCURACY: -nan
PSCL5 TIMELY PREFETCHES:          0 LATE PREFETCHES: 0 DROPPED PREFETCHES: 0
PSCL5 PREFETCHES SAME FILL-ORIGIN LEVEL: 0 DIFFERENT FILL-ORIGIN LEVEL: 0

PSCL4 TOTAL     ACCESS:     799667  HIT:     799667  MISS:          0  HIT %:        100  MISS %:          0   MPKI: 0
PSCL4 LOAD TRANSLATION ACCESS:      63860  HIT:      63860  MISS:          0  HIT %:        100  MISS %:          0   MPKI: 0
PSCL4 TRANSLATION FROM L1D PREFETCHER ACCESS:     735807  HIT:     735807  MISS:          0  HIT %:        100  MISS %:          0   MPKI: 0
PSCL4 PREFETCH  REQUESTED:          0  ISSUED:          0  USEFUL:          0  USELESS:          0
PSCL4 USEFUL LOAD PREFETCHES:          0 PREFETCH ISSUED TO LOWER LEVEL:          0  ACCURACY: -nan
PSCL4 TIMELY PREFETCHES:          0 LATE PREFETCHES: 0 DROPPED PREFETCHES: 0
PSCL4 PREFETCHES SAME FILL-ORIGIN LEVEL: 0 DIFFERENT FILL-ORIGIN LEVEL: 0

PSCL3 TOTAL     ACCESS:     799667  HIT:     799667  MISS:          0  HIT %:        100  MISS %:          0   MPKI: 0
PSCL3 LOAD TRANSLATION ACCESS:      63860  HIT:      63860  MISS:          0  HIT %:        100  MISS %:          0   MPKI: 0
PSCL3 TRANSLATION FROM L1D PREFETCHER ACCESS:     735807  HIT:     735807  MISS:          0  HIT %:        100  MISS %:          0   MPKI: 0
PSCL3 PREFETCH  REQUESTED:          0  ISSUED:          0  USEFUL:          0  USELESS:          0
PSCL3 USEFUL LOAD PREFETCHES:          0 PREFETCH ISSUED TO LOWER LEVEL:          0  ACCURACY: -nan
PSCL3 TIMELY PREFETCHES:          0 LATE PREFETCHES: 0 DROPPED PREFETCHES: 0
PSCL3 PREFETCHES SAME FILL-ORIGIN LEVEL: 0 DIFFERENT FILL-ORIGIN LEVEL: 0

PSCL2 TOTAL     ACCESS:     798121  HIT:     797912  MISS:        209  HIT %:    99.9738  MISS %:  0.0261865   MPKI: 0.001045
PSCL2 LOAD TRANSLATION ACCESS:      63909  HIT:      63700  MISS:        209  HIT %:     99.673  MISS %:   0.327027   MPKI: 0.001045
PSCL2 TRANSLATION FROM L1D PREFETCHER ACCESS:     734212  HIT:     734212  MISS:          0  HIT %:        100  MISS %:          0   MPKI: 0
PSCL2 PREFETCH  REQUESTED:          0  ISSUED:          0  USEFUL:          0  USELESS:          0
PSCL2 USEFUL LOAD PREFETCHES:          0 PREFETCH ISSUED TO LOWER LEVEL:          0  ACCURACY: -nan
PSCL2 TIMELY PREFETCHES:          0 LATE PREFETCHES: 0 DROPPED PREFETCHES: 0
PSCL2 PREFETCHES SAME FILL-ORIGIN LEVEL: 0 DIFFERENT FILL-ORIGIN LEVEL: 0

LLC TOTAL     ACCESS:    7322978  HIT:    1805035  MISS:    5517943  HIT %:    24.6489  MISS %:    75.3511   MPKI: 27.5897
LLC LOAD      ACCESS:    2277438  HIT:    1202938  MISS:    1074500  HIT %:    52.8198  MISS %:    47.1802   MPKI: 5.3725
LLC RFO       ACCESS:     362467  HIT:        155  MISS:     362312  HIT %:  0.0427625  MISS %:    99.9572   MPKI: 1.81156
LLC PREFETCH  ACCESS:    4128611  HIT:      79602  MISS:    4049009  HIT %:    1.92806  MISS %:    98.0719   MPKI: 20.245
LLC WRITEBACK ACCESS:     542132  HIT:     521423  MISS:      20709  HIT %:    96.1801  MISS %:    3.81992   MPKI: 0.103545
LLC LOAD TRANSLATION ACCESS:       3562  HIT:        499  MISS:       3063  HIT %:     14.009  MISS %:     85.991   MPKI: 0.015315
LLC TRANSLATION FROM L1D PREFETCHER ACCESS:       8768  HIT:        418  MISS:       8350  HIT %:    4.76734  MISS %:    95.2327   MPKI: 0.04175
LLC PREFETCH  REQUESTED:          0  ISSUED:          0  USEFUL:      73687  USELESS:   16156547
LLC USEFUL LOAD PREFETCHES:      73687 PREFETCH ISSUED TO LOWER LEVEL:   80194974  ACCURACY: 0.0918848
LLC TIMELY PREFETCHES:      73687 LATE PREFETCHES: 0 DROPPED PREFETCHES: 0
LLC PREFETCHES SAME FILL-ORIGIN LEVEL: 0 DIFFERENT FILL-ORIGIN LEVEL: 0
LLC AVERAGE MISS LATENCY: 1680.32 cycles
LLC RQ	ACCESS:   10670790	FORWARD:          0	MERGED:          0	TO_CACHE:   10670790
LLC WQ	ACCESS:    2168978	FORWARD:          0	MERGED:          0	TO_CACHE:    2168978
LLC PQ	ACCESS:   16530516	FORWARD:          0	MERGED:          0	TO_CACHE:   16530516

LLC Dense regions hint to LLC: 0

RAW hits: 646
Loads Generated: 49122637
Loads sent to L1D: 49121991
Stores Generated: 10366151
Stores sent to L1D: 10366152
Major fault: 0 Minor fault: 66852
Allocated PAGES: 267408

CPU 3 cumulative IPC: 0.341918 instructions: 200000002 cycles: 584935811
ITLB TOTAL     ACCESS:   35403807  HIT:   35403797  MISS:         10  HIT %:        100  MISS %: 2.82455e-05   MPKI: 5e-05
ITLB LOAD TRANSLATION ACCESS:   35403807  HIT:   35403797  MISS:         10  HIT %:        100  MISS %: 2.82455e-05   MPKI: 5e-05
ITLB PREFETCH  REQUESTED:          0  ISSUED:          0  USEFUL:          0  USELESS:          0
ITLB USEFUL LOAD PREFETCHES:          0 PREFETCH ISSUED TO LOWER LEVEL:          0  ACCURACY: -nan
ITLB TIMELY PREFETCHES:          0 LATE PREFETCHES: 0 DROPPED PREFETCHES: 0
ITLB PREFETCHES SAME FILL-ORIGIN LEVEL: 0 DIFFERENT FILL-ORIGIN LEVEL: 0
ITLB AVERAGE MISS LATENCY: 482.3 cycles
ITLB RQ	ACCESS:   39939132	FORWARD:          0	MERGED:    4513075	TO_CACHE:   35426057

DTLB TOTAL     ACCESS:   39131274  HIT:   37219144  MISS:    1912130  HIT %:    95.1136  MISS %:    4.88645   MPKI: 9.56065
DTLB LOAD TRANSLATION ACCESS:   39131274  HIT:   37219144  MISS:    1912130  HIT %:    95.1136  MISS %:    4.88645   MPKI: 9.56065
DTLB PREFETCH  REQUESTED:          0  ISSUED:          0  USEFUL:          0  USELESS:          0
DTLB USEFUL LOAD PREFETCHES:          0 PREFETCH ISSUED TO LOWER LEVEL:          0  ACCURACY: -nan
DTLB TIMELY PREFETCHES:          0 LATE PREFETCHES: 0 DROPPED PREFETCHES: 0
DTLB PREFETCHES SAME FILL-ORIGIN LEVEL: 0 DIFFERENT FILL-ORIGIN LEVEL: 0
DTLB AVERAGE MISS LATENCY: 15.2411 cycles
DTLB RQ	ACCESS:   42633348	FORWARD:          0	MERGED:    3404547	TO_CACHE:   39228801

STLB TOTAL     ACCESS:   17700849  HIT:   17613568  MISS:      87281  HIT %:    99.5069  MISS %:   0.493089   MPKI: 0.436405
STLB LOAD TRANSLATION ACCESS:    1912140  HIT:    1848043  MISS:      64097  HIT %:    96.6479  MISS %:    3.35211   MPKI: 0.320485
STLB TRANSLATION FROM L1D PREFETCHER ACCESS:   15788709  HIT:   15765525  MISS:      23184  HIT %:    99.8532  MISS %:   0.146839   MPKI: 0.11592
STLB PREFETCH  REQUESTED:          0  ISSUED:          0  USEFUL:      23146  USELESS:         63
STLB USEFUL LOAD PREFETCHES:      23146 PREFETCH ISSUED TO LOWER LEVEL:          0  ACCURACY: inf
STLB TIMELY PREFETCHES:      23146 LATE PREFETCHES: 5973 DROPPED PREFETCHES: 695186
STLB PREFETCHES SAME FILL-ORIGIN LEVEL: 0 DIFFERENT FILL-ORIGIN LEVEL: 0
STLB AVERAGE MISS LATENCY: 148.76 cycles
STLB RQ	ACCESS:   99627969	FORWARD:          0	MERGED:   81169327	TO_CACHE:   18458642

STLB Hit, L1D data hit: 0
STLB Hit, L2C data hit: 0
STLB Hit, LLC data hit: 0
STLB Hit, LLC data miss: 0
STLB STLB hints to L2: 0
L1D TOTAL     ACCESS:  114436873  HIT:  107727257  MISS:    6709616  HIT %:    94.1368  MISS %:    5.86316   MPKI: 33.5481
L1D LOAD      ACCESS:   32079520  HIT:   28552853  MISS:    3526667  HIT %:    89.0065  MISS %:    10.9935   MPKI: 17.6333
L1D RFO       ACCESS:    7129261  HIT:    6766760  MISS:     362501  HIT %:    94.9153  MISS %:    5.08469   MPKI: 1.8125
L1D PREFETCH  ACCESS:   75228092  HIT:   72407644  MISS:    2820448  HIT %:    96.2508  MISS %:     3.7492   MPKI: 14.1022
L1D PREFETCH  REQUESTED:  343449882  ISSUED:  312446166  USEFUL:    2553379  USELESS:     268580
L1D USEFUL LOAD PREFETCHES:    2553379 PREFETCH ISSUED TO LOWER LEVEL:   14577890  ACCURACY: 17.5154
L1D TIMELY PREFETCHES:    2553379 LATE PREFETCHES: 87688 DROPPED PREFETCHES: 2662413
L1D PREFETCHES SAME FILL-ORIGIN LEVEL: 2910838 DIFFERENT FILL-ORIGIN LEVEL: 11667052
L1D AVERAGE MISS LATENCY: 254.165 cycles
L1D RQ	ACCESS:   49150682	FORWARD:          0	MERGED:   16735023	TO_CACHE:   32415654
L1D WQ	ACCESS:   10368471	FORWARD:          5	MERGED:     150777	TO_CACHE:   10217694
L1D PQ	ACCESS:  214733678	FORWARD:          0	MERGED:  117021190	TO_CACHE:   97712488

L1D UNIQUE REGIONS ACCESSED: 0
L1D REGIONS CONFLICTS: 0
L1D Cross Page Prefetch Requests: 17666099
L1D Same Page Prefetch Requests: 239483547
L1D ROI Sum of L1D PQ occupancy: 1460967339
L1D PREFETCHES PUSHED FROM L2C: 0
L1I TOTAL     ACCESS:   39914815  HIT:   39914669  MISS:        146  HIT %:    99.9996  MISS %: 0.000365779   MPKI: 0.00073
L1I LOAD      ACCESS:   39914815  HIT:   39914669  MISS:        146  HIT %:    99.9996  MISS %: 0.000365779   MPKI: 0.00073
L1I PREFETCH  REQUESTED:          0  ISSUED:          0  USEFUL:          0  USELESS:          0
L1I USEFUL LOAD PREFETCHES:          0 PREFETCH ISSUED TO LOWER LEVEL:          0  ACCURACY: -nan
L1I TIMELY PREFETCHES:          0 LATE PREFETCHES: 0 DROPPED PREFETCHES: 0
L1I PREFETCHES SAME FILL-ORIGIN LEVEL: 0 DIFFERENT FILL-ORIGIN LEVEL: 0
L1I AVERAGE MISS LATENCY: 290.651 cycles
L1I RQ	ACCESS:   60834113	FORWARD:          0	MERGED:   20894981	TO_CACHE:   39939132

BTB TOTAL     ACCESS:   46914052  HIT:   46913844  MISS:        208  HIT %:    99.9996  MISS %: 0.000443364   MPKI: 0.00104
BTB BRANCH_DIRECT_JUMP	ACCESS:    1403522  HIT:    1403488  MISS:         34
BTB BRANCH_INDIRECT	ACCESS:          0  HIT:          0  MISS:          0
BTB BRANCH_CONDITIONAL	ACCESS:   45510450  HIT:   45510336  MISS:        114
BTB BRANCH_DIRECT_CALL	ACCESS:         40  HIT:         11  MISS:         29
BTB BRANCH_INDIRECT_CALL	ACCESS:          0  HIT:          0  MISS:          0
BTB BRANCH_RETURN	ACCESS:         40  HIT:          9  MISS:         31
BTB BRANCH_OTHER ACCESS:          0  HIT:          0  MISS:          0

L2C TOTAL     ACCESS:   16377729  HIT:    9533412  MISS:    6844317  HIT %:    58.2096  MISS %:    41.7904   MPKI: 34.2216
L2C LOAD      ACCESS:    3439127  HIT:     989507  MISS:    2449620  HIT %:     28.772  MISS %:     71.228   MPKI: 12.2481
L2C DATA LOAD MPKI: 12.2474
L2C INSTRUCTION LOAD MPKI: 0.00073
L2C RFO       ACCESS:     362501  HIT:         39  MISS:     362462  HIT %:  0.0107586  MISS %:    99.9892   MPKI: 1.81231
L2C PREFETCH  ACCESS:   11245257  HIT:    7267008  MISS:    3978249  HIT %:    64.6229  MISS %:    35.3771   MPKI: 19.8912
L2C DATA PREFETCH MPKI: 19.8912
L2C INSTRUCTION PREFETCH MPKI: 0
L2C WRITEBACK ACCESS:     542437  HIT:     500669  MISS:      41768  HIT %:    92.2999  MISS %:    7.70006   MPKI: 0.20884
L2C LOAD TRANSLATION ACCESS:      63880  HIT:      60378  MISS:       3502  HIT %:    94.5178  MISS %:    5.48215   MPKI: 0.01751
L2C TRANSLATION FROM L1D PREFETCHER ACCESS:     724527  HIT:     715811  MISS:       8716  HIT %:     98.797  MISS %:    1.20299   MPKI: 0.04358
L2C PREFETCH  REQUESTED:          0  ISSUED:          0  USEFUL:     396231  USELESS:    3591665
L2C USEFUL LOAD PREFETCHES:     396231 PREFETCH ISSUED TO LOWER LEVEL:    4134174  ACCURACY: 9.58428
L2C TIMELY PREFETCHES:     396231 LATE PREFETCHES: 154378 DROPPED PREFETCHES: 0
L2C PREFETCHES SAME FILL-ORIGIN LEVEL: 1992750 DIFFERENT FILL-ORIGIN LEVEL: 0
L2C AVERAGE MISS LATENCY: 368.328 cycles
L2C RQ	ACCESS:    4594491	FORWARD:          0	MERGED:          0	TO_CACHE:    4594491
L2C WQ	ACCESS:     542567	FORWARD:          0	MERGED:          0	TO_CACHE:     542567
L2C PQ	ACCESS:   14515644	FORWARD:          0	MERGED:      60106	TO_CACHE:   14455538

L2C Instructions Evicting Data 146
L2C Translations Evicting Data 12259
L2C Data Evicting Data 6783198
L2C Instructions Evicting Instructions 0
L2C Translations Evicting Instructions 3
L2C Data Evicting Instructions 138
L2C Instructions Evicting Translations 0
L2C Translations Evicting Translations 35
L2C Data Evicting Translations 12108
L2C Dense regions hint from L2: 0
PSCL5 TOTAL     ACCESS:     788178  HIT:     788178  MISS:          0  HIT %:        100  MISS %:          0   MPKI: 0
PSCL5 LOAD TRANSLATION ACCESS:      63835  HIT:      63835  MISS:          0  HIT %:        100  MISS %:          0   MPKI: 0
PSCL5 TRANSLATION FROM L1D PREFETCHER ACCESS:     724343  HIT:     724343  MISS:          0  HIT %:        100  MISS %:          0   MPKI: 0
PSCL5 PREFETCH  REQUESTED:          0  ISSUED:          0  USEFUL:          0  USELESS:          0
PSCL5 USEFUL LOAD PREFETCHES:          0 PREFETCH ISSUED TO LOWER LEVEL:          0  ACCURACY: -nan
PSCL5 TIMELY PREFETCHES:          0 LATE PREFETCHES: 0 DROPPED PREFETCHES: 0
PSCL5 PREFETCHES SAME FILL-ORIGIN LEVEL: 0 DIFFERENT FILL-ORIGIN LEVEL: 0

PSCL4 TOTAL     ACCESS:     788178  HIT:     788178  MISS:          0  HIT %:        100  MISS %:          0   MPKI: 0
PSCL4 LOAD TRANSLATION ACCESS:      63835  HIT:      63835  MISS:          0  HIT %:        100  MISS %:          0   MPKI: 0
PSCL4 TRANSLATION FROM L1D PREFETCHER ACCESS:     724343  HIT:     724343  MISS:          0  HIT %:        100  MISS %:          0   MPKI: 0
PSCL4 PREFETCH  REQUESTED:          0  ISSUED:          0  USEFUL:          0  USELESS:          0
PSCL4 USEFUL LOAD PREFETCHES:          0 PREFETCH ISSUED TO LOWER LEVEL:          0  ACCURACY: -nan
PSCL4 TIMELY PREFETCHES:          0 LATE PREFETCHES: 0 DROPPED PREFETCHES: 0
PSCL4 PREFETCHES SAME FILL-ORIGIN LEVEL: 0 DIFFERENT FILL-ORIGIN LEVEL: 0

PSCL3 TOTAL     ACCESS:     788178  HIT:     788178  MISS:          0  HIT %:        100  MISS %:          0   MPKI: 0
PSCL3 LOAD TRANSLATION ACCESS:      63835  HIT:      63835  MISS:          0  HIT %:        100  MISS %:          0   MPKI: 0
PSCL3 TRANSLATION FROM L1D PREFETCHER ACCESS:     724343  HIT:     724343  MISS:          0  HIT %:        100  MISS %:          0   MPKI: 0
PSCL3 PREFETCH  REQUESTED:          0  ISSUED:          0  USEFUL:          0  USELESS:          0
PSCL3 USEFUL LOAD PREFETCHES:          0 PREFETCH ISSUED TO LOWER LEVEL:          0  ACCURACY: -nan
PSCL3 TIMELY PREFETCHES:          0 LATE PREFETCHES: 0 DROPPED PREFETCHES: 0
PSCL3 PREFETCHES SAME FILL-ORIGIN LEVEL: 0 DIFFERENT FILL-ORIGIN LEVEL: 0

PSCL2 TOTAL     ACCESS:     786725  HIT:     786519  MISS:        206  HIT %:    99.9738  MISS %:  0.0261845   MPKI: 0.00103
PSCL2 LOAD TRANSLATION ACCESS:      63884  HIT:      63678  MISS:        206  HIT %:    99.6775  MISS %:   0.322459   MPKI: 0.00103
PSCL2 TRANSLATION FROM L1D PREFETCHER ACCESS:     722841  HIT:     722841  MISS:          0  HIT %:        100  MISS %:          0   MPKI: 0
PSCL2 PREFETCH  REQUESTED:          0  ISSUED:          0  USEFUL:          0  USELESS:          0
PSCL2 USEFUL LOAD PREFETCHES:          0 PREFETCH ISSUED TO LOWER LEVEL:          0  ACCURACY: -nan
PSCL2 TIMELY PREFETCHES:          0 LATE PREFETCHES: 0 DROPPED PREFETCHES: 0
PSCL2 PREFETCHES SAME FILL-ORIGIN LEVEL: 0 DIFFERENT FILL-ORIGIN LEVEL: 0

LLC TOTAL     ACCESS:    7344754  HIT:    1826969  MISS:    5517785  HIT %:    24.8745  MISS %:    75.1255   MPKI: 27.5889
LLC LOAD      ACCESS:    2295242  HIT:    1222907  MISS:    1072335  HIT %:    53.2801  MISS %:    46.7199   MPKI: 5.36167
LLC RFO       ACCESS:     362462  HIT:        141  MISS:     362321  HIT %:  0.0389006  MISS %:    99.9611   MPKI: 1.8116
LLC PREFETCH  ACCESS:    4132627  HIT:      80905  MISS:    4051722  HIT %:    1.95771  MISS %:    98.0423   MPKI: 20.2586
LLC WRITEBACK ACCESS:     542205  HIT:     522202  MISS:      20003  HIT %:    96.3108  MISS %:     3.6892   MPKI: 0.100015
LLC LOAD TRANSLATION ACCESS:       3502  HIT:        465  MISS:       3037  HIT %:    13.2781  MISS %:    86.7219   MPKI: 0.015185
LLC TRANSLATION FROM L1D PREFETCHER ACCESS:       8716  HIT:        349  MISS:       8367  HIT %:    4.00413  MISS %:    95.9959   MPKI: 0.041835
LLC PREFETCH  REQUESTED:          0  ISSUED:          0  USEFUL:      73687  USELESS:   16156547
LLC USEFUL LOAD PREFETCHES:      73687 PREFETCH ISSUED TO LOWER LEVEL:   80194974  ACCURACY: 0.0918848
LLC TIMELY PREFETCHES:      73687 LATE PREFETCHES: 0 DROPPED PREFETCHES: 0
LLC PREFETCHES SAME FILL-ORIGIN LEVEL: 0 DIFFERENT FILL-ORIGIN LEVEL: 0
LLC AVERAGE MISS LATENCY: 1680.37 cycles
LLC RQ	ACCESS:   10670790	FORWARD:          0	MERGED:          0	TO_CACHE:   10670790
LLC WQ	ACCESS:    2168978	FORWARD:          0	MERGED:          0	TO_CACHE:    2168978
LLC PQ	ACCESS:   16530516	FORWARD:          0	MERGED:          0	TO_CACHE:   16530516

LLC Dense regions hint to LLC: 0

RAW hits: 646
Loads Generated: 49122589
Loads sent to L1D: 49121942
Stores Generated: 10366151
Stores sent to L1D: 10366155
Major fault: 0 Minor fault: 66852
Allocated PAGES: 267408

DRAM Statistics
 CHANNEL 0
 RQ ROW_BUFFER_HIT:    6915402  ROW_BUFFER_MISS:   15085263
 DBUS_CONGESTED:        998
 WQ ROW_BUFFER_HIT:     274987  ROW_BUFFER_MISS:    1890289  FULL:          0

 AVG_CONGESTED_CYCLE: 5
 All warmup complete: 5
Channel 0 Bank busy for read cycles: 0
Channel 0 Bank busy for write cycles: 0
Channel 0
Rank 0
0banks busy for read cycles: 1769288
0banks busy for write cycles: 279
1banks busy for read cycles: 26341209
1banks busy for write cycles: 403069
2banks busy for read cycles: 53176041
2banks busy for write cycles: 341379
3banks busy for read cycles: 66391928
3banks busy for write cycles: 330029
4banks busy for read cycles: 74202916
4banks busy for write cycles: 326679
5banks busy for read cycles: 73156938
5banks busy for write cycles: 339325
6banks busy for read cycles: 64272452
6banks busy for write cycles: 805169
7banks busy for read cycles: 61423299
7banks busy for write cycles: 7836659
8banks busy for read cycles: 108435635
8banks busy for write cycles: 46011564

CPU 0 Branch Prediction Accuracy: 93.1271% MPKI: 16.3801 Average ROB Occupancy at Mispredict: 22.0307
Branch types
NOT_BRANCH: 152333619 76.1668%
BRANCH_DIRECT_JUMP: 1403520 0.70176%
BRANCH_INDIRECT: 0 0%
BRANCH_CONDITIONAL: 46262798 23.1314%
BRANCH_DIRECT_CALL: 40 2e-05%
BRANCH_INDIRECT_CALL: 0 0%
BRANCH_RETURN: 40 2e-05%
BRANCH_OTHER: 0 0%


CPU 1 Branch Prediction Accuracy: 93.127% MPKI: 16.3808 Average ROB Occupancy at Mispredict: 22.0216
Branch types
NOT_BRANCH: 152355809 76.1662%
BRANCH_DIRECT_JUMP: 1404035 0.701909%
BRANCH_INDIRECT: 0 0%
BRANCH_CONDITIONAL: 46270873 23.1319%
BRANCH_DIRECT_CALL: 40 1.99969e-05%
BRANCH_INDIRECT_CALL: 0 0%
BRANCH_RETURN: 40 1.99969e-05%
BRANCH_OTHER: 0 0%


CPU 2 Branch Prediction Accuracy: 93.1271% MPKI: 16.381 Average ROB Occupancy at Mispredict: 22.0309
Branch types
NOT_BRANCH: 152361768 76.1659%
BRANCH_DIRECT_JUMP: 1404169 0.701946%
BRANCH_INDIRECT: 0 0%
BRANCH_CONDITIONAL: 46273145 23.132%
BRANCH_DIRECT_CALL: 40 1.99961e-05%
BRANCH_INDIRECT_CALL: 0 0%
BRANCH_RETURN: 40 1.99961e-05%
BRANCH_OTHER: 0 0%


CPU 3 Branch Prediction Accuracy: 93.1274% MPKI: 16.3813 Average ROB Occupancy at Mispredict: 22.0039
Branch types
NOT_BRANCH: 152403645 76.1643%
BRANCH_DIRECT_JUMP: 1405098 0.702203%
BRANCH_INDIRECT: 0 0%
BRANCH_CONDITIONAL: 46289353 23.1333%
BRANCH_DIRECT_CALL: 40 1.99902e-05%
BRANCH_INDIRECT_CALL: 0 0%
BRANCH_RETURN: 40 1.99902e-05%
BRANCH_OTHER: 0 0%

DRAM PAGES: 1048576
Allocated PAGES: 267408
