
*** ChampSim Multicore Out-of-Order Simulator ***

Warmup Instructions: 50000000
Simulation Instructions: 200000000
Number of CPUs: 4
LLC sets: 8192
LLC ways: 16
Off-chip DRAM Size: 4096 MB Channels: 1 Width: 64-bit Data Rate: 6400 MT/s
CPU 0 runs ./traces/spec/410.bwaves-1963B.champsimtrace.xz
.xz
CPU 1 runs ./traces/spec/410.bwaves-1963B.champsimtrace.xz
.xz
CPU 2 runs ./traces/spec/410.bwaves-1963B.champsimtrace.xz
.xz
CPU 3 runs ./traces/spec/410.bwaves-1963B.champsimtrace.xz
.xz
BTB has LRU replacement policy
ITLB has LRU replacement policy
DTLB has LRU replacement policy
STLB has LRU replacement policy
L1I has LRU replacement policy
History Sets: 8
History Ways: 16
BERTI Size: 16
BERTI Stride Size: 8
L1D has LRU replacement policy
Initialize SRRIP state for L2C
Initialize DRRIP state for LLC
BTB has LRU replacement policy
ITLB has LRU replacement policy
DTLB has LRU replacement policy
STLB has LRU replacement policy
L1I has LRU replacement policy
History Sets: 8
History Ways: 16
BERTI Size: 16
BERTI Stride Size: 8
L1D has LRU replacement policy
Initialize SRRIP state for L2C
Initialize DRRIP state for LLC
BTB has LRU replacement policy
ITLB has LRU replacement policy
DTLB has LRU replacement policy
STLB has LRU replacement policy
L1I has LRU replacement policy
History Sets: 8
History Ways: 16
BERTI Size: 16
BERTI Stride Size: 8
L1D has LRU replacement policy
Initialize SRRIP state for L2C
Initialize DRRIP state for LLC
BTB has LRU replacement policy
ITLB has LRU replacement policy
DTLB has LRU replacement policy
STLB has LRU replacement policy
L1I has LRU replacement policy
History Sets: 8
History Ways: 16
BERTI Size: 16
BERTI Stride Size: 8
L1D has LRU replacement policy
Initialize SRRIP state for L2C
Initialize DRRIP state for LLC
Heartbeat CPU 0 instructions: 10000000 cycles: 3933925 heartbeat IPC: 2.54199 cumulative IPC: 2.54199 (Simulation time: 0 hr 4 min 44 sec) 
Heartbeat CPU 1 instructions: 10000000 cycles: 3934046 heartbeat IPC: 2.54191 cumulative IPC: 2.54191 (Simulation time: 0 hr 4 min 44 sec) 
Heartbeat CPU 2 instructions: 10000000 cycles: 3934131 heartbeat IPC: 2.54186 cumulative IPC: 2.54186 (Simulation time: 0 hr 4 min 44 sec) 
Heartbeat CPU 3 instructions: 10000000 cycles: 3934248 heartbeat IPC: 2.54178 cumulative IPC: 2.54178 (Simulation time: 0 hr 4 min 44 sec) 
Heartbeat CPU 0 instructions: 20000002 cycles: 7867649 heartbeat IPC: 2.54212 cumulative IPC: 2.54206 (Simulation time: 0 hr 9 min 38 sec) 
Heartbeat CPU 1 instructions: 20000002 cycles: 7867784 heartbeat IPC: 2.54211 cumulative IPC: 2.54201 (Simulation time: 0 hr 9 min 38 sec) 
Heartbeat CPU 2 instructions: 20000002 cycles: 7867912 heartbeat IPC: 2.54208 cumulative IPC: 2.54197 (Simulation time: 0 hr 9 min 38 sec) 
Heartbeat CPU 3 instructions: 20000002 cycles: 7868068 heartbeat IPC: 2.54206 cumulative IPC: 2.54192 (Simulation time: 0 hr 9 min 38 sec) 
Heartbeat CPU 0 instructions: 30000001 cycles: 11801435 heartbeat IPC: 2.54208 cumulative IPC: 2.54206 (Simulation time: 0 hr 14 min 25 sec) 
Heartbeat CPU 1 instructions: 30000001 cycles: 11801605 heartbeat IPC: 2.54206 cumulative IPC: 2.54203 (Simulation time: 0 hr 14 min 25 sec) 
Heartbeat CPU 2 instructions: 30000001 cycles: 11801799 heartbeat IPC: 2.54201 cumulative IPC: 2.54199 (Simulation time: 0 hr 14 min 25 sec) 
Heartbeat CPU 3 instructions: 30000001 cycles: 11801989 heartbeat IPC: 2.54199 cumulative IPC: 2.54194 (Simulation time: 0 hr 14 min 25 sec) 
Heartbeat CPU 0 instructions: 40000000 cycles: 15735234 heartbeat IPC: 2.54207 cumulative IPC: 2.54207 (Simulation time: 0 hr 19 min 25 sec) 
Heartbeat CPU 1 instructions: 40000000 cycles: 15735456 heartbeat IPC: 2.54204 cumulative IPC: 2.54203 (Simulation time: 0 hr 19 min 25 sec) 
Heartbeat CPU 2 instructions: 40000000 cycles: 15735733 heartbeat IPC: 2.54198 cumulative IPC: 2.54199 (Simulation time: 0 hr 19 min 25 sec) 
Heartbeat CPU 3 instructions: 40000000 cycles: 15735916 heartbeat IPC: 2.54199 cumulative IPC: 2.54196 (Simulation time: 0 hr 19 min 25 sec) 
Heartbeat CPU 0 instructions: 50000000 cycles: 19669564 heartbeat IPC: 2.54173 cumulative IPC: 2.542 (Simulation time: 0 hr 24 min 3 sec) 
Heartbeat CPU 1 instructions: 50000000 cycles: 19669884 heartbeat IPC: 2.54167 cumulative IPC: 2.54196 (Simulation time: 0 hr 24 min 3 sec) 
Heartbeat CPU 2 instructions: 50000000 cycles: 19670156 heartbeat IPC: 2.54167 cumulative IPC: 2.54192 (Simulation time: 0 hr 24 min 3 sec) 
Heartbeat CPU 3 instructions: 50000000 cycles: 19670419 heartbeat IPC: 2.54162 cumulative IPC: 2.54189 (Simulation time: 0 hr 24 min 3 sec) 

Warmup complete CPU 0 instructions: 50002156 cycles: 19670420 (Simulation time: 0 hr 24 min 3 sec) 
Warmup complete CPU 1 instructions: 50001381 cycles: 19670420 (Simulation time: 0 hr 24 min 3 sec) 
Warmup complete CPU 2 instructions: 50000672 cycles: 19670420 (Simulation time: 0 hr 24 min 3 sec) 
Warmup complete CPU 3 instructions: 50000004 cycles: 19670420 (Simulation time: 0 hr 24 min 3 sec) 

Heartbeat CPU 0 instructions: 60000003 cycles: 27124807 heartbeat IPC: 1.34134 cumulative IPC: 1.3412 (Simulation time: 0 hr 28 min 45 sec) 
Heartbeat CPU 1 instructions: 60000003 cycles: 27158845 heartbeat IPC: 1.3353 cumulative IPC: 1.33521 (Simulation time: 0 hr 28 min 46 sec) 
Heartbeat CPU 2 instructions: 60000003 cycles: 27164874 heartbeat IPC: 1.33427 cumulative IPC: 1.33423 (Simulation time: 0 hr 28 min 46 sec) 
Heartbeat CPU 3 instructions: 60000003 cycles: 27191158 heartbeat IPC: 1.32966 cumulative IPC: 1.32966 (Simulation time: 0 hr 28 min 47 sec) 
Heartbeat CPU 0 instructions: 70000002 cycles: 34512052 heartbeat IPC: 1.35368 cumulative IPC: 1.34742 (Simulation time: 0 hr 33 min 42 sec) 
Heartbeat CPU 2 instructions: 70000002 cycles: 34642190 heartbeat IPC: 1.33738 cumulative IPC: 1.3358 (Simulation time: 0 hr 33 min 48 sec) 
Heartbeat CPU 1 instructions: 70000002 cycles: 34645730 heartbeat IPC: 1.33567 cumulative IPC: 1.33544 (Simulation time: 0 hr 33 min 48 sec) 
Heartbeat CPU 3 instructions: 70000002 cycles: 34656650 heartbeat IPC: 1.3395 cumulative IPC: 1.33456 (Simulation time: 0 hr 33 min 48 sec) 
Heartbeat CPU 0 instructions: 80000001 cycles: 41981775 heartbeat IPC: 1.33874 cumulative IPC: 1.34451 (Simulation time: 0 hr 38 min 41 sec) 
Heartbeat CPU 1 instructions: 80000002 cycles: 42039948 heartbeat IPC: 1.35241 cumulative IPC: 1.34105 (Simulation time: 0 hr 38 min 44 sec) 
Heartbeat CPU 3 instructions: 80000002 cycles: 42090864 heartbeat IPC: 1.34513 cumulative IPC: 1.33806 (Simulation time: 0 hr 38 min 46 sec) 
Heartbeat CPU 2 instructions: 80000001 cycles: 42096874 heartbeat IPC: 1.34144 cumulative IPC: 1.33768 (Simulation time: 0 hr 38 min 46 sec) 
Heartbeat CPU 0 instructions: 90000003 cycles: 49421881 heartbeat IPC: 1.34407 cumulative IPC: 1.3444 (Simulation time: 0 hr 43 min 34 sec) 
Heartbeat CPU 1 instructions: 90000003 cycles: 49514097 heartbeat IPC: 1.33795 cumulative IPC: 1.34027 (Simulation time: 0 hr 43 min 38 sec) 
Heartbeat CPU 3 instructions: 90000003 cycles: 49537037 heartbeat IPC: 1.34297 cumulative IPC: 1.33929 (Simulation time: 0 hr 43 min 39 sec) 
Heartbeat CPU 2 instructions: 90000002 cycles: 49588315 heartbeat IPC: 1.33486 cumulative IPC: 1.33697 (Simulation time: 0 hr 43 min 41 sec) 
Heartbeat CPU 1 instructions: 100000002 cycles: 56896239 heartbeat IPC: 1.35462 cumulative IPC: 1.34312 (Simulation time: 0 hr 48 min 38 sec) 
Heartbeat CPU 0 instructions: 100000002 cycles: 56913973 heartbeat IPC: 1.33474 cumulative IPC: 1.34246 (Simulation time: 0 hr 48 min 39 sec) 
Heartbeat CPU 3 instructions: 100000002 cycles: 57009098 heartbeat IPC: 1.33832 cumulative IPC: 1.33909 (Simulation time: 0 hr 48 min 43 sec) 
Heartbeat CPU 2 instructions: 100000002 cycles: 57058865 heartbeat IPC: 1.33859 cumulative IPC: 1.33729 (Simulation time: 0 hr 48 min 45 sec) 
Heartbeat CPU 0 instructions: 110000000 cycles: 64443326 heartbeat IPC: 1.32814 cumulative IPC: 1.34005 (Simulation time: 0 hr 53 min 42 sec) 
Heartbeat CPU 3 instructions: 110000000 cycles: 64496534 heartbeat IPC: 1.33557 cumulative IPC: 1.33851 (Simulation time: 0 hr 53 min 43 sec) 
Heartbeat CPU 1 instructions: 110000000 cycles: 64528501 heartbeat IPC: 1.31023 cumulative IPC: 1.33752 (Simulation time: 0 hr 53 min 45 sec) 
Heartbeat CPU 2 instructions: 110000000 cycles: 64548722 heartbeat IPC: 1.33514 cumulative IPC: 1.33693 (Simulation time: 0 hr 53 min 45 sec) 
Heartbeat CPU 1 instructions: 120000002 cycles: 72021953 heartbeat IPC: 1.3345 cumulative IPC: 1.33709 (Simulation time: 0 hr 58 min 31 sec) 
Heartbeat CPU 3 instructions: 120000002 cycles: 72049724 heartbeat IPC: 1.32394 cumulative IPC: 1.33641 (Simulation time: 0 hr 58 min 32 sec) 
Heartbeat CPU 0 instructions: 120000002 cycles: 72064254 heartbeat IPC: 1.31218 cumulative IPC: 1.33599 (Simulation time: 0 hr 58 min 33 sec) 
Heartbeat CPU 2 instructions: 120000002 cycles: 72146605 heartbeat IPC: 1.31616 cumulative IPC: 1.33393 (Simulation time: 0 hr 58 min 35 sec) 
Heartbeat CPU 1 instructions: 130000001 cycles: 79467884 heartbeat IPC: 1.34302 cumulative IPC: 1.33783 (Simulation time: 1 hr 3 min 27 sec) 
Heartbeat CPU 3 instructions: 130000001 cycles: 79472166 heartbeat IPC: 1.34727 cumulative IPC: 1.33775 (Simulation time: 1 hr 3 min 27 sec) 
Heartbeat CPU 0 instructions: 130000001 cycles: 79472291 heartbeat IPC: 1.34989 cumulative IPC: 1.33771 (Simulation time: 1 hr 3 min 27 sec) 
Heartbeat CPU 2 instructions: 130000001 cycles: 79584044 heartbeat IPC: 1.34455 cumulative IPC: 1.33524 (Simulation time: 1 hr 3 min 32 sec) 
Heartbeat CPU 1 instructions: 140000003 cycles: 86925189 heartbeat IPC: 1.34097 cumulative IPC: 1.33817 (Simulation time: 1 hr 8 min 23 sec) 
Heartbeat CPU 0 instructions: 140000003 cycles: 86934703 heartbeat IPC: 1.34005 cumulative IPC: 1.33797 (Simulation time: 1 hr 8 min 23 sec) 
Heartbeat CPU 2 instructions: 140000003 cycles: 86956162 heartbeat IPC: 1.35646 cumulative IPC: 1.33757 (Simulation time: 1 hr 8 min 24 sec) 
Heartbeat CPU 3 instructions: 140000003 cycles: 86965522 heartbeat IPC: 1.33452 cumulative IPC: 1.33739 (Simulation time: 1 hr 8 min 24 sec) 
Heartbeat CPU 1 instructions: 150000003 cycles: 94366295 heartbeat IPC: 1.34389 cumulative IPC: 1.33874 (Simulation time: 1 hr 13 min 23 sec) 
Heartbeat CPU 0 instructions: 150000003 cycles: 94380858 heartbeat IPC: 1.34298 cumulative IPC: 1.33847 (Simulation time: 1 hr 13 min 24 sec) 
Heartbeat CPU 3 instructions: 150000003 cycles: 94437637 heartbeat IPC: 1.33831 cumulative IPC: 1.33748 (Simulation time: 1 hr 13 min 26 sec) 
Heartbeat CPU 2 instructions: 150000003 cycles: 94439864 heartbeat IPC: 1.33624 cumulative IPC: 1.33744 (Simulation time: 1 hr 13 min 26 sec) 
Heartbeat CPU 0 instructions: 160000001 cycles: 101748615 heartbeat IPC: 1.35726 cumulative IPC: 1.34016 (Simulation time: 1 hr 18 min 11 sec) 
Heartbeat CPU 1 instructions: 160000001 cycles: 101797712 heartbeat IPC: 1.34564 cumulative IPC: 1.33937 (Simulation time: 1 hr 18 min 13 sec) 
Heartbeat CPU 3 instructions: 160000001 cycles: 101857422 heartbeat IPC: 1.34775 cumulative IPC: 1.33841 (Simulation time: 1 hr 18 min 15 sec) 
Heartbeat CPU 2 instructions: 160000001 cycles: 101863518 heartbeat IPC: 1.34705 cumulative IPC: 1.3383 (Simulation time: 1 hr 18 min 16 sec) 
Heartbeat CPU 2 instructions: 170000000 cycles: 109213414 heartbeat IPC: 1.36056 cumulative IPC: 1.34013 (Simulation time: 1 hr 23 min 10 sec) 
Heartbeat CPU 0 instructions: 170000000 cycles: 109224442 heartbeat IPC: 1.33764 cumulative IPC: 1.33995 (Simulation time: 1 hr 23 min 10 sec) 
Heartbeat CPU 1 instructions: 170000000 cycles: 109267395 heartbeat IPC: 1.33874 cumulative IPC: 1.33932 (Simulation time: 1 hr 23 min 12 sec) 
Heartbeat CPU 3 instructions: 170000002 cycles: 109319807 heartbeat IPC: 1.34005 cumulative IPC: 1.33855 (Simulation time: 1 hr 23 min 14 sec) 
Heartbeat CPU 2 instructions: 180000003 cycles: 116618366 heartbeat IPC: 1.35045 cumulative IPC: 1.34092 (Simulation time: 1 hr 28 min 14 sec) 
Heartbeat CPU 0 instructions: 180000002 cycles: 116714679 heartbeat IPC: 1.33507 cumulative IPC: 1.33957 (Simulation time: 1 hr 28 min 18 sec) 
Heartbeat CPU 1 instructions: 180000003 cycles: 116740212 heartbeat IPC: 1.33818 cumulative IPC: 1.33923 (Simulation time: 1 hr 28 min 19 sec) 
Heartbeat CPU 3 instructions: 180000001 cycles: 116786639 heartbeat IPC: 1.33926 cumulative IPC: 1.3386 (Simulation time: 1 hr 28 min 21 sec) 
Heartbeat CPU 2 instructions: 190000001 cycles: 124084203 heartbeat IPC: 1.33943 cumulative IPC: 1.34081 (Simulation time: 1 hr 33 min 14 sec) 
Heartbeat CPU 1 instructions: 190000001 cycles: 124181900 heartbeat IPC: 1.34378 cumulative IPC: 1.33955 (Simulation time: 1 hr 33 min 18 sec) 
Heartbeat CPU 3 instructions: 190000001 cycles: 124216358 heartbeat IPC: 1.34595 cumulative IPC: 1.33912 (Simulation time: 1 hr 33 min 19 sec) 
Heartbeat CPU 0 instructions: 190000001 cycles: 124280838 heartbeat IPC: 1.32167 cumulative IPC: 1.33828 (Simulation time: 1 hr 33 min 22 sec) 
Heartbeat CPU 2 instructions: 200000003 cycles: 131567410 heartbeat IPC: 1.33633 cumulative IPC: 1.34051 (Simulation time: 1 hr 38 min 9 sec) 
Heartbeat CPU 1 instructions: 200000003 cycles: 131643033 heartbeat IPC: 1.34028 cumulative IPC: 1.3396 (Simulation time: 1 hr 38 min 11 sec) 
Heartbeat CPU 3 instructions: 200000001 cycles: 131675348 heartbeat IPC: 1.34066 cumulative IPC: 1.33923 (Simulation time: 1 hr 38 min 12 sec) 
Heartbeat CPU 0 instructions: 200000001 cycles: 131733791 heartbeat IPC: 1.34175 cumulative IPC: 1.33851 (Simulation time: 1 hr 38 min 15 sec) 
Heartbeat CPU 2 instructions: 210000000 cycles: 138998358 heartbeat IPC: 1.34572 cumulative IPC: 1.34084 (Simulation time: 1 hr 43 min 4 sec) 
Heartbeat CPU 1 instructions: 210000000 cycles: 139091285 heartbeat IPC: 1.3426 cumulative IPC: 1.33979 (Simulation time: 1 hr 43 min 8 sec) 
Heartbeat CPU 3 instructions: 210000000 cycles: 139115441 heartbeat IPC: 1.34407 cumulative IPC: 1.33953 (Simulation time: 1 hr 43 min 9 sec) 
Heartbeat CPU 0 instructions: 210000000 cycles: 139169935 heartbeat IPC: 1.34478 cumulative IPC: 1.3389 (Simulation time: 1 hr 43 min 12 sec) 
Heartbeat CPU 2 instructions: 220000000 cycles: 146402017 heartbeat IPC: 1.35068 cumulative IPC: 1.34141 (Simulation time: 1 hr 47 min 51 sec) 
Heartbeat CPU 3 instructions: 220000000 cycles: 146522057 heartbeat IPC: 1.35014 cumulative IPC: 1.34015 (Simulation time: 1 hr 47 min 56 sec) 
Heartbeat CPU 1 instructions: 220000000 cycles: 146534890 heartbeat IPC: 1.34344 cumulative IPC: 1.34 (Simulation time: 1 hr 47 min 57 sec) 
Heartbeat CPU 0 instructions: 220000000 cycles: 146636153 heartbeat IPC: 1.33937 cumulative IPC: 1.33893 (Simulation time: 1 hr 48 min 0 sec) 
Heartbeat CPU 2 instructions: 230000003 cycles: 153840483 heartbeat IPC: 1.34436 cumulative IPC: 1.34158 (Simulation time: 1 hr 52 min 43 sec) 
Heartbeat CPU 3 instructions: 230000003 cycles: 153919163 heartbeat IPC: 1.35188 cumulative IPC: 1.34079 (Simulation time: 1 hr 52 min 46 sec) 
Heartbeat CPU 1 instructions: 230000003 cycles: 154008918 heartbeat IPC: 1.33797 cumulative IPC: 1.33989 (Simulation time: 1 hr 52 min 49 sec) 
Heartbeat CPU 0 instructions: 230000003 cycles: 154144367 heartbeat IPC: 1.33188 cumulative IPC: 1.33853 (Simulation time: 1 hr 52 min 54 sec) 
Heartbeat CPU 2 instructions: 240000002 cycles: 161293296 heartbeat IPC: 1.34178 cumulative IPC: 1.34159 (Simulation time: 1 hr 57 min 40 sec) 
Heartbeat CPU 1 instructions: 240000002 cycles: 161400878 heartbeat IPC: 1.35282 cumulative IPC: 1.34056 (Simulation time: 1 hr 57 min 45 sec) 
Heartbeat CPU 3 instructions: 240000002 cycles: 161410327 heartbeat IPC: 1.33491 cumulative IPC: 1.34048 (Simulation time: 1 hr 57 min 45 sec) 
Heartbeat CPU 0 instructions: 240000002 cycles: 161614236 heartbeat IPC: 1.33871 cumulative IPC: 1.33854 (Simulation time: 1 hr 57 min 53 sec) 
Heartbeat CPU 2 instructions: 250000002 cycles: 168747483 heartbeat IPC: 1.34153 cumulative IPC: 1.34158 (Simulation time: 2 hr 2 min 44 sec) 
Finished CPU 2 instructions: 200000002 cycles: 149077374 cumulative IPC: 1.34159 (Simulation time: 2 hr 2 min 44 sec) 
Heartbeat CPU 3 instructions: 250000002 cycles: 168796052 heartbeat IPC: 1.35396 cumulative IPC: 1.34115 (Simulation time: 2 hr 2 min 46 sec) 
Finished CPU 3 instructions: 200000002 cycles: 149125633 cumulative IPC: 1.34115 (Simulation time: 2 hr 2 min 46 sec) 
Heartbeat CPU 1 instructions: 250000002 cycles: 168810502 heartbeat IPC: 1.3496 cumulative IPC: 1.34101 (Simulation time: 2 hr 2 min 47 sec) 
Finished CPU 1 instructions: 200000001 cycles: 149140768 cumulative IPC: 1.34101 (Simulation time: 2 hr 2 min 47 sec) 
Heartbeat CPU 0 instructions: 250000002 cycles: 169109789 heartbeat IPC: 1.33412 cumulative IPC: 1.33832 (Simulation time: 2 hr 2 min 59 sec) 
Finished CPU 0 instructions: 200000001 cycles: 149440452 cumulative IPC: 1.33833 (Simulation time: 2 hr 2 min 59 sec) 

ChampSim completed all CPUs

Total Simulation Statistics (not including warmup)

CPU 0 cumulative IPC: 1.33833 instructions: 200000001 cycles: 149440452
ITLB TOTAL     ACCESS:   26320271  HIT:   26320271  MISS:          0  HIT %:        100  MISS %:          0   MPKI: 0
ITLB LOAD      ACCESS:          0  HIT:          0  MISS:          0  HIT %:       -nan  MISS %:       -nan   MPKI: 0
ITLB RFO       ACCESS:          0  HIT:          0  MISS:          0  HIT %:       -nan  MISS %:       -nan   MPKI: 0
ITLB PREFETCH  ACCESS:          0  HIT:          0  MISS:          0  HIT %:       -nan  MISS %:       -nan   MPKI: 0
ITLB WRITEBACK ACCESS:          0  HIT:          0  MISS:          0  HIT %:       -nan  MISS %:       -nan   MPKI: 0
DTLB TOTAL     ACCESS:   70972278  HIT:   70806003  MISS:     166275  HIT %:    99.7657  MISS %:   0.234282   MPKI: 0.831375
DTLB LOAD      ACCESS:          0  HIT:          0  MISS:          0  HIT %:       -nan  MISS %:       -nan   MPKI: 0
DTLB RFO       ACCESS:          0  HIT:          0  MISS:          0  HIT %:       -nan  MISS %:       -nan   MPKI: 0
DTLB PREFETCH  ACCESS:          0  HIT:          0  MISS:          0  HIT %:       -nan  MISS %:       -nan   MPKI: 0
DTLB WRITEBACK ACCESS:          0  HIT:          0  MISS:          0  HIT %:       -nan  MISS %:       -nan   MPKI: 0
STLB TOTAL     ACCESS:   31068885  HIT:   31014359  MISS:      54526  HIT %:    99.8245  MISS %:     0.1755   MPKI: 0.27263
STLB LOAD      ACCESS:          0  HIT:          0  MISS:          0  HIT %:       -nan  MISS %:       -nan   MPKI: 0
STLB RFO       ACCESS:          0  HIT:          0  MISS:          0  HIT %:       -nan  MISS %:       -nan   MPKI: 0
STLB PREFETCH  ACCESS:          0  HIT:          0  MISS:          0  HIT %:       -nan  MISS %:       -nan   MPKI: 0
STLB WRITEBACK ACCESS:          0  HIT:          0  MISS:          0  HIT %:       -nan  MISS %:       -nan   MPKI: 0
L1D TOTAL     ACCESS:  140617938  HIT:  136730906  MISS:    3887032  HIT %:    97.2357  MISS %:    2.76425   MPKI: 19.4352
L1D LOAD      ACCESS:   78479350  HIT:   78044855  MISS:     434495  HIT %:    99.4464  MISS %:   0.553642   MPKI: 2.17247
L1D RFO       ACCESS:   14164042  HIT:   14069935  MISS:      94107  HIT %:    99.3356  MISS %:   0.664408   MPKI: 0.470535
L1D PREFETCH  ACCESS:   47974546  HIT:   44616116  MISS:    3358430  HIT %:    92.9996  MISS %:    7.00044   MPKI: 16.7921
L1D WRITEBACK ACCESS:          0  HIT:          0  MISS:          0  HIT %:       -nan  MISS %:       -nan   MPKI: 0
L1I TOTAL     ACCESS:   32209099  HIT:   32209099  MISS:          0  HIT %:        100  MISS %:          0   MPKI: 0
L1I LOAD      ACCESS:   32209099  HIT:   32209099  MISS:          0  HIT %:        100  MISS %:          0   MPKI: 0
L1I RFO       ACCESS:          0  HIT:          0  MISS:          0  HIT %:       -nan  MISS %:       -nan   MPKI: 0
L1I PREFETCH  ACCESS:          0  HIT:          0  MISS:          0  HIT %:       -nan  MISS %:       -nan   MPKI: 0
L1I WRITEBACK ACCESS:          0  HIT:          0  MISS:          0  HIT %:       -nan  MISS %:       -nan   MPKI: 0
L2C TOTAL     ACCESS:   12249812  HIT:    8164991  MISS:    4084821  HIT %:     66.654  MISS %:     33.346   MPKI: 20.4241
L2C LOAD      ACCESS:     250692  HIT:     114065  MISS:     136627  HIT %:    45.5001  MISS %:    54.4999   MPKI: 0.683135
L2C RFO       ACCESS:      94107  HIT:          0  MISS:      94107  HIT %:          0  MISS %:        100   MPKI: 0.470535
L2C PREFETCH  ACCESS:   11152230  HIT:    7314031  MISS:    3838199  HIT %:    65.5836  MISS %:    34.4164   MPKI: 19.191
L2C WRITEBACK ACCESS:      94119  HIT:      85609  MISS:       8510  HIT %:    90.9583  MISS %:    9.04175   MPKI: 0.04255
PSCL5 TOTAL     ACCESS:     638227  HIT:     638227  MISS:          0  HIT %:        100  MISS %:          0   MPKI: 0
PSCL5 LOAD      ACCESS:          0  HIT:          0  MISS:          0  HIT %:       -nan  MISS %:       -nan   MPKI: 0
PSCL5 RFO       ACCESS:          0  HIT:          0  MISS:          0  HIT %:       -nan  MISS %:       -nan   MPKI: 0
PSCL5 PREFETCH  ACCESS:          0  HIT:          0  MISS:          0  HIT %:       -nan  MISS %:       -nan   MPKI: 0
PSCL5 WRITEBACK ACCESS:          0  HIT:          0  MISS:          0  HIT %:       -nan  MISS %:       -nan   MPKI: 0
PSCL4 TOTAL     ACCESS:     638227  HIT:     638227  MISS:          0  HIT %:        100  MISS %:          0   MPKI: 0
PSCL4 LOAD      ACCESS:          0  HIT:          0  MISS:          0  HIT %:       -nan  MISS %:       -nan   MPKI: 0
PSCL4 RFO       ACCESS:          0  HIT:          0  MISS:          0  HIT %:       -nan  MISS %:       -nan   MPKI: 0
PSCL4 PREFETCH  ACCESS:          0  HIT:          0  MISS:          0  HIT %:       -nan  MISS %:       -nan   MPKI: 0
PSCL4 WRITEBACK ACCESS:          0  HIT:          0  MISS:          0  HIT %:       -nan  MISS %:       -nan   MPKI: 0
PSCL3 TOTAL     ACCESS:     638227  HIT:     638227  MISS:          0  HIT %:        100  MISS %:          0   MPKI: 0
PSCL3 LOAD      ACCESS:          0  HIT:          0  MISS:          0  HIT %:       -nan  MISS %:       -nan   MPKI: 0
PSCL3 RFO       ACCESS:          0  HIT:          0  MISS:          0  HIT %:       -nan  MISS %:       -nan   MPKI: 0
PSCL3 PREFETCH  ACCESS:          0  HIT:          0  MISS:          0  HIT %:       -nan  MISS %:       -nan   MPKI: 0
PSCL3 WRITEBACK ACCESS:          0  HIT:          0  MISS:          0  HIT %:       -nan  MISS %:       -nan   MPKI: 0
PSCL2 TOTAL     ACCESS:     616731  HIT:     616619  MISS:        112  HIT %:    99.9818  MISS %:  0.0181603   MPKI: 0.00056
PSCL2 LOAD      ACCESS:          0  HIT:          0  MISS:          0  HIT %:       -nan  MISS %:       -nan   MPKI: 0
PSCL2 RFO       ACCESS:          0  HIT:          0  MISS:          0  HIT %:       -nan  MISS %:       -nan   MPKI: 0
PSCL2 PREFETCH  ACCESS:          0  HIT:          0  MISS:          0  HIT %:       -nan  MISS %:       -nan   MPKI: 0
PSCL2 WRITEBACK ACCESS:          0  HIT:          0  MISS:          0  HIT %:       -nan  MISS %:       -nan   MPKI: 0
LLC TOTAL     ACCESS:    4170439  HIT:     573393  MISS:    3597046  HIT %:     13.749  MISS %:     86.251   MPKI: 17.9852
LLC LOAD      ACCESS:     102276  HIT:         29  MISS:     102247  HIT %:  0.0283546  MISS %:    99.9716   MPKI: 0.511235
LLC RFO       ACCESS:      94107  HIT:          0  MISS:      94107  HIT %:          0  MISS %:        100   MPKI: 0.470535
LLC PREFETCH  ACCESS:    3872550  HIT:     481519  MISS:    3391031  HIT %:    12.4342  MISS %:    87.5658   MPKI: 16.9552
LLC WRITEBACK ACCESS:      94128  HIT:      91445  MISS:       2683  HIT %:    97.1496  MISS %:    2.85037   MPKI: 0.013415

RAW hits: 12074226
Loads Generated: 117253493
Loads sent to L1D: 105179256
Stores Generated: 14974749
Stores sent to L1D: 14974749

CPU 1 cumulative IPC: 1.34102 instructions: 200402971 cycles: 149440452
ITLB TOTAL     ACCESS:   26372236  HIT:   26372236  MISS:          0  HIT %:        100  MISS %:          0   MPKI: 0
ITLB LOAD      ACCESS:          0  HIT:          0  MISS:          0  HIT %:       -nan  MISS %:       -nan   MPKI: 0
ITLB RFO       ACCESS:          0  HIT:          0  MISS:          0  HIT %:       -nan  MISS %:       -nan   MPKI: 0
ITLB PREFETCH  ACCESS:          0  HIT:          0  MISS:          0  HIT %:       -nan  MISS %:       -nan   MPKI: 0
ITLB WRITEBACK ACCESS:          0  HIT:          0  MISS:          0  HIT %:       -nan  MISS %:       -nan   MPKI: 0
DTLB TOTAL     ACCESS:   71121280  HIT:   70954926  MISS:     166354  HIT %:    99.7661  MISS %:   0.233902   MPKI: 0.830097
DTLB LOAD      ACCESS:          0  HIT:          0  MISS:          0  HIT %:       -nan  MISS %:       -nan   MPKI: 0
DTLB RFO       ACCESS:          0  HIT:          0  MISS:          0  HIT %:       -nan  MISS %:       -nan   MPKI: 0
DTLB PREFETCH  ACCESS:          0  HIT:          0  MISS:          0  HIT %:       -nan  MISS %:       -nan   MPKI: 0
DTLB WRITEBACK ACCESS:          0  HIT:          0  MISS:          0  HIT %:       -nan  MISS %:       -nan   MPKI: 0
STLB TOTAL     ACCESS:   31483640  HIT:   31429002  MISS:      54638  HIT %:    99.8265  MISS %:   0.173544   MPKI: 0.272641
STLB LOAD      ACCESS:          0  HIT:          0  MISS:          0  HIT %:       -nan  MISS %:       -nan   MPKI: 0
STLB RFO       ACCESS:          0  HIT:          0  MISS:          0  HIT %:       -nan  MISS %:       -nan   MPKI: 0
STLB PREFETCH  ACCESS:          0  HIT:          0  MISS:          0  HIT %:       -nan  MISS %:       -nan   MPKI: 0
STLB WRITEBACK ACCESS:          0  HIT:          0  MISS:          0  HIT %:       -nan  MISS %:       -nan   MPKI: 0
L1D TOTAL     ACCESS:  141301517  HIT:  137414751  MISS:    3886766  HIT %:    97.2493  MISS %:    2.75069   MPKI: 19.3948
L1D LOAD      ACCESS:   78654424  HIT:   78222953  MISS:     431471  HIT %:    99.4514  MISS %:   0.548565   MPKI: 2.15302
L1D RFO       ACCESS:   14190809  HIT:   14096512  MISS:      94297  HIT %:    99.3355  MISS %:   0.664493   MPKI: 0.470537
L1D PREFETCH  ACCESS:   48456284  HIT:   45095286  MISS:    3360998  HIT %:    93.0639  MISS %:    6.93614   MPKI: 16.7712
L1D WRITEBACK ACCESS:          0  HIT:          0  MISS:          0  HIT %:       -nan  MISS %:       -nan   MPKI: 0
L1I TOTAL     ACCESS:   32272892  HIT:   32272892  MISS:          0  HIT %:        100  MISS %:          0   MPKI: 0
L1I LOAD      ACCESS:   32272892  HIT:   32272892  MISS:          0  HIT %:        100  MISS %:          0   MPKI: 0
L1I RFO       ACCESS:          0  HIT:          0  MISS:          0  HIT %:       -nan  MISS %:       -nan   MPKI: 0
L1I PREFETCH  ACCESS:          0  HIT:          0  MISS:          0  HIT %:       -nan  MISS %:       -nan   MPKI: 0
L1I WRITEBACK ACCESS:          0  HIT:          0  MISS:          0  HIT %:       -nan  MISS %:       -nan   MPKI: 0
L2C TOTAL     ACCESS:   12404935  HIT:    8318963  MISS:    4085972  HIT %:    67.0617  MISS %:    32.9383   MPKI: 20.3888
L2C LOAD      ACCESS:     248267  HIT:     111868  MISS:     136399  HIT %:    45.0596  MISS %:    54.9404   MPKI: 0.680624
L2C RFO       ACCESS:      94297  HIT:          0  MISS:      94297  HIT %:          0  MISS %:        100   MPKI: 0.470537
L2C PREFETCH  ACCESS:   11363187  HIT:    7523916  MISS:    3839271  HIT %:    66.2131  MISS %:    33.7869   MPKI: 19.1578
L2C WRITEBACK ACCESS:      94304  HIT:      85693  MISS:       8611  HIT %:    90.8689  MISS %:    9.13111   MPKI: 0.0429684
PSCL5 TOTAL     ACCESS:     585260  HIT:     585260  MISS:          0  HIT %:        100  MISS %:          0   MPKI: 0
PSCL5 LOAD      ACCESS:          0  HIT:          0  MISS:          0  HIT %:       -nan  MISS %:       -nan   MPKI: 0
PSCL5 RFO       ACCESS:          0  HIT:          0  MISS:          0  HIT %:       -nan  MISS %:       -nan   MPKI: 0
PSCL5 PREFETCH  ACCESS:          0  HIT:          0  MISS:          0  HIT %:       -nan  MISS %:       -nan   MPKI: 0
PSCL5 WRITEBACK ACCESS:          0  HIT:          0  MISS:          0  HIT %:       -nan  MISS %:       -nan   MPKI: 0
PSCL4 TOTAL     ACCESS:     585260  HIT:     585260  MISS:          0  HIT %:        100  MISS %:          0   MPKI: 0
PSCL4 LOAD      ACCESS:          0  HIT:          0  MISS:          0  HIT %:       -nan  MISS %:       -nan   MPKI: 0
PSCL4 RFO       ACCESS:          0  HIT:          0  MISS:          0  HIT %:       -nan  MISS %:       -nan   MPKI: 0
PSCL4 PREFETCH  ACCESS:          0  HIT:          0  MISS:          0  HIT %:       -nan  MISS %:       -nan   MPKI: 0
PSCL4 WRITEBACK ACCESS:          0  HIT:          0  MISS:          0  HIT %:       -nan  MISS %:       -nan   MPKI: 0
PSCL3 TOTAL     ACCESS:     585260  HIT:     585260  MISS:          0  HIT %:        100  MISS %:          0   MPKI: 0
PSCL3 LOAD      ACCESS:          0  HIT:          0  MISS:          0  HIT %:       -nan  MISS %:       -nan   MPKI: 0
PSCL3 RFO       ACCESS:          0  HIT:          0  MISS:          0  HIT %:       -nan  MISS %:       -nan   MPKI: 0
PSCL3 PREFETCH  ACCESS:          0  HIT:          0  MISS:          0  HIT %:       -nan  MISS %:       -nan   MPKI: 0
PSCL3 WRITEBACK ACCESS:          0  HIT:          0  MISS:          0  HIT %:       -nan  MISS %:       -nan   MPKI: 0
PSCL2 TOTAL     ACCESS:     565375  HIT:     565263  MISS:        112  HIT %:    99.9802  MISS %:  0.0198099   MPKI: 0.000558874
PSCL2 LOAD      ACCESS:          0  HIT:          0  MISS:          0  HIT %:       -nan  MISS %:       -nan   MPKI: 0
PSCL2 RFO       ACCESS:          0  HIT:          0  MISS:          0  HIT %:       -nan  MISS %:       -nan   MPKI: 0
PSCL2 PREFETCH  ACCESS:          0  HIT:          0  MISS:          0  HIT %:       -nan  MISS %:       -nan   MPKI: 0
PSCL2 WRITEBACK ACCESS:          0  HIT:          0  MISS:          0  HIT %:       -nan  MISS %:       -nan   MPKI: 0
LLC TOTAL     ACCESS:    4171725  HIT:     568800  MISS:    3602925  HIT %:    13.6346  MISS %:    86.3654   MPKI: 17.9784
LLC LOAD      ACCESS:     102092  HIT:         23  MISS:     102069  HIT %:  0.0225287  MISS %:    99.9775   MPKI: 0.509319
LLC RFO       ACCESS:      94297  HIT:          0  MISS:      94297  HIT %:          0  MISS %:        100   MPKI: 0.470537
LLC PREFETCH  ACCESS:    3873578  HIT:     476575  MISS:    3397003  HIT %:    12.3032  MISS %:    87.6968   MPKI: 16.9509
LLC WRITEBACK ACCESS:      94364  HIT:      91811  MISS:       2553  HIT %:    97.2945  MISS %:    2.70548   MPKI: 0.0127393

RAW hits: 12093035
Loads Generated: 117489743
Loads sent to L1D: 105396678
Stores Generated: 15004919
Stores sent to L1D: 15004919

CPU 2 cumulative IPC: 1.34155 instructions: 200482414 cycles: 149440452
ITLB TOTAL     ACCESS:   26383850  HIT:   26383850  MISS:          0  HIT %:        100  MISS %:          0   MPKI: 0
ITLB LOAD      ACCESS:          0  HIT:          0  MISS:          0  HIT %:       -nan  MISS %:       -nan   MPKI: 0
ITLB RFO       ACCESS:          0  HIT:          0  MISS:          0  HIT %:       -nan  MISS %:       -nan   MPKI: 0
ITLB PREFETCH  ACCESS:          0  HIT:          0  MISS:          0  HIT %:       -nan  MISS %:       -nan   MPKI: 0
ITLB WRITEBACK ACCESS:          0  HIT:          0  MISS:          0  HIT %:       -nan  MISS %:       -nan   MPKI: 0
DTLB TOTAL     ACCESS:   71154538  HIT:   70988240  MISS:     166298  HIT %:    99.7663  MISS %:   0.233714   MPKI: 0.829489
DTLB LOAD      ACCESS:          0  HIT:          0  MISS:          0  HIT %:       -nan  MISS %:       -nan   MPKI: 0
DTLB RFO       ACCESS:          0  HIT:          0  MISS:          0  HIT %:       -nan  MISS %:       -nan   MPKI: 0
DTLB PREFETCH  ACCESS:          0  HIT:          0  MISS:          0  HIT %:       -nan  MISS %:       -nan   MPKI: 0
DTLB WRITEBACK ACCESS:          0  HIT:          0  MISS:          0  HIT %:       -nan  MISS %:       -nan   MPKI: 0
STLB TOTAL     ACCESS:   31516677  HIT:   31462020  MISS:      54657  HIT %:    99.8266  MISS %:   0.173422   MPKI: 0.272627
STLB LOAD      ACCESS:          0  HIT:          0  MISS:          0  HIT %:       -nan  MISS %:       -nan   MPKI: 0
STLB RFO       ACCESS:          0  HIT:          0  MISS:          0  HIT %:       -nan  MISS %:       -nan   MPKI: 0
STLB PREFETCH  ACCESS:          0  HIT:          0  MISS:          0  HIT %:       -nan  MISS %:       -nan   MPKI: 0
STLB WRITEBACK ACCESS:          0  HIT:          0  MISS:          0  HIT %:       -nan  MISS %:       -nan   MPKI: 0
L1D TOTAL     ACCESS:  141196901  HIT:  137321900  MISS:    3875001  HIT %:    97.2556  MISS %:     2.7444   MPKI: 19.3284
L1D LOAD      ACCESS:   78689872  HIT:   78257662  MISS:     432210  HIT %:    99.4507  MISS %:   0.549257   MPKI: 2.15585
L1D RFO       ACCESS:   14201346  HIT:   14107012  MISS:      94334  HIT %:    99.3357  MISS %:   0.664261   MPKI: 0.470535
L1D PREFETCH  ACCESS:   48305683  HIT:   44957226  MISS:    3348457  HIT %:    93.0682  MISS %:    6.93181   MPKI: 16.702
L1D WRITEBACK ACCESS:          0  HIT:          0  MISS:          0  HIT %:       -nan  MISS %:       -nan   MPKI: 0
L1I TOTAL     ACCESS:   32286410  HIT:   32286410  MISS:          0  HIT %:        100  MISS %:          0   MPKI: 0
L1I LOAD      ACCESS:   32286410  HIT:   32286410  MISS:          0  HIT %:        100  MISS %:          0   MPKI: 0
L1I RFO       ACCESS:          0  HIT:          0  MISS:          0  HIT %:       -nan  MISS %:       -nan   MPKI: 0
L1I PREFETCH  ACCESS:          0  HIT:          0  MISS:          0  HIT %:       -nan  MISS %:       -nan   MPKI: 0
L1I WRITEBACK ACCESS:          0  HIT:          0  MISS:          0  HIT %:       -nan  MISS %:       -nan   MPKI: 0
L2C TOTAL     ACCESS:   12555801  HIT:    8459972  MISS:    4095829  HIT %:     67.379  MISS %:     32.621   MPKI: 20.4299
L2C LOAD      ACCESS:     248318  HIT:     111574  MISS:     136744  HIT %:    44.9319  MISS %:    55.0681   MPKI: 0.682075
L2C RFO       ACCESS:      94334  HIT:          0  MISS:      94334  HIT %:          0  MISS %:        100   MPKI: 0.470535
L2C PREFETCH  ACCESS:   11519222  HIT:    7670204  MISS:    3849018  HIT %:    66.5861  MISS %:    33.4139   MPKI: 19.1988
L2C WRITEBACK ACCESS:      94336  HIT:      86019  MISS:       8317  HIT %:    91.1836  MISS %:    8.81636   MPKI: 0.0414849
PSCL5 TOTAL     ACCESS:     580006  HIT:     580006  MISS:          0  HIT %:        100  MISS %:          0   MPKI: 0
PSCL5 LOAD      ACCESS:          0  HIT:          0  MISS:          0  HIT %:       -nan  MISS %:       -nan   MPKI: 0
PSCL5 RFO       ACCESS:          0  HIT:          0  MISS:          0  HIT %:       -nan  MISS %:       -nan   MPKI: 0
PSCL5 PREFETCH  ACCESS:          0  HIT:          0  MISS:          0  HIT %:       -nan  MISS %:       -nan   MPKI: 0
PSCL5 WRITEBACK ACCESS:          0  HIT:          0  MISS:          0  HIT %:       -nan  MISS %:       -nan   MPKI: 0
PSCL4 TOTAL     ACCESS:     580006  HIT:     580006  MISS:          0  HIT %:        100  MISS %:          0   MPKI: 0
PSCL4 LOAD      ACCESS:          0  HIT:          0  MISS:          0  HIT %:       -nan  MISS %:       -nan   MPKI: 0
PSCL4 RFO       ACCESS:          0  HIT:          0  MISS:          0  HIT %:       -nan  MISS %:       -nan   MPKI: 0
PSCL4 PREFETCH  ACCESS:          0  HIT:          0  MISS:          0  HIT %:       -nan  MISS %:       -nan   MPKI: 0
PSCL4 WRITEBACK ACCESS:          0  HIT:          0  MISS:          0  HIT %:       -nan  MISS %:       -nan   MPKI: 0
PSCL3 TOTAL     ACCESS:     580006  HIT:     580006  MISS:          0  HIT %:        100  MISS %:          0   MPKI: 0
PSCL3 LOAD      ACCESS:          0  HIT:          0  MISS:          0  HIT %:       -nan  MISS %:       -nan   MPKI: 0
PSCL3 RFO       ACCESS:          0  HIT:          0  MISS:          0  HIT %:       -nan  MISS %:       -nan   MPKI: 0
PSCL3 PREFETCH  ACCESS:          0  HIT:          0  MISS:          0  HIT %:       -nan  MISS %:       -nan   MPKI: 0
PSCL3 WRITEBACK ACCESS:          0  HIT:          0  MISS:          0  HIT %:       -nan  MISS %:       -nan   MPKI: 0
PSCL2 TOTAL     ACCESS:     560156  HIT:     560044  MISS:        112  HIT %:      99.98  MISS %:  0.0199944   MPKI: 0.000558652
PSCL2 LOAD      ACCESS:          0  HIT:          0  MISS:          0  HIT %:       -nan  MISS %:       -nan   MPKI: 0
PSCL2 RFO       ACCESS:          0  HIT:          0  MISS:          0  HIT %:       -nan  MISS %:       -nan   MPKI: 0
PSCL2 PREFETCH  ACCESS:          0  HIT:          0  MISS:          0  HIT %:       -nan  MISS %:       -nan   MPKI: 0
PSCL2 WRITEBACK ACCESS:          0  HIT:          0  MISS:          0  HIT %:       -nan  MISS %:       -nan   MPKI: 0
LLC TOTAL     ACCESS:    4181826  HIT:     572823  MISS:    3609003  HIT %:    13.6979  MISS %:    86.3021   MPKI: 18.0016
LLC LOAD      ACCESS:     102526  HIT:         18  MISS:     102508  HIT %:  0.0175565  MISS %:    99.9824   MPKI: 0.511307
LLC RFO       ACCESS:      94334  HIT:          0  MISS:      94334  HIT %:          0  MISS %:        100   MPKI: 0.470535
LLC PREFETCH  ACCESS:    3883236  HIT:     480710  MISS:    3402526  HIT %:    12.3791  MISS %:    87.6209   MPKI: 16.9717
LLC WRITEBACK ACCESS:      94314  HIT:      91673  MISS:       2641  HIT %:    97.1998  MISS %:    2.80022   MPKI: 0.0131732

RAW hits: 12096809
Loads Generated: 117536333
Loads sent to L1D: 105439503
Stores Generated: 15010865
Stores sent to L1D: 15010856

CPU 3 cumulative IPC: 1.34113 instructions: 200418336 cycles: 149440452
ITLB TOTAL     ACCESS:   26374104  HIT:   26374104  MISS:          0  HIT %:        100  MISS %:          0   MPKI: 0
ITLB LOAD      ACCESS:          0  HIT:          0  MISS:          0  HIT %:       -nan  MISS %:       -nan   MPKI: 0
ITLB RFO       ACCESS:          0  HIT:          0  MISS:          0  HIT %:       -nan  MISS %:       -nan   MPKI: 0
ITLB PREFETCH  ACCESS:          0  HIT:          0  MISS:          0  HIT %:       -nan  MISS %:       -nan   MPKI: 0
ITLB WRITEBACK ACCESS:          0  HIT:          0  MISS:          0  HIT %:       -nan  MISS %:       -nan   MPKI: 0
DTLB TOTAL     ACCESS:   71137832  HIT:   70971569  MISS:     166263  HIT %:    99.7663  MISS %:    0.23372   MPKI: 0.82958
DTLB LOAD      ACCESS:          0  HIT:          0  MISS:          0  HIT %:       -nan  MISS %:       -nan   MPKI: 0
DTLB RFO       ACCESS:          0  HIT:          0  MISS:          0  HIT %:       -nan  MISS %:       -nan   MPKI: 0
DTLB PREFETCH  ACCESS:          0  HIT:          0  MISS:          0  HIT %:       -nan  MISS %:       -nan   MPKI: 0
DTLB WRITEBACK ACCESS:          0  HIT:          0  MISS:          0  HIT %:       -nan  MISS %:       -nan   MPKI: 0
STLB TOTAL     ACCESS:   31402022  HIT:   31347384  MISS:      54638  HIT %:     99.826  MISS %:   0.173995   MPKI: 0.27262
STLB LOAD      ACCESS:          0  HIT:          0  MISS:          0  HIT %:       -nan  MISS %:       -nan   MPKI: 0
STLB RFO       ACCESS:          0  HIT:          0  MISS:          0  HIT %:       -nan  MISS %:       -nan   MPKI: 0
STLB PREFETCH  ACCESS:          0  HIT:          0  MISS:          0  HIT %:       -nan  MISS %:       -nan   MPKI: 0
STLB WRITEBACK ACCESS:          0  HIT:          0  MISS:          0  HIT %:       -nan  MISS %:       -nan   MPKI: 0
L1D TOTAL     ACCESS:  141157726  HIT:  137272625  MISS:    3885101  HIT %:    97.2477  MISS %:    2.75231   MPKI: 19.385
L1D LOAD      ACCESS:   78679510  HIT:   78248435  MISS:     431075  HIT %:    99.4521  MISS %:   0.547887   MPKI: 2.15088
L1D RFO       ACCESS:   14190614  HIT:   14096310  MISS:      94304  HIT %:    99.3354  MISS %:   0.664552   MPKI: 0.470536
L1D PREFETCH  ACCESS:   48287602  HIT:   44927880  MISS:    3359722  HIT %:    93.0423  MISS %:    6.95773   MPKI: 16.7635
L1D WRITEBACK ACCESS:          0  HIT:          0  MISS:          0  HIT %:       -nan  MISS %:       -nan   MPKI: 0
L1I TOTAL     ACCESS:   32275210  HIT:   32275210  MISS:          0  HIT %:        100  MISS %:          0   MPKI: 0
L1I LOAD      ACCESS:   32275210  HIT:   32275210  MISS:          0  HIT %:        100  MISS %:          0   MPKI: 0
L1I RFO       ACCESS:          0  HIT:          0  MISS:          0  HIT %:       -nan  MISS %:       -nan   MPKI: 0
L1I PREFETCH  ACCESS:          0  HIT:          0  MISS:          0  HIT %:       -nan  MISS %:       -nan   MPKI: 0
L1I WRITEBACK ACCESS:          0  HIT:          0  MISS:          0  HIT %:       -nan  MISS %:       -nan   MPKI: 0
L2C TOTAL     ACCESS:   12403616  HIT:    8323289  MISS:    4080327  HIT %:    67.1037  MISS %:    32.8963   MPKI: 20.3591
L2C LOAD      ACCESS:     249026  HIT:     112666  MISS:     136360  HIT %:    45.2427  MISS %:    54.7573   MPKI: 0.680377
L2C RFO       ACCESS:      94304  HIT:          0  MISS:      94304  HIT %:          0  MISS %:        100   MPKI: 0.470536
L2C PREFETCH  ACCESS:   11356282  HIT:    7522586  MISS:    3833696  HIT %:    66.2416  MISS %:    33.7584   MPKI: 19.1285
L2C WRITEBACK ACCESS:      94304  HIT:      85739  MISS:       8565  HIT %:    90.9177  MISS %:    9.08233   MPKI: 0.0427356
PSCL5 TOTAL     ACCESS:     590220  HIT:     590220  MISS:          0  HIT %:        100  MISS %:          0   MPKI: 0
PSCL5 LOAD      ACCESS:          0  HIT:          0  MISS:          0  HIT %:       -nan  MISS %:       -nan   MPKI: 0
PSCL5 RFO       ACCESS:          0  HIT:          0  MISS:          0  HIT %:       -nan  MISS %:       -nan   MPKI: 0
PSCL5 PREFETCH  ACCESS:          0  HIT:          0  MISS:          0  HIT %:       -nan  MISS %:       -nan   MPKI: 0
PSCL5 WRITEBACK ACCESS:          0  HIT:          0  MISS:          0  HIT %:       -nan  MISS %:       -nan   MPKI: 0
PSCL4 TOTAL     ACCESS:     590220  HIT:     590220  MISS:          0  HIT %:        100  MISS %:          0   MPKI: 0
PSCL4 LOAD      ACCESS:          0  HIT:          0  MISS:          0  HIT %:       -nan  MISS %:       -nan   MPKI: 0
PSCL4 RFO       ACCESS:          0  HIT:          0  MISS:          0  HIT %:       -nan  MISS %:       -nan   MPKI: 0
PSCL4 PREFETCH  ACCESS:          0  HIT:          0  MISS:          0  HIT %:       -nan  MISS %:       -nan   MPKI: 0
PSCL4 WRITEBACK ACCESS:          0  HIT:          0  MISS:          0  HIT %:       -nan  MISS %:       -nan   MPKI: 0
PSCL3 TOTAL     ACCESS:     590220  HIT:     590220  MISS:          0  HIT %:        100  MISS %:          0   MPKI: 0
PSCL3 LOAD      ACCESS:          0  HIT:          0  MISS:          0  HIT %:       -nan  MISS %:       -nan   MPKI: 0
PSCL3 RFO       ACCESS:          0  HIT:          0  MISS:          0  HIT %:       -nan  MISS %:       -nan   MPKI: 0
PSCL3 PREFETCH  ACCESS:          0  HIT:          0  MISS:          0  HIT %:       -nan  MISS %:       -nan   MPKI: 0
PSCL3 WRITEBACK ACCESS:          0  HIT:          0  MISS:          0  HIT %:       -nan  MISS %:       -nan   MPKI: 0
PSCL2 TOTAL     ACCESS:     570491  HIT:     570379  MISS:        112  HIT %:    99.9804  MISS %:  0.0196322   MPKI: 0.000558831
PSCL2 LOAD      ACCESS:          0  HIT:          0  MISS:          0  HIT %:       -nan  MISS %:       -nan   MPKI: 0
PSCL2 RFO       ACCESS:          0  HIT:          0  MISS:          0  HIT %:       -nan  MISS %:       -nan   MPKI: 0
PSCL2 PREFETCH  ACCESS:          0  HIT:          0  MISS:          0  HIT %:       -nan  MISS %:       -nan   MPKI: 0
PSCL2 WRITEBACK ACCESS:          0  HIT:          0  MISS:          0  HIT %:       -nan  MISS %:       -nan   MPKI: 0
LLC TOTAL     ACCESS:    4166075  HIT:     557653  MISS:    3608422  HIT %:    13.3856  MISS %:    86.6144   MPKI: 18.0045
LLC LOAD      ACCESS:     102453  HIT:         21  MISS:     102432  HIT %:  0.0204972  MISS %:    99.9795   MPKI: 0.511091
LLC RFO       ACCESS:      94304  HIT:          0  MISS:      94304  HIT %:          0  MISS %:        100   MPKI: 0.470536
LLC PREFETCH  ACCESS:    3867603  HIT:     465500  MISS:    3402103  HIT %:    12.0359  MISS %:    87.9641   MPKI: 16.975
LLC WRITEBACK ACCESS:      94313  HIT:      91726  MISS:       2587  HIT %:     97.257  MISS %:    2.74299   MPKI: 0.012908

RAW hits: 12089168
Loads Generated: 117498756
Loads sent to L1D: 105409590
Stores Generated: 15006098
Stores sent to L1D: 15006094

Region of Interest Statistics

CPU 0 cumulative IPC: 1.33833 instructions: 200000001 cycles: 149440452
ITLB TOTAL     ACCESS:   26320271  HIT:   26320271  MISS:          0  HIT %:        100  MISS %:          0   MPKI: 0
ITLB LOAD TRANSLATION ACCESS:   26320271  HIT:   26320271  MISS:          0  HIT %:        100  MISS %:          0   MPKI: 0
ITLB PREFETCH  REQUESTED:          0  ISSUED:          0  USEFUL:          0  USELESS:          0
ITLB USEFUL LOAD PREFETCHES:          0 PREFETCH ISSUED TO LOWER LEVEL:          0  ACCURACY: -nan
ITLB TIMELY PREFETCHES:          0 LATE PREFETCHES: 0 DROPPED PREFETCHES: 0
ITLB PREFETCHES SAME FILL-ORIGIN LEVEL: 0 DIFFERENT FILL-ORIGIN LEVEL: 0
ITLB AVERAGE MISS LATENCY: -nan cycles
ITLB RQ	ACCESS:   32209099	FORWARD:          0	MERGED:    5888828	TO_CACHE:   26320271

DTLB TOTAL     ACCESS:   70972278  HIT:   70806003  MISS:     166275  HIT %:    99.7657  MISS %:   0.234282   MPKI: 0.831375
DTLB LOAD TRANSLATION ACCESS:   70972278  HIT:   70806003  MISS:     166275  HIT %:    99.7657  MISS %:   0.234282   MPKI: 0.831375
DTLB PREFETCH  REQUESTED:          0  ISSUED:          0  USEFUL:          0  USELESS:          0
DTLB USEFUL LOAD PREFETCHES:          0 PREFETCH ISSUED TO LOWER LEVEL:          0  ACCURACY: -nan
DTLB TIMELY PREFETCHES:          0 LATE PREFETCHES: 0 DROPPED PREFETCHES: 0
DTLB PREFETCHES SAME FILL-ORIGIN LEVEL: 0 DIFFERENT FILL-ORIGIN LEVEL: 0
DTLB AVERAGE MISS LATENCY: 209.361 cycles
DTLB RQ	ACCESS:   93507649	FORWARD:          0	MERGED:   22509763	TO_CACHE:   70997886

STLB TOTAL     ACCESS:   31068885  HIT:   31014359  MISS:      54526  HIT %:    99.8245  MISS %:     0.1755   MPKI: 0.27263
STLB LOAD TRANSLATION ACCESS:     166275  HIT:     111868  MISS:      54407  HIT %:    67.2789  MISS %:    32.7211   MPKI: 0.272035
STLB TRANSLATION FROM L1D PREFETCHER ACCESS:   30902610  HIT:   30902491  MISS:        119  HIT %:    99.9996  MISS %: 0.000385081   MPKI: 0.000595
STLB PREFETCH  REQUESTED:          0  ISSUED:          0  USEFUL:        119  USELESS:          0
STLB USEFUL LOAD PREFETCHES:        119 PREFETCH ISSUED TO LOWER LEVEL:          0  ACCURACY: inf
STLB TIMELY PREFETCHES:        119 LATE PREFETCHES: 12477 DROPPED PREFETCHES: 571224
STLB PREFETCHES SAME FILL-ORIGIN LEVEL: 0 DIFFERENT FILL-ORIGIN LEVEL: 0
STLB AVERAGE MISS LATENCY: 604.418 cycles
STLB RQ	ACCESS:   68067141	FORWARD:          0	MERGED:   36344968	TO_CACHE:   31722173

STLB Hit, L1D data hit: 0
STLB Hit, L2C data hit: 0
STLB Hit, LLC data hit: 0
STLB Hit, LLC data miss: 0
STLB STLB hints to L2: 0
L1D TOTAL     ACCESS:  140617938  HIT:  136730906  MISS:    3887032  HIT %:    97.2357  MISS %:    2.76425   MPKI: 19.4352
L1D LOAD      ACCESS:   78479350  HIT:   78044855  MISS:     434495  HIT %:    99.4464  MISS %:   0.553642   MPKI: 2.17247
L1D RFO       ACCESS:   14164042  HIT:   14069935  MISS:      94107  HIT %:    99.3356  MISS %:   0.664408   MPKI: 0.470535
L1D PREFETCH  ACCESS:   47974546  HIT:   44616116  MISS:    3358430  HIT %:    92.9996  MISS %:    7.00044   MPKI: 16.7921
L1D PREFETCH  REQUESTED:  717153703  ISSUED:  159709114  USEFUL:    3329982  USELESS:      28396
L1D USEFUL LOAD PREFETCHES:    3329982 PREFETCH ISSUED TO LOWER LEVEL:   19916246  ACCURACY: 16.7199
L1D TIMELY PREFETCHES:    3329982 LATE PREFETCHES: 183803 DROPPED PREFETCHES: 1259561
L1D PREFETCHES SAME FILL-ORIGIN LEVEL: 3935061 DIFFERENT FILL-ORIGIN LEVEL: 15981185
L1D AVERAGE MISS LATENCY: 339.583 cycles
L1D RQ	ACCESS:  105179256	FORWARD:          0	MERGED:   26414275	TO_CACHE:   78542349
L1D WQ	ACCESS:   14974749	FORWARD:     225068	MERGED:       9449	TO_CACHE:   14965300
L1D PQ	ACCESS:   91808248	FORWARD:          0	MERGED:   23904946	TO_CACHE:   67900866

L1D UNIQUE REGIONS ACCESSED: 0
L1D REGIONS CONFLICTS: 0
L1D Cross Page Prefetch Requests: 15685353
L1D Same Page Prefetch Requests: 100005889
L1D ROI Sum of L1D PQ occupancy: 1431661936
L1D PREFETCHES PUSHED FROM L2C: 0
L1I TOTAL     ACCESS:   32209099  HIT:   32209099  MISS:          0  HIT %:        100  MISS %:          0   MPKI: 0
L1I LOAD      ACCESS:   32209099  HIT:   32209099  MISS:          0  HIT %:        100  MISS %:          0   MPKI: 0
L1I PREFETCH  REQUESTED:          0  ISSUED:          0  USEFUL:          0  USELESS:          0
L1I USEFUL LOAD PREFETCHES:          0 PREFETCH ISSUED TO LOWER LEVEL:          0  ACCURACY: -nan
L1I TIMELY PREFETCHES:          0 LATE PREFETCHES: 0 DROPPED PREFETCHES: 0
L1I PREFETCHES SAME FILL-ORIGIN LEVEL: 0 DIFFERENT FILL-ORIGIN LEVEL: 0
L1I AVERAGE MISS LATENCY: -nan cycles
L1I RQ	ACCESS:   42026079	FORWARD:          0	MERGED:    9816980	TO_CACHE:   32209099

BTB TOTAL     ACCESS:    5422878  HIT:    5422874  MISS:          4  HIT %:    99.9999  MISS %: 7.37616e-05   MPKI: 2e-05
BTB BRANCH_DIRECT_JUMP	ACCESS:     752861  HIT:     752859  MISS:          2
BTB BRANCH_INDIRECT	ACCESS:          0  HIT:          0  MISS:          0
BTB BRANCH_CONDITIONAL	ACCESS:    4670017  HIT:    4670015  MISS:          2
BTB BRANCH_DIRECT_CALL	ACCESS:          0  HIT:          0  MISS:          0
BTB BRANCH_INDIRECT_CALL	ACCESS:          0  HIT:          0  MISS:          0
BTB BRANCH_RETURN	ACCESS:          0  HIT:          0  MISS:          0
BTB BRANCH_OTHER ACCESS:          0  HIT:          0  MISS:          0

L2C TOTAL     ACCESS:   12249812  HIT:    8164991  MISS:    4084821  HIT %:     66.654  MISS %:     33.346   MPKI: 20.4241
L2C LOAD      ACCESS:     250692  HIT:     114065  MISS:     136627  HIT %:    45.5001  MISS %:    54.4999   MPKI: 0.683135
L2C DATA LOAD MPKI: 0.683135
L2C INSTRUCTION LOAD MPKI: 0
L2C RFO       ACCESS:      94107  HIT:          0  MISS:      94107  HIT %:          0  MISS %:        100   MPKI: 0.470535
L2C PREFETCH  ACCESS:   11152230  HIT:    7314031  MISS:    3838199  HIT %:    65.5836  MISS %:    34.4164   MPKI: 19.191
L2C DATA PREFETCH MPKI: 19.191
L2C INSTRUCTION PREFETCH MPKI: 0
L2C WRITEBACK ACCESS:      94119  HIT:      85609  MISS:       8510  HIT %:    90.9583  MISS %:    9.04175   MPKI: 0.04255
L2C LOAD TRANSLATION ACCESS:      54412  HIT:      52920  MISS:       1492  HIT %:     97.258  MISS %:    2.74204   MPKI: 0.00746
L2C TRANSLATION FROM L1D PREFETCHER ACCESS:     604252  HIT:     598366  MISS:       5886  HIT %:    99.0259  MISS %:   0.974097   MPKI: 0.02943
L2C PREFETCH  REQUESTED:          0  ISSUED:          0  USEFUL:     119857  USELESS:    3724587
L2C USEFUL LOAD PREFETCHES:     119857 PREFETCH ISSUED TO LOWER LEVEL:    3872563  ACCURACY: 3.09503
L2C TIMELY PREFETCHES:     119857 LATE PREFETCHES: 34351 DROPPED PREFETCHES: 0
L2C PREFETCHES SAME FILL-ORIGIN LEVEL: 2458034 DIFFERENT FILL-ORIGIN LEVEL: 0
L2C AVERAGE MISS LATENCY: 611.19 cycles
L2C RQ	ACCESS:    1003464	FORWARD:          0	MERGED:          0	TO_CACHE:    1003464
L2C WQ	ACCESS:      94119	FORWARD:          0	MERGED:          0	TO_CACHE:      94119
L2C PQ	ACCESS:   15042392	FORWARD:          0	MERGED:     127332	TO_CACHE:   14915060

L2C Instructions Evicting Data 0
L2C Translations Evicting Data 7376
L2C Data Evicting Data 4061570
L2C Instructions Evicting Instructions 0
L2C Translations Evicting Instructions 0
L2C Data Evicting Instructions 0
L2C Instructions Evicting Translations 0
L2C Translations Evicting Translations 2
L2C Data Evicting Translations 7363
L2C Dense regions hint from L2: 0
PSCL5 TOTAL     ACCESS:     638227  HIT:     638227  MISS:          0  HIT %:        100  MISS %:          0   MPKI: 0
PSCL5 LOAD TRANSLATION ACCESS:      54407  HIT:      54407  MISS:          0  HIT %:        100  MISS %:          0   MPKI: 0
PSCL5 TRANSLATION FROM L1D PREFETCHER ACCESS:     583820  HIT:     583820  MISS:          0  HIT %:        100  MISS %:          0   MPKI: 0
PSCL5 PREFETCH  REQUESTED:          0  ISSUED:          0  USEFUL:          0  USELESS:          0
PSCL5 USEFUL LOAD PREFETCHES:          0 PREFETCH ISSUED TO LOWER LEVEL:          0  ACCURACY: -nan
PSCL5 TIMELY PREFETCHES:          0 LATE PREFETCHES: 0 DROPPED PREFETCHES: 0
PSCL5 PREFETCHES SAME FILL-ORIGIN LEVEL: 0 DIFFERENT FILL-ORIGIN LEVEL: 0

PSCL4 TOTAL     ACCESS:     638227  HIT:     638227  MISS:          0  HIT %:        100  MISS %:          0   MPKI: 0
PSCL4 LOAD TRANSLATION ACCESS:      54407  HIT:      54407  MISS:          0  HIT %:        100  MISS %:          0   MPKI: 0
PSCL4 TRANSLATION FROM L1D PREFETCHER ACCESS:     583820  HIT:     583820  MISS:          0  HIT %:        100  MISS %:          0   MPKI: 0
PSCL4 PREFETCH  REQUESTED:          0  ISSUED:          0  USEFUL:          0  USELESS:          0
PSCL4 USEFUL LOAD PREFETCHES:          0 PREFETCH ISSUED TO LOWER LEVEL:          0  ACCURACY: -nan
PSCL4 TIMELY PREFETCHES:          0 LATE PREFETCHES: 0 DROPPED PREFETCHES: 0
PSCL4 PREFETCHES SAME FILL-ORIGIN LEVEL: 0 DIFFERENT FILL-ORIGIN LEVEL: 0

PSCL3 TOTAL     ACCESS:     638227  HIT:     638227  MISS:          0  HIT %:        100  MISS %:          0   MPKI: 0
PSCL3 LOAD TRANSLATION ACCESS:      54407  HIT:      54407  MISS:          0  HIT %:        100  MISS %:          0   MPKI: 0
PSCL3 TRANSLATION FROM L1D PREFETCHER ACCESS:     583820  HIT:     583820  MISS:          0  HIT %:        100  MISS %:          0   MPKI: 0
PSCL3 PREFETCH  REQUESTED:          0  ISSUED:          0  USEFUL:          0  USELESS:          0
PSCL3 USEFUL LOAD PREFETCHES:          0 PREFETCH ISSUED TO LOWER LEVEL:          0  ACCURACY: -nan
PSCL3 TIMELY PREFETCHES:          0 LATE PREFETCHES: 0 DROPPED PREFETCHES: 0
PSCL3 PREFETCHES SAME FILL-ORIGIN LEVEL: 0 DIFFERENT FILL-ORIGIN LEVEL: 0

PSCL2 TOTAL     ACCESS:     616731  HIT:     616619  MISS:        112  HIT %:    99.9818  MISS %:  0.0181603   MPKI: 0.00056
PSCL2 LOAD TRANSLATION ACCESS:      54408  HIT:      54296  MISS:        112  HIT %:    99.7941  MISS %:   0.205852   MPKI: 0.00056
PSCL2 TRANSLATION FROM L1D PREFETCHER ACCESS:     562323  HIT:     562323  MISS:          0  HIT %:        100  MISS %:          0   MPKI: 0
PSCL2 PREFETCH  REQUESTED:          0  ISSUED:          0  USEFUL:          0  USELESS:          0
PSCL2 USEFUL LOAD PREFETCHES:          0 PREFETCH ISSUED TO LOWER LEVEL:          0  ACCURACY: -nan
PSCL2 TIMELY PREFETCHES:          0 LATE PREFETCHES: 0 DROPPED PREFETCHES: 0
PSCL2 PREFETCHES SAME FILL-ORIGIN LEVEL: 0 DIFFERENT FILL-ORIGIN LEVEL: 0

LLC TOTAL     ACCESS:    4170439  HIT:     573393  MISS:    3597046  HIT %:     13.749  MISS %:     86.251   MPKI: 17.9852
LLC LOAD      ACCESS:     102276  HIT:         29  MISS:     102247  HIT %:  0.0283546  MISS %:    99.9716   MPKI: 0.511235
LLC RFO       ACCESS:      94107  HIT:          0  MISS:      94107  HIT %:          0  MISS %:        100   MPKI: 0.470535
LLC PREFETCH  ACCESS:    3872550  HIT:     481519  MISS:    3391031  HIT %:    12.4342  MISS %:    87.5658   MPKI: 16.9552
LLC WRITEBACK ACCESS:      94128  HIT:      91445  MISS:       2683  HIT %:    97.1496  MISS %:    2.85037   MPKI: 0.013415
LLC LOAD TRANSLATION ACCESS:       1492  HIT:        263  MISS:       1229  HIT %:    17.6273  MISS %:    82.3727   MPKI: 0.006145
LLC TRANSLATION FROM L1D PREFETCHER ACCESS:       5886  HIT:        137  MISS:       5749  HIT %:    2.32756  MISS %:    97.6724   MPKI: 0.028745
LLC PREFETCH  REQUESTED:          0  ISSUED:          0  USEFUL:        475  USELESS:   13616181
LLC USEFUL LOAD PREFETCHES:        475 PREFETCH ISSUED TO LOWER LEVEL:  268056832  ACCURACY: 0.000177201
LLC TIMELY PREFETCHES:        475 LATE PREFETCHES: 0 DROPPED PREFETCHES: 0
LLC PREFETCHES SAME FILL-ORIGIN LEVEL: 0 DIFFERENT FILL-ORIGIN LEVEL: 0
LLC AVERAGE MISS LATENCY: 2330.83 cycles
LLC RQ	ACCESS:     815982	FORWARD:          0	MERGED:          0	TO_CACHE:     815982
LLC WQ	ACCESS:     377119	FORWARD:          0	MERGED:          0	TO_CACHE:     377119
LLC PQ	ACCESS:   15496993	FORWARD:          0	MERGED:          0	TO_CACHE:   15496993

LLC Dense regions hint to LLC: 0

RAW hits: 12074226
Loads Generated: 117253493
Loads sent to L1D: 105179256
Stores Generated: 14974749
Stores sent to L1D: 14974749
Major fault: 0 Minor fault: 68253
Allocated PAGES: 273370

CPU 1 cumulative IPC: 1.34101 instructions: 200000001 cycles: 149140768
ITLB TOTAL     ACCESS:   26319166  HIT:   26319166  MISS:          0  HIT %:        100  MISS %:          0   MPKI: 0
ITLB LOAD TRANSLATION ACCESS:   26319166  HIT:   26319166  MISS:          0  HIT %:        100  MISS %:          0   MPKI: 0
ITLB PREFETCH  REQUESTED:          0  ISSUED:          0  USEFUL:          0  USELESS:          0
ITLB USEFUL LOAD PREFETCHES:          0 PREFETCH ISSUED TO LOWER LEVEL:          0  ACCURACY: -nan
ITLB TIMELY PREFETCHES:          0 LATE PREFETCHES: 0 DROPPED PREFETCHES: 0
ITLB PREFETCHES SAME FILL-ORIGIN LEVEL: 0 DIFFERENT FILL-ORIGIN LEVEL: 0
ITLB AVERAGE MISS LATENCY: -nan cycles
ITLB RQ	ACCESS:   32272893	FORWARD:          0	MERGED:    5900657	TO_CACHE:   26372236

DTLB TOTAL     ACCESS:   70978611  HIT:   70812374  MISS:     166237  HIT %:    99.7658  MISS %:   0.234207   MPKI: 0.831185
DTLB LOAD TRANSLATION ACCESS:   70978611  HIT:   70812374  MISS:     166237  HIT %:    99.7658  MISS %:   0.234207   MPKI: 0.831185
DTLB PREFETCH  REQUESTED:          0  ISSUED:          0  USEFUL:          0  USELESS:          0
DTLB USEFUL LOAD PREFETCHES:          0 PREFETCH ISSUED TO LOWER LEVEL:          0  ACCURACY: -nan
DTLB TIMELY PREFETCHES:          0 LATE PREFETCHES: 0 DROPPED PREFETCHES: 0
DTLB PREFETCHES SAME FILL-ORIGIN LEVEL: 0 DIFFERENT FILL-ORIGIN LEVEL: 0
DTLB AVERAGE MISS LATENCY: 209.847 cycles
DTLB RQ	ACCESS:   93711795	FORWARD:          0	MERGED:   22564877	TO_CACHE:   71146918

STLB TOTAL     ACCESS:   31418463  HIT:   31363936  MISS:      54527  HIT %:    99.8264  MISS %:   0.173551   MPKI: 0.272635
STLB LOAD TRANSLATION ACCESS:     166237  HIT:     111830  MISS:      54407  HIT %:    67.2714  MISS %:    32.7286   MPKI: 0.272035
STLB TRANSLATION FROM L1D PREFETCHER ACCESS:   31252226  HIT:   31252106  MISS:        120  HIT %:    99.9996  MISS %: 0.000383973   MPKI: 0.0006
STLB PREFETCH  REQUESTED:          0  ISSUED:          0  USEFUL:        120  USELESS:          0
STLB USEFUL LOAD PREFETCHES:        120 PREFETCH ISSUED TO LOWER LEVEL:          0  ACCURACY: inf
STLB TIMELY PREFETCHES:        120 LATE PREFETCHES: 12543 DROPPED PREFETCHES: 518079
STLB PREFETCHES SAME FILL-ORIGIN LEVEL: 0 DIFFERENT FILL-ORIGIN LEVEL: 0
STLB AVERAGE MISS LATENCY: 605.271 cycles
STLB RQ	ACCESS:   68834042	FORWARD:          0	MERGED:   36751723	TO_CACHE:   32082319

STLB Hit, L1D data hit: 0
STLB Hit, L2C data hit: 0
STLB Hit, LLC data hit: 0
STLB Hit, LLC data miss: 0
STLB STLB hints to L2: 0
L1D TOTAL     ACCESS:  141016183  HIT:  137137380  MISS:    3878803  HIT %:    97.2494  MISS %:    2.75061   MPKI: 19.394
L1D LOAD      ACCESS:   78496871  HIT:   78066279  MISS:     430592  HIT %:    99.4515  MISS %:   0.548547   MPKI: 2.15296
L1D RFO       ACCESS:   14162154  HIT:   14068047  MISS:      94107  HIT %:    99.3355  MISS %:   0.664496   MPKI: 0.470535
L1D PREFETCH  ACCESS:   48357158  HIT:   45003054  MISS:    3354104  HIT %:    93.0639  MISS %:    6.93611   MPKI: 16.7705
L1D PREFETCH  REQUESTED:  719187476  ISSUED:  161504114  USEFUL:    3340605  USELESS:      20381
L1D USEFUL LOAD PREFETCHES:    3340605 PREFETCH ISSUED TO LOWER LEVEL:   20178705  ACCURACY: 16.5551
L1D TIMELY PREFETCHES:    3340605 LATE PREFETCHES: 183204 DROPPED PREFETCHES: 1203437
L1D PREFETCHES SAME FILL-ORIGIN LEVEL: 3921084 DIFFERENT FILL-ORIGIN LEVEL: 16257621
L1D AVERAGE MISS LATENCY: 340.723 cycles
L1D RQ	ACCESS:  105396678	FORWARD:          0	MERGED:   26455536	TO_CACHE:   78716935
L1D WQ	ACCESS:   15004919	FORWARD:     226492	MERGED:      10059	TO_CACHE:   14994860
L1D PQ	ACCESS:   92836426	FORWARD:          0	MERGED:   24166453	TO_CACHE:   68667688

L1D UNIQUE REGIONS ACCESSED: 0
L1D REGIONS CONFLICTS: 0
L1D Cross Page Prefetch Requests: 15742730
L1D Same Page Prefetch Requests: 100961500
L1D ROI Sum of L1D PQ occupancy: 1432441869
L1D PREFETCHES PUSHED FROM L2C: 0
L1I TOTAL     ACCESS:   32207960  HIT:   32207960  MISS:          0  HIT %:        100  MISS %:          0   MPKI: 0
L1I LOAD      ACCESS:   32207960  HIT:   32207960  MISS:          0  HIT %:        100  MISS %:          0   MPKI: 0
L1I PREFETCH  REQUESTED:          0  ISSUED:          0  USEFUL:          0  USELESS:          0
L1I USEFUL LOAD PREFETCHES:          0 PREFETCH ISSUED TO LOWER LEVEL:          0  ACCURACY: -nan
L1I TIMELY PREFETCHES:          0 LATE PREFETCHES: 0 DROPPED PREFETCHES: 0
L1I PREFETCHES SAME FILL-ORIGIN LEVEL: 0 DIFFERENT FILL-ORIGIN LEVEL: 0
L1I AVERAGE MISS LATENCY: -nan cycles
L1I RQ	ACCESS:   42108723	FORWARD:          0	MERGED:    9835830	TO_CACHE:   32272893

BTB TOTAL     ACCESS:    5422879  HIT:    5422875  MISS:          4  HIT %:    99.9999  MISS %: 7.37616e-05   MPKI: 2e-05
BTB BRANCH_DIRECT_JUMP	ACCESS:     752861  HIT:     752859  MISS:          2
BTB BRANCH_INDIRECT	ACCESS:          0  HIT:          0  MISS:          0
BTB BRANCH_CONDITIONAL	ACCESS:    4670018  HIT:    4670016  MISS:          2
BTB BRANCH_DIRECT_CALL	ACCESS:          0  HIT:          0  MISS:          0
BTB BRANCH_INDIRECT_CALL	ACCESS:          0  HIT:          0  MISS:          0
BTB BRANCH_RETURN	ACCESS:          0  HIT:          0  MISS:          0
BTB BRANCH_OTHER ACCESS:          0  HIT:          0  MISS:          0

L2C TOTAL     ACCESS:   12381690  HIT:    8303975  MISS:    4077715  HIT %:    67.0666  MISS %:    32.9334   MPKI: 20.3886
L2C LOAD      ACCESS:     247805  HIT:     111660  MISS:     136145  HIT %:    45.0596  MISS %:    54.9404   MPKI: 0.680725
L2C DATA LOAD MPKI: 0.680725
L2C INSTRUCTION LOAD MPKI: 0
L2C RFO       ACCESS:      94107  HIT:          0  MISS:      94107  HIT %:          0  MISS %:        100   MPKI: 0.470535
L2C PREFETCH  ACCESS:   11341796  HIT:    7510302  MISS:    3831494  HIT %:    66.2179  MISS %:    33.7821   MPKI: 19.1575
L2C DATA PREFETCH MPKI: 19.1575
L2C INSTRUCTION PREFETCH MPKI: 0
L2C WRITEBACK ACCESS:      94112  HIT:      85519  MISS:       8593  HIT %:    90.8694  MISS %:    9.13061   MPKI: 0.042965
L2C LOAD TRANSLATION ACCESS:      54412  HIT:      52961  MISS:       1451  HIT %:    97.3333  MISS %:    2.66669   MPKI: 0.007255
L2C TRANSLATION FROM L1D PREFETCHER ACCESS:     549458  HIT:     543533  MISS:       5925  HIT %:    98.9217  MISS %:    1.07834   MPKI: 0.029625
L2C PREFETCH  REQUESTED:          0  ISSUED:          0  USEFUL:     117721  USELESS:    3727765
L2C USEFUL LOAD PREFETCHES:     117721 PREFETCH ISSUED TO LOWER LEVEL:    3873581  ACCURACY: 3.03907
L2C TIMELY PREFETCHES:     117721 LATE PREFETCHES: 34307 DROPPED PREFETCHES: 0
L2C PREFETCHES SAME FILL-ORIGIN LEVEL: 2463815 DIFFERENT FILL-ORIGIN LEVEL: 0
L2C AVERAGE MISS LATENCY: 613.388 cycles
L2C RQ	ACCESS:     947444	FORWARD:          0	MERGED:          0	TO_CACHE:     947444
L2C WQ	ACCESS:      94304	FORWARD:          0	MERGED:          0	TO_CACHE:      94304
L2C PQ	ACCESS:   15285679	FORWARD:          0	MERGED:     128070	TO_CACHE:   15157609

L2C Instructions Evicting Data 0
L2C Translations Evicting Data 7388
L2C Data Evicting Data 4062593
L2C Instructions Evicting Instructions 0
L2C Translations Evicting Instructions 0
L2C Data Evicting Instructions 0
L2C Instructions Evicting Translations 0
L2C Translations Evicting Translations 6
L2C Data Evicting Translations 7374
L2C Dense regions hint from L2: 0
PSCL5 TOTAL     ACCESS:     584250  HIT:     584250  MISS:          0  HIT %:        100  MISS %:          0   MPKI: 0
PSCL5 LOAD TRANSLATION ACCESS:      54407  HIT:      54407  MISS:          0  HIT %:        100  MISS %:          0   MPKI: 0
PSCL5 TRANSLATION FROM L1D PREFETCHER ACCESS:     529843  HIT:     529843  MISS:          0  HIT %:        100  MISS %:          0   MPKI: 0
PSCL5 PREFETCH  REQUESTED:          0  ISSUED:          0  USEFUL:          0  USELESS:          0
PSCL5 USEFUL LOAD PREFETCHES:          0 PREFETCH ISSUED TO LOWER LEVEL:          0  ACCURACY: -nan
PSCL5 TIMELY PREFETCHES:          0 LATE PREFETCHES: 0 DROPPED PREFETCHES: 0
PSCL5 PREFETCHES SAME FILL-ORIGIN LEVEL: 0 DIFFERENT FILL-ORIGIN LEVEL: 0

PSCL4 TOTAL     ACCESS:     584250  HIT:     584250  MISS:          0  HIT %:        100  MISS %:          0   MPKI: 0
PSCL4 LOAD TRANSLATION ACCESS:      54407  HIT:      54407  MISS:          0  HIT %:        100  MISS %:          0   MPKI: 0
PSCL4 TRANSLATION FROM L1D PREFETCHER ACCESS:     529843  HIT:     529843  MISS:          0  HIT %:        100  MISS %:          0   MPKI: 0
PSCL4 PREFETCH  REQUESTED:          0  ISSUED:          0  USEFUL:          0  USELESS:          0
PSCL4 USEFUL LOAD PREFETCHES:          0 PREFETCH ISSUED TO LOWER LEVEL:          0  ACCURACY: -nan
PSCL4 TIMELY PREFETCHES:          0 LATE PREFETCHES: 0 DROPPED PREFETCHES: 0
PSCL4 PREFETCHES SAME FILL-ORIGIN LEVEL: 0 DIFFERENT FILL-ORIGIN LEVEL: 0

PSCL3 TOTAL     ACCESS:     584250  HIT:     584250  MISS:          0  HIT %:        100  MISS %:          0   MPKI: 0
PSCL3 LOAD TRANSLATION ACCESS:      54407  HIT:      54407  MISS:          0  HIT %:        100  MISS %:          0   MPKI: 0
PSCL3 TRANSLATION FROM L1D PREFETCHER ACCESS:     529843  HIT:     529843  MISS:          0  HIT %:        100  MISS %:          0   MPKI: 0
PSCL3 PREFETCH  REQUESTED:          0  ISSUED:          0  USEFUL:          0  USELESS:          0
PSCL3 USEFUL LOAD PREFETCHES:          0 PREFETCH ISSUED TO LOWER LEVEL:          0  ACCURACY: -nan
PSCL3 TIMELY PREFETCHES:          0 LATE PREFETCHES: 0 DROPPED PREFETCHES: 0
PSCL3 PREFETCHES SAME FILL-ORIGIN LEVEL: 0 DIFFERENT FILL-ORIGIN LEVEL: 0

PSCL2 TOTAL     ACCESS:     564365  HIT:     564253  MISS:        112  HIT %:    99.9802  MISS %:  0.0198453   MPKI: 0.00056
PSCL2 LOAD TRANSLATION ACCESS:      54408  HIT:      54296  MISS:        112  HIT %:    99.7941  MISS %:   0.205852   MPKI: 0.00056
PSCL2 TRANSLATION FROM L1D PREFETCHER ACCESS:     509957  HIT:     509957  MISS:          0  HIT %:        100  MISS %:          0   MPKI: 0
PSCL2 PREFETCH  REQUESTED:          0  ISSUED:          0  USEFUL:          0  USELESS:          0
PSCL2 USEFUL LOAD PREFETCHES:          0 PREFETCH ISSUED TO LOWER LEVEL:          0  ACCURACY: -nan
PSCL2 TIMELY PREFETCHES:          0 LATE PREFETCHES: 0 DROPPED PREFETCHES: 0
PSCL2 PREFETCHES SAME FILL-ORIGIN LEVEL: 0 DIFFERENT FILL-ORIGIN LEVEL: 0

LLC TOTAL     ACCESS:    4163309  HIT:     567651  MISS:    3595658  HIT %:    13.6346  MISS %:    86.3654   MPKI: 17.9783
LLC LOAD      ACCESS:     101900  HIT:         23  MISS:     101877  HIT %:  0.0225711  MISS %:    99.9774   MPKI: 0.509385
LLC RFO       ACCESS:      94107  HIT:          0  MISS:      94107  HIT %:          0  MISS %:        100   MPKI: 0.470535
LLC PREFETCH  ACCESS:    3865739  HIT:     475599  MISS:    3390140  HIT %:    12.3029  MISS %:    87.6971   MPKI: 16.9507
LLC WRITEBACK ACCESS:      94187  HIT:      91640  MISS:       2547  HIT %:    97.2958  MISS %:    2.70419   MPKI: 0.012735
LLC LOAD TRANSLATION ACCESS:       1451  HIT:        241  MISS:       1210  HIT %:    16.6092  MISS %:    83.3908   MPKI: 0.00605
LLC TRANSLATION FROM L1D PREFETCHER ACCESS:       5925  HIT:        148  MISS:       5777  HIT %:    2.49789  MISS %:    97.5021   MPKI: 0.028885
LLC PREFETCH  REQUESTED:          0  ISSUED:          0  USEFUL:        475  USELESS:   13616181
LLC USEFUL LOAD PREFETCHES:        475 PREFETCH ISSUED TO LOWER LEVEL:  268056832  ACCURACY: 0.000177201
LLC TIMELY PREFETCHES:        475 LATE PREFETCHES: 0 DROPPED PREFETCHES: 0
LLC PREFETCHES SAME FILL-ORIGIN LEVEL: 0 DIFFERENT FILL-ORIGIN LEVEL: 0
LLC AVERAGE MISS LATENCY: 2331.73 cycles
LLC RQ	ACCESS:     815982	FORWARD:          0	MERGED:          0	TO_CACHE:     815982
LLC WQ	ACCESS:     377119	FORWARD:          0	MERGED:          0	TO_CACHE:     377119
LLC PQ	ACCESS:   15496993	FORWARD:          0	MERGED:          0	TO_CACHE:   15496993

LLC Dense regions hint to LLC: 0

RAW hits: 12068557
Loads Generated: 117253488
Loads sent to L1D: 105184935
Stores Generated: 14974774
Stores sent to L1D: 14974778
Major fault: 0 Minor fault: 68364
Allocated PAGES: 273370

CPU 2 cumulative IPC: 1.34159 instructions: 200000002 cycles: 149077374
ITLB TOTAL     ACCESS:   26320348  HIT:   26320348  MISS:          0  HIT %:        100  MISS %:          0   MPKI: 0
ITLB LOAD TRANSLATION ACCESS:   26320348  HIT:   26320348  MISS:          0  HIT %:        100  MISS %:          0   MPKI: 0
ITLB PREFETCH  REQUESTED:          0  ISSUED:          0  USEFUL:          0  USELESS:          0
ITLB USEFUL LOAD PREFETCHES:          0 PREFETCH ISSUED TO LOWER LEVEL:          0  ACCURACY: -nan
ITLB TIMELY PREFETCHES:          0 LATE PREFETCHES: 0 DROPPED PREFETCHES: 0
ITLB PREFETCHES SAME FILL-ORIGIN LEVEL: 0 DIFFERENT FILL-ORIGIN LEVEL: 0
ITLB AVERAGE MISS LATENCY: -nan cycles
ITLB RQ	ACCESS:   32286412	FORWARD:          0	MERGED:    5902561	TO_CACHE:   26383851

DTLB TOTAL     ACCESS:   70983400  HIT:   70817243  MISS:     166157  HIT %:    99.7659  MISS %:   0.234079   MPKI: 0.830785
DTLB LOAD TRANSLATION ACCESS:   70983400  HIT:   70817243  MISS:     166157  HIT %:    99.7659  MISS %:   0.234079   MPKI: 0.830785
DTLB PREFETCH  REQUESTED:          0  ISSUED:          0  USEFUL:          0  USELESS:          0
DTLB USEFUL LOAD PREFETCHES:          0 PREFETCH ISSUED TO LOWER LEVEL:          0  ACCURACY: -nan
DTLB TIMELY PREFETCHES:          0 LATE PREFETCHES: 0 DROPPED PREFETCHES: 0
DTLB PREFETCHES SAME FILL-ORIGIN LEVEL: 0 DIFFERENT FILL-ORIGIN LEVEL: 0
DTLB AVERAGE MISS LATENCY: 209.416 cycles
DTLB RQ	ACCESS:   93753643	FORWARD:          0	MERGED:   22573487	TO_CACHE:   71180156

STLB TOTAL     ACCESS:   31438300  HIT:   31383776  MISS:      54524  HIT %:    99.8266  MISS %:   0.173432   MPKI: 0.27262
STLB LOAD TRANSLATION ACCESS:     166157  HIT:     111750  MISS:      54407  HIT %:    67.2557  MISS %:    32.7443   MPKI: 0.272035
STLB TRANSLATION FROM L1D PREFETCHER ACCESS:   31272143  HIT:   31272026  MISS:        117  HIT %:    99.9996  MISS %: 0.000374135   MPKI: 0.000585
STLB PREFETCH  REQUESTED:          0  ISSUED:          0  USEFUL:        117  USELESS:          0
STLB USEFUL LOAD PREFETCHES:        117 PREFETCH ISSUED TO LOWER LEVEL:          0  ACCURACY: inf
STLB TIMELY PREFETCHES:        117 LATE PREFETCHES: 12498 DROPPED PREFETCHES: 512851
STLB PREFETCHES SAME FILL-ORIGIN LEVEL: 0 DIFFERENT FILL-ORIGIN LEVEL: 0
STLB AVERAGE MISS LATENCY: 603.145 cycles
STLB RQ	ACCESS:   68866437	FORWARD:          0	MERGED:   36757310	TO_CACHE:   32109127

STLB Hit, L1D data hit: 0
STLB Hit, L2C data hit: 0
STLB Hit, LLC data hit: 0
STLB Hit, LLC data miss: 0
STLB STLB hints to L2: 0
L1D TOTAL     ACCESS:  140856594  HIT:  136990904  MISS:    3865690  HIT %:    97.2556  MISS %:    2.74442   MPKI: 19.3284
L1D LOAD      ACCESS:   78500675  HIT:   78069487  MISS:     431188  HIT %:    99.4507  MISS %:   0.549279   MPKI: 2.15594
L1D RFO       ACCESS:   14167250  HIT:   14073143  MISS:      94107  HIT %:    99.3357  MISS %:   0.664257   MPKI: 0.470535
L1D PREFETCH  ACCESS:   48188669  HIT:   44848274  MISS:    3340395  HIT %:    93.0681  MISS %:    6.93191   MPKI: 16.702
L1D PREFETCH  REQUESTED:  717942190  ISSUED:  161719945  USEFUL:    3341339  USELESS:       7115
L1D USEFUL LOAD PREFETCHES:    3341339 PREFETCH ISSUED TO LOWER LEVEL:   20540933  ACCURACY: 16.2667
L1D TIMELY PREFETCHES:    3341339 LATE PREFETCHES: 183892 DROPPED PREFETCHES: 1199098
L1D PREFETCHES SAME FILL-ORIGIN LEVEL: 3934467 DIFFERENT FILL-ORIGIN LEVEL: 16606466
L1D AVERAGE MISS LATENCY: 341.687 cycles
L1D RQ	ACCESS:  105439503	FORWARD:          0	MERGED:   26464626	TO_CACHE:   78752677
L1D WQ	ACCESS:   15010856	FORWARD:     224646	MERGED:       9890	TO_CACHE:   15000966
L1D PQ	ACCESS:   93019806	FORWARD:          0	MERGED:   24317221	TO_CACHE:   68700139

L1D UNIQUE REGIONS ACCESSED: 0
L1D REGIONS CONFLICTS: 0
L1D Cross Page Prefetch Requests: 15422802
L1D Same Page Prefetch Requests: 101462087
L1D ROI Sum of L1D PQ occupancy: 1433752085
L1D PREFETCHES PUSHED FROM L2C: 0
L1I TOTAL     ACCESS:   32208707  HIT:   32208707  MISS:          0  HIT %:        100  MISS %:          0   MPKI: 0
L1I LOAD      ACCESS:   32208707  HIT:   32208707  MISS:          0  HIT %:        100  MISS %:          0   MPKI: 0
L1I PREFETCH  REQUESTED:          0  ISSUED:          0  USEFUL:          0  USELESS:          0
L1I USEFUL LOAD PREFETCHES:          0 PREFETCH ISSUED TO LOWER LEVEL:          0  ACCURACY: -nan
L1I TIMELY PREFETCHES:          0 LATE PREFETCHES: 0 DROPPED PREFETCHES: 0
L1I PREFETCHES SAME FILL-ORIGIN LEVEL: 0 DIFFERENT FILL-ORIGIN LEVEL: 0
L1I AVERAGE MISS LATENCY: -nan cycles
L1I RQ	ACCESS:   42127036	FORWARD:          0	MERGED:    9840624	TO_CACHE:   32286412

BTB TOTAL     ACCESS:    5422877  HIT:    5422871  MISS:          6  HIT %:    99.9999  MISS %: 0.000110642   MPKI: 3e-05
BTB BRANCH_DIRECT_JUMP	ACCESS:     752861  HIT:     752858  MISS:          3
BTB BRANCH_INDIRECT	ACCESS:          0  HIT:          0  MISS:          0
BTB BRANCH_CONDITIONAL	ACCESS:    4670016  HIT:    4670013  MISS:          3
BTB BRANCH_DIRECT_CALL	ACCESS:          0  HIT:          0  MISS:          0
BTB BRANCH_INDIRECT_CALL	ACCESS:          0  HIT:          0  MISS:          0
BTB BRANCH_RETURN	ACCESS:          0  HIT:          0  MISS:          0
BTB BRANCH_OTHER ACCESS:          0  HIT:          0  MISS:          0

L2C TOTAL     ACCESS:   12524396  HIT:    8438430  MISS:    4085966  HIT %:    67.3759  MISS %:    32.6241   MPKI: 20.4298
L2C LOAD      ACCESS:     247780  HIT:     111315  MISS:     136465  HIT %:    44.9249  MISS %:    55.0751   MPKI: 0.682325
L2C DATA LOAD MPKI: 0.682325
L2C INSTRUCTION LOAD MPKI: 0
L2C RFO       ACCESS:      94107  HIT:          0  MISS:      94107  HIT %:          0  MISS %:        100   MPKI: 0.470535
L2C PREFETCH  ACCESS:   11490102  HIT:    7650406  MISS:    3839696  HIT %:    66.5826  MISS %:    33.4174   MPKI: 19.1985
L2C DATA PREFETCH MPKI: 19.1985
L2C INSTRUCTION PREFETCH MPKI: 0
L2C WRITEBACK ACCESS:      94112  HIT:      85814  MISS:       8298  HIT %:    91.1828  MISS %:    8.81715   MPKI: 0.04149
L2C LOAD TRANSLATION ACCESS:      54412  HIT:      52872  MISS:       1540  HIT %:    97.1697  MISS %:    2.83026   MPKI: 0.0077
L2C TRANSLATION FROM L1D PREFETCHER ACCESS:     543883  HIT:     538023  MISS:       5860  HIT %:    98.9226  MISS %:    1.07744   MPKI: 0.0293
L2C PREFETCH  REQUESTED:          0  ISSUED:          0  USEFUL:     117353  USELESS:    3737876
L2C USEFUL LOAD PREFETCHES:     117353 PREFETCH ISSUED TO LOWER LEVEL:    3883245  ACCURACY: 3.02203
L2C TIMELY PREFETCHES:     117353 LATE PREFETCHES: 34218 DROPPED PREFETCHES: 0
L2C PREFETCHES SAME FILL-ORIGIN LEVEL: 2474788 DIFFERENT FILL-ORIGIN LEVEL: 0
L2C AVERAGE MISS LATENCY: 613.12 cycles
L2C RQ	ACCESS:     942243	FORWARD:          0	MERGED:          0	TO_CACHE:     942243
L2C WQ	ACCESS:      94336	FORWARD:          0	MERGED:          0	TO_CACHE:      94336
L2C PQ	ACCESS:   15467074	FORWARD:          0	MERGED:     131645	TO_CACHE:   15335429

L2C Instructions Evicting Data 0
L2C Translations Evicting Data 7412
L2C Data Evicting Data 4072687
L2C Instructions Evicting Instructions 0
L2C Translations Evicting Instructions 0
L2C Data Evicting Instructions 0
L2C Instructions Evicting Translations 0
L2C Translations Evicting Translations 4
L2C Data Evicting Translations 7409
L2C Dense regions hint from L2: 0
PSCL5 TOTAL     ACCESS:     578710  HIT:     578710  MISS:          0  HIT %:        100  MISS %:          0   MPKI: 0
PSCL5 LOAD TRANSLATION ACCESS:      54407  HIT:      54407  MISS:          0  HIT %:        100  MISS %:          0   MPKI: 0
PSCL5 TRANSLATION FROM L1D PREFETCHER ACCESS:     524303  HIT:     524303  MISS:          0  HIT %:        100  MISS %:          0   MPKI: 0
PSCL5 PREFETCH  REQUESTED:          0  ISSUED:          0  USEFUL:          0  USELESS:          0
PSCL5 USEFUL LOAD PREFETCHES:          0 PREFETCH ISSUED TO LOWER LEVEL:          0  ACCURACY: -nan
PSCL5 TIMELY PREFETCHES:          0 LATE PREFETCHES: 0 DROPPED PREFETCHES: 0
PSCL5 PREFETCHES SAME FILL-ORIGIN LEVEL: 0 DIFFERENT FILL-ORIGIN LEVEL: 0

PSCL4 TOTAL     ACCESS:     578710  HIT:     578710  MISS:          0  HIT %:        100  MISS %:          0   MPKI: 0
PSCL4 LOAD TRANSLATION ACCESS:      54407  HIT:      54407  MISS:          0  HIT %:        100  MISS %:          0   MPKI: 0
PSCL4 TRANSLATION FROM L1D PREFETCHER ACCESS:     524303  HIT:     524303  MISS:          0  HIT %:        100  MISS %:          0   MPKI: 0
PSCL4 PREFETCH  REQUESTED:          0  ISSUED:          0  USEFUL:          0  USELESS:          0
PSCL4 USEFUL LOAD PREFETCHES:          0 PREFETCH ISSUED TO LOWER LEVEL:          0  ACCURACY: -nan
PSCL4 TIMELY PREFETCHES:          0 LATE PREFETCHES: 0 DROPPED PREFETCHES: 0
PSCL4 PREFETCHES SAME FILL-ORIGIN LEVEL: 0 DIFFERENT FILL-ORIGIN LEVEL: 0

PSCL3 TOTAL     ACCESS:     578710  HIT:     578710  MISS:          0  HIT %:        100  MISS %:          0   MPKI: 0
PSCL3 LOAD TRANSLATION ACCESS:      54407  HIT:      54407  MISS:          0  HIT %:        100  MISS %:          0   MPKI: 0
PSCL3 TRANSLATION FROM L1D PREFETCHER ACCESS:     524303  HIT:     524303  MISS:          0  HIT %:        100  MISS %:          0   MPKI: 0
PSCL3 PREFETCH  REQUESTED:          0  ISSUED:          0  USEFUL:          0  USELESS:          0
PSCL3 USEFUL LOAD PREFETCHES:          0 PREFETCH ISSUED TO LOWER LEVEL:          0  ACCURACY: -nan
PSCL3 TIMELY PREFETCHES:          0 LATE PREFETCHES: 0 DROPPED PREFETCHES: 0
PSCL3 PREFETCHES SAME FILL-ORIGIN LEVEL: 0 DIFFERENT FILL-ORIGIN LEVEL: 0

PSCL2 TOTAL     ACCESS:     558860  HIT:     558748  MISS:        112  HIT %:      99.98  MISS %:  0.0200408   MPKI: 0.00056
PSCL2 LOAD TRANSLATION ACCESS:      54408  HIT:      54296  MISS:        112  HIT %:    99.7941  MISS %:   0.205852   MPKI: 0.00056
PSCL2 TRANSLATION FROM L1D PREFETCHER ACCESS:     504452  HIT:     504452  MISS:          0  HIT %:        100  MISS %:          0   MPKI: 0
PSCL2 PREFETCH  REQUESTED:          0  ISSUED:          0  USEFUL:          0  USELESS:          0
PSCL2 USEFUL LOAD PREFETCHES:          0 PREFETCH ISSUED TO LOWER LEVEL:          0  ACCURACY: -nan
PSCL2 TIMELY PREFETCHES:          0 LATE PREFETCHES: 0 DROPPED PREFETCHES: 0
PSCL2 PREFETCHES SAME FILL-ORIGIN LEVEL: 0 DIFFERENT FILL-ORIGIN LEVEL: 0

LLC TOTAL     ACCESS:    4171812  HIT:     571458  MISS:    3600354  HIT %:    13.6981  MISS %:    86.3019   MPKI: 18.0018
LLC LOAD      ACCESS:     102317  HIT:         18  MISS:     102299  HIT %:  0.0175924  MISS %:    99.9824   MPKI: 0.511495
LLC RFO       ACCESS:      94107  HIT:          0  MISS:      94107  HIT %:          0  MISS %:        100   MPKI: 0.470535
LLC PREFETCH  ACCESS:    3873844  HIT:     479513  MISS:    3394331  HIT %:    12.3782  MISS %:    87.6218   MPKI: 16.9717
LLC WRITEBACK ACCESS:      94144  HIT:      91505  MISS:       2639  HIT %:    97.1968  MISS %:    2.80315   MPKI: 0.013195
LLC LOAD TRANSLATION ACCESS:       1540  HIT:        285  MISS:       1255  HIT %:    18.5065  MISS %:    81.4935   MPKI: 0.006275
LLC TRANSLATION FROM L1D PREFETCHER ACCESS:       5860  HIT:        137  MISS:       5723  HIT %:    2.33788  MISS %:    97.6621   MPKI: 0.028615
LLC PREFETCH  REQUESTED:          0  ISSUED:          0  USEFUL:        475  USELESS:   13616181
LLC USEFUL LOAD PREFETCHES:        475 PREFETCH ISSUED TO LOWER LEVEL:  268056832  ACCURACY: 0.000177201
LLC TIMELY PREFETCHES:        475 LATE PREFETCHES: 0 DROPPED PREFETCHES: 0
LLC PREFETCHES SAME FILL-ORIGIN LEVEL: 0 DIFFERENT FILL-ORIGIN LEVEL: 0
LLC AVERAGE MISS LATENCY: 2328.69 cycles
LLC RQ	ACCESS:     815982	FORWARD:          0	MERGED:          0	TO_CACHE:     815982
LLC WQ	ACCESS:     377119	FORWARD:          0	MERGED:          0	TO_CACHE:     377119
LLC PQ	ACCESS:   15496993	FORWARD:          0	MERGED:          0	TO_CACHE:   15496993

LLC Dense regions hint to LLC: 0

RAW hits: 12067629
Loads Generated: 117253504
Loads sent to L1D: 105185868
Stores Generated: 14974749
Stores sent to L1D: 14974749
Major fault: 0 Minor fault: 68386
Allocated PAGES: 273370

CPU 3 cumulative IPC: 1.34115 instructions: 200000002 cycles: 149125633
ITLB TOTAL     ACCESS:   26319098  HIT:   26319098  MISS:          0  HIT %:        100  MISS %:          0   MPKI: 0
ITLB LOAD TRANSLATION ACCESS:   26319098  HIT:   26319098  MISS:          0  HIT %:        100  MISS %:          0   MPKI: 0
ITLB PREFETCH  REQUESTED:          0  ISSUED:          0  USEFUL:          0  USELESS:          0
ITLB USEFUL LOAD PREFETCHES:          0 PREFETCH ISSUED TO LOWER LEVEL:          0  ACCURACY: -nan
ITLB TIMELY PREFETCHES:          0 LATE PREFETCHES: 0 DROPPED PREFETCHES: 0
ITLB PREFETCHES SAME FILL-ORIGIN LEVEL: 0 DIFFERENT FILL-ORIGIN LEVEL: 0
ITLB AVERAGE MISS LATENCY: -nan cycles
ITLB RQ	ACCESS:   32275209	FORWARD:          0	MERGED:    5901106	TO_CACHE:   26374103

DTLB TOTAL     ACCESS:   70989405  HIT:   70823261  MISS:     166144  HIT %:     99.766  MISS %:   0.234041   MPKI: 0.83072
DTLB LOAD TRANSLATION ACCESS:   70989405  HIT:   70823261  MISS:     166144  HIT %:     99.766  MISS %:   0.234041   MPKI: 0.83072
DTLB PREFETCH  REQUESTED:          0  ISSUED:          0  USEFUL:          0  USELESS:          0
DTLB USEFUL LOAD PREFETCHES:          0 PREFETCH ISSUED TO LOWER LEVEL:          0  ACCURACY: -nan
DTLB TIMELY PREFETCHES:          0 LATE PREFETCHES: 0 DROPPED PREFETCHES: 0
DTLB PREFETCHES SAME FILL-ORIGIN LEVEL: 0 DIFFERENT FILL-ORIGIN LEVEL: 0
DTLB AVERAGE MISS LATENCY: 210.982 cycles
DTLB RQ	ACCESS:   93737226	FORWARD:          0	MERGED:   22573669	TO_CACHE:   71163557

STLB TOTAL     ACCESS:   31336159  HIT:   31281634  MISS:      54525  HIT %:     99.826  MISS %:      0.174   MPKI: 0.272625
STLB LOAD TRANSLATION ACCESS:     166144  HIT:     111737  MISS:      54407  HIT %:    67.2531  MISS %:    32.7469   MPKI: 0.272035
STLB TRANSLATION FROM L1D PREFETCHER ACCESS:   31170015  HIT:   31169897  MISS:        118  HIT %:    99.9996  MISS %: 0.000378569   MPKI: 0.00059
STLB PREFETCH  REQUESTED:          0  ISSUED:          0  USEFUL:        118  USELESS:          0
STLB USEFUL LOAD PREFETCHES:        118 PREFETCH ISSUED TO LOWER LEVEL:          0  ACCURACY: inf
STLB TIMELY PREFETCHES:        118 LATE PREFETCHES: 12578 DROPPED PREFETCHES: 523003
STLB PREFETCHES SAME FILL-ORIGIN LEVEL: 0 DIFFERENT FILL-ORIGIN LEVEL: 0
STLB AVERAGE MISS LATENCY: 608.499 cycles
STLB RQ	ACCESS:   68671142	FORWARD:          0	MERGED:   36666807	TO_CACHE:   32004335

STLB Hit, L1D data hit: 0
STLB Hit, L2C data hit: 0
STLB Hit, LLC data hit: 0
STLB Hit, LLC data miss: 0
STLB STLB hints to L2: 0
L1D TOTAL     ACCESS:  140859615  HIT:  136982752  MISS:    3876863  HIT %:    97.2477  MISS %:    2.75229   MPKI: 19.3843
L1D LOAD      ACCESS:   78515241  HIT:   78085094  MISS:     430147  HIT %:    99.4521  MISS %:   0.547852   MPKI: 2.15073
L1D RFO       ACCESS:   14160992  HIT:   14066885  MISS:      94107  HIT %:    99.3354  MISS %:   0.664551   MPKI: 0.470535
L1D PREFETCH  ACCESS:   48183382  HIT:   44830773  MISS:    3352609  HIT %:     93.042  MISS %:    6.95802   MPKI: 16.763
L1D PREFETCH  REQUESTED:  718600213  ISSUED:  161217090  USEFUL:    3341291  USELESS:      18451
L1D USEFUL LOAD PREFETCHES:    3341291 PREFETCH ISSUED TO LOWER LEVEL:   20311889  ACCURACY: 16.4499
L1D TIMELY PREFETCHES:    3341291 LATE PREFETCHES: 182049 DROPPED PREFETCHES: 1206510
L1D PREFETCHES SAME FILL-ORIGIN LEVEL: 3949125 DIFFERENT FILL-ORIGIN LEVEL: 16362764
L1D AVERAGE MISS LATENCY: 341.293 cycles
L1D RQ	ACCESS:  105409590	FORWARD:          0	MERGED:   26444518	TO_CACHE:   78741673
L1D WQ	ACCESS:   15006094	FORWARD:     225765	MERGED:      10541	TO_CACHE:   14995553
L1D PQ	ACCESS:   92712216	FORWARD:          0	MERGED:   24204976	TO_CACHE:   68504874

L1D UNIQUE REGIONS ACCESSED: 0
L1D REGIONS CONFLICTS: 0
L1D Cross Page Prefetch Requests: 15409914
L1D Same Page Prefetch Requests: 101166451
L1D ROI Sum of L1D PQ occupancy: 1434014874
L1D PREFETCHES PUSHED FROM L2C: 0
L1I TOTAL     ACCESS:   32207895  HIT:   32207895  MISS:          0  HIT %:        100  MISS %:          0   MPKI: 0
L1I LOAD      ACCESS:   32207895  HIT:   32207895  MISS:          0  HIT %:        100  MISS %:          0   MPKI: 0
L1I PREFETCH  REQUESTED:          0  ISSUED:          0  USEFUL:          0  USELESS:          0
L1I USEFUL LOAD PREFETCHES:          0 PREFETCH ISSUED TO LOWER LEVEL:          0  ACCURACY: -nan
L1I TIMELY PREFETCHES:          0 LATE PREFETCHES: 0 DROPPED PREFETCHES: 0
L1I PREFETCHES SAME FILL-ORIGIN LEVEL: 0 DIFFERENT FILL-ORIGIN LEVEL: 0
L1I AVERAGE MISS LATENCY: -nan cycles
L1I RQ	ACCESS:   42111430	FORWARD:          0	MERGED:    9836221	TO_CACHE:   32275209

BTB TOTAL     ACCESS:    5422880  HIT:    5422872  MISS:          8  HIT %:    99.9999  MISS %: 0.000147523   MPKI: 4e-05
BTB BRANCH_DIRECT_JUMP	ACCESS:     752862  HIT:     752858  MISS:          4
BTB BRANCH_INDIRECT	ACCESS:          0  HIT:          0  MISS:          0
BTB BRANCH_CONDITIONAL	ACCESS:    4670018  HIT:    4670014  MISS:          4
BTB BRANCH_DIRECT_CALL	ACCESS:          0  HIT:          0  MISS:          0
BTB BRANCH_INDIRECT_CALL	ACCESS:          0  HIT:          0  MISS:          0
BTB BRANCH_RETURN	ACCESS:          0  HIT:          0  MISS:          0
BTB BRANCH_OTHER ACCESS:          0  HIT:          0  MISS:          0

L2C TOTAL     ACCESS:   12380541  HIT:    8308707  MISS:    4071834  HIT %:     67.111  MISS %:     32.889   MPKI: 20.3592
L2C LOAD      ACCESS:     248479  HIT:     112404  MISS:     136075  HIT %:    45.2368  MISS %:    54.7632   MPKI: 0.680375
L2C DATA LOAD MPKI: 0.680375
L2C INSTRUCTION LOAD MPKI: 0
L2C RFO       ACCESS:      94107  HIT:          0  MISS:      94107  HIT %:          0  MISS %:        100   MPKI: 0.470535
L2C PREFETCH  ACCESS:   11335250  HIT:    7509533  MISS:    3825717  HIT %:    66.2494  MISS %:    33.7506   MPKI: 19.1286
L2C DATA PREFETCH MPKI: 19.1286
L2C INSTRUCTION PREFETCH MPKI: 0
L2C WRITEBACK ACCESS:      94112  HIT:      85563  MISS:       8549  HIT %:    90.9161  MISS %:    9.08386   MPKI: 0.042745
L2C LOAD TRANSLATION ACCESS:      54412  HIT:      52931  MISS:       1481  HIT %:    97.2782  MISS %:    2.72183   MPKI: 0.007405
L2C TRANSLATION FROM L1D PREFETCHER ACCESS:     554181  HIT:     548276  MISS:       5905  HIT %:    98.9345  MISS %:    1.06554   MPKI: 0.029525
L2C PREFETCH  REQUESTED:          0  ISSUED:          0  USEFUL:     118493  USELESS:    3721490
L2C USEFUL LOAD PREFETCHES:     118493 PREFETCH ISSUED TO LOWER LEVEL:    3867604  ACCURACY: 3.06373
L2C TIMELY PREFETCHES:     118493 LATE PREFETCHES: 33907 DROPPED PREFETCHES: 0
L2C PREFETCHES SAME FILL-ORIGIN LEVEL: 2455972 DIFFERENT FILL-ORIGIN LEVEL: 0
L2C AVERAGE MISS LATENCY: 614.85 cycles
L2C RQ	ACCESS:     953033	FORWARD:          0	MERGED:          0	TO_CACHE:     953033
L2C WQ	ACCESS:      94304	FORWARD:          0	MERGED:          0	TO_CACHE:      94304
L2C PQ	ACCESS:   15306484	FORWARD:          0	MERGED:     129927	TO_CACHE:   15176557

L2C Instructions Evicting Data 0
L2C Translations Evicting Data 7396
L2C Data Evicting Data 4056975
L2C Instructions Evicting Instructions 0
L2C Translations Evicting Instructions 0
L2C Data Evicting Instructions 0
L2C Instructions Evicting Translations 0
L2C Translations Evicting Translations 6
L2C Data Evicting Translations 7385
L2C Dense regions hint from L2: 0
PSCL5 TOTAL     ACCESS:     589113  HIT:     589113  MISS:          0  HIT %:        100  MISS %:          0   MPKI: 0
PSCL5 LOAD TRANSLATION ACCESS:      54407  HIT:      54407  MISS:          0  HIT %:        100  MISS %:          0   MPKI: 0
PSCL5 TRANSLATION FROM L1D PREFETCHER ACCESS:     534706  HIT:     534706  MISS:          0  HIT %:        100  MISS %:          0   MPKI: 0
PSCL5 PREFETCH  REQUESTED:          0  ISSUED:          0  USEFUL:          0  USELESS:          0
PSCL5 USEFUL LOAD PREFETCHES:          0 PREFETCH ISSUED TO LOWER LEVEL:          0  ACCURACY: -nan
PSCL5 TIMELY PREFETCHES:          0 LATE PREFETCHES: 0 DROPPED PREFETCHES: 0
PSCL5 PREFETCHES SAME FILL-ORIGIN LEVEL: 0 DIFFERENT FILL-ORIGIN LEVEL: 0

PSCL4 TOTAL     ACCESS:     589113  HIT:     589113  MISS:          0  HIT %:        100  MISS %:          0   MPKI: 0
PSCL4 LOAD TRANSLATION ACCESS:      54407  HIT:      54407  MISS:          0  HIT %:        100  MISS %:          0   MPKI: 0
PSCL4 TRANSLATION FROM L1D PREFETCHER ACCESS:     534706  HIT:     534706  MISS:          0  HIT %:        100  MISS %:          0   MPKI: 0
PSCL4 PREFETCH  REQUESTED:          0  ISSUED:          0  USEFUL:          0  USELESS:          0
PSCL4 USEFUL LOAD PREFETCHES:          0 PREFETCH ISSUED TO LOWER LEVEL:          0  ACCURACY: -nan
PSCL4 TIMELY PREFETCHES:          0 LATE PREFETCHES: 0 DROPPED PREFETCHES: 0
PSCL4 PREFETCHES SAME FILL-ORIGIN LEVEL: 0 DIFFERENT FILL-ORIGIN LEVEL: 0

PSCL3 TOTAL     ACCESS:     589113  HIT:     589113  MISS:          0  HIT %:        100  MISS %:          0   MPKI: 0
PSCL3 LOAD TRANSLATION ACCESS:      54407  HIT:      54407  MISS:          0  HIT %:        100  MISS %:          0   MPKI: 0
PSCL3 TRANSLATION FROM L1D PREFETCHER ACCESS:     534706  HIT:     534706  MISS:          0  HIT %:        100  MISS %:          0   MPKI: 0
PSCL3 PREFETCH  REQUESTED:          0  ISSUED:          0  USEFUL:          0  USELESS:          0
PSCL3 USEFUL LOAD PREFETCHES:          0 PREFETCH ISSUED TO LOWER LEVEL:          0  ACCURACY: -nan
PSCL3 TIMELY PREFETCHES:          0 LATE PREFETCHES: 0 DROPPED PREFETCHES: 0
PSCL3 PREFETCHES SAME FILL-ORIGIN LEVEL: 0 DIFFERENT FILL-ORIGIN LEVEL: 0

PSCL2 TOTAL     ACCESS:     569384  HIT:     569272  MISS:        112  HIT %:    99.9803  MISS %:  0.0196704   MPKI: 0.00056
PSCL2 LOAD TRANSLATION ACCESS:      54408  HIT:      54296  MISS:        112  HIT %:    99.7941  MISS %:   0.205852   MPKI: 0.00056
PSCL2 TRANSLATION FROM L1D PREFETCHER ACCESS:     514976  HIT:     514976  MISS:          0  HIT %:        100  MISS %:          0   MPKI: 0
PSCL2 PREFETCH  REQUESTED:          0  ISSUED:          0  USEFUL:          0  USELESS:          0
PSCL2 USEFUL LOAD PREFETCHES:          0 PREFETCH ISSUED TO LOWER LEVEL:          0  ACCURACY: -nan
PSCL2 TIMELY PREFETCHES:          0 LATE PREFETCHES: 0 DROPPED PREFETCHES: 0
PSCL2 PREFETCHES SAME FILL-ORIGIN LEVEL: 0 DIFFERENT FILL-ORIGIN LEVEL: 0

LLC TOTAL     ACCESS:    4157383  HIT:     556458  MISS:    3600925  HIT %:    13.3848  MISS %:    86.6152   MPKI: 18.0046
LLC LOAD      ACCESS:     102259  HIT:         21  MISS:     102238  HIT %:  0.0205361  MISS %:    99.9795   MPKI: 0.51119
LLC RFO       ACCESS:      94107  HIT:          0  MISS:      94107  HIT %:          0  MISS %:        100   MPKI: 0.470535
LLC PREFETCH  ACCESS:    3859533  HIT:     464512  MISS:    3395021  HIT %:    12.0354  MISS %:    87.9646   MPKI: 16.9751
LLC WRITEBACK ACCESS:      94098  HIT:      91519  MISS:       2579  HIT %:    97.2592  MISS %:    2.74076   MPKI: 0.012895
LLC LOAD TRANSLATION ACCESS:       1481  HIT:        256  MISS:       1225  HIT %:    17.2856  MISS %:    82.7144   MPKI: 0.006125
LLC TRANSLATION FROM L1D PREFETCHER ACCESS:       5905  HIT:        150  MISS:       5755  HIT %:    2.54022  MISS %:    97.4598   MPKI: 0.028775
LLC PREFETCH  REQUESTED:          0  ISSUED:          0  USEFUL:        475  USELESS:   13616181
LLC USEFUL LOAD PREFETCHES:        475 PREFETCH ISSUED TO LOWER LEVEL:  268056832  ACCURACY: 0.000177201
LLC TIMELY PREFETCHES:        475 LATE PREFETCHES: 0 DROPPED PREFETCHES: 0
LLC PREFETCHES SAME FILL-ORIGIN LEVEL: 0 DIFFERENT FILL-ORIGIN LEVEL: 0
LLC AVERAGE MISS LATENCY: 2328.32 cycles
LLC RQ	ACCESS:     815982	FORWARD:          0	MERGED:          0	TO_CACHE:     815982
LLC WQ	ACCESS:     377119	FORWARD:          0	MERGED:          0	TO_CACHE:     377119
LLC PQ	ACCESS:   15496993	FORWARD:          0	MERGED:          0	TO_CACHE:   15496993

LLC Dense regions hint to LLC: 0

RAW hits: 12064005
Loads Generated: 117253508
Loads sent to L1D: 105189499
Stores Generated: 14974778
Stores sent to L1D: 14974775
Major fault: 0 Minor fault: 68367
Allocated PAGES: 273370

DRAM Statistics
 CHANNEL 0
 RQ ROW_BUFFER_HIT:   10949269  ROW_BUFFER_MISS:    3457663
 DBUS_CONGESTED:          0
 WQ ROW_BUFFER_HIT:      46111  ROW_BUFFER_MISS:     330995  FULL:          0

 AVG_CONGESTED_CYCLE: -
 All warmup complete: 5
Channel 0 Bank busy for read cycles: 0
Channel 0 Bank busy for write cycles: 0
Channel 0
Rank 0
0banks busy for read cycles: 82
0banks busy for write cycles: 0
1banks busy for read cycles: 44647
1banks busy for write cycles: 41488
2banks busy for read cycles: 58946
2banks busy for write cycles: 41488
3banks busy for read cycles: 119321
3banks busy for write cycles: 41489
4banks busy for read cycles: 381687
4banks busy for write cycles: 41539
5banks busy for read cycles: 1479212
5banks busy for write cycles: 41922
6banks busy for read cycles: 5900171
6banks busy for write cycles: 65625
7banks busy for read cycles: 28417762
7banks busy for write cycles: 846882
8banks busy for read cycles: 104573881
8banks busy for write cycles: 7344311

CPU 0 Branch Prediction Accuracy: 99.9578% MPKI: 0.0117649 Average ROB Occupancy at Mispredict: 148.688
Branch types
NOT_BRANCH: 194423829 97.2119%
BRANCH_DIRECT_JUMP: 752861 0.37643%
BRANCH_INDIRECT: 0 0%
BRANCH_CONDITIONAL: 4823015 2.41151%
BRANCH_DIRECT_CALL: 0 0%
BRANCH_INDIRECT_CALL: 0 0%
BRANCH_RETURN: 0 0%
BRANCH_OTHER: 0 0%


CPU 1 Branch Prediction Accuracy: 99.9578% MPKI: 0.0117612 Average ROB Occupancy at Mispredict: 148.367
Branch types
NOT_BRANCH: 194815763 97.212%
BRANCH_DIRECT_JUMP: 754379 0.376431%
BRANCH_INDIRECT: 0 0%
BRANCH_CONDITIONAL: 4832738 2.41151%
BRANCH_DIRECT_CALL: 0 0%
BRANCH_INDIRECT_CALL: 0 0%
BRANCH_RETURN: 0 0%
BRANCH_OTHER: 0 0%


CPU 2 Branch Prediction Accuracy: 99.9578% MPKI: 0.0117616 Average ROB Occupancy at Mispredict: 144.929
Branch types
NOT_BRANCH: 194892973 97.212%
BRANCH_DIRECT_JUMP: 754677 0.376431%
BRANCH_INDIRECT: 0 0%
BRANCH_CONDITIONAL: 4834653 2.41151%
BRANCH_DIRECT_CALL: 0 0%
BRANCH_INDIRECT_CALL: 0 0%
BRANCH_RETURN: 0 0%
BRANCH_OTHER: 0 0%


CPU 3 Branch Prediction Accuracy: 99.9578% MPKI: 0.0117654 Average ROB Occupancy at Mispredict: 148.424
Branch types
NOT_BRANCH: 194830616 97.212%
BRANCH_DIRECT_JUMP: 754436 0.376431%
BRANCH_INDIRECT: 0 0%
BRANCH_CONDITIONAL: 4833106 2.41151%
BRANCH_DIRECT_CALL: 0 0%
BRANCH_INDIRECT_CALL: 0 0%
BRANCH_RETURN: 0 0%
BRANCH_OTHER: 0 0%

DRAM PAGES: 1048576
Allocated PAGES: 273370
