
*** ChampSim Multicore Out-of-Order Simulator ***

Warmup Instructions: 50000000
Simulation Instructions: 200000000
Number of CPUs: 4
LLC sets: 8192
LLC ways: 16
Off-chip DRAM Size: 4096 MB Channels: 1 Width: 64-bit Data Rate: 6400 MT/s
CPU 0 runs ./traces/spec/429.mcf-51B.champsimtrace.xz
.xz
CPU 1 runs ./traces/spec/429.mcf-51B.champsimtrace.xz
.xz
CPU 2 runs ./traces/spec/429.mcf-51B.champsimtrace.xz
.xz
CPU 3 runs ./traces/spec/429.mcf-51B.champsimtrace.xz
.xz
BTB has LRU replacement policy
ITLB has LRU replacement policy
DTLB has LRU replacement policy
STLB has LRU replacement policy
L1I has LRU replacement policy
History Sets: 8
History Ways: 16
BERTI Size: 16
BERTI Stride Size: 8
L1D has LRU replacement policy
Initialize SRRIP state for L2C
Initialize DRRIP state for LLC
BTB has LRU replacement policy
ITLB has LRU replacement policy
DTLB has LRU replacement policy
STLB has LRU replacement policy
L1I has LRU replacement policy
History Sets: 8
History Ways: 16
BERTI Size: 16
BERTI Stride Size: 8
L1D has LRU replacement policy
Initialize SRRIP state for L2C
Initialize DRRIP state for LLC
BTB has LRU replacement policy
ITLB has LRU replacement policy
DTLB has LRU replacement policy
STLB has LRU replacement policy
L1I has LRU replacement policy
History Sets: 8
History Ways: 16
BERTI Size: 16
BERTI Stride Size: 8
L1D has LRU replacement policy
Initialize SRRIP state for L2C
Initialize DRRIP state for LLC
BTB has LRU replacement policy
ITLB has LRU replacement policy
DTLB has LRU replacement policy
STLB has LRU replacement policy
L1I has LRU replacement policy
History Sets: 8
History Ways: 16
BERTI Size: 16
BERTI Stride Size: 8
L1D has LRU replacement policy
Initialize SRRIP state for L2C
Initialize DRRIP state for LLC
Heartbeat CPU 0 instructions: 10000001 cycles: 3913710 heartbeat IPC: 2.55512 cumulative IPC: 2.55512 (Simulation time: 0 hr 4 min 52 sec) 
Heartbeat CPU 1 instructions: 10000001 cycles: 3957335 heartbeat IPC: 2.52695 cumulative IPC: 2.52695 (Simulation time: 0 hr 4 min 56 sec) 
Heartbeat CPU 2 instructions: 10000001 cycles: 3988447 heartbeat IPC: 2.50724 cumulative IPC: 2.50724 (Simulation time: 0 hr 4 min 59 sec) 
Heartbeat CPU 3 instructions: 10000001 cycles: 4011733 heartbeat IPC: 2.49269 cumulative IPC: 2.49269 (Simulation time: 0 hr 5 min 1 sec) 
Heartbeat CPU 0 instructions: 20000003 cycles: 7507673 heartbeat IPC: 2.78244 cumulative IPC: 2.66394 (Simulation time: 0 hr 9 min 32 sec) 
Heartbeat CPU 1 instructions: 20000003 cycles: 7602119 heartbeat IPC: 2.74365 cumulative IPC: 2.63085 (Simulation time: 0 hr 9 min 40 sec) 
Heartbeat CPU 2 instructions: 20000003 cycles: 7658955 heartbeat IPC: 2.72442 cumulative IPC: 2.61132 (Simulation time: 0 hr 9 min 45 sec) 
Heartbeat CPU 3 instructions: 20000003 cycles: 7694024 heartbeat IPC: 2.7157 cumulative IPC: 2.59942 (Simulation time: 0 hr 9 min 48 sec) 
Heartbeat CPU 0 instructions: 30000001 cycles: 11220099 heartbeat IPC: 2.69366 cumulative IPC: 2.67377 (Simulation time: 0 hr 14 min 16 sec) 
Heartbeat CPU 1 instructions: 30000001 cycles: 11432514 heartbeat IPC: 2.6107 cumulative IPC: 2.62409 (Simulation time: 0 hr 14 min 36 sec) 
Heartbeat CPU 2 instructions: 30000001 cycles: 11528175 heartbeat IPC: 2.5845 cumulative IPC: 2.60232 (Simulation time: 0 hr 14 min 44 sec) 
Heartbeat CPU 3 instructions: 30000001 cycles: 11574657 heartbeat IPC: 2.5769 cumulative IPC: 2.59187 (Simulation time: 0 hr 14 min 48 sec) 
Heartbeat CPU 0 instructions: 40000002 cycles: 14661380 heartbeat IPC: 2.90589 cumulative IPC: 2.72826 (Simulation time: 0 hr 18 min 56 sec) 
Heartbeat CPU 1 instructions: 40000002 cycles: 15005048 heartbeat IPC: 2.79913 cumulative IPC: 2.66577 (Simulation time: 0 hr 19 min 24 sec) 
Heartbeat CPU 2 instructions: 40000002 cycles: 15122151 heartbeat IPC: 2.78243 cumulative IPC: 2.64513 (Simulation time: 0 hr 19 min 34 sec) 
Heartbeat CPU 3 instructions: 40000002 cycles: 15182144 heartbeat IPC: 2.77201 cumulative IPC: 2.63467 (Simulation time: 0 hr 19 min 38 sec) 
Heartbeat CPU 0 instructions: 50000001 cycles: 18162635 heartbeat IPC: 2.85612 cumulative IPC: 2.7529 (Simulation time: 0 hr 23 min 50 sec) 
Heartbeat CPU 1 instructions: 50000001 cycles: 18690926 heartbeat IPC: 2.71306 cumulative IPC: 2.67509 (Simulation time: 0 hr 24 min 27 sec) 
Heartbeat CPU 2 instructions: 50000001 cycles: 18864705 heartbeat IPC: 2.67197 cumulative IPC: 2.65045 (Simulation time: 0 hr 24 min 37 sec) 
Heartbeat CPU 3 instructions: 50000001 cycles: 18939022 heartbeat IPC: 2.66178 cumulative IPC: 2.64005 (Simulation time: 0 hr 24 min 41 sec) 

Warmup complete CPU 0 instructions: 51481774 cycles: 18939022 (Simulation time: 0 hr 24 min 41 sec) 
Warmup complete CPU 1 instructions: 50487150 cycles: 18939022 (Simulation time: 0 hr 24 min 41 sec) 
Warmup complete CPU 2 instructions: 50147100 cycles: 18939022 (Simulation time: 0 hr 24 min 41 sec) 
Warmup complete CPU 3 instructions: 50000001 cycles: 18939022 (Simulation time: 0 hr 24 min 41 sec) 

Heartbeat CPU 0 instructions: 60000000 cycles: 126862873 heartbeat IPC: 0.0919961 cumulative IPC: 0.0789281 (Simulation time: 0 hr 33 min 51 sec) 
Heartbeat CPU 1 instructions: 60000000 cycles: 135364684 heartbeat IPC: 0.0857091 cumulative IPC: 0.0817075 (Simulation time: 0 hr 34 min 47 sec) 
Heartbeat CPU 3 instructions: 60000000 cycles: 138164303 heartbeat IPC: 0.0838748 cumulative IPC: 0.0838748 (Simulation time: 0 hr 35 min 6 sec) 
Heartbeat CPU 2 instructions: 60000000 cycles: 138278935 heartbeat IPC: 0.0837421 cumulative IPC: 0.0825616 (Simulation time: 0 hr 35 min 7 sec) 
Heartbeat CPU 0 instructions: 70000002 cycles: 252489402 heartbeat IPC: 0.079601 cumulative IPC: 0.0792901 (Simulation time: 0 hr 45 min 42 sec) 
Heartbeat CPU 1 instructions: 70000002 cycles: 258361269 heartbeat IPC: 0.0813031 cumulative IPC: 0.0814997 (Simulation time: 0 hr 46 min 9 sec) 
Heartbeat CPU 3 instructions: 70000002 cycles: 260998262 heartbeat IPC: 0.0814107 cumulative IPC: 0.0826244 (Simulation time: 0 hr 46 min 21 sec) 
Heartbeat CPU 2 instructions: 70000002 cycles: 261611488 heartbeat IPC: 0.0810816 cumulative IPC: 0.0818095 (Simulation time: 0 hr 46 min 24 sec) 
Heartbeat CPU 0 instructions: 80000001 cycles: 385995952 heartbeat IPC: 0.0749027 cumulative IPC: 0.0776943 (Simulation time: 0 hr 57 min 27 sec) 
Heartbeat CPU 1 instructions: 80000001 cycles: 389013059 heartbeat IPC: 0.0765393 cumulative IPC: 0.0797485 (Simulation time: 0 hr 57 min 45 sec) 
Heartbeat CPU 3 instructions: 80000001 cycles: 390845136 heartbeat IPC: 0.0770138 cumulative IPC: 0.0806655 (Simulation time: 0 hr 57 min 58 sec) 
Heartbeat CPU 2 instructions: 80000001 cycles: 391250534 heartbeat IPC: 0.0771372 cumulative IPC: 0.0801826 (Simulation time: 0 hr 58 min 0 sec) 
Heartbeat CPU 0 instructions: 90000002 cycles: 509709427 heartbeat IPC: 0.0808319 cumulative IPC: 0.0784852 (Simulation time: 1 hr 8 min 25 sec) 
Heartbeat CPU 1 instructions: 90000002 cycles: 511728792 heartbeat IPC: 0.0814892 cumulative IPC: 0.080182 (Simulation time: 1 hr 8 min 37 sec) 
Heartbeat CPU 3 instructions: 90000002 cycles: 513853582 heartbeat IPC: 0.0812952 cumulative IPC: 0.080822 (Simulation time: 1 hr 8 min 49 sec) 
Heartbeat CPU 2 instructions: 90000002 cycles: 514200097 heartbeat IPC: 0.0813342 cumulative IPC: 0.0804685 (Simulation time: 1 hr 8 min 51 sec) 
Heartbeat CPU 0 instructions: 100000001 cycles: 642300659 heartbeat IPC: 0.0754198 cumulative IPC: 0.0778332 (Simulation time: 1 hr 20 min 5 sec) 
Heartbeat CPU 1 instructions: 100000001 cycles: 644005972 heartbeat IPC: 0.0755988 cumulative IPC: 0.0792121 (Simulation time: 1 hr 20 min 15 sec) 
Heartbeat CPU 3 instructions: 100000001 cycles: 645148596 heartbeat IPC: 0.0761643 cumulative IPC: 0.0798455 (Simulation time: 1 hr 20 min 21 sec) 
Heartbeat CPU 2 instructions: 100000001 cycles: 646516395 heartbeat IPC: 0.0755765 cumulative IPC: 0.0794371 (Simulation time: 1 hr 20 min 27 sec) 
Heartbeat CPU 0 instructions: 110000000 cycles: 778007073 heartbeat IPC: 0.0736885 cumulative IPC: 0.0770922 (Simulation time: 1 hr 30 min 9 sec) 
Heartbeat CPU 1 instructions: 110000000 cycles: 778126103 heartbeat IPC: 0.07456 cumulative IPC: 0.0783902 (Simulation time: 1 hr 30 min 9 sec) 
Heartbeat CPU 2 instructions: 110000000 cycles: 781398338 heartbeat IPC: 0.0741389 cumulative IPC: 0.0784998 (Simulation time: 1 hr 30 min 27 sec) 
Heartbeat CPU 3 instructions: 110000000 cycles: 782343784 heartbeat IPC: 0.0728888 cumulative IPC: 0.0785953 (Simulation time: 1 hr 30 min 32 sec) 
Heartbeat CPU 0 instructions: 120000001 cycles: 903352908 heartbeat IPC: 0.0797793 cumulative IPC: 0.077473 (Simulation time: 1 hr 39 min 58 sec) 
Heartbeat CPU 1 instructions: 120000001 cycles: 903412226 heartbeat IPC: 0.0798173 cumulative IPC: 0.0785924 (Simulation time: 1 hr 39 min 59 sec) 
Heartbeat CPU 2 instructions: 120000001 cycles: 908528849 heartbeat IPC: 0.0786593 cumulative IPC: 0.0785226 (Simulation time: 1 hr 40 min 20 sec) 
Heartbeat CPU 3 instructions: 120000001 cycles: 909278795 heartbeat IPC: 0.0787805 cumulative IPC: 0.0786217 (Simulation time: 1 hr 40 min 23 sec) 
Heartbeat CPU 0 instructions: 130000000 cycles: 1040503793 heartbeat IPC: 0.0729124 cumulative IPC: 0.0768607 (Simulation time: 1 hr 50 min 49 sec) 
Heartbeat CPU 1 instructions: 130000000 cycles: 1041063647 heartbeat IPC: 0.0726473 cumulative IPC: 0.0777917 (Simulation time: 1 hr 50 min 51 sec) 
Heartbeat CPU 2 instructions: 130000000 cycles: 1044626137 heartbeat IPC: 0.0734768 cumulative IPC: 0.0778531 (Simulation time: 1 hr 51 min 6 sec) 
Heartbeat CPU 3 instructions: 130000000 cycles: 1045127315 heartbeat IPC: 0.0736114 cumulative IPC: 0.0779584 (Simulation time: 1 hr 51 min 8 sec) 
Heartbeat CPU 0 instructions: 140000003 cycles: 1153032007 heartbeat IPC: 0.0888666 cumulative IPC: 0.078052 (Simulation time: 2 hr 0 min 21 sec) 
Heartbeat CPU 1 instructions: 140000003 cycles: 1153284845 heartbeat IPC: 0.0891097 cumulative IPC: 0.0789114 (Simulation time: 2 hr 0 min 23 sec) 
Heartbeat CPU 2 instructions: 140000003 cycles: 1156006966 heartbeat IPC: 0.0897821 cumulative IPC: 0.0790216 (Simulation time: 2 hr 0 min 39 sec) 
Heartbeat CPU 3 instructions: 140000003 cycles: 1157278164 heartbeat IPC: 0.0891657 cumulative IPC: 0.0790626 (Simulation time: 2 hr 0 min 46 sec) 
Heartbeat CPU 0 instructions: 150000003 cycles: 1270084060 heartbeat IPC: 0.0854321 cumulative IPC: 0.0787425 (Simulation time: 2 hr 9 min 47 sec) 
Heartbeat CPU 1 instructions: 150000002 cycles: 1270732644 heartbeat IPC: 0.0851442 cumulative IPC: 0.0794962 (Simulation time: 2 hr 9 min 49 sec) 
Heartbeat CPU 2 instructions: 150000003 cycles: 1272135025 heartbeat IPC: 0.0861118 cumulative IPC: 0.0796786 (Simulation time: 2 hr 9 min 56 sec) 
Heartbeat CPU 3 instructions: 150000003 cycles: 1275330937 heartbeat IPC: 0.0847079 cumulative IPC: 0.079593 (Simulation time: 2 hr 10 min 12 sec) 
Heartbeat CPU 0 instructions: 160000002 cycles: 1401038079 heartbeat IPC: 0.0763627 cumulative IPC: 0.078517 (Simulation time: 2 hr 19 min 35 sec) 
Heartbeat CPU 1 instructions: 160000002 cycles: 1401347760 heartbeat IPC: 0.0765608 cumulative IPC: 0.0792189 (Simulation time: 2 hr 19 min 36 sec) 
Heartbeat CPU 2 instructions: 160000002 cycles: 1402965104 heartbeat IPC: 0.076435 cumulative IPC: 0.079372 (Simulation time: 2 hr 19 min 43 sec) 
Heartbeat CPU 3 instructions: 160000002 cycles: 1407012903 heartbeat IPC: 0.0759405 cumulative IPC: 0.0792465 (Simulation time: 2 hr 19 min 59 sec) 
Heartbeat CPU 1 instructions: 170000001 cycles: 1530252594 heartbeat IPC: 0.0775766 cumulative IPC: 0.0790788 (Simulation time: 2 hr 28 min 47 sec) 
Heartbeat CPU 0 instructions: 170000001 cycles: 1531072183 heartbeat IPC: 0.0769029 cumulative IPC: 0.0783782 (Simulation time: 2 hr 28 min 52 sec) 
Heartbeat CPU 2 instructions: 170000001 cycles: 1533098633 heartbeat IPC: 0.0768441 cumulative IPC: 0.0791547 (Simulation time: 2 hr 29 min 2 sec) 
Heartbeat CPU 3 instructions: 170000001 cycles: 1536796355 heartbeat IPC: 0.0770514 cumulative IPC: 0.0790588 (Simulation time: 2 hr 29 min 20 sec) 
Heartbeat CPU 1 instructions: 180000000 cycles: 1665538285 heartbeat IPC: 0.0739176 cumulative IPC: 0.0786548 (Simulation time: 2 hr 38 min 45 sec) 
Heartbeat CPU 0 instructions: 180000000 cycles: 1665665535 heartbeat IPC: 0.0742979 cumulative IPC: 0.0780447 (Simulation time: 2 hr 38 min 45 sec) 
Heartbeat CPU 2 instructions: 180000000 cycles: 1669405412 heartbeat IPC: 0.0733639 cumulative IPC: 0.0786765 (Simulation time: 2 hr 39 min 3 sec) 
Heartbeat CPU 3 instructions: 180000000 cycles: 1675431535 heartbeat IPC: 0.0721318 cumulative IPC: 0.0784791 (Simulation time: 2 hr 39 min 36 sec) 
Heartbeat CPU 1 instructions: 190000002 cycles: 1780674960 heartbeat IPC: 0.0868533 cumulative IPC: 0.0791906 (Simulation time: 2 hr 48 min 8 sec) 
Heartbeat CPU 0 instructions: 190000002 cycles: 1780677124 heartbeat IPC: 0.0869478 cumulative IPC: 0.0786259 (Simulation time: 2 hr 48 min 8 sec) 
Heartbeat CPU 2 instructions: 190000002 cycles: 1783882494 heartbeat IPC: 0.0873537 cumulative IPC: 0.0792393 (Simulation time: 2 hr 48 min 22 sec) 
Heartbeat CPU 3 instructions: 190000002 cycles: 1792553801 heartbeat IPC: 0.0853809 cumulative IPC: 0.0789348 (Simulation time: 2 hr 49 min 4 sec) 
Heartbeat CPU 1 instructions: 200000000 cycles: 1914798713 heartbeat IPC: 0.074558 cumulative IPC: 0.0788628 (Simulation time: 2 hr 58 min 10 sec) 
Heartbeat CPU 0 instructions: 200000000 cycles: 1916236196 heartbeat IPC: 0.0737686 cumulative IPC: 0.0782788 (Simulation time: 2 hr 58 min 16 sec) 
Heartbeat CPU 2 instructions: 200000000 cycles: 1919179840 heartbeat IPC: 0.0739113 cumulative IPC: 0.07886 (Simulation time: 2 hr 58 min 28 sec) 
Heartbeat CPU 3 instructions: 200000000 cycles: 1932857061 heartbeat IPC: 0.0712742 cumulative IPC: 0.0783733 (Simulation time: 2 hr 59 min 32 sec) 
Heartbeat CPU 1 instructions: 210000000 cycles: 2038322969 heartbeat IPC: 0.0809558 cumulative IPC: 0.0789908 (Simulation time: 3 hr 7 min 7 sec) 
Heartbeat CPU 0 instructions: 210000000 cycles: 2040077807 heartbeat IPC: 0.0807483 cumulative IPC: 0.0784302 (Simulation time: 3 hr 7 min 14 sec) 
Heartbeat CPU 2 instructions: 210000000 cycles: 2043023443 heartbeat IPC: 0.080747 cumulative IPC: 0.0789754 (Simulation time: 3 hr 7 min 27 sec) 
Heartbeat CPU 3 instructions: 210000000 cycles: 2058285118 heartbeat IPC: 0.079727 cumulative IPC: 0.0784565 (Simulation time: 3 hr 8 min 35 sec) 
Heartbeat CPU 1 instructions: 220000000 cycles: 2182583767 heartbeat IPC: 0.0693189 cumulative IPC: 0.078346 (Simulation time: 3 hr 17 min 58 sec) 
Heartbeat CPU 0 instructions: 220000000 cycles: 2185168496 heartbeat IPC: 0.0689224 cumulative IPC: 0.0777933 (Simulation time: 3 hr 18 min 9 sec) 
Heartbeat CPU 2 instructions: 220000000 cycles: 2186738710 heartbeat IPC: 0.069582 cumulative IPC: 0.0783527 (Simulation time: 3 hr 18 min 17 sec) 
Heartbeat CPU 3 instructions: 220000000 cycles: 2205588851 heartbeat IPC: 0.0678869 cumulative IPC: 0.0777445 (Simulation time: 3 hr 19 min 54 sec) 
Heartbeat CPU 1 instructions: 230000003 cycles: 2311805770 heartbeat IPC: 0.0773862 cumulative IPC: 0.0782919 (Simulation time: 3 hr 27 min 53 sec) 
Heartbeat CPU 0 instructions: 230000003 cycles: 2313383622 heartbeat IPC: 0.0779939 cumulative IPC: 0.0778046 (Simulation time: 3 hr 28 min 1 sec) 
Heartbeat CPU 2 instructions: 230000003 cycles: 2316189646 heartbeat IPC: 0.0772494 cumulative IPC: 0.0782905 (Simulation time: 3 hr 28 min 14 sec) 
Heartbeat CPU 3 instructions: 230000003 cycles: 2344902199 heartbeat IPC: 0.0717807 cumulative IPC: 0.0773873 (Simulation time: 3 hr 30 min 31 sec) 
Heartbeat CPU 1 instructions: 240000000 cycles: 2439271247 heartbeat IPC: 0.0784526 cumulative IPC: 0.0783003 (Simulation time: 3 hr 37 min 53 sec) 
Heartbeat CPU 0 instructions: 240000000 cycles: 2439627897 heartbeat IPC: 0.0792115 cumulative IPC: 0.0778779 (Simulation time: 3 hr 37 min 55 sec) 
Heartbeat CPU 2 instructions: 240000000 cycles: 2442734082 heartbeat IPC: 0.0790236 cumulative IPC: 0.0783288 (Simulation time: 3 hr 38 min 8 sec) 
Heartbeat CPU 3 instructions: 240000000 cycles: 2477781900 heartbeat IPC: 0.075256 cumulative IPC: 0.0772721 (Simulation time: 3 hr 40 min 34 sec) 
Heartbeat CPU 0 instructions: 250000000 cycles: 2591235596 heartbeat IPC: 0.0659597 cumulative IPC: 0.0771755 (Simulation time: 3 hr 48 min 30 sec) 
Heartbeat CPU 1 instructions: 250000000 cycles: 2591735002 heartbeat IPC: 0.0655894 cumulative IPC: 0.0775471 (Simulation time: 3 hr 48 min 33 sec) 
Finished CPU 1 instructions: 200000000 cycles: 2577042675 cumulative IPC: 0.0776083 (Simulation time: 3 hr 48 min 53 sec) 
Heartbeat CPU 2 instructions: 250000000 cycles: 2598641605 heartbeat IPC: 0.0641406 cumulative IPC: 0.0774713 (Simulation time: 3 hr 49 min 4 sec) 
Finished CPU 2 instructions: 200000001 cycles: 2580796965 cumulative IPC: 0.0774954 (Simulation time: 3 hr 49 min 10 sec) 
Finished CPU 0 instructions: 200000003 cycles: 2584131193 cumulative IPC: 0.0773955 (Simulation time: 3 hr 49 min 25 sec) 
Heartbeat CPU 3 instructions: 250000000 cycles: 2631696058 heartbeat IPC: 0.0649713 cumulative IPC: 0.0765475 (Simulation time: 3 hr 51 min 41 sec) 
Finished CPU 3 instructions: 200000003 cycles: 2612757037 cumulative IPC: 0.0765475 (Simulation time: 3 hr 51 min 41 sec) 

ChampSim completed all CPUs

Total Simulation Statistics (not including warmup)

CPU 0 cumulative IPC: 0.0771241 instructions: 201506644 cycles: 2612757037
ITLB TOTAL     ACCESS:   37074807  HIT:   37074807  MISS:          0  HIT %:        100  MISS %:          0   MPKI: 0
ITLB LOAD      ACCESS:          0  HIT:          0  MISS:          0  HIT %:       -nan  MISS %:       -nan   MPKI: 0
ITLB RFO       ACCESS:          0  HIT:          0  MISS:          0  HIT %:       -nan  MISS %:       -nan   MPKI: 0
ITLB PREFETCH  ACCESS:          0  HIT:          0  MISS:          0  HIT %:       -nan  MISS %:       -nan   MPKI: 0
ITLB WRITEBACK ACCESS:          0  HIT:          0  MISS:          0  HIT %:       -nan  MISS %:       -nan   MPKI: 0
DTLB TOTAL     ACCESS:   43485991  HIT:   27671851  MISS:   15814140  HIT %:    63.6339  MISS %:    36.3661   MPKI: 78.4795
DTLB LOAD      ACCESS:          0  HIT:          0  MISS:          0  HIT %:       -nan  MISS %:       -nan   MPKI: 0
DTLB RFO       ACCESS:          0  HIT:          0  MISS:          0  HIT %:       -nan  MISS %:       -nan   MPKI: 0
DTLB PREFETCH  ACCESS:          0  HIT:          0  MISS:          0  HIT %:       -nan  MISS %:       -nan   MPKI: 0
DTLB WRITEBACK ACCESS:          0  HIT:          0  MISS:          0  HIT %:       -nan  MISS %:       -nan   MPKI: 0
STLB TOTAL     ACCESS:   19761397  HIT:   17520499  MISS:    2240898  HIT %:    88.6602  MISS %:    11.3398   MPKI: 11.1207
STLB LOAD      ACCESS:          0  HIT:          0  MISS:          0  HIT %:       -nan  MISS %:       -nan   MPKI: 0
STLB RFO       ACCESS:          0  HIT:          0  MISS:          0  HIT %:       -nan  MISS %:       -nan   MPKI: 0
STLB PREFETCH  ACCESS:          0  HIT:          0  MISS:          0  HIT %:       -nan  MISS %:       -nan   MPKI: 0
STLB WRITEBACK ACCESS:          0  HIT:          0  MISS:          0  HIT %:       -nan  MISS %:       -nan   MPKI: 0
L1D TOTAL     ACCESS:   53399357  HIT:   33509282  MISS:   19890075  HIT %:    62.7522  MISS %:    37.2478   MPKI: 98.7068
L1D LOAD      ACCESS:   41323622  HIT:   22039091  MISS:   19284531  HIT %:    53.3329  MISS %:    46.6671   MPKI: 95.7017
L1D RFO       ACCESS:    9495070  HIT:    8894116  MISS:     600954  HIT %:    93.6709  MISS %:    6.32912   MPKI: 2.9823
L1D PREFETCH  ACCESS:    2580665  HIT:    2576075  MISS:       4590  HIT %:    99.8221  MISS %:   0.177861   MPKI: 0.0227784
L1D WRITEBACK ACCESS:          0  HIT:          0  MISS:          0  HIT %:       -nan  MISS %:       -nan   MPKI: 0
L1I TOTAL     ACCESS:   39878750  HIT:   39878750  MISS:          0  HIT %:        100  MISS %:          0   MPKI: 0
L1I LOAD      ACCESS:   39878750  HIT:   39878750  MISS:          0  HIT %:        100  MISS %:          0   MPKI: 0
L1I RFO       ACCESS:          0  HIT:          0  MISS:          0  HIT %:       -nan  MISS %:       -nan   MPKI: 0
L1I PREFETCH  ACCESS:          0  HIT:          0  MISS:          0  HIT %:       -nan  MISS %:       -nan   MPKI: 0
L1I WRITEBACK ACCESS:          0  HIT:          0  MISS:          0  HIT %:       -nan  MISS %:       -nan   MPKI: 0
L2C TOTAL     ACCESS:   31485377  HIT:   14496782  MISS:   16988595  HIT %:    46.0429  MISS %:    53.9571   MPKI: 84.3079
L2C LOAD      ACCESS:   19284103  HIT:    5448402  MISS:   13835701  HIT %:    28.2533  MISS %:    71.7467   MPKI: 68.6613
L2C RFO       ACCESS:     600948  HIT:     290781  MISS:     310167  HIT %:     48.387  MISS %:     51.613   MPKI: 1.53924
L2C PREFETCH  ACCESS:    3943283  HIT:    2607640  MISS:    1335643  HIT %:    66.1287  MISS %:    33.8713   MPKI: 6.62828
L2C WRITEBACK ACCESS:    4507578  HIT:    4188291  MISS:     319287  HIT %:    92.9167  MISS %:    7.08334   MPKI: 1.5845
PSCL5 TOTAL     ACCESS:    2301300  HIT:    2301300  MISS:          0  HIT %:        100  MISS %:          0   MPKI: 0
PSCL5 LOAD      ACCESS:          0  HIT:          0  MISS:          0  HIT %:       -nan  MISS %:       -nan   MPKI: 0
PSCL5 RFO       ACCESS:          0  HIT:          0  MISS:          0  HIT %:       -nan  MISS %:       -nan   MPKI: 0
PSCL5 PREFETCH  ACCESS:          0  HIT:          0  MISS:          0  HIT %:       -nan  MISS %:       -nan   MPKI: 0
PSCL5 WRITEBACK ACCESS:          0  HIT:          0  MISS:          0  HIT %:       -nan  MISS %:       -nan   MPKI: 0
PSCL4 TOTAL     ACCESS:    2301300  HIT:    2301300  MISS:          0  HIT %:        100  MISS %:          0   MPKI: 0
PSCL4 LOAD      ACCESS:          0  HIT:          0  MISS:          0  HIT %:       -nan  MISS %:       -nan   MPKI: 0
PSCL4 RFO       ACCESS:          0  HIT:          0  MISS:          0  HIT %:       -nan  MISS %:       -nan   MPKI: 0
PSCL4 PREFETCH  ACCESS:          0  HIT:          0  MISS:          0  HIT %:       -nan  MISS %:       -nan   MPKI: 0
PSCL4 WRITEBACK ACCESS:          0  HIT:          0  MISS:          0  HIT %:       -nan  MISS %:       -nan   MPKI: 0
PSCL3 TOTAL     ACCESS:    2301300  HIT:    2301300  MISS:          0  HIT %:        100  MISS %:          0   MPKI: 0
PSCL3 LOAD      ACCESS:          0  HIT:          0  MISS:          0  HIT %:       -nan  MISS %:       -nan   MPKI: 0
PSCL3 RFO       ACCESS:          0  HIT:          0  MISS:          0  HIT %:       -nan  MISS %:       -nan   MPKI: 0
PSCL3 PREFETCH  ACCESS:          0  HIT:          0  MISS:          0  HIT %:       -nan  MISS %:       -nan   MPKI: 0
PSCL3 WRITEBACK ACCESS:          0  HIT:          0  MISS:          0  HIT %:       -nan  MISS %:       -nan   MPKI: 0
PSCL2 TOTAL     ACCESS:    2246391  HIT:    1453135  MISS:     793256  HIT %:    64.6875  MISS %:    35.3125   MPKI: 3.93662
PSCL2 LOAD      ACCESS:          0  HIT:          0  MISS:          0  HIT %:       -nan  MISS %:       -nan   MPKI: 0
PSCL2 RFO       ACCESS:          0  HIT:          0  MISS:          0  HIT %:       -nan  MISS %:       -nan   MPKI: 0
PSCL2 PREFETCH  ACCESS:          0  HIT:          0  MISS:          0  HIT %:       -nan  MISS %:       -nan   MPKI: 0
PSCL2 WRITEBACK ACCESS:          0  HIT:          0  MISS:          0  HIT %:       -nan  MISS %:       -nan   MPKI: 0
LLC TOTAL     ACCESS:   19896895  HIT:    6990180  MISS:   12906715  HIT %:     35.132  MISS %:     64.868   MPKI: 64.0511
LLC LOAD      ACCESS:   13830146  HIT:    2864529  MISS:   10965617  HIT %:    20.7122  MISS %:    79.2878   MPKI: 54.4181
LLC RFO       ACCESS:     310150  HIT:      89369  MISS:     220781  HIT %:    28.8148  MISS %:    71.1852   MPKI: 1.09565
LLC PREFETCH  ACCESS:    1341211  HIT:     545114  MISS:     796097  HIT %:    40.6434  MISS %:    59.3566   MPKI: 3.95072
LLC WRITEBACK ACCESS:    3227591  HIT:    3068326  MISS:     159265  HIT %:    95.0655  MISS %:    4.93449   MPKI: 0.790371

RAW hits: 2228612
Loads Generated: 66091924
Loads sent to L1D: 63863319
Stores Generated: 10849653
Stores sent to L1D: 10849654

CPU 1 cumulative IPC: 0.0775021 instructions: 202494160 cycles: 2612757037
ITLB TOTAL     ACCESS:   37256429  HIT:   37256429  MISS:          0  HIT %:        100  MISS %:          0   MPKI: 0
ITLB LOAD      ACCESS:          0  HIT:          0  MISS:          0  HIT %:       -nan  MISS %:       -nan   MPKI: 0
ITLB RFO       ACCESS:          0  HIT:          0  MISS:          0  HIT %:       -nan  MISS %:       -nan   MPKI: 0
ITLB PREFETCH  ACCESS:          0  HIT:          0  MISS:          0  HIT %:       -nan  MISS %:       -nan   MPKI: 0
ITLB WRITEBACK ACCESS:          0  HIT:          0  MISS:          0  HIT %:       -nan  MISS %:       -nan   MPKI: 0
DTLB TOTAL     ACCESS:   43700614  HIT:   27815364  MISS:   15885250  HIT %:    63.6498  MISS %:    36.3502   MPKI: 78.4479
DTLB LOAD      ACCESS:          0  HIT:          0  MISS:          0  HIT %:       -nan  MISS %:       -nan   MPKI: 0
DTLB RFO       ACCESS:          0  HIT:          0  MISS:          0  HIT %:       -nan  MISS %:       -nan   MPKI: 0
DTLB PREFETCH  ACCESS:          0  HIT:          0  MISS:          0  HIT %:       -nan  MISS %:       -nan   MPKI: 0
DTLB WRITEBACK ACCESS:          0  HIT:          0  MISS:          0  HIT %:       -nan  MISS %:       -nan   MPKI: 0
STLB TOTAL     ACCESS:   19870567  HIT:   17628966  MISS:    2241601  HIT %:     88.719  MISS %:     11.281   MPKI: 11.07
STLB LOAD      ACCESS:          0  HIT:          0  MISS:          0  HIT %:       -nan  MISS %:       -nan   MPKI: 0
STLB RFO       ACCESS:          0  HIT:          0  MISS:          0  HIT %:       -nan  MISS %:       -nan   MPKI: 0
STLB PREFETCH  ACCESS:          0  HIT:          0  MISS:          0  HIT %:       -nan  MISS %:       -nan   MPKI: 0
STLB WRITEBACK ACCESS:          0  HIT:          0  MISS:          0  HIT %:       -nan  MISS %:       -nan   MPKI: 0
L1D TOTAL     ACCESS:   53696100  HIT:   33725766  MISS:   19970334  HIT %:    62.8086  MISS %:    37.1914   MPKI: 98.6218
L1D LOAD      ACCESS:   41532043  HIT:   22170381  MISS:   19361662  HIT %:    53.3814  MISS %:    46.6186   MPKI: 95.6159
L1D RFO       ACCESS:    9544358  HIT:    8940719  MISS:     603639  HIT %:    93.6754  MISS %:    6.32456   MPKI: 2.98102
L1D PREFETCH  ACCESS:    2619699  HIT:    2614666  MISS:       5033  HIT %:    99.8079  MISS %:   0.192121   MPKI: 0.024855
L1D WRITEBACK ACCESS:          0  HIT:          0  MISS:          0  HIT %:       -nan  MISS %:       -nan   MPKI: 0
L1I TOTAL     ACCESS:   40081984  HIT:   40081984  MISS:          0  HIT %:        100  MISS %:          0   MPKI: 0
L1I LOAD      ACCESS:   40081984  HIT:   40081984  MISS:          0  HIT %:        100  MISS %:          0   MPKI: 0
L1I RFO       ACCESS:          0  HIT:          0  MISS:          0  HIT %:       -nan  MISS %:       -nan   MPKI: 0
L1I PREFETCH  ACCESS:          0  HIT:          0  MISS:          0  HIT %:       -nan  MISS %:       -nan   MPKI: 0
L1I WRITEBACK ACCESS:          0  HIT:          0  MISS:          0  HIT %:       -nan  MISS %:       -nan   MPKI: 0
L2C TOTAL     ACCESS:   31604556  HIT:   14577294  MISS:   17027262  HIT %:     46.124  MISS %:     53.876   MPKI: 84.0877
L2C LOAD      ACCESS:   19361235  HIT:    5479909  MISS:   13881326  HIT %:    28.3035  MISS %:    71.6965   MPKI: 68.5517
L2C RFO       ACCESS:     603630  HIT:     292641  MISS:     310989  HIT %:    48.4802  MISS %:    51.5198   MPKI: 1.53579
L2C PREFETCH  ACCESS:    3964954  HIT:    2627529  MISS:    1337425  HIT %:    66.2688  MISS %:    33.7312   MPKI: 6.60476
L2C WRITEBACK ACCESS:    4521963  HIT:    4205343  MISS:     316620  HIT %:    92.9982  MISS %:    7.00183   MPKI: 1.5636
PSCL5 TOTAL     ACCESS:    2303080  HIT:    2303080  MISS:          0  HIT %:        100  MISS %:          0   MPKI: 0
PSCL5 LOAD      ACCESS:          0  HIT:          0  MISS:          0  HIT %:       -nan  MISS %:       -nan   MPKI: 0
PSCL5 RFO       ACCESS:          0  HIT:          0  MISS:          0  HIT %:       -nan  MISS %:       -nan   MPKI: 0
PSCL5 PREFETCH  ACCESS:          0  HIT:          0  MISS:          0  HIT %:       -nan  MISS %:       -nan   MPKI: 0
PSCL5 WRITEBACK ACCESS:          0  HIT:          0  MISS:          0  HIT %:       -nan  MISS %:       -nan   MPKI: 0
PSCL4 TOTAL     ACCESS:    2303080  HIT:    2303080  MISS:          0  HIT %:        100  MISS %:          0   MPKI: 0
PSCL4 LOAD      ACCESS:          0  HIT:          0  MISS:          0  HIT %:       -nan  MISS %:       -nan   MPKI: 0
PSCL4 RFO       ACCESS:          0  HIT:          0  MISS:          0  HIT %:       -nan  MISS %:       -nan   MPKI: 0
PSCL4 PREFETCH  ACCESS:          0  HIT:          0  MISS:          0  HIT %:       -nan  MISS %:       -nan   MPKI: 0
PSCL4 WRITEBACK ACCESS:          0  HIT:          0  MISS:          0  HIT %:       -nan  MISS %:       -nan   MPKI: 0
PSCL3 TOTAL     ACCESS:    2303080  HIT:    2303080  MISS:          0  HIT %:        100  MISS %:          0   MPKI: 0
PSCL3 LOAD      ACCESS:          0  HIT:          0  MISS:          0  HIT %:       -nan  MISS %:       -nan   MPKI: 0
PSCL3 RFO       ACCESS:          0  HIT:          0  MISS:          0  HIT %:       -nan  MISS %:       -nan   MPKI: 0
PSCL3 PREFETCH  ACCESS:          0  HIT:          0  MISS:          0  HIT %:       -nan  MISS %:       -nan   MPKI: 0
PSCL3 WRITEBACK ACCESS:          0  HIT:          0  MISS:          0  HIT %:       -nan  MISS %:       -nan   MPKI: 0
PSCL2 TOTAL     ACCESS:    2246873  HIT:    1453385  MISS:     793488  HIT %:    64.6848  MISS %:    35.3152   MPKI: 3.91857
PSCL2 LOAD      ACCESS:          0  HIT:          0  MISS:          0  HIT %:       -nan  MISS %:       -nan   MPKI: 0
PSCL2 RFO       ACCESS:          0  HIT:          0  MISS:          0  HIT %:       -nan  MISS %:       -nan   MPKI: 0
PSCL2 PREFETCH  ACCESS:          0  HIT:          0  MISS:          0  HIT %:       -nan  MISS %:       -nan   MPKI: 0
PSCL2 WRITEBACK ACCESS:          0  HIT:          0  MISS:          0  HIT %:       -nan  MISS %:       -nan   MPKI: 0
LLC TOTAL     ACCESS:   19943619  HIT:    7014991  MISS:   12928628  HIT %:    35.1741  MISS %:    64.8259   MPKI: 63.8469
LLC LOAD      ACCESS:   13875823  HIT:    2885198  MISS:   10990625  HIT %:     20.793  MISS %:     79.207   MPKI: 54.2763
LLC RFO       ACCESS:     310966  HIT:      89315  MISS:     221651  HIT %:    28.7218  MISS %:    71.2782   MPKI: 1.0946
LLC PREFETCH  ACCESS:    1342943  HIT:     551105  MISS:     791838  HIT %:    41.0371  MISS %:    58.9629   MPKI: 3.91042
LLC WRITEBACK ACCESS:    3232985  HIT:    3073444  MISS:     159541  HIT %:    95.0652  MISS %:    4.93479   MPKI: 0.78788

RAW hits: 2236445
Loads Generated: 66404091
Loads sent to L1D: 64167645
Stores Generated: 10910605
Stores sent to L1D: 10910606

CPU 2 cumulative IPC: 0.0775143 instructions: 202526010 cycles: 2612757037
ITLB TOTAL     ACCESS:   37264681  HIT:   37264681  MISS:          0  HIT %:        100  MISS %:          0   MPKI: 0
ITLB LOAD      ACCESS:          0  HIT:          0  MISS:          0  HIT %:       -nan  MISS %:       -nan   MPKI: 0
ITLB RFO       ACCESS:          0  HIT:          0  MISS:          0  HIT %:       -nan  MISS %:       -nan   MPKI: 0
ITLB PREFETCH  ACCESS:          0  HIT:          0  MISS:          0  HIT %:       -nan  MISS %:       -nan   MPKI: 0
ITLB WRITEBACK ACCESS:          0  HIT:          0  MISS:          0  HIT %:       -nan  MISS %:       -nan   MPKI: 0
DTLB TOTAL     ACCESS:   43706967  HIT:   27821728  MISS:   15885239  HIT %:    63.6551  MISS %:    36.3449   MPKI: 78.4356
DTLB LOAD      ACCESS:          0  HIT:          0  MISS:          0  HIT %:       -nan  MISS %:       -nan   MPKI: 0
DTLB RFO       ACCESS:          0  HIT:          0  MISS:          0  HIT %:       -nan  MISS %:       -nan   MPKI: 0
DTLB PREFETCH  ACCESS:          0  HIT:          0  MISS:          0  HIT %:       -nan  MISS %:       -nan   MPKI: 0
DTLB WRITEBACK ACCESS:          0  HIT:          0  MISS:          0  HIT %:       -nan  MISS %:       -nan   MPKI: 0
STLB TOTAL     ACCESS:   19887355  HIT:   17657696  MISS:    2229659  HIT %:    88.7886  MISS %:    11.2114   MPKI: 11.0092
STLB LOAD      ACCESS:          0  HIT:          0  MISS:          0  HIT %:       -nan  MISS %:       -nan   MPKI: 0
STLB RFO       ACCESS:          0  HIT:          0  MISS:          0  HIT %:       -nan  MISS %:       -nan   MPKI: 0
STLB PREFETCH  ACCESS:          0  HIT:          0  MISS:          0  HIT %:       -nan  MISS %:       -nan   MPKI: 0
STLB WRITEBACK ACCESS:          0  HIT:          0  MISS:          0  HIT %:       -nan  MISS %:       -nan   MPKI: 0
L1D TOTAL     ACCESS:   53748056  HIT:   33792803  MISS:   19955253  HIT %:    62.8726  MISS %:    37.1274   MPKI: 98.5318
L1D LOAD      ACCESS:   41542842  HIT:   22195245  MISS:   19347597  HIT %:    53.4274  MISS %:    46.5726   MPKI: 95.5314
L1D RFO       ACCESS:    9545524  HIT:    8942753  MISS:     602771  HIT %:    93.6853  MISS %:     6.3147   MPKI: 2.97626
L1D PREFETCH  ACCESS:    2659690  HIT:    2654805  MISS:       4885  HIT %:    99.8163  MISS %:   0.183668   MPKI: 0.0241204
L1D WRITEBACK ACCESS:          0  HIT:          0  MISS:          0  HIT %:       -nan  MISS %:       -nan   MPKI: 0
L1I TOTAL     ACCESS:   40098060  HIT:   40098060  MISS:          0  HIT %:        100  MISS %:          0   MPKI: 0
L1I LOAD      ACCESS:   40098060  HIT:   40098060  MISS:          0  HIT %:        100  MISS %:          0   MPKI: 0
L1I RFO       ACCESS:          0  HIT:          0  MISS:          0  HIT %:       -nan  MISS %:       -nan   MPKI: 0
L1I PREFETCH  ACCESS:          0  HIT:          0  MISS:          0  HIT %:       -nan  MISS %:       -nan   MPKI: 0
L1I WRITEBACK ACCESS:          0  HIT:          0  MISS:          0  HIT %:       -nan  MISS %:       -nan   MPKI: 0
L2C TOTAL     ACCESS:   31566224  HIT:   14540007  MISS:   17026217  HIT %:    46.0619  MISS %:    53.9381   MPKI: 84.0693
L2C LOAD      ACCESS:   19347172  HIT:    5467063  MISS:   13880109  HIT %:    28.2577  MISS %:    71.7423   MPKI: 68.5349
L2C RFO       ACCESS:     602765  HIT:     293159  MISS:     309606  HIT %:    48.6357  MISS %:    51.3643   MPKI: 1.52872
L2C PREFETCH  ACCESS:    3968776  HIT:    2640973  MISS:    1327803  HIT %:    66.5438  MISS %:    33.4562   MPKI: 6.55621
L2C WRITEBACK ACCESS:    4510678  HIT:    4195879  MISS:     314799  HIT %:     93.021  MISS %:    6.97897   MPKI: 1.55436
PSCL5 TOTAL     ACCESS:    2291289  HIT:    2291289  MISS:          0  HIT %:        100  MISS %:          0   MPKI: 0
PSCL5 LOAD      ACCESS:          0  HIT:          0  MISS:          0  HIT %:       -nan  MISS %:       -nan   MPKI: 0
PSCL5 RFO       ACCESS:          0  HIT:          0  MISS:          0  HIT %:       -nan  MISS %:       -nan   MPKI: 0
PSCL5 PREFETCH  ACCESS:          0  HIT:          0  MISS:          0  HIT %:       -nan  MISS %:       -nan   MPKI: 0
PSCL5 WRITEBACK ACCESS:          0  HIT:          0  MISS:          0  HIT %:       -nan  MISS %:       -nan   MPKI: 0
PSCL4 TOTAL     ACCESS:    2291289  HIT:    2291289  MISS:          0  HIT %:        100  MISS %:          0   MPKI: 0
PSCL4 LOAD      ACCESS:          0  HIT:          0  MISS:          0  HIT %:       -nan  MISS %:       -nan   MPKI: 0
PSCL4 RFO       ACCESS:          0  HIT:          0  MISS:          0  HIT %:       -nan  MISS %:       -nan   MPKI: 0
PSCL4 PREFETCH  ACCESS:          0  HIT:          0  MISS:          0  HIT %:       -nan  MISS %:       -nan   MPKI: 0
PSCL4 WRITEBACK ACCESS:          0  HIT:          0  MISS:          0  HIT %:       -nan  MISS %:       -nan   MPKI: 0
PSCL3 TOTAL     ACCESS:    2291289  HIT:    2291289  MISS:          0  HIT %:        100  MISS %:          0   MPKI: 0
PSCL3 LOAD      ACCESS:          0  HIT:          0  MISS:          0  HIT %:       -nan  MISS %:       -nan   MPKI: 0
PSCL3 RFO       ACCESS:          0  HIT:          0  MISS:          0  HIT %:       -nan  MISS %:       -nan   MPKI: 0
PSCL3 PREFETCH  ACCESS:          0  HIT:          0  MISS:          0  HIT %:       -nan  MISS %:       -nan   MPKI: 0
PSCL3 WRITEBACK ACCESS:          0  HIT:          0  MISS:          0  HIT %:       -nan  MISS %:       -nan   MPKI: 0
PSCL2 TOTAL     ACCESS:    2235034  HIT:    1445745  MISS:     789289  HIT %:    64.6856  MISS %:    35.3144   MPKI: 3.89722
PSCL2 LOAD      ACCESS:          0  HIT:          0  MISS:          0  HIT %:       -nan  MISS %:       -nan   MPKI: 0
PSCL2 RFO       ACCESS:          0  HIT:          0  MISS:          0  HIT %:       -nan  MISS %:       -nan   MPKI: 0
PSCL2 PREFETCH  ACCESS:          0  HIT:          0  MISS:          0  HIT %:       -nan  MISS %:       -nan   MPKI: 0
PSCL2 WRITEBACK ACCESS:          0  HIT:          0  MISS:          0  HIT %:       -nan  MISS %:       -nan   MPKI: 0
LLC TOTAL     ACCESS:   19933260  HIT:    7033913  MISS:   12899347  HIT %:    35.2873  MISS %:    64.7127   MPKI: 63.6923
LLC LOAD      ACCESS:   13874730  HIT:    2894403  MISS:   10980327  HIT %:     20.861  MISS %:     79.139   MPKI: 54.2169
LLC RFO       ACCESS:     309586  HIT:      88792  MISS:     220794  HIT %:    28.6809  MISS %:    71.3191   MPKI: 1.0902
LLC PREFETCH  ACCESS:    1333196  HIT:     549514  MISS:     783682  HIT %:    41.2178  MISS %:    58.7822   MPKI: 3.86954
LLC WRITEBACK ACCESS:    3221848  HIT:    3065016  MISS:     156832  HIT %:    95.1322  MISS %:    4.86777   MPKI: 0.77438

RAW hits: 2232831
Loads Generated: 66396899
Loads sent to L1D: 64164068
Stores Generated: 10915982
Stores sent to L1D: 10915982

CPU 3 cumulative IPC: 0.0765475 instructions: 200000003 cycles: 2612757037
ITLB TOTAL     ACCESS:   36815509  HIT:   36815509  MISS:          0  HIT %:        100  MISS %:          0   MPKI: 0
ITLB LOAD      ACCESS:          0  HIT:          0  MISS:          0  HIT %:       -nan  MISS %:       -nan   MPKI: 0
ITLB RFO       ACCESS:          0  HIT:          0  MISS:          0  HIT %:       -nan  MISS %:       -nan   MPKI: 0
ITLB PREFETCH  ACCESS:          0  HIT:          0  MISS:          0  HIT %:       -nan  MISS %:       -nan   MPKI: 0
ITLB WRITEBACK ACCESS:          0  HIT:          0  MISS:          0  HIT %:       -nan  MISS %:       -nan   MPKI: 0
DTLB TOTAL     ACCESS:   43172440  HIT:   27486442  MISS:   15685998  HIT %:    63.6666  MISS %:    36.3334   MPKI: 78.43
DTLB LOAD      ACCESS:          0  HIT:          0  MISS:          0  HIT %:       -nan  MISS %:       -nan   MPKI: 0
DTLB RFO       ACCESS:          0  HIT:          0  MISS:          0  HIT %:       -nan  MISS %:       -nan   MPKI: 0
DTLB PREFETCH  ACCESS:          0  HIT:          0  MISS:          0  HIT %:       -nan  MISS %:       -nan   MPKI: 0
DTLB WRITEBACK ACCESS:          0  HIT:          0  MISS:          0  HIT %:       -nan  MISS %:       -nan   MPKI: 0
STLB TOTAL     ACCESS:   19650192  HIT:   17449207  MISS:    2200985  HIT %:    88.7992  MISS %:    11.2008   MPKI: 11.0049
STLB LOAD      ACCESS:          0  HIT:          0  MISS:          0  HIT %:       -nan  MISS %:       -nan   MPKI: 0
STLB RFO       ACCESS:          0  HIT:          0  MISS:          0  HIT %:       -nan  MISS %:       -nan   MPKI: 0
STLB PREFETCH  ACCESS:          0  HIT:          0  MISS:          0  HIT %:       -nan  MISS %:       -nan   MPKI: 0
STLB WRITEBACK ACCESS:          0  HIT:          0  MISS:          0  HIT %:       -nan  MISS %:       -nan   MPKI: 0
L1D TOTAL     ACCESS:   53082200  HIT:   33365563  MISS:   19716637  HIT %:    62.8564  MISS %:    37.1436   MPKI: 98.5832
L1D LOAD      ACCESS:   41044512  HIT:   21928647  MISS:   19115865  HIT %:    53.4265  MISS %:    46.5735   MPKI: 95.5793
L1D RFO       ACCESS:    9423004  HIT:    8827013  MISS:     595991  HIT %:    93.6751  MISS %:    6.32485   MPKI: 2.97995
L1D PREFETCH  ACCESS:    2614684  HIT:    2609903  MISS:       4781  HIT %:    99.8171  MISS %:   0.182852   MPKI: 0.023905
L1D WRITEBACK ACCESS:          0  HIT:          0  MISS:          0  HIT %:       -nan  MISS %:       -nan   MPKI: 0
L1I TOTAL     ACCESS:   39615513  HIT:   39615513  MISS:          0  HIT %:        100  MISS %:          0   MPKI: 0
L1I LOAD      ACCESS:   39615513  HIT:   39615513  MISS:          0  HIT %:        100  MISS %:          0   MPKI: 0
L1I RFO       ACCESS:          0  HIT:          0  MISS:          0  HIT %:       -nan  MISS %:       -nan   MPKI: 0
L1I PREFETCH  ACCESS:          0  HIT:          0  MISS:          0  HIT %:       -nan  MISS %:       -nan   MPKI: 0
L1I WRITEBACK ACCESS:          0  HIT:          0  MISS:          0  HIT %:       -nan  MISS %:       -nan   MPKI: 0
L2C TOTAL     ACCESS:   31220865  HIT:   14388196  MISS:   16832669  HIT %:    46.0852  MISS %:    53.9148   MPKI: 84.1633
L2C LOAD      ACCESS:   19115435  HIT:    5400857  MISS:   13714578  HIT %:    28.2539  MISS %:    71.7461   MPKI: 68.5729
L2C RFO       ACCESS:     595985  HIT:     290396  MISS:     305589  HIT %:    48.7254  MISS %:    51.2746   MPKI: 1.52794
L2C PREFETCH  ACCESS:    3947139  HIT:    2617924  MISS:    1329215  HIT %:    66.3246  MISS %:    33.6754   MPKI: 6.64607
L2C WRITEBACK ACCESS:    4467979  HIT:    4153552  MISS:     314427  HIT %:    92.9627  MISS %:    7.03734   MPKI: 1.57213
PSCL5 TOTAL     ACCESS:    2260746  HIT:    2260746  MISS:          0  HIT %:        100  MISS %:          0   MPKI: 0
PSCL5 LOAD      ACCESS:          0  HIT:          0  MISS:          0  HIT %:       -nan  MISS %:       -nan   MPKI: 0
PSCL5 RFO       ACCESS:          0  HIT:          0  MISS:          0  HIT %:       -nan  MISS %:       -nan   MPKI: 0
PSCL5 PREFETCH  ACCESS:          0  HIT:          0  MISS:          0  HIT %:       -nan  MISS %:       -nan   MPKI: 0
PSCL5 WRITEBACK ACCESS:          0  HIT:          0  MISS:          0  HIT %:       -nan  MISS %:       -nan   MPKI: 0
PSCL4 TOTAL     ACCESS:    2260746  HIT:    2260746  MISS:          0  HIT %:        100  MISS %:          0   MPKI: 0
PSCL4 LOAD      ACCESS:          0  HIT:          0  MISS:          0  HIT %:       -nan  MISS %:       -nan   MPKI: 0
PSCL4 RFO       ACCESS:          0  HIT:          0  MISS:          0  HIT %:       -nan  MISS %:       -nan   MPKI: 0
PSCL4 PREFETCH  ACCESS:          0  HIT:          0  MISS:          0  HIT %:       -nan  MISS %:       -nan   MPKI: 0
PSCL4 WRITEBACK ACCESS:          0  HIT:          0  MISS:          0  HIT %:       -nan  MISS %:       -nan   MPKI: 0
PSCL3 TOTAL     ACCESS:    2260746  HIT:    2260746  MISS:          0  HIT %:        100  MISS %:          0   MPKI: 0
PSCL3 LOAD      ACCESS:          0  HIT:          0  MISS:          0  HIT %:       -nan  MISS %:       -nan   MPKI: 0
PSCL3 RFO       ACCESS:          0  HIT:          0  MISS:          0  HIT %:       -nan  MISS %:       -nan   MPKI: 0
PSCL3 PREFETCH  ACCESS:          0  HIT:          0  MISS:          0  HIT %:       -nan  MISS %:       -nan   MPKI: 0
PSCL3 WRITEBACK ACCESS:          0  HIT:          0  MISS:          0  HIT %:       -nan  MISS %:       -nan   MPKI: 0
PSCL2 TOTAL     ACCESS:    2206338  HIT:    1427165  MISS:     779173  HIT %:    64.6848  MISS %:    35.3152   MPKI: 3.89586
PSCL2 LOAD      ACCESS:          0  HIT:          0  MISS:          0  HIT %:       -nan  MISS %:       -nan   MPKI: 0
PSCL2 RFO       ACCESS:          0  HIT:          0  MISS:          0  HIT %:       -nan  MISS %:       -nan   MPKI: 0
PSCL2 PREFETCH  ACCESS:          0  HIT:          0  MISS:          0  HIT %:       -nan  MISS %:       -nan   MPKI: 0
PSCL2 WRITEBACK ACCESS:          0  HIT:          0  MISS:          0  HIT %:       -nan  MISS %:       -nan   MPKI: 0
LLC TOTAL     ACCESS:   19711140  HIT:    6934975  MISS:   12776165  HIT %:     35.183  MISS %:     64.817   MPKI: 63.8808
LLC LOAD      ACCESS:   13709013  HIT:    2837839  MISS:   10871174  HIT %:    20.7005  MISS %:    79.2995   MPKI: 54.3559
LLC RFO       ACCESS:     305575  HIT:      88582  MISS:     216993  HIT %:    28.9886  MISS %:    71.0114   MPKI: 1.08496
LLC PREFETCH  ACCESS:    1334788  HIT:     549345  MISS:     785443  HIT %:     41.156  MISS %:     58.844   MPKI: 3.92721
LLC WRITEBACK ACCESS:    3192904  HIT:    3036549  MISS:     156355  HIT %:     95.103  MISS %:    4.89695   MPKI: 0.781775

RAW hits: 2201005
Loads Generated: 65592583
Loads sent to L1D: 63391579
Stores Generated: 10776780
Stores sent to L1D: 10776784

Region of Interest Statistics

CPU 0 cumulative IPC: 0.0773955 instructions: 200000003 cycles: 2584131193
ITLB TOTAL     ACCESS:   36801883  HIT:   36801883  MISS:          0  HIT %:        100  MISS %:          0   MPKI: 0
ITLB LOAD TRANSLATION ACCESS:   36801883  HIT:   36801883  MISS:          0  HIT %:        100  MISS %:          0   MPKI: 0
ITLB PREFETCH  REQUESTED:          0  ISSUED:          0  USEFUL:          0  USELESS:          0
ITLB USEFUL LOAD PREFETCHES:          0 PREFETCH ISSUED TO LOWER LEVEL:          0  ACCURACY: -nan
ITLB TIMELY PREFETCHES:          0 LATE PREFETCHES: 0 DROPPED PREFETCHES: 0
ITLB PREFETCHES SAME FILL-ORIGIN LEVEL: 0 DIFFERENT FILL-ORIGIN LEVEL: 0
ITLB AVERAGE MISS LATENCY: -nan cycles
ITLB RQ	ACCESS:   39878750	FORWARD:          0	MERGED:    2803943	TO_CACHE:   37074807

DTLB TOTAL     ACCESS:   43168157  HIT:   27474755  MISS:   15693402  HIT %:    63.6459  MISS %:    36.3541   MPKI: 78.467
DTLB LOAD TRANSLATION ACCESS:   43168157  HIT:   27474755  MISS:   15693402  HIT %:    63.6459  MISS %:    36.3541   MPKI: 78.467
DTLB PREFETCH  REQUESTED:          0  ISSUED:          0  USEFUL:          0  USELESS:          0
DTLB USEFUL LOAD PREFETCHES:          0 PREFETCH ISSUED TO LOWER LEVEL:          0  ACCURACY: -nan
DTLB TIMELY PREFETCHES:          0 LATE PREFETCHES: 0 DROPPED PREFETCHES: 0
DTLB PREFETCHES SAME FILL-ORIGIN LEVEL: 0 DIFFERENT FILL-ORIGIN LEVEL: 0
DTLB AVERAGE MISS LATENCY: 36.6674 cycles
DTLB RQ	ACCESS:   51311398	FORWARD:          0	MERGED:    7745619	TO_CACHE:   43565779

STLB TOTAL     ACCESS:   19620242  HIT:   17418402  MISS:    2201840  HIT %:    88.7777  MISS %:    11.2223   MPKI: 11.0092
STLB LOAD TRANSLATION ACCESS:   15693402  HIT:   13508132  MISS:    2185270  HIT %:    86.0752  MISS %:    13.9248   MPKI: 10.9263
STLB TRANSLATION FROM L1D PREFETCHER ACCESS:    3926840  HIT:    3910270  MISS:      16570  HIT %:     99.578  MISS %:   0.421968   MPKI: 0.08285
STLB PREFETCH  REQUESTED:          0  ISSUED:          0  USEFUL:      11616  USELESS:       5238
STLB USEFUL LOAD PREFETCHES:      11616 PREFETCH ISSUED TO LOWER LEVEL:          0  ACCURACY: inf
STLB TIMELY PREFETCHES:      11616 LATE PREFETCHES: 106 DROPPED PREFETCHES: 60402
STLB PREFETCHES SAME FILL-ORIGIN LEVEL: 0 DIFFERENT FILL-ORIGIN LEVEL: 0
STLB AVERAGE MISS LATENCY: 197.132 cycles
STLB RQ	ACCESS:   22509522	FORWARD:          0	MERGED:    2677268	TO_CACHE:   19832254

STLB Hit, L1D data hit: 0
STLB Hit, L2C data hit: 0
STLB Hit, LLC data hit: 0
STLB Hit, LLC data miss: 0
STLB STLB hints to L2: 0
L1D TOTAL     ACCESS:   53018284  HIT:   33301772  MISS:   19716512  HIT %:    62.8119  MISS %:    37.1881   MPKI: 98.5826
L1D LOAD      ACCESS:   41027526  HIT:   21909982  MISS:   19117544  HIT %:    53.4031  MISS %:    46.5969   MPKI: 95.5877
L1D RFO       ACCESS:    9422235  HIT:    8827792  MISS:     594443  HIT %:    93.6911  MISS %:    6.30894   MPKI: 2.97221
L1D PREFETCH  ACCESS:    2568523  HIT:    2563998  MISS:       4525  HIT %:    99.8238  MISS %:   0.176171   MPKI: 0.022625
L1D PREFETCH  REQUESTED:   14166506  ISSUED:   14123636  USEFUL:       1294  USELESS:       3296
L1D USEFUL LOAD PREFETCHES:       1294 PREFETCH ISSUED TO LOWER LEVEL:    4004840  ACCURACY: 0.0323109
L1D TIMELY PREFETCHES:       1294 LATE PREFETCHES: 82 DROPPED PREFETCHES: 82858
L1D PREFETCHES SAME FILL-ORIGIN LEVEL: 4672 DIFFERENT FILL-ORIGIN LEVEL: 4000168
L1D AVERAGE MISS LATENCY: 279.829 cycles
L1D RQ	ACCESS:   63863319	FORWARD:          0	MERGED:   22400760	TO_CACHE:   41457300
L1D WQ	ACCESS:   10849654	FORWARD:       7116	MERGED:     995556	TO_CACHE:    9854098
L1D PQ	ACCESS:    7428254	FORWARD:          0	MERGED:     731015	TO_CACHE:    6695382

L1D UNIQUE REGIONS ACCESSED: 0
L1D REGIONS CONFLICTS: 0
L1D Cross Page Prefetch Requests: 4747284
L1D Same Page Prefetch Requests: 4629310
L1D ROI Sum of L1D PQ occupancy: 90138105
L1D PREFETCHES PUSHED FROM L2C: 0
L1I TOTAL     ACCESS:   39595402  HIT:   39595402  MISS:          0  HIT %:        100  MISS %:          0   MPKI: 0
L1I LOAD      ACCESS:   39595402  HIT:   39595402  MISS:          0  HIT %:        100  MISS %:          0   MPKI: 0
L1I PREFETCH  REQUESTED:          0  ISSUED:          0  USEFUL:          0  USELESS:          0
L1I USEFUL LOAD PREFETCHES:          0 PREFETCH ISSUED TO LOWER LEVEL:          0  ACCURACY: -nan
L1I TIMELY PREFETCHES:          0 LATE PREFETCHES: 0 DROPPED PREFETCHES: 0
L1I PREFETCHES SAME FILL-ORIGIN LEVEL: 0 DIFFERENT FILL-ORIGIN LEVEL: 0
L1I AVERAGE MISS LATENCY: -nan cycles
L1I RQ	ACCESS:   59629459	FORWARD:          0	MERGED:   19750709	TO_CACHE:   39878750

BTB TOTAL     ACCESS:   46391381  HIT:   46371651  MISS:      19730  HIT %:    99.9575  MISS %:  0.0425295   MPKI: 0.09865
BTB BRANCH_DIRECT_JUMP	ACCESS:    4228690  HIT:    4228684  MISS:          6
BTB BRANCH_INDIRECT	ACCESS:          0  HIT:          0  MISS:          0
BTB BRANCH_CONDITIONAL	ACCESS:   41652647  HIT:   41652629  MISS:         18
BTB BRANCH_DIRECT_CALL	ACCESS:     255022  HIT:     255021  MISS:          1
BTB BRANCH_INDIRECT_CALL	ACCESS:          0  HIT:          0  MISS:          0
BTB BRANCH_RETURN	ACCESS:     255022  HIT:     235317  MISS:      19705
BTB BRANCH_OTHER ACCESS:          0  HIT:          0  MISS:          0

L2C TOTAL     ACCESS:   31184489  HIT:   14382562  MISS:   16801927  HIT %:    46.1209  MISS %:    53.8791   MPKI: 84.0096
L2C LOAD      ACCESS:   19117117  HIT:    5427831  MISS:   13689286  HIT %:    28.3925  MISS %:    71.6075   MPKI: 68.4464
L2C DATA LOAD MPKI: 68.4464
L2C INSTRUCTION LOAD MPKI: 0
L2C RFO       ACCESS:     594437  HIT:     289436  MISS:     305001  HIT %:    48.6908  MISS %:    51.3092   MPKI: 1.525
L2C PREFETCH  ACCESS:    3919399  HIT:    2594675  MISS:    1324724  HIT %:    66.2008  MISS %:    33.7992   MPKI: 6.62362
L2C DATA PREFETCH MPKI: 6.62362
L2C INSTRUCTION PREFETCH MPKI: 0
L2C WRITEBACK ACCESS:    4457636  HIT:    4142866  MISS:     314770  HIT %:    92.9386  MISS %:    7.06137   MPKI: 1.57385
L2C LOAD TRANSLATION ACCESS:    2963137  HIT:    1801147  MISS:    1161990  HIT %:    60.7851  MISS %:    39.2149   MPKI: 5.80995
L2C TRANSLATION FROM L1D PREFETCHER ACCESS:     132763  HIT:     126607  MISS:       6156  HIT %:    95.3632  MISS %:    4.63683   MPKI: 0.03078
L2C PREFETCH  REQUESTED:          0  ISSUED:          0  USEFUL:     192175  USELESS:    1149689
L2C USEFUL LOAD PREFETCHES:     192175 PREFETCH ISSUED TO LOWER LEVEL:    1341211  ACCURACY: 14.3285
L2C TIMELY PREFETCHES:     192175 LATE PREFETCHES: 5568 DROPPED PREFETCHES: 0
L2C PREFETCHES SAME FILL-ORIGIN LEVEL: 1338436 DIFFERENT FILL-ORIGIN LEVEL: 0
L2C AVERAGE MISS LATENCY: 350.838 cycles
L2C RQ	ACCESS:   23034869	FORWARD:          0	MERGED:          0	TO_CACHE:   23034518
L2C WQ	ACCESS:    4507578	FORWARD:        407	MERGED:          0	TO_CACHE:    4507578
L2C PQ	ACCESS:    4004611	FORWARD:          0	MERGED:       6365	TO_CACHE:    3998190

L2C Instructions Evicting Data 0
L2C Translations Evicting Data 1070514
L2C Data Evicting Data 14441659
L2C Instructions Evicting Instructions 0
L2C Translations Evicting Instructions 0
L2C Data Evicting Instructions 0
L2C Instructions Evicting Translations 0
L2C Translations Evicting Translations 117283
L2C Data Evicting Translations 1039852
L2C Dense regions hint from L2: 0
PSCL5 TOTAL     ACCESS:    2261948  HIT:    2261948  MISS:          0  HIT %:        100  MISS %:          0   MPKI: 0
PSCL5 LOAD TRANSLATION ACCESS:    2185164  HIT:    2185164  MISS:          0  HIT %:        100  MISS %:          0   MPKI: 0
PSCL5 TRANSLATION FROM L1D PREFETCHER ACCESS:      76784  HIT:      76784  MISS:          0  HIT %:        100  MISS %:          0   MPKI: 0
PSCL5 PREFETCH  REQUESTED:          0  ISSUED:          0  USEFUL:          0  USELESS:          0
PSCL5 USEFUL LOAD PREFETCHES:          0 PREFETCH ISSUED TO LOWER LEVEL:          0  ACCURACY: -nan
PSCL5 TIMELY PREFETCHES:          0 LATE PREFETCHES: 0 DROPPED PREFETCHES: 0
PSCL5 PREFETCHES SAME FILL-ORIGIN LEVEL: 0 DIFFERENT FILL-ORIGIN LEVEL: 0

PSCL4 TOTAL     ACCESS:    2261948  HIT:    2261948  MISS:          0  HIT %:        100  MISS %:          0   MPKI: 0
PSCL4 LOAD TRANSLATION ACCESS:    2185164  HIT:    2185164  MISS:          0  HIT %:        100  MISS %:          0   MPKI: 0
PSCL4 TRANSLATION FROM L1D PREFETCHER ACCESS:      76784  HIT:      76784  MISS:          0  HIT %:        100  MISS %:          0   MPKI: 0
PSCL4 PREFETCH  REQUESTED:          0  ISSUED:          0  USEFUL:          0  USELESS:          0
PSCL4 USEFUL LOAD PREFETCHES:          0 PREFETCH ISSUED TO LOWER LEVEL:          0  ACCURACY: -nan
PSCL4 TIMELY PREFETCHES:          0 LATE PREFETCHES: 0 DROPPED PREFETCHES: 0
PSCL4 PREFETCHES SAME FILL-ORIGIN LEVEL: 0 DIFFERENT FILL-ORIGIN LEVEL: 0

PSCL3 TOTAL     ACCESS:    2261948  HIT:    2261948  MISS:          0  HIT %:        100  MISS %:          0   MPKI: 0
PSCL3 LOAD TRANSLATION ACCESS:    2185164  HIT:    2185164  MISS:          0  HIT %:        100  MISS %:          0   MPKI: 0
PSCL3 TRANSLATION FROM L1D PREFETCHER ACCESS:      76784  HIT:      76784  MISS:          0  HIT %:        100  MISS %:          0   MPKI: 0
PSCL3 PREFETCH  REQUESTED:          0  ISSUED:          0  USEFUL:          0  USELESS:          0
PSCL3 USEFUL LOAD PREFETCHES:          0 PREFETCH ISSUED TO LOWER LEVEL:          0  ACCURACY: -nan
PSCL3 TIMELY PREFETCHES:          0 LATE PREFETCHES: 0 DROPPED PREFETCHES: 0
PSCL3 PREFETCHES SAME FILL-ORIGIN LEVEL: 0 DIFFERENT FILL-ORIGIN LEVEL: 0

PSCL2 TOTAL     ACCESS:    2207279  HIT:    1427996  MISS:     779283  HIT %:    64.6949  MISS %:    35.3051   MPKI: 3.89641
PSCL2 LOAD TRANSLATION ACCESS:    2186474  HIT:    1407191  MISS:     779283  HIT %:    64.3589  MISS %:    35.6411   MPKI: 3.89641
PSCL2 TRANSLATION FROM L1D PREFETCHER ACCESS:      20805  HIT:      20805  MISS:          0  HIT %:        100  MISS %:          0   MPKI: 0
PSCL2 PREFETCH  REQUESTED:          0  ISSUED:          0  USEFUL:          0  USELESS:          0
PSCL2 USEFUL LOAD PREFETCHES:          0 PREFETCH ISSUED TO LOWER LEVEL:          0  ACCURACY: -nan
PSCL2 TIMELY PREFETCHES:          0 LATE PREFETCHES: 0 DROPPED PREFETCHES: 0
PSCL2 PREFETCHES SAME FILL-ORIGIN LEVEL: 0 DIFFERENT FILL-ORIGIN LEVEL: 0

LLC TOTAL     ACCESS:   19670369  HIT:    6918340  MISS:   12752029  HIT %:    35.1714  MISS %:    64.8286   MPKI: 63.7601
LLC LOAD      ACCESS:   13683788  HIT:    2845442  MISS:   10838346  HIT %:    20.7943  MISS %:    79.2057   MPKI: 54.1917
LLC RFO       ACCESS:     304984  HIT:      87607  MISS:     217377  HIT %:    28.7251  MISS %:    71.2749   MPKI: 1.08688
LLC PREFETCH  ACCESS:    1330235  HIT:     542924  MISS:     787311  HIT %:    40.8141  MISS %:    59.1859   MPKI: 3.93655
LLC WRITEBACK ACCESS:    3183216  HIT:    3025635  MISS:     157581  HIT %:    95.0496  MISS %:    4.95037   MPKI: 0.787905
LLC LOAD TRANSLATION ACCESS:    1161990  HIT:     412120  MISS:     749870  HIT %:    35.4667  MISS %:    64.5333   MPKI: 3.74935
LLC TRANSLATION FROM L1D PREFETCHER ACCESS:       6156  HIT:       4612  MISS:       1544  HIT %:    74.9188  MISS %:    25.0812   MPKI: 0.00772
LLC PREFETCH  REQUESTED:          0  ISSUED:          0  USEFUL:     523103  USELESS:    2639570
LLC USEFUL LOAD PREFETCHES:     523103 PREFETCH ISSUED TO LOWER LEVEL:    3157060  ACCURACY: 16.5693
LLC TIMELY PREFETCHES:     523103 LATE PREFETCHES: 0 DROPPED PREFETCHES: 0
LLC PREFETCHES SAME FILL-ORIGIN LEVEL: 0 DIFFERENT FILL-ORIGIN LEVEL: 0
LLC AVERAGE MISS LATENCY: 1685.98 cycles
LLC RQ	ACCESS:   61257471	FORWARD:          0	MERGED:          0	TO_CACHE:   61257452
LLC WQ	ACCESS:   12875328	FORWARD:         24	MERGED:          0	TO_CACHE:   12875328
LLC PQ	ACCESS:    5352143	FORWARD:          0	MERGED:          0	TO_CACHE:    5352138

LLC Dense regions hint to LLC: 0

RAW hits: 2204048
Loads Generated: 65570251
Loads sent to L1D: 63366209
Stores Generated: 10771656
Stores sent to L1D: 10771652
Major fault: 0 Minor fault: 80660
Allocated PAGES: 321946

CPU 1 cumulative IPC: 0.0776083 instructions: 200000000 cycles: 2577042675
ITLB TOTAL     ACCESS:   36810914  HIT:   36810914  MISS:          0  HIT %:        100  MISS %:          0   MPKI: 0
ITLB LOAD TRANSLATION ACCESS:   36810914  HIT:   36810914  MISS:          0  HIT %:        100  MISS %:          0   MPKI: 0
ITLB PREFETCH  REQUESTED:          0  ISSUED:          0  USEFUL:          0  USELESS:          0
ITLB USEFUL LOAD PREFETCHES:          0 PREFETCH ISSUED TO LOWER LEVEL:          0  ACCURACY: -nan
ITLB TIMELY PREFETCHES:          0 LATE PREFETCHES: 0 DROPPED PREFETCHES: 0
ITLB PREFETCHES SAME FILL-ORIGIN LEVEL: 0 DIFFERENT FILL-ORIGIN LEVEL: 0
ITLB AVERAGE MISS LATENCY: -nan cycles
ITLB RQ	ACCESS:   40081984	FORWARD:          0	MERGED:    2825555	TO_CACHE:   37256429

DTLB TOTAL     ACCESS:   43171244  HIT:   27482988  MISS:   15688256  HIT %:    63.6604  MISS %:    36.3396   MPKI: 78.4413
DTLB LOAD TRANSLATION ACCESS:   43171244  HIT:   27482988  MISS:   15688256  HIT %:    63.6604  MISS %:    36.3396   MPKI: 78.4413
DTLB PREFETCH  REQUESTED:          0  ISSUED:          0  USEFUL:          0  USELESS:          0
DTLB USEFUL LOAD PREFETCHES:          0 PREFETCH ISSUED TO LOWER LEVEL:          0  ACCURACY: -nan
DTLB TIMELY PREFETCHES:          0 LATE PREFETCHES: 0 DROPPED PREFETCHES: 0
DTLB PREFETCHES SAME FILL-ORIGIN LEVEL: 0 DIFFERENT FILL-ORIGIN LEVEL: 0
DTLB AVERAGE MISS LATENCY: 36.7838 cycles
DTLB RQ	ACCESS:   51573287	FORWARD:          0	MERGED:    7792398	TO_CACHE:   43780889

STLB TOTAL     ACCESS:   19634251  HIT:   17433139  MISS:    2201112  HIT %:    88.7894  MISS %:    11.2106   MPKI: 11.0056
STLB LOAD TRANSLATION ACCESS:   15688256  HIT:   13503369  MISS:    2184887  HIT %:    86.0731  MISS %:    13.9269   MPKI: 10.9244
STLB TRANSLATION FROM L1D PREFETCHER ACCESS:    3945995  HIT:    3929770  MISS:      16225  HIT %:    99.5888  MISS %:   0.411176   MPKI: 0.081125
STLB PREFETCH  REQUESTED:          0  ISSUED:          0  USEFUL:      11422  USELESS:       5106
STLB USEFUL LOAD PREFETCHES:      11422 PREFETCH ISSUED TO LOWER LEVEL:          0  ACCURACY: inf
STLB TIMELY PREFETCHES:      11422 LATE PREFETCHES: 109 DROPPED PREFETCHES: 61478
STLB PREFETCHES SAME FILL-ORIGIN LEVEL: 0 DIFFERENT FILL-ORIGIN LEVEL: 0
STLB AVERAGE MISS LATENCY: 197.654 cycles
STLB RQ	ACCESS:   22643984	FORWARD:          0	MERGED:    2700356	TO_CACHE:   19943628

STLB Hit, L1D data hit: 0
STLB Hit, L2C data hit: 0
STLB Hit, LLC data hit: 0
STLB Hit, LLC data miss: 0
STLB STLB hints to L2: 0
L1D TOTAL     ACCESS:   53049204  HIT:   33331970  MISS:   19717234  HIT %:    62.8322  MISS %:    37.1678   MPKI: 98.5862
L1D LOAD      ACCESS:   41039292  HIT:   21922512  MISS:   19116780  HIT %:    53.4183  MISS %:    46.5817   MPKI: 95.5839
L1D RFO       ACCESS:    9423141  HIT:    8827659  MISS:     595482  HIT %:    93.6806  MISS %:    6.31936   MPKI: 2.97741
L1D PREFETCH  ACCESS:    2586771  HIT:    2581799  MISS:       4972  HIT %:    99.8078  MISS %:   0.192209   MPKI: 0.02486
L1D PREFETCH  REQUESTED:   14301643  ISSUED:   14257916  USEFUL:       1310  USELESS:       3723
L1D USEFUL LOAD PREFETCHES:       1310 PREFETCH ISSUED TO LOWER LEVEL:    4026572  ACCURACY: 0.0325339
L1D TIMELY PREFETCHES:       1310 LATE PREFETCHES: 76 DROPPED PREFETCHES: 86631
L1D PREFETCHES SAME FILL-ORIGIN LEVEL: 5109 DIFFERENT FILL-ORIGIN LEVEL: 4021463
L1D AVERAGE MISS LATENCY: 279.014 cycles
L1D RQ	ACCESS:   64167645	FORWARD:          0	MERGED:   22496104	TO_CACHE:   41666279
L1D WQ	ACCESS:   10910606	FORWARD:       7108	MERGED:    1003598	TO_CACHE:    9907008
L1D PQ	ACCESS:    7499183	FORWARD:          0	MERGED:     738604	TO_CACHE:    6758733

L1D UNIQUE REGIONS ACCESSED: 0
L1D REGIONS CONFLICTS: 0
L1D Cross Page Prefetch Requests: 4763971
L1D Same Page Prefetch Requests: 4592937
L1D ROI Sum of L1D PQ occupancy: 91110482
L1D PREFETCHES PUSHED FROM L2C: 0
L1I TOTAL     ACCESS:   39608451  HIT:   39608451  MISS:          0  HIT %:        100  MISS %:          0   MPKI: 0
L1I LOAD      ACCESS:   39608451  HIT:   39608451  MISS:          0  HIT %:        100  MISS %:          0   MPKI: 0
L1I PREFETCH  REQUESTED:          0  ISSUED:          0  USEFUL:          0  USELESS:          0
L1I USEFUL LOAD PREFETCHES:          0 PREFETCH ISSUED TO LOWER LEVEL:          0  ACCURACY: -nan
L1I TIMELY PREFETCHES:          0 LATE PREFETCHES: 0 DROPPED PREFETCHES: 0
L1I PREFETCHES SAME FILL-ORIGIN LEVEL: 0 DIFFERENT FILL-ORIGIN LEVEL: 0
L1I AVERAGE MISS LATENCY: -nan cycles
L1I RQ	ACCESS:   59926118	FORWARD:          0	MERGED:   19844134	TO_CACHE:   40081984

BTB TOTAL     ACCESS:   46387581  HIT:   46367887  MISS:      19694  HIT %:    99.9575  MISS %:  0.0424553   MPKI: 0.09847
BTB BRANCH_DIRECT_JUMP	ACCESS:    4236070  HIT:    4236064  MISS:          6
BTB BRANCH_INDIRECT	ACCESS:          0  HIT:          0  MISS:          0
BTB BRANCH_CONDITIONAL	ACCESS:   41642247  HIT:   41642227  MISS:         20
BTB BRANCH_DIRECT_CALL	ACCESS:     254632  HIT:     254631  MISS:          1
BTB BRANCH_INDIRECT_CALL	ACCESS:          0  HIT:          0  MISS:          0
BTB BRANCH_RETURN	ACCESS:     254632  HIT:     234965  MISS:      19667
BTB BRANCH_OTHER ACCESS:          0  HIT:          0  MISS:          0

L2C TOTAL     ACCESS:   31205648  HIT:   14414626  MISS:   16791022  HIT %:    46.1924  MISS %:    53.8076   MPKI: 83.9551
L2C LOAD      ACCESS:   19116355  HIT:    5428723  MISS:   13687632  HIT %:    28.3983  MISS %:    71.6017   MPKI: 68.4382
L2C DATA LOAD MPKI: 68.4382
L2C INSTRUCTION LOAD MPKI: 0
L2C RFO       ACCESS:     595473  HIT:     289911  MISS:     305562  HIT %:    48.6858  MISS %:    51.3142   MPKI: 1.52781
L2C PREFETCH  ACCESS:    3931373  HIT:    2605729  MISS:    1325644  HIT %:    66.2804  MISS %:    33.7196   MPKI: 6.62822
L2C DATA PREFETCH MPKI: 6.62822
L2C INSTRUCTION PREFETCH MPKI: 0
L2C WRITEBACK ACCESS:    4465585  HIT:    4153498  MISS:     312087  HIT %:    93.0113  MISS %:    6.98871   MPKI: 1.56044
L2C LOAD TRANSLATION ACCESS:    2962604  HIT:    1808565  MISS:    1154039  HIT %:    61.0465  MISS %:    38.9535   MPKI: 5.7702
L2C TRANSLATION FROM L1D PREFETCHER ACCESS:     134258  HIT:     128200  MISS:       6058  HIT %:    95.4878  MISS %:    4.51221   MPKI: 0.03029
L2C PREFETCH  REQUESTED:          0  ISSUED:          0  USEFUL:     192908  USELESS:    1150526
L2C USEFUL LOAD PREFETCHES:     192908 PREFETCH ISSUED TO LOWER LEVEL:    1342945  ACCURACY: 14.3645
L2C TIMELY PREFETCHES:     192908 LATE PREFETCHES: 5520 DROPPED PREFETCHES: 0
L2C PREFETCHES SAME FILL-ORIGIN LEVEL: 1339744 DIFFERENT FILL-ORIGIN LEVEL: 0
L2C AVERAGE MISS LATENCY: 350.046 cycles
L2C RQ	ACCESS:   23118000	FORWARD:          0	MERGED:          0	TO_CACHE:   23117640
L2C WQ	ACCESS:    4521963	FORWARD:        423	MERGED:          0	TO_CACHE:    4521963
L2C PQ	ACCESS:    4025764	FORWARD:          0	MERGED:       6393	TO_CACHE:    4019308

L2C Instructions Evicting Data 0
L2C Translations Evicting Data 1061212
L2C Data Evicting Data 14498578
L2C Instructions Evicting Instructions 0
L2C Translations Evicting Instructions 0
L2C Data Evicting Instructions 0
L2C Instructions Evicting Translations 0
L2C Translations Evicting Translations 119690
L2C Data Evicting Translations 1031162
L2C Dense regions hint from L2: 0
PSCL5 TOTAL     ACCESS:    2262030  HIT:    2262030  MISS:          0  HIT %:        100  MISS %:          0   MPKI: 0
PSCL5 LOAD TRANSLATION ACCESS:    2184780  HIT:    2184780  MISS:          0  HIT %:        100  MISS %:          0   MPKI: 0
PSCL5 TRANSLATION FROM L1D PREFETCHER ACCESS:      77250  HIT:      77250  MISS:          0  HIT %:        100  MISS %:          0   MPKI: 0
PSCL5 PREFETCH  REQUESTED:          0  ISSUED:          0  USEFUL:          0  USELESS:          0
PSCL5 USEFUL LOAD PREFETCHES:          0 PREFETCH ISSUED TO LOWER LEVEL:          0  ACCURACY: -nan
PSCL5 TIMELY PREFETCHES:          0 LATE PREFETCHES: 0 DROPPED PREFETCHES: 0
PSCL5 PREFETCHES SAME FILL-ORIGIN LEVEL: 0 DIFFERENT FILL-ORIGIN LEVEL: 0

PSCL4 TOTAL     ACCESS:    2262030  HIT:    2262030  MISS:          0  HIT %:        100  MISS %:          0   MPKI: 0
PSCL4 LOAD TRANSLATION ACCESS:    2184780  HIT:    2184780  MISS:          0  HIT %:        100  MISS %:          0   MPKI: 0
PSCL4 TRANSLATION FROM L1D PREFETCHER ACCESS:      77250  HIT:      77250  MISS:          0  HIT %:        100  MISS %:          0   MPKI: 0
PSCL4 PREFETCH  REQUESTED:          0  ISSUED:          0  USEFUL:          0  USELESS:          0
PSCL4 USEFUL LOAD PREFETCHES:          0 PREFETCH ISSUED TO LOWER LEVEL:          0  ACCURACY: -nan
PSCL4 TIMELY PREFETCHES:          0 LATE PREFETCHES: 0 DROPPED PREFETCHES: 0
PSCL4 PREFETCHES SAME FILL-ORIGIN LEVEL: 0 DIFFERENT FILL-ORIGIN LEVEL: 0

PSCL3 TOTAL     ACCESS:    2262030  HIT:    2262030  MISS:          0  HIT %:        100  MISS %:          0   MPKI: 0
PSCL3 LOAD TRANSLATION ACCESS:    2184780  HIT:    2184780  MISS:          0  HIT %:        100  MISS %:          0   MPKI: 0
PSCL3 TRANSLATION FROM L1D PREFETCHER ACCESS:      77250  HIT:      77250  MISS:          0  HIT %:        100  MISS %:          0   MPKI: 0
PSCL3 PREFETCH  REQUESTED:          0  ISSUED:          0  USEFUL:          0  USELESS:          0
PSCL3 USEFUL LOAD PREFETCHES:          0 PREFETCH ISSUED TO LOWER LEVEL:          0  ACCURACY: -nan
PSCL3 TIMELY PREFETCHES:          0 LATE PREFETCHES: 0 DROPPED PREFETCHES: 0
PSCL3 PREFETCHES SAME FILL-ORIGIN LEVEL: 0 DIFFERENT FILL-ORIGIN LEVEL: 0

PSCL2 TOTAL     ACCESS:    2206283  HIT:    1427198  MISS:     779085  HIT %:    64.6879  MISS %:    35.3121   MPKI: 3.89542
PSCL2 LOAD TRANSLATION ACCESS:    2186041  HIT:    1406956  MISS:     779085  HIT %:    64.3609  MISS %:    35.6391   MPKI: 3.89542
PSCL2 TRANSLATION FROM L1D PREFETCHER ACCESS:      20242  HIT:      20242  MISS:          0  HIT %:        100  MISS %:          0   MPKI: 0
PSCL2 PREFETCH  REQUESTED:          0  ISSUED:          0  USEFUL:          0  USELESS:          0
PSCL2 USEFUL LOAD PREFETCHES:          0 PREFETCH ISSUED TO LOWER LEVEL:          0  ACCURACY: -nan
PSCL2 TIMELY PREFETCHES:          0 LATE PREFETCHES: 0 DROPPED PREFETCHES: 0
PSCL2 PREFETCHES SAME FILL-ORIGIN LEVEL: 0 DIFFERENT FILL-ORIGIN LEVEL: 0

LLC TOTAL     ACCESS:   19666365  HIT:    6922567  MISS:   12743798  HIT %:       35.2  MISS %:       64.8   MPKI: 63.719
LLC LOAD      ACCESS:   13682200  HIT:    2848208  MISS:   10833992  HIT %:    20.8169  MISS %:    79.1831   MPKI: 54.17
LLC RFO       ACCESS:     305539  HIT:      87526  MISS:     218013  HIT %:    28.6464  MISS %:    71.3536   MPKI: 1.09007
LLC PREFETCH  ACCESS:    1331091  HIT:     548128  MISS:     782963  HIT %:    41.1789  MISS %:    58.8211   MPKI: 3.91481
LLC WRITEBACK ACCESS:    3187438  HIT:    3029768  MISS:     157670  HIT %:    95.0534  MISS %:    4.94661   MPKI: 0.78835
LLC LOAD TRANSLATION ACCESS:    1154039  HIT:     404459  MISS:     749580  HIT %:    35.0473  MISS %:    64.9527   MPKI: 3.7479
LLC TRANSLATION FROM L1D PREFETCHER ACCESS:       6058  HIT:       4478  MISS:       1580  HIT %:    73.9188  MISS %:    26.0812   MPKI: 0.0079
LLC PREFETCH  REQUESTED:          0  ISSUED:          0  USEFUL:     523103  USELESS:    2639570
LLC USEFUL LOAD PREFETCHES:     523103 PREFETCH ISSUED TO LOWER LEVEL:    3157060  ACCURACY: 16.5693
LLC TIMELY PREFETCHES:     523103 LATE PREFETCHES: 0 DROPPED PREFETCHES: 0
LLC PREFETCHES SAME FILL-ORIGIN LEVEL: 0 DIFFERENT FILL-ORIGIN LEVEL: 0
LLC AVERAGE MISS LATENCY: 1687.07 cycles
LLC RQ	ACCESS:   61257471	FORWARD:          0	MERGED:          0	TO_CACHE:   61257452
LLC WQ	ACCESS:   12875328	FORWARD:         24	MERGED:          0	TO_CACHE:   12875328
LLC PQ	ACCESS:    5352143	FORWARD:          0	MERGED:          0	TO_CACHE:    5352138

LLC Dense regions hint to LLC: 0

RAW hits: 2202417
Loads Generated: 65584951
Loads sent to L1D: 63382533
Stores Generated: 10775322
Stores sent to L1D: 10775323
Major fault: 0 Minor fault: 80660
Allocated PAGES: 321946

CPU 2 cumulative IPC: 0.0774954 instructions: 200000001 cycles: 2580796965
ITLB TOTAL     ACCESS:   36815408  HIT:   36815408  MISS:          0  HIT %:        100  MISS %:          0   MPKI: 0
ITLB LOAD TRANSLATION ACCESS:   36815408  HIT:   36815408  MISS:          0  HIT %:        100  MISS %:          0   MPKI: 0
ITLB PREFETCH  REQUESTED:          0  ISSUED:          0  USEFUL:          0  USELESS:          0
ITLB USEFUL LOAD PREFETCHES:          0 PREFETCH ISSUED TO LOWER LEVEL:          0  ACCURACY: -nan
ITLB TIMELY PREFETCHES:          0 LATE PREFETCHES: 0 DROPPED PREFETCHES: 0
ITLB PREFETCHES SAME FILL-ORIGIN LEVEL: 0 DIFFERENT FILL-ORIGIN LEVEL: 0
ITLB AVERAGE MISS LATENCY: -nan cycles
ITLB RQ	ACCESS:   40098060	FORWARD:          0	MERGED:    2833379	TO_CACHE:   37264681

DTLB TOTAL     ACCESS:   43168814  HIT:   27482319  MISS:   15686495  HIT %:    63.6624  MISS %:    36.3376   MPKI: 78.4325
DTLB LOAD TRANSLATION ACCESS:   43168814  HIT:   27482319  MISS:   15686495  HIT %:    63.6624  MISS %:    36.3376   MPKI: 78.4325
DTLB PREFETCH  REQUESTED:          0  ISSUED:          0  USEFUL:          0  USELESS:          0
DTLB USEFUL LOAD PREFETCHES:          0 PREFETCH ISSUED TO LOWER LEVEL:          0  ACCURACY: -nan
DTLB TIMELY PREFETCHES:          0 LATE PREFETCHES: 0 DROPPED PREFETCHES: 0
DTLB PREFETCHES SAME FILL-ORIGIN LEVEL: 0 DIFFERENT FILL-ORIGIN LEVEL: 0
DTLB AVERAGE MISS LATENCY: 37.1544 cycles
DTLB RQ	ACCESS:   51584988	FORWARD:          0	MERGED:    7798040	TO_CACHE:   43786948

STLB TOTAL     ACCESS:   19646933  HIT:   17445887  MISS:    2201046  HIT %:     88.797  MISS %:     11.203   MPKI: 11.0052
STLB LOAD TRANSLATION ACCESS:   15686495  HIT:   13501754  MISS:    2184741  HIT %:    86.0725  MISS %:    13.9275   MPKI: 10.9237
STLB TRANSLATION FROM L1D PREFETCHER ACCESS:    3960438  HIT:    3944133  MISS:      16305  HIT %:    99.5883  MISS %:   0.411697   MPKI: 0.081525
STLB PREFETCH  REQUESTED:          0  ISSUED:          0  USEFUL:      11285  USELESS:       5236
STLB USEFUL LOAD PREFETCHES:      11285 PREFETCH ISSUED TO LOWER LEVEL:          0  ACCURACY: inf
STLB TIMELY PREFETCHES:      11285 LATE PREFETCHES: 90 DROPPED PREFETCHES: 61630
STLB PREFETCHES SAME FILL-ORIGIN LEVEL: 0 DIFFERENT FILL-ORIGIN LEVEL: 0
STLB AVERAGE MISS LATENCY: 200.263 cycles
STLB RQ	ACCESS:   22685284	FORWARD:          0	MERGED:    2725535	TO_CACHE:   19959749

STLB Hit, L1D data hit: 0
STLB Hit, L2C data hit: 0
STLB Hit, LLC data hit: 0
STLB Hit, LLC data miss: 0
STLB STLB hints to L2: 0
L1D TOTAL     ACCESS:   53087529  HIT:   33371168  MISS:   19716361  HIT %:    62.8607  MISS %:    37.1393   MPKI: 98.5818
L1D LOAD      ACCESS:   41041988  HIT:   21926297  MISS:   19115691  HIT %:    53.4241  MISS %:    46.5759   MPKI: 95.5785
L1D RFO       ACCESS:    9422795  HIT:    8826992  MISS:     595803  HIT %:     93.677  MISS %:      6.323   MPKI: 2.97901
L1D PREFETCH  ACCESS:    2622746  HIT:    2617879  MISS:       4867  HIT %:    99.8144  MISS %:   0.185569   MPKI: 0.024335
L1D PREFETCH  REQUESTED:   14389711  ISSUED:   14345745  USEFUL:       1337  USELESS:       3548
L1D USEFUL LOAD PREFETCHES:       1337 PREFETCH ISSUED TO LOWER LEVEL:    4027932  ACCURACY: 0.0331932
L1D TIMELY PREFETCHES:       1337 LATE PREFETCHES: 75 DROPPED PREFETCHES: 85846
L1D PREFETCHES SAME FILL-ORIGIN LEVEL: 4960 DIFFERENT FILL-ORIGIN LEVEL: 4022972
L1D AVERAGE MISS LATENCY: 277.621 cycles
L1D RQ	ACCESS:   64164068	FORWARD:          0	MERGED:   22483243	TO_CACHE:   41675540
L1D WQ	ACCESS:   10915982	FORWARD:       7147	MERGED:    1006534	TO_CACHE:    9909448
L1D PQ	ACCESS:    7545700	FORWARD:          0	MERGED:     743793	TO_CACHE:    6800045

L1D UNIQUE REGIONS ACCESSED: 0
L1D REGIONS CONFLICTS: 0
L1D Cross Page Prefetch Requests: 4749331
L1D Same Page Prefetch Requests: 4642311
L1D ROI Sum of L1D PQ occupancy: 91034912
L1D PREFETCHES PUSHED FROM L2C: 0
L1I TOTAL     ACCESS:   39614796  HIT:   39614796  MISS:          0  HIT %:        100  MISS %:          0   MPKI: 0
L1I LOAD      ACCESS:   39614796  HIT:   39614796  MISS:          0  HIT %:        100  MISS %:          0   MPKI: 0
L1I PREFETCH  REQUESTED:          0  ISSUED:          0  USEFUL:          0  USELESS:          0
L1I USEFUL LOAD PREFETCHES:          0 PREFETCH ISSUED TO LOWER LEVEL:          0  ACCURACY: -nan
L1I TIMELY PREFETCHES:          0 LATE PREFETCHES: 0 DROPPED PREFETCHES: 0
L1I PREFETCHES SAME FILL-ORIGIN LEVEL: 0 DIFFERENT FILL-ORIGIN LEVEL: 0
L1I AVERAGE MISS LATENCY: -nan cycles
L1I RQ	ACCESS:   59934871	FORWARD:          0	MERGED:   19836811	TO_CACHE:   40098060

BTB TOTAL     ACCESS:   46382834  HIT:   46363149  MISS:      19685  HIT %:    99.9576  MISS %:  0.0424403   MPKI: 0.098425
BTB BRANCH_DIRECT_JUMP	ACCESS:    4238581  HIT:    4238575  MISS:          6
BTB BRANCH_INDIRECT	ACCESS:          0  HIT:          0  MISS:          0
BTB BRANCH_CONDITIONAL	ACCESS:   41635204  HIT:   41635182  MISS:         22
BTB BRANCH_DIRECT_CALL	ACCESS:     254526  HIT:     254525  MISS:          1
BTB BRANCH_INDIRECT_CALL	ACCESS:          0  HIT:          0  MISS:          0
BTB BRANCH_RETURN	ACCESS:     254523  HIT:     234867  MISS:      19656
BTB BRANCH_OTHER ACCESS:          0  HIT:          0  MISS:          0

L2C TOTAL     ACCESS:   31212452  HIT:   14388986  MISS:   16823466  HIT %:    46.1001  MISS %:    53.8999   MPKI: 84.1173
L2C LOAD      ACCESS:   19115268  HIT:    5407049  MISS:   13708219  HIT %:    28.2865  MISS %:    71.7135   MPKI: 68.5411
L2C DATA LOAD MPKI: 68.5411
L2C INSTRUCTION LOAD MPKI: 0
L2C RFO       ACCESS:     595797  HIT:     290109  MISS:     305688  HIT %:    48.6926  MISS %:    51.3074   MPKI: 1.52844
L2C PREFETCH  ACCESS:    3937252  HIT:    2617899  MISS:    1319353  HIT %:    66.4905  MISS %:    33.5095   MPKI: 6.59676
L2C DATA PREFETCH MPKI: 6.59676
L2C INSTRUCTION PREFETCH MPKI: 0
L2C WRITEBACK ACCESS:    4467124  HIT:    4155504  MISS:     311620  HIT %:    93.0241  MISS %:    6.97585   MPKI: 1.5581
L2C LOAD TRANSLATION ACCESS:    2962540  HIT:    1789908  MISS:    1172632  HIT %:     60.418  MISS %:     39.582   MPKI: 5.86316
L2C TRANSLATION FROM L1D PREFETCHER ACCESS:     134471  HIT:     128517  MISS:       5954  HIT %:    95.5723  MISS %:    4.42772   MPKI: 0.02977
L2C PREFETCH  REQUESTED:          0  ISSUED:          0  USEFUL:     190234  USELESS:    1143420
L2C USEFUL LOAD PREFETCHES:     190234 PREFETCH ISSUED TO LOWER LEVEL:    1333196  ACCURACY: 14.269
L2C TIMELY PREFETCHES:     190234 LATE PREFETCHES: 5393 DROPPED PREFETCHES: 0
L2C PREFETCHES SAME FILL-ORIGIN LEVEL: 1330165 DIFFERENT FILL-ORIGIN LEVEL: 0
L2C AVERAGE MISS LATENCY: 348 cycles
L2C RQ	ACCESS:   23087129	FORWARD:          0	MERGED:          0	TO_CACHE:   23086773
L2C WQ	ACCESS:    4510678	FORWARD:        412	MERGED:          0	TO_CACHE:    4510678
L2C PQ	ACCESS:    4027779	FORWARD:          0	MERGED:       6350	TO_CACHE:    4021373

L2C Instructions Evicting Data 0
L2C Translations Evicting Data 1069623
L2C Data Evicting Data 14479076
L2C Instructions Evicting Instructions 0
L2C Translations Evicting Instructions 0
L2C Data Evicting Instructions 0
L2C Instructions Evicting Translations 0
L2C Translations Evicting Translations 124277
L2C Data Evicting Translations 1038442
L2C Dense regions hint from L2: 0
PSCL5 TOTAL     ACCESS:    2262107  HIT:    2262107  MISS:          0  HIT %:        100  MISS %:          0   MPKI: 0
PSCL5 LOAD TRANSLATION ACCESS:    2184652  HIT:    2184652  MISS:          0  HIT %:        100  MISS %:          0   MPKI: 0
PSCL5 TRANSLATION FROM L1D PREFETCHER ACCESS:      77455  HIT:      77455  MISS:          0  HIT %:        100  MISS %:          0   MPKI: 0
PSCL5 PREFETCH  REQUESTED:          0  ISSUED:          0  USEFUL:          0  USELESS:          0
PSCL5 USEFUL LOAD PREFETCHES:          0 PREFETCH ISSUED TO LOWER LEVEL:          0  ACCURACY: -nan
PSCL5 TIMELY PREFETCHES:          0 LATE PREFETCHES: 0 DROPPED PREFETCHES: 0
PSCL5 PREFETCHES SAME FILL-ORIGIN LEVEL: 0 DIFFERENT FILL-ORIGIN LEVEL: 0

PSCL4 TOTAL     ACCESS:    2262107  HIT:    2262107  MISS:          0  HIT %:        100  MISS %:          0   MPKI: 0
PSCL4 LOAD TRANSLATION ACCESS:    2184652  HIT:    2184652  MISS:          0  HIT %:        100  MISS %:          0   MPKI: 0
PSCL4 TRANSLATION FROM L1D PREFETCHER ACCESS:      77455  HIT:      77455  MISS:          0  HIT %:        100  MISS %:          0   MPKI: 0
PSCL4 PREFETCH  REQUESTED:          0  ISSUED:          0  USEFUL:          0  USELESS:          0
PSCL4 USEFUL LOAD PREFETCHES:          0 PREFETCH ISSUED TO LOWER LEVEL:          0  ACCURACY: -nan
PSCL4 TIMELY PREFETCHES:          0 LATE PREFETCHES: 0 DROPPED PREFETCHES: 0
PSCL4 PREFETCHES SAME FILL-ORIGIN LEVEL: 0 DIFFERENT FILL-ORIGIN LEVEL: 0

PSCL3 TOTAL     ACCESS:    2262107  HIT:    2262107  MISS:          0  HIT %:        100  MISS %:          0   MPKI: 0
PSCL3 LOAD TRANSLATION ACCESS:    2184652  HIT:    2184652  MISS:          0  HIT %:        100  MISS %:          0   MPKI: 0
PSCL3 TRANSLATION FROM L1D PREFETCHER ACCESS:      77455  HIT:      77455  MISS:          0  HIT %:        100  MISS %:          0   MPKI: 0
PSCL3 PREFETCH  REQUESTED:          0  ISSUED:          0  USEFUL:          0  USELESS:          0
PSCL3 USEFUL LOAD PREFETCHES:          0 PREFETCH ISSUED TO LOWER LEVEL:          0  ACCURACY: -nan
PSCL3 TIMELY PREFETCHES:          0 LATE PREFETCHES: 0 DROPPED PREFETCHES: 0
PSCL3 PREFETCHES SAME FILL-ORIGIN LEVEL: 0 DIFFERENT FILL-ORIGIN LEVEL: 0

PSCL2 TOTAL     ACCESS:    2206365  HIT:    1427203  MISS:     779162  HIT %:    64.6857  MISS %:    35.3143   MPKI: 3.89581
PSCL2 LOAD TRANSLATION ACCESS:    2185926  HIT:    1406764  MISS:     779162  HIT %:    64.3555  MISS %:    35.6445   MPKI: 3.89581
PSCL2 TRANSLATION FROM L1D PREFETCHER ACCESS:      20439  HIT:      20439  MISS:          0  HIT %:        100  MISS %:          0   MPKI: 0
PSCL2 PREFETCH  REQUESTED:          0  ISSUED:          0  USEFUL:          0  USELESS:          0
PSCL2 USEFUL LOAD PREFETCHES:          0 PREFETCH ISSUED TO LOWER LEVEL:          0  ACCURACY: -nan
PSCL2 TIMELY PREFETCHES:          0 LATE PREFETCHES: 0 DROPPED PREFETCHES: 0
PSCL2 PREFETCHES SAME FILL-ORIGIN LEVEL: 0 DIFFERENT FILL-ORIGIN LEVEL: 0

LLC TOTAL     ACCESS:   19702403  HIT:    6954784  MISS:   12747619  HIT %:    35.2992  MISS %:    64.7008   MPKI: 63.7381
LLC LOAD      ACCESS:   13702869  HIT:    2854556  MISS:   10848313  HIT %:    20.8318  MISS %:    79.1682   MPKI: 54.2416
LLC RFO       ACCESS:     305669  HIT:      87497  MISS:     218172  HIT %:    28.6248  MISS %:    71.3752   MPKI: 1.09086
LLC PREFETCH  ACCESS:    1324716  HIT:     547024  MISS:     777692  HIT %:    41.2937  MISS %:    58.7063   MPKI: 3.88846
LLC WRITEBACK ACCESS:    3190563  HIT:    3035092  MISS:     155471  HIT %:    95.1272  MISS %:    4.87284   MPKI: 0.777355
LLC LOAD TRANSLATION ACCESS:    1172632  HIT:     426183  MISS:     746449  HIT %:    36.3441  MISS %:    63.6559   MPKI: 3.73224
LLC TRANSLATION FROM L1D PREFETCHER ACCESS:       5954  HIT:       4432  MISS:       1522  HIT %:    74.4374  MISS %:    25.5626   MPKI: 0.00761
LLC PREFETCH  REQUESTED:          0  ISSUED:          0  USEFUL:     523103  USELESS:    2639570
LLC USEFUL LOAD PREFETCHES:     523103 PREFETCH ISSUED TO LOWER LEVEL:    3157060  ACCURACY: 16.5693
LLC TIMELY PREFETCHES:     523103 LATE PREFETCHES: 0 DROPPED PREFETCHES: 0
LLC PREFETCHES SAME FILL-ORIGIN LEVEL: 0 DIFFERENT FILL-ORIGIN LEVEL: 0
LLC AVERAGE MISS LATENCY: 1686.57 cycles
LLC RQ	ACCESS:   61257471	FORWARD:          0	MERGED:          0	TO_CACHE:   61257452
LLC WQ	ACCESS:   12875328	FORWARD:         24	MERGED:          0	TO_CACHE:   12875328
LLC PQ	ACCESS:    5352143	FORWARD:          0	MERGED:          0	TO_CACHE:    5352138

LLC Dense regions hint to LLC: 0

RAW hits: 2201966
Loads Generated: 65589793
Loads sent to L1D: 63387827
Stores Generated: 10776101
Stores sent to L1D: 10776099
Major fault: 0 Minor fault: 80660
Allocated PAGES: 321946

CPU 3 cumulative IPC: 0.0765475 instructions: 200000003 cycles: 2612757037
ITLB TOTAL     ACCESS:   36815509  HIT:   36815509  MISS:          0  HIT %:        100  MISS %:          0   MPKI: 0
ITLB LOAD TRANSLATION ACCESS:   36815509  HIT:   36815509  MISS:          0  HIT %:        100  MISS %:          0   MPKI: 0
ITLB PREFETCH  REQUESTED:          0  ISSUED:          0  USEFUL:          0  USELESS:          0
ITLB USEFUL LOAD PREFETCHES:          0 PREFETCH ISSUED TO LOWER LEVEL:          0  ACCURACY: -nan
ITLB TIMELY PREFETCHES:          0 LATE PREFETCHES: 0 DROPPED PREFETCHES: 0
ITLB PREFETCHES SAME FILL-ORIGIN LEVEL: 0 DIFFERENT FILL-ORIGIN LEVEL: 0
ITLB AVERAGE MISS LATENCY: -nan cycles
ITLB RQ	ACCESS:   39615512	FORWARD:          0	MERGED:    2800004	TO_CACHE:   36815508

DTLB TOTAL     ACCESS:   43172440  HIT:   27486442  MISS:   15685998  HIT %:    63.6666  MISS %:    36.3334   MPKI: 78.43
DTLB LOAD TRANSLATION ACCESS:   43172440  HIT:   27486442  MISS:   15685998  HIT %:    63.6666  MISS %:    36.3334   MPKI: 78.43
DTLB PREFETCH  REQUESTED:          0  ISSUED:          0  USEFUL:          0  USELESS:          0
DTLB USEFUL LOAD PREFETCHES:          0 PREFETCH ISSUED TO LOWER LEVEL:          0  ACCURACY: -nan
DTLB TIMELY PREFETCHES:          0 LATE PREFETCHES: 0 DROPPED PREFETCHES: 0
DTLB PREFETCHES SAME FILL-ORIGIN LEVEL: 0 DIFFERENT FILL-ORIGIN LEVEL: 0
DTLB AVERAGE MISS LATENCY: 36.6825 cycles
DTLB RQ	ACCESS:   50961085	FORWARD:          0	MERGED:    7709360	TO_CACHE:   43251725

STLB TOTAL     ACCESS:   19650192  HIT:   17449207  MISS:    2200985  HIT %:    88.7992  MISS %:    11.2008   MPKI: 11.0049
STLB LOAD TRANSLATION ACCESS:   15685997  HIT:   13501405  MISS:    2184592  HIT %:     86.073  MISS %:     13.927   MPKI: 10.923
STLB TRANSLATION FROM L1D PREFETCHER ACCESS:    3964195  HIT:    3947802  MISS:      16393  HIT %:    99.5865  MISS %:   0.413527   MPKI: 0.081965
STLB PREFETCH  REQUESTED:          0  ISSUED:          0  USEFUL:      11300  USELESS:       5093
STLB USEFUL LOAD PREFETCHES:      11300 PREFETCH ISSUED TO LOWER LEVEL:          0  ACCURACY: inf
STLB TIMELY PREFETCHES:      11300 LATE PREFETCHES: 120 DROPPED PREFETCHES: 59761
STLB PREFETCHES SAME FILL-ORIGIN LEVEL: 0 DIFFERENT FILL-ORIGIN LEVEL: 0
STLB AVERAGE MISS LATENCY: 197.738 cycles
STLB RQ	ACCESS:   22418099	FORWARD:          0	MERGED:    2697933	TO_CACHE:   19720166

STLB Hit, L1D data hit: 0
STLB Hit, L2C data hit: 0
STLB Hit, LLC data hit: 0
STLB Hit, LLC data miss: 0
STLB STLB hints to L2: 0
L1D TOTAL     ACCESS:   53082200  HIT:   33365563  MISS:   19716637  HIT %:    62.8564  MISS %:    37.1436   MPKI: 98.5832
L1D LOAD      ACCESS:   41044512  HIT:   21928647  MISS:   19115865  HIT %:    53.4265  MISS %:    46.5735   MPKI: 95.5793
L1D RFO       ACCESS:    9423004  HIT:    8827013  MISS:     595991  HIT %:    93.6751  MISS %:    6.32485   MPKI: 2.97995
L1D PREFETCH  ACCESS:    2614684  HIT:    2609903  MISS:       4781  HIT %:    99.8171  MISS %:   0.182852   MPKI: 0.023905
L1D PREFETCH  REQUESTED:   14245430  ISSUED:   14202217  USEFUL:       1298  USELESS:       3483
L1D USEFUL LOAD PREFETCHES:       1298 PREFETCH ISSUED TO LOWER LEVEL:    4009096  ACCURACY: 0.0323764
L1D TIMELY PREFETCHES:       1298 LATE PREFETCHES: 72 DROPPED PREFETCHES: 82560
L1D PREFETCHES SAME FILL-ORIGIN LEVEL: 4853 DIFFERENT FILL-ORIGIN LEVEL: 4004243
L1D AVERAGE MISS LATENCY: 278.45 cycles
L1D RQ	ACCESS:   63391579	FORWARD:          0	MERGED:   22208838	TO_CACHE:   41177518
L1D WQ	ACCESS:   10776784	FORWARD:       7008	MERGED:     993217	TO_CACHE:    9783567
L1D PQ	ACCESS:    7470115	FORWARD:          0	MERGED:     736228	TO_CACHE:    6732102

L1D UNIQUE REGIONS ACCESSED: 0
L1D REGIONS CONFLICTS: 0
L1D Cross Page Prefetch Requests: 4747092
L1D Same Page Prefetch Requests: 4602955
L1D ROI Sum of L1D PQ occupancy: 90257624
L1D PREFETCHES PUSHED FROM L2C: 0
L1I TOTAL     ACCESS:   39615513  HIT:   39615513  MISS:          0  HIT %:        100  MISS %:          0   MPKI: 0
L1I LOAD      ACCESS:   39615513  HIT:   39615513  MISS:          0  HIT %:        100  MISS %:          0   MPKI: 0
L1I PREFETCH  REQUESTED:          0  ISSUED:          0  USEFUL:          0  USELESS:          0
L1I USEFUL LOAD PREFETCHES:          0 PREFETCH ISSUED TO LOWER LEVEL:          0  ACCURACY: -nan
L1I TIMELY PREFETCHES:          0 LATE PREFETCHES: 0 DROPPED PREFETCHES: 0
L1I PREFETCHES SAME FILL-ORIGIN LEVEL: 0 DIFFERENT FILL-ORIGIN LEVEL: 0
L1I AVERAGE MISS LATENCY: -nan cycles
L1I RQ	ACCESS:   59220399	FORWARD:          0	MERGED:   19604887	TO_CACHE:   39615512

BTB TOTAL     ACCESS:   46378132  HIT:   46358384  MISS:      19748  HIT %:    99.9574  MISS %:  0.0425804   MPKI: 0.09874
BTB BRANCH_DIRECT_JUMP	ACCESS:    4238936  HIT:    4238914  MISS:         22
BTB BRANCH_INDIRECT	ACCESS:          0  HIT:          0  MISS:          0
BTB BRANCH_CONDITIONAL	ACCESS:   41630142  HIT:   41630078  MISS:         64
BTB BRANCH_DIRECT_CALL	ACCESS:     254527  HIT:     254521  MISS:          6
BTB BRANCH_INDIRECT_CALL	ACCESS:          0  HIT:          0  MISS:          0
BTB BRANCH_RETURN	ACCESS:     254527  HIT:     234871  MISS:      19656
BTB BRANCH_OTHER ACCESS:          0  HIT:          0  MISS:          0

L2C TOTAL     ACCESS:   31220865  HIT:   14388196  MISS:   16832669  HIT %:    46.0852  MISS %:    53.9148   MPKI: 84.1633
L2C LOAD      ACCESS:   19115435  HIT:    5400857  MISS:   13714578  HIT %:    28.2539  MISS %:    71.7461   MPKI: 68.5729
L2C DATA LOAD MPKI: 68.5729
L2C INSTRUCTION LOAD MPKI: 0
L2C RFO       ACCESS:     595985  HIT:     290396  MISS:     305589  HIT %:    48.7254  MISS %:    51.2746   MPKI: 1.52794
L2C PREFETCH  ACCESS:    3947139  HIT:    2617924  MISS:    1329215  HIT %:    66.3246  MISS %:    33.6754   MPKI: 6.64607
L2C DATA PREFETCH MPKI: 6.64607
L2C INSTRUCTION PREFETCH MPKI: 0
L2C WRITEBACK ACCESS:    4467979  HIT:    4153552  MISS:     314427  HIT %:    92.9627  MISS %:    7.03734   MPKI: 1.57213
L2C LOAD TRANSLATION ACCESS:    2962372  HIT:    1799766  MISS:    1162606  HIT %:    60.7542  MISS %:    39.2458   MPKI: 5.81303
L2C TRANSLATION FROM L1D PREFETCHER ACCESS:     131955  HIT:     125701  MISS:       6254  HIT %:    95.2605  MISS %:    4.73949   MPKI: 0.03127
L2C PREFETCH  REQUESTED:          0  ISSUED:          0  USEFUL:     191997  USELESS:    1143918
L2C USEFUL LOAD PREFETCHES:     191997 PREFETCH ISSUED TO LOWER LEVEL:    1334791  ACCURACY: 14.384
L2C TIMELY PREFETCHES:     191997 LATE PREFETCHES: 5576 DROPPED PREFETCHES: 0
L2C PREFETCHES SAME FILL-ORIGIN LEVEL: 1331776 DIFFERENT FILL-ORIGIN LEVEL: 0
L2C AVERAGE MISS LATENCY: 348.592 cycles
L2C RQ	ACCESS:   22806109	FORWARD:          0	MERGED:          0	TO_CACHE:   22805746
L2C WQ	ACCESS:    4467979	FORWARD:        429	MERGED:          0	TO_CACHE:    4467979
L2C PQ	ACCESS:    4007929	FORWARD:          0	MERGED:       6459	TO_CACHE:    4001404

L2C Instructions Evicting Data 0
L2C Translations Evicting Data 1056182
L2C Data Evicting Data 14321919
L2C Instructions Evicting Instructions 0
L2C Translations Evicting Instructions 0
L2C Data Evicting Instructions 0
L2C Instructions Evicting Translations 0
L2C Translations Evicting Translations 112678
L2C Data Evicting Translations 1027463
L2C Dense regions hint from L2: 0
PSCL5 TOTAL     ACCESS:    2260746  HIT:    2260746  MISS:          0  HIT %:        100  MISS %:          0   MPKI: 0
PSCL5 LOAD TRANSLATION ACCESS:    2184472  HIT:    2184472  MISS:          0  HIT %:        100  MISS %:          0   MPKI: 0
PSCL5 TRANSLATION FROM L1D PREFETCHER ACCESS:      76274  HIT:      76274  MISS:          0  HIT %:        100  MISS %:          0   MPKI: 0
PSCL5 PREFETCH  REQUESTED:          0  ISSUED:          0  USEFUL:          0  USELESS:          0
PSCL5 USEFUL LOAD PREFETCHES:          0 PREFETCH ISSUED TO LOWER LEVEL:          0  ACCURACY: -nan
PSCL5 TIMELY PREFETCHES:          0 LATE PREFETCHES: 0 DROPPED PREFETCHES: 0
PSCL5 PREFETCHES SAME FILL-ORIGIN LEVEL: 0 DIFFERENT FILL-ORIGIN LEVEL: 0

PSCL4 TOTAL     ACCESS:    2260746  HIT:    2260746  MISS:          0  HIT %:        100  MISS %:          0   MPKI: 0
PSCL4 LOAD TRANSLATION ACCESS:    2184472  HIT:    2184472  MISS:          0  HIT %:        100  MISS %:          0   MPKI: 0
PSCL4 TRANSLATION FROM L1D PREFETCHER ACCESS:      76274  HIT:      76274  MISS:          0  HIT %:        100  MISS %:          0   MPKI: 0
PSCL4 PREFETCH  REQUESTED:          0  ISSUED:          0  USEFUL:          0  USELESS:          0
PSCL4 USEFUL LOAD PREFETCHES:          0 PREFETCH ISSUED TO LOWER LEVEL:          0  ACCURACY: -nan
PSCL4 TIMELY PREFETCHES:          0 LATE PREFETCHES: 0 DROPPED PREFETCHES: 0
PSCL4 PREFETCHES SAME FILL-ORIGIN LEVEL: 0 DIFFERENT FILL-ORIGIN LEVEL: 0

PSCL3 TOTAL     ACCESS:    2260746  HIT:    2260746  MISS:          0  HIT %:        100  MISS %:          0   MPKI: 0
PSCL3 LOAD TRANSLATION ACCESS:    2184472  HIT:    2184472  MISS:          0  HIT %:        100  MISS %:          0   MPKI: 0
PSCL3 TRANSLATION FROM L1D PREFETCHER ACCESS:      76274  HIT:      76274  MISS:          0  HIT %:        100  MISS %:          0   MPKI: 0
PSCL3 PREFETCH  REQUESTED:          0  ISSUED:          0  USEFUL:          0  USELESS:          0
PSCL3 USEFUL LOAD PREFETCHES:          0 PREFETCH ISSUED TO LOWER LEVEL:          0  ACCURACY: -nan
PSCL3 TIMELY PREFETCHES:          0 LATE PREFETCHES: 0 DROPPED PREFETCHES: 0
PSCL3 PREFETCHES SAME FILL-ORIGIN LEVEL: 0 DIFFERENT FILL-ORIGIN LEVEL: 0

PSCL2 TOTAL     ACCESS:    2206338  HIT:    1427165  MISS:     779173  HIT %:    64.6848  MISS %:    35.3152   MPKI: 3.89586
PSCL2 LOAD TRANSLATION ACCESS:    2185745  HIT:    1406572  MISS:     779173  HIT %:    64.3521  MISS %:    35.6479   MPKI: 3.89586
PSCL2 TRANSLATION FROM L1D PREFETCHER ACCESS:      20593  HIT:      20593  MISS:          0  HIT %:        100  MISS %:          0   MPKI: 0
PSCL2 PREFETCH  REQUESTED:          0  ISSUED:          0  USEFUL:          0  USELESS:          0
PSCL2 USEFUL LOAD PREFETCHES:          0 PREFETCH ISSUED TO LOWER LEVEL:          0  ACCURACY: -nan
PSCL2 TIMELY PREFETCHES:          0 LATE PREFETCHES: 0 DROPPED PREFETCHES: 0
PSCL2 PREFETCHES SAME FILL-ORIGIN LEVEL: 0 DIFFERENT FILL-ORIGIN LEVEL: 0

LLC TOTAL     ACCESS:   19711140  HIT:    6934975  MISS:   12776165  HIT %:     35.183  MISS %:     64.817   MPKI: 63.8808
LLC LOAD      ACCESS:   13709013  HIT:    2837839  MISS:   10871174  HIT %:    20.7005  MISS %:    79.2995   MPKI: 54.3559
LLC RFO       ACCESS:     305575  HIT:      88582  MISS:     216993  HIT %:    28.9886  MISS %:    71.0114   MPKI: 1.08496
LLC PREFETCH  ACCESS:    1334788  HIT:     549345  MISS:     785443  HIT %:     41.156  MISS %:     58.844   MPKI: 3.92721
LLC WRITEBACK ACCESS:    3192904  HIT:    3036549  MISS:     156355  HIT %:     95.103  MISS %:    4.89695   MPKI: 0.781775
LLC LOAD TRANSLATION ACCESS:    1162606  HIT:     417979  MISS:     744627  HIT %:    35.9519  MISS %:    64.0481   MPKI: 3.72313
LLC TRANSLATION FROM L1D PREFETCHER ACCESS:       6254  HIT:       4681  MISS:       1573  HIT %:    74.8481  MISS %:    25.1519   MPKI: 0.007865
LLC PREFETCH  REQUESTED:          0  ISSUED:          0  USEFUL:     523103  USELESS:    2639570
LLC USEFUL LOAD PREFETCHES:     523103 PREFETCH ISSUED TO LOWER LEVEL:    3157060  ACCURACY: 16.5693
LLC TIMELY PREFETCHES:     523103 LATE PREFETCHES: 0 DROPPED PREFETCHES: 0
LLC PREFETCHES SAME FILL-ORIGIN LEVEL: 0 DIFFERENT FILL-ORIGIN LEVEL: 0
LLC AVERAGE MISS LATENCY: 1682.8 cycles
LLC RQ	ACCESS:   61257471	FORWARD:          0	MERGED:          0	TO_CACHE:   61257452
LLC WQ	ACCESS:   12875328	FORWARD:         24	MERGED:          0	TO_CACHE:   12875328
LLC PQ	ACCESS:    5352143	FORWARD:          0	MERGED:          0	TO_CACHE:    5352138

LLC Dense regions hint to LLC: 0

RAW hits: 2201005
Loads Generated: 65592583
Loads sent to L1D: 63391579
Stores Generated: 10776780
Stores sent to L1D: 10776784
Major fault: 0 Minor fault: 79966
Allocated PAGES: 321946

DRAM Statistics
 CHANNEL 0
 RQ ROW_BUFFER_HIT:     568941  ROW_BUFFER_MISS:   50305948
 DBUS_CONGESTED:          8
 WQ ROW_BUFFER_HIT:     406480  ROW_BUFFER_MISS:   11748352  FULL:          0

 AVG_CONGESTED_CYCLE: 2
 All warmup complete: 5
Channel 0 Bank busy for read cycles: 0
Channel 0 Bank busy for write cycles: 0
Channel 0
Rank 0
0banks busy for read cycles: 920824
0banks busy for write cycles: 11829
1banks busy for read cycles: 144966799
1banks busy for write cycles: 3137755
2banks busy for read cycles: 422501704
2banks busy for write cycles: 10709904
3banks busy for read cycles: 563119328
3banks busy for write cycles: 21898052
4banks busy for read cycles: 490487534
4banks busy for write cycles: 31683035
5banks busy for read cycles: 331835746
5banks busy for write cycles: 38863305
6banks busy for read cycles: 173872407
6banks busy for write cycles: 49316837
7banks busy for read cycles: 63598900
7banks busy for write cycles: 89394891
8banks busy for read cycles: 13189752
8banks busy for write cycles: 163248436

CPU 0 Branch Prediction Accuracy: 95.0599% MPKI: 11.7319 Average ROB Occupancy at Mispredict: 54.5068
Branch types
NOT_BRANCH: 153299544 76.0767%
BRANCH_DIRECT_JUMP: 4260750 2.11445%
BRANCH_INDIRECT: 0 0%
BRANCH_CONDITIONAL: 43433568 21.5544%
BRANCH_DIRECT_CALL: 256210 0.127147%
BRANCH_INDIRECT_CALL: 0 0%
BRANCH_RETURN: 256210 0.127147%
BRANCH_OTHER: 0 0%


CPU 1 Branch Prediction Accuracy: 95.0497% MPKI: 11.8118 Average ROB Occupancy at Mispredict: 54.3375
Branch types
NOT_BRANCH: 154060821 76.0816%
BRANCH_DIRECT_JUMP: 4287735 2.11746%
BRANCH_INDIRECT: 0 0%
BRANCH_CONDITIONAL: 43630282 21.5464%
BRANCH_DIRECT_CALL: 257682 0.127254%
BRANCH_INDIRECT_CALL: 0 0%
BRANCH_RETURN: 257682 0.127254%
BRANCH_OTHER: 0 0%


CPU 2 Branch Prediction Accuracy: 95.0433% MPKI: 11.8442 Average ROB Occupancy at Mispredict: 54.2094
Branch types
NOT_BRANCH: 154097271 76.0876%
BRANCH_DIRECT_JUMP: 4290451 2.11847%
BRANCH_INDIRECT: 0 0%
BRANCH_CONDITIONAL: 43622235 21.5391%
BRANCH_DIRECT_CALL: 258207 0.127493%
BRANCH_INDIRECT_CALL: 0 0%
BRANCH_RETURN: 258207 0.127493%
BRANCH_OTHER: 0 0%


CPU 3 Branch Prediction Accuracy: 95.0331% MPKI: 11.8788 Average ROB Occupancy at Mispredict: 54.0914
Branch types
NOT_BRANCH: 152168056 76.084%
BRANCH_DIRECT_JUMP: 4238936 2.11947%
BRANCH_INDIRECT: 0 0%
BRANCH_CONDITIONAL: 43083610 21.5418%
BRANCH_DIRECT_CALL: 254527 0.127263%
BRANCH_INDIRECT_CALL: 0 0%
BRANCH_RETURN: 254527 0.127263%
BRANCH_OTHER: 0 0%

DRAM PAGES: 1048576
Allocated PAGES: 321946
