
*** ChampSim Multicore Out-of-Order Simulator ***

Warmup Instructions: 50000000
Simulation Instructions: 200000000
Number of CPUs: 4
LLC sets: 8192
LLC ways: 16
Off-chip DRAM Size: 4096 MB Channels: 1 Width: 64-bit Data Rate: 6400 MT/s
CPU 0 runs ./traces/ligra/ligra_BFS-Bitvector.com-lj.ungraph.gcc_6.3.0_O3.drop_23000M.length_250M.champsimtrace.xz
.xz
CPU 1 runs ./traces/ligra/ligra_BFS-Bitvector.com-lj.ungraph.gcc_6.3.0_O3.drop_23000M.length_250M.champsimtrace.xz
.xz
CPU 2 runs ./traces/ligra/ligra_BFS-Bitvector.com-lj.ungraph.gcc_6.3.0_O3.drop_23000M.length_250M.champsimtrace.xz
.xz
CPU 3 runs ./traces/ligra/ligra_BFS-Bitvector.com-lj.ungraph.gcc_6.3.0_O3.drop_23000M.length_250M.champsimtrace.xz
.xz
BTB has LRU replacement policy
ITLB has LRU replacement policy
DTLB has LRU replacement policy
STLB has LRU replacement policy
L1I has LRU replacement policy
History Sets: 8
History Ways: 16
BERTI Size: 16
BERTI Stride Size: 8
L1D has LRU replacement policy
Initialize SRRIP state for L2C
Initialize DRRIP state for LLC
BTB has LRU replacement policy
ITLB has LRU replacement policy
DTLB has LRU replacement policy
STLB has LRU replacement policy
L1I has LRU replacement policy
History Sets: 8
History Ways: 16
BERTI Size: 16
BERTI Stride Size: 8
L1D has LRU replacement policy
Initialize SRRIP state for L2C
Initialize DRRIP state for LLC
BTB has LRU replacement policy
ITLB has LRU replacement policy
DTLB has LRU replacement policy
STLB has LRU replacement policy
L1I has LRU replacement policy
History Sets: 8
History Ways: 16
BERTI Size: 16
BERTI Stride Size: 8
L1D has LRU replacement policy
Initialize SRRIP state for L2C
Initialize DRRIP state for LLC
BTB has LRU replacement policy
ITLB has LRU replacement policy
DTLB has LRU replacement policy
STLB has LRU replacement policy
L1I has LRU replacement policy
History Sets: 8
History Ways: 16
BERTI Size: 16
BERTI Stride Size: 8
L1D has LRU replacement policy
Initialize SRRIP state for L2C
Initialize DRRIP state for LLC
Heartbeat CPU 0 instructions: 10000001 cycles: 2916976 heartbeat IPC: 3.42821 cumulative IPC: 3.42821 (Simulation time: 0 hr 2 min 43 sec) 
Heartbeat CPU 2 instructions: 10000001 cycles: 2917322 heartbeat IPC: 3.4278 cumulative IPC: 3.4278 (Simulation time: 0 hr 2 min 43 sec) 
Heartbeat CPU 1 instructions: 10000001 cycles: 2917582 heartbeat IPC: 3.4275 cumulative IPC: 3.4275 (Simulation time: 0 hr 2 min 43 sec) 
Heartbeat CPU 3 instructions: 10000001 cycles: 2917797 heartbeat IPC: 3.42724 cumulative IPC: 3.42724 (Simulation time: 0 hr 2 min 43 sec) 
Heartbeat CPU 0 instructions: 20000002 cycles: 5835001 heartbeat IPC: 3.42698 cumulative IPC: 3.42759 (Simulation time: 0 hr 5 min 47 sec) 
Heartbeat CPU 2 instructions: 20000002 cycles: 5835614 heartbeat IPC: 3.42666 cumulative IPC: 3.42723 (Simulation time: 0 hr 5 min 47 sec) 
Heartbeat CPU 1 instructions: 20000002 cycles: 5835629 heartbeat IPC: 3.42695 cumulative IPC: 3.42722 (Simulation time: 0 hr 5 min 47 sec) 
Heartbeat CPU 3 instructions: 20000002 cycles: 5835961 heartbeat IPC: 3.42681 cumulative IPC: 3.42703 (Simulation time: 0 hr 5 min 47 sec) 
Heartbeat CPU 0 instructions: 30000002 cycles: 8751394 heartbeat IPC: 3.42889 cumulative IPC: 3.42803 (Simulation time: 0 hr 8 min 42 sec) 
Heartbeat CPU 1 instructions: 30000002 cycles: 8751472 heartbeat IPC: 3.42954 cumulative IPC: 3.42799 (Simulation time: 0 hr 8 min 42 sec) 
Heartbeat CPU 3 instructions: 30000002 cycles: 8752196 heartbeat IPC: 3.42908 cumulative IPC: 3.42771 (Simulation time: 0 hr 8 min 43 sec) 
Heartbeat CPU 2 instructions: 30000002 cycles: 8752318 heartbeat IPC: 3.42853 cumulative IPC: 3.42766 (Simulation time: 0 hr 8 min 43 sec) 
Heartbeat CPU 0 instructions: 40000000 cycles: 11639701 heartbeat IPC: 3.46224 cumulative IPC: 3.43651 (Simulation time: 0 hr 11 min 47 sec) 
Heartbeat CPU 1 instructions: 40000000 cycles: 11640041 heartbeat IPC: 3.46192 cumulative IPC: 3.43641 (Simulation time: 0 hr 11 min 47 sec) 
Heartbeat CPU 3 instructions: 40000000 cycles: 11640946 heartbeat IPC: 3.4617 cumulative IPC: 3.43615 (Simulation time: 0 hr 11 min 47 sec) 
Heartbeat CPU 2 instructions: 40000000 cycles: 11641600 heartbeat IPC: 3.46107 cumulative IPC: 3.43595 (Simulation time: 0 hr 11 min 47 sec) 
Heartbeat CPU 0 instructions: 50000001 cycles: 14534147 heartbeat IPC: 3.45489 cumulative IPC: 3.44017 (Simulation time: 0 hr 14 min 52 sec) 
Heartbeat CPU 1 instructions: 50000001 cycles: 14534425 heartbeat IPC: 3.45497 cumulative IPC: 3.44011 (Simulation time: 0 hr 14 min 52 sec) 
Heartbeat CPU 3 instructions: 50000001 cycles: 14535908 heartbeat IPC: 3.45428 cumulative IPC: 3.43976 (Simulation time: 0 hr 14 min 52 sec) 
Heartbeat CPU 2 instructions: 50000001 cycles: 14536106 heartbeat IPC: 3.45482 cumulative IPC: 3.43971 (Simulation time: 0 hr 14 min 52 sec) 

Warmup complete CPU 0 instructions: 50004754 cycles: 14536106 (Simulation time: 0 hr 14 min 52 sec) 
Warmup complete CPU 1 instructions: 50004114 cycles: 14536106 (Simulation time: 0 hr 14 min 52 sec) 
Warmup complete CPU 2 instructions: 50000001 cycles: 14536106 (Simulation time: 0 hr 14 min 52 sec) 
Warmup complete CPU 3 instructions: 50000551 cycles: 14536105 (Simulation time: 0 hr 14 min 52 sec) 

Heartbeat CPU 0 instructions: 60000001 cycles: 35006774 heartbeat IPC: 0.488457 cumulative IPC: 0.488272 (Simulation time: 0 hr 18 min 23 sec) 
Heartbeat CPU 1 instructions: 60000001 cycles: 35123094 heartbeat IPC: 0.485704 cumulative IPC: 0.485544 (Simulation time: 0 hr 18 min 24 sec) 
Heartbeat CPU 2 instructions: 60000001 cycles: 35234798 heartbeat IPC: 0.483122 cumulative IPC: 0.483122 (Simulation time: 0 hr 18 min 25 sec) 
Heartbeat CPU 3 instructions: 60000001 cycles: 35248098 heartbeat IPC: 0.482807 cumulative IPC: 0.482785 (Simulation time: 0 hr 18 min 25 sec) 
Heartbeat CPU 0 instructions: 70000002 cycles: 56675142 heartbeat IPC: 0.461502 cumulative IPC: 0.474507 (Simulation time: 0 hr 22 min 17 sec) 
Heartbeat CPU 1 instructions: 70000002 cycles: 56909448 heartbeat IPC: 0.459003 cumulative IPC: 0.471898 (Simulation time: 0 hr 22 min 19 sec) 
Heartbeat CPU 2 instructions: 70000002 cycles: 57065649 heartbeat IPC: 0.458067 cumulative IPC: 0.470261 (Simulation time: 0 hr 22 min 20 sec) 
Heartbeat CPU 3 instructions: 70000002 cycles: 57206732 heartbeat IPC: 0.455402 cumulative IPC: 0.468694 (Simulation time: 0 hr 22 min 21 sec) 
Heartbeat CPU 0 instructions: 80000003 cycles: 77118881 heartbeat IPC: 0.489147 cumulative IPC: 0.479289 (Simulation time: 0 hr 25 min 45 sec) 
Heartbeat CPU 1 instructions: 80000003 cycles: 77547323 heartbeat IPC: 0.484546 cumulative IPC: 0.47604 (Simulation time: 0 hr 25 min 56 sec) 
Heartbeat CPU 2 instructions: 80000003 cycles: 77756007 heartbeat IPC: 0.483317 cumulative IPC: 0.474534 (Simulation time: 0 hr 26 min 0 sec) 
Heartbeat CPU 3 instructions: 80000003 cycles: 77890530 heartbeat IPC: 0.48347 cumulative IPC: 0.473518 (Simulation time: 0 hr 26 min 2 sec) 
Heartbeat CPU 0 instructions: 90000000 cycles: 99657204 heartbeat IPC: 0.443689 cumulative IPC: 0.469863 (Simulation time: 0 hr 29 min 42 sec) 
Heartbeat CPU 1 instructions: 90000000 cycles: 100382222 heartbeat IPC: 0.437926 cumulative IPC: 0.465902 (Simulation time: 0 hr 29 min 50 sec) 
Heartbeat CPU 2 instructions: 90000000 cycles: 100569142 heartbeat IPC: 0.438344 cumulative IPC: 0.464938 (Simulation time: 0 hr 29 min 52 sec) 
Heartbeat CPU 3 instructions: 90000000 cycles: 100794328 heartbeat IPC: 0.436609 cumulative IPC: 0.463718 (Simulation time: 0 hr 29 min 54 sec) 
Heartbeat CPU 0 instructions: 100000003 cycles: 123679227 heartbeat IPC: 0.416285 cumulative IPC: 0.458071 (Simulation time: 0 hr 33 min 40 sec) 
Heartbeat CPU 1 instructions: 100000003 cycles: 124652288 heartbeat IPC: 0.41203 cumulative IPC: 0.454029 (Simulation time: 0 hr 33 min 51 sec) 
Heartbeat CPU 2 instructions: 100000003 cycles: 124855192 heartbeat IPC: 0.411759 cumulative IPC: 0.453231 (Simulation time: 0 hr 33 min 53 sec) 
Heartbeat CPU 3 instructions: 100000003 cycles: 125106834 heartbeat IPC: 0.411311 cumulative IPC: 0.452194 (Simulation time: 0 hr 33 min 55 sec) 
Heartbeat CPU 0 instructions: 110000000 cycles: 148907475 heartbeat IPC: 0.396381 cumulative IPC: 0.446488 (Simulation time: 0 hr 37 min 34 sec) 
Heartbeat CPU 1 instructions: 110000000 cycles: 150013730 heartbeat IPC: 0.394299 cumulative IPC: 0.442847 (Simulation time: 0 hr 37 min 44 sec) 
Heartbeat CPU 2 instructions: 110000000 cycles: 150232888 heartbeat IPC: 0.394047 cumulative IPC: 0.442162 (Simulation time: 0 hr 37 min 47 sec) 
Heartbeat CPU 3 instructions: 110000000 cycles: 150591840 heartbeat IPC: 0.392387 cumulative IPC: 0.440992 (Simulation time: 0 hr 37 min 51 sec) 
Heartbeat CPU 0 instructions: 120000003 cycles: 176078841 heartbeat IPC: 0.368035 cumulative IPC: 0.433292 (Simulation time: 0 hr 41 min 51 sec) 
Heartbeat CPU 1 instructions: 120000003 cycles: 177313863 heartbeat IPC: 0.366299 cumulative IPC: 0.430009 (Simulation time: 0 hr 42 min 2 sec) 
Heartbeat CPU 2 instructions: 120000003 cycles: 177493059 heartbeat IPC: 0.366836 cumulative IPC: 0.429561 (Simulation time: 0 hr 42 min 4 sec) 
Heartbeat CPU 3 instructions: 120000003 cycles: 178019489 heartbeat IPC: 0.364596 cumulative IPC: 0.428175 (Simulation time: 0 hr 42 min 8 sec) 
Heartbeat CPU 0 instructions: 130000000 cycles: 203449203 heartbeat IPC: 0.365359 cumulative IPC: 0.42345 (Simulation time: 0 hr 45 min 48 sec) 
Heartbeat CPU 1 instructions: 130000000 cycles: 204768833 heartbeat IPC: 0.364233 cumulative IPC: 0.420516 (Simulation time: 0 hr 46 min 3 sec) 
Heartbeat CPU 2 instructions: 130000000 cycles: 205023101 heartbeat IPC: 0.363239 cumulative IPC: 0.419976 (Simulation time: 0 hr 46 min 5 sec) 
Heartbeat CPU 3 instructions: 130000000 cycles: 205583744 heartbeat IPC: 0.362789 cumulative IPC: 0.418741 (Simulation time: 0 hr 46 min 10 sec) 
Heartbeat CPU 0 instructions: 140000002 cycles: 232300505 heartbeat IPC: 0.346605 cumulative IPC: 0.413269 (Simulation time: 0 hr 49 min 49 sec) 
Heartbeat CPU 1 instructions: 140000002 cycles: 233694254 heartbeat IPC: 0.345717 cumulative IPC: 0.410644 (Simulation time: 0 hr 50 min 1 sec) 
Heartbeat CPU 2 instructions: 140000002 cycles: 234058637 heartbeat IPC: 0.344406 cumulative IPC: 0.409981 (Simulation time: 0 hr 50 min 4 sec) 
Heartbeat CPU 3 instructions: 140000002 cycles: 234578355 heartbeat IPC: 0.344892 cumulative IPC: 0.40901 (Simulation time: 0 hr 50 min 8 sec) 
Heartbeat CPU 0 instructions: 150000001 cycles: 261600890 heartbeat IPC: 0.341292 cumulative IPC: 0.404733 (Simulation time: 0 hr 53 min 41 sec) 
Heartbeat CPU 1 instructions: 150000001 cycles: 262965071 heartbeat IPC: 0.341637 cumulative IPC: 0.402513 (Simulation time: 0 hr 53 min 52 sec) 
Heartbeat CPU 2 instructions: 150000001 cycles: 263440642 heartbeat IPC: 0.340344 cumulative IPC: 0.40176 (Simulation time: 0 hr 53 min 54 sec) 
Heartbeat CPU 3 instructions: 150000001 cycles: 263866136 heartbeat IPC: 0.341439 cumulative IPC: 0.401073 (Simulation time: 0 hr 53 min 57 sec) 
Heartbeat CPU 0 instructions: 160000001 cycles: 291129339 heartbeat IPC: 0.338656 cumulative IPC: 0.397679 (Simulation time: 0 hr 57 min 39 sec) 
Heartbeat CPU 1 instructions: 160000001 cycles: 292487252 heartbeat IPC: 0.338728 cumulative IPC: 0.395738 (Simulation time: 0 hr 57 min 51 sec) 
Heartbeat CPU 2 instructions: 160000001 cycles: 293048395 heartbeat IPC: 0.337749 cumulative IPC: 0.394956 (Simulation time: 0 hr 57 min 56 sec) 
Heartbeat CPU 3 instructions: 160000001 cycles: 293471497 heartbeat IPC: 0.337777 cumulative IPC: 0.394355 (Simulation time: 0 hr 57 min 58 sec) 
Heartbeat CPU 0 instructions: 170000002 cycles: 319551132 heartbeat IPC: 0.351843 cumulative IPC: 0.393408 (Simulation time: 1 hr 1 min 46 sec) 
Heartbeat CPU 1 instructions: 170000002 cycles: 321062809 heartbeat IPC: 0.349949 cumulative IPC: 0.39147 (Simulation time: 1 hr 1 min 59 sec) 
Heartbeat CPU 2 instructions: 170000002 cycles: 321557325 heartbeat IPC: 0.350767 cumulative IPC: 0.390852 (Simulation time: 1 hr 2 min 3 sec) 
Heartbeat CPU 3 instructions: 170000003 cycles: 322128548 heartbeat IPC: 0.348954 cumulative IPC: 0.390125 (Simulation time: 1 hr 2 min 8 sec) 
Heartbeat CPU 0 instructions: 180000000 cycles: 346049762 heartbeat IPC: 0.377378 cumulative IPC: 0.392126 (Simulation time: 1 hr 5 min 37 sec) 
Heartbeat CPU 1 instructions: 180000000 cycles: 347813529 heartbeat IPC: 0.373822 cumulative IPC: 0.390053 (Simulation time: 1 hr 5 min 56 sec) 
Heartbeat CPU 2 instructions: 180000000 cycles: 348432305 heartbeat IPC: 0.372093 cumulative IPC: 0.389343 (Simulation time: 1 hr 6 min 3 sec) 
Heartbeat CPU 3 instructions: 180000000 cycles: 349062146 heartbeat IPC: 0.371283 cumulative IPC: 0.388608 (Simulation time: 1 hr 6 min 9 sec) 
Heartbeat CPU 0 instructions: 190000001 cycles: 358535866 heartbeat IPC: 0.80089 cumulative IPC: 0.406963 (Simulation time: 1 hr 8 min 30 sec) 
Heartbeat CPU 1 instructions: 190000001 cycles: 360219437 heartbeat IPC: 0.806068 cumulative IPC: 0.404983 (Simulation time: 1 hr 9 min 1 sec) 
Heartbeat CPU 2 instructions: 190000001 cycles: 360770628 heartbeat IPC: 0.810483 cumulative IPC: 0.40435 (Simulation time: 1 hr 9 min 9 sec) 
Heartbeat CPU 3 instructions: 190000001 cycles: 361314259 heartbeat IPC: 0.816186 cumulative IPC: 0.403715 (Simulation time: 1 hr 9 min 17 sec) 
Heartbeat CPU 0 instructions: 200000003 cycles: 368542193 heartbeat IPC: 0.999368 cumulative IPC: 0.423708 (Simulation time: 1 hr 11 min 17 sec) 
Heartbeat CPU 1 instructions: 200000003 cycles: 370225759 heartbeat IPC: 0.999368 cumulative IPC: 0.421704 (Simulation time: 1 hr 11 min 41 sec) 
Heartbeat CPU 2 instructions: 200000003 cycles: 370777117 heartbeat IPC: 0.999352 cumulative IPC: 0.421063 (Simulation time: 1 hr 11 min 49 sec) 
Heartbeat CPU 3 instructions: 200000003 cycles: 371320660 heartbeat IPC: 0.999361 cumulative IPC: 0.42042 (Simulation time: 1 hr 11 min 57 sec) 
Heartbeat CPU 0 instructions: 210000003 cycles: 377206207 heartbeat IPC: 1.1542 cumulative IPC: 0.441159 (Simulation time: 1 hr 13 min 27 sec) 
Heartbeat CPU 1 instructions: 210000003 cycles: 378890101 heartbeat IPC: 1.15416 cumulative IPC: 0.439122 (Simulation time: 1 hr 13 min 54 sec) 
Heartbeat CPU 2 instructions: 210000003 cycles: 379440750 heartbeat IPC: 1.15425 cumulative IPC: 0.438471 (Simulation time: 1 hr 14 min 5 sec) 
Heartbeat CPU 3 instructions: 210000003 cycles: 379984203 heartbeat IPC: 1.15426 cumulative IPC: 0.437817 (Simulation time: 1 hr 14 min 15 sec) 
Heartbeat CPU 0 instructions: 220000000 cycles: 385544480 heartbeat IPC: 1.19929 cumulative IPC: 0.458198 (Simulation time: 1 hr 15 min 43 sec) 
Heartbeat CPU 1 instructions: 220000000 cycles: 387228374 heartbeat IPC: 1.19929 cumulative IPC: 0.456129 (Simulation time: 1 hr 16 min 12 sec) 
Heartbeat CPU 2 instructions: 220000000 cycles: 387779023 heartbeat IPC: 1.19929 cumulative IPC: 0.455467 (Simulation time: 1 hr 16 min 23 sec) 
Heartbeat CPU 3 instructions: 220000000 cycles: 388322476 heartbeat IPC: 1.19929 cumulative IPC: 0.454804 (Simulation time: 1 hr 16 min 32 sec) 
Heartbeat CPU 0 instructions: 230000000 cycles: 399792291 heartbeat IPC: 0.701862 cumulative IPC: 0.467209 (Simulation time: 1 hr 18 min 45 sec) 
Heartbeat CPU 1 instructions: 230000000 cycles: 401476591 heartbeat IPC: 0.701842 cumulative IPC: 0.465177 (Simulation time: 1 hr 19 min 4 sec) 
Heartbeat CPU 2 instructions: 230000000 cycles: 402026478 heartbeat IPC: 0.70188 cumulative IPC: 0.464528 (Simulation time: 1 hr 19 min 10 sec) 
Heartbeat CPU 3 instructions: 230000000 cycles: 402569277 heartbeat IPC: 0.701912 cumulative IPC: 0.463876 (Simulation time: 1 hr 19 min 15 sec) 
Heartbeat CPU 0 instructions: 240000001 cycles: 412449800 heartbeat IPC: 0.790045 cumulative IPC: 0.477479 (Simulation time: 1 hr 21 min 33 sec) 
Heartbeat CPU 1 instructions: 240000001 cycles: 414134109 heartbeat IPC: 0.790044 cumulative IPC: 0.475468 (Simulation time: 1 hr 21 min 57 sec) 
Heartbeat CPU 2 instructions: 240000001 cycles: 414683986 heartbeat IPC: 0.790045 cumulative IPC: 0.474824 (Simulation time: 1 hr 22 min 6 sec) 
Heartbeat CPU 3 instructions: 240000001 cycles: 415226786 heartbeat IPC: 0.790045 cumulative IPC: 0.47418 (Simulation time: 1 hr 22 min 15 sec) 
*** Reached end of trace for Core: 0 Repeating trace: ./traces/ligra/ligra_BFS-Bitvector.com-lj.ungraph.gcc_6.3.0_O3.drop_23000M.length_250M.champsimtrace.xz
Heartbeat CPU 0 instructions: 250000002 cycles: 430020727 heartbeat IPC: 0.569122 cumulative IPC: 0.481354 (Simulation time: 1 hr 25 min 30 sec) 
Finished CPU 0 instructions: 200000000 cycles: 415624937 cumulative IPC: 0.481203 (Simulation time: 1 hr 25 min 31 sec) 
*** Reached end of trace for Core: 1 Repeating trace: ./traces/ligra/ligra_BFS-Bitvector.com-lj.ungraph.gcc_6.3.0_O3.drop_23000M.length_250M.champsimtrace.xz
Heartbeat CPU 1 instructions: 250000002 cycles: 433216638 heartbeat IPC: 0.52404 cumulative IPC: 0.477681 (Simulation time: 1 hr 25 min 54 sec) 
Finished CPU 1 instructions: 200000000 cycles: 418770600 cumulative IPC: 0.477588 (Simulation time: 1 hr 25 min 55 sec) 
*** Reached end of trace for Core: 2 Repeating trace: ./traces/ligra/ligra_BFS-Bitvector.com-lj.ungraph.gcc_6.3.0_O3.drop_23000M.length_250M.champsimtrace.xz
Heartbeat CPU 2 instructions: 250000002 cycles: 433931360 heartbeat IPC: 0.519551 cumulative IPC: 0.476877 (Simulation time: 1 hr 26 min 0 sec) 
Finished CPU 2 instructions: 200000001 cycles: 419395254 cumulative IPC: 0.476877 (Simulation time: 1 hr 26 min 0 sec) 
*** Reached end of trace for Core: 3 Repeating trace: ./traces/ligra/ligra_BFS-Bitvector.com-lj.ungraph.gcc_6.3.0_O3.drop_23000M.length_250M.champsimtrace.xz
Heartbeat CPU 3 instructions: 250000000 cycles: 434317248 heartbeat IPC: 0.523822 cumulative IPC: 0.476437 (Simulation time: 1 hr 26 min 2 sec) 
Finished CPU 3 instructions: 200000003 cycles: 419793343 cumulative IPC: 0.476425 (Simulation time: 1 hr 26 min 2 sec) 

ChampSim completed all CPUs

Total Simulation Statistics (not including warmup)

CPU 0 cumulative IPC: 0.477341 instructions: 200384733 cycles: 419793342
ITLB TOTAL     ACCESS:   41106627  HIT:   41106617  MISS:         10  HIT %:        100  MISS %: 2.4327e-05   MPKI: 4.9904e-05
ITLB LOAD      ACCESS:          0  HIT:          0  MISS:          0  HIT %:       -nan  MISS %:       -nan   MPKI: 0
ITLB RFO       ACCESS:          0  HIT:          0  MISS:          0  HIT %:       -nan  MISS %:       -nan   MPKI: 0
ITLB PREFETCH  ACCESS:          0  HIT:          0  MISS:          0  HIT %:       -nan  MISS %:       -nan   MPKI: 0
ITLB WRITEBACK ACCESS:          0  HIT:          0  MISS:          0  HIT %:       -nan  MISS %:       -nan   MPKI: 0
DTLB TOTAL     ACCESS:   38579338  HIT:   36582928  MISS:    1996410  HIT %:    94.8252  MISS %:    5.17482   MPKI: 9.96288
DTLB LOAD      ACCESS:          0  HIT:          0  MISS:          0  HIT %:       -nan  MISS %:       -nan   MPKI: 0
DTLB RFO       ACCESS:          0  HIT:          0  MISS:          0  HIT %:       -nan  MISS %:       -nan   MPKI: 0
DTLB PREFETCH  ACCESS:          0  HIT:          0  MISS:          0  HIT %:       -nan  MISS %:       -nan   MPKI: 0
DTLB WRITEBACK ACCESS:          0  HIT:          0  MISS:          0  HIT %:       -nan  MISS %:       -nan   MPKI: 0
STLB TOTAL     ACCESS:   14624935  HIT:   14599590  MISS:      25345  HIT %:    99.8267  MISS %:     0.1733   MPKI: 0.126482
STLB LOAD      ACCESS:          0  HIT:          0  MISS:          0  HIT %:       -nan  MISS %:       -nan   MPKI: 0
STLB RFO       ACCESS:          0  HIT:          0  MISS:          0  HIT %:       -nan  MISS %:       -nan   MPKI: 0
STLB PREFETCH  ACCESS:          0  HIT:          0  MISS:          0  HIT %:       -nan  MISS %:       -nan   MPKI: 0
STLB WRITEBACK ACCESS:          0  HIT:          0  MISS:          0  HIT %:       -nan  MISS %:       -nan   MPKI: 0
L1D TOTAL     ACCESS:  101471722  HIT:   97653298  MISS:    3818424  HIT %:     96.237  MISS %:    3.76304   MPKI: 19.0555
L1D LOAD      ACCESS:   34103034  HIT:   31745668  MISS:    2357366  HIT %:    93.0875  MISS %:    6.91248   MPKI: 11.7642
L1D RFO       ACCESS:    4420808  HIT:    4268128  MISS:     152680  HIT %:    96.5463  MISS %:    3.45367   MPKI: 0.761934
L1D PREFETCH  ACCESS:   62947880  HIT:   61639502  MISS:    1308378  HIT %:    97.9215  MISS %:    2.07851   MPKI: 6.52933
L1D WRITEBACK ACCESS:          0  HIT:          0  MISS:          0  HIT %:       -nan  MISS %:       -nan   MPKI: 0
L1I TOTAL     ACCESS:   48287634  HIT:   48287508  MISS:        126  HIT %:    99.9997  MISS %: 0.000260936   MPKI: 0.00062879
L1I LOAD      ACCESS:   48287634  HIT:   48287508  MISS:        126  HIT %:    99.9997  MISS %: 0.000260936   MPKI: 0.00062879
L1I RFO       ACCESS:          0  HIT:          0  MISS:          0  HIT %:       -nan  MISS %:       -nan   MPKI: 0
L1I PREFETCH  ACCESS:          0  HIT:          0  MISS:          0  HIT %:       -nan  MISS %:       -nan   MPKI: 0
L1I WRITEBACK ACCESS:          0  HIT:          0  MISS:          0  HIT %:       -nan  MISS %:       -nan   MPKI: 0
L2C TOTAL     ACCESS:   16288364  HIT:   12703749  MISS:    3584615  HIT %:    77.9928  MISS %:    22.0072   MPKI: 17.8887
L2C LOAD      ACCESS:    2343931  HIT:     349084  MISS:    1994847  HIT %:    14.8931  MISS %:    85.1069   MPKI: 9.95508
L2C RFO       ACCESS:     152680  HIT:         18  MISS:     152662  HIT %:  0.0117894  MISS %:    99.9882   MPKI: 0.761844
L2C PREFETCH  ACCESS:    7909829  HIT:    6483778  MISS:    1426051  HIT %:    81.9712  MISS %:    18.0288   MPKI: 7.11657
L2C WRITEBACK ACCESS:     156385  HIT:     149151  MISS:       7234  HIT %:    95.3742  MISS %:    4.62576   MPKI: 0.0361006
PSCL5 TOTAL     ACCESS:    5721979  HIT:    5721979  MISS:          0  HIT %:        100  MISS %:          0   MPKI: 0
PSCL5 LOAD      ACCESS:          0  HIT:          0  MISS:          0  HIT %:       -nan  MISS %:       -nan   MPKI: 0
PSCL5 RFO       ACCESS:          0  HIT:          0  MISS:          0  HIT %:       -nan  MISS %:       -nan   MPKI: 0
PSCL5 PREFETCH  ACCESS:          0  HIT:          0  MISS:          0  HIT %:       -nan  MISS %:       -nan   MPKI: 0
PSCL5 WRITEBACK ACCESS:          0  HIT:          0  MISS:          0  HIT %:       -nan  MISS %:       -nan   MPKI: 0
PSCL4 TOTAL     ACCESS:    5721979  HIT:    5721979  MISS:          0  HIT %:        100  MISS %:          0   MPKI: 0
PSCL4 LOAD      ACCESS:          0  HIT:          0  MISS:          0  HIT %:       -nan  MISS %:       -nan   MPKI: 0
PSCL4 RFO       ACCESS:          0  HIT:          0  MISS:          0  HIT %:       -nan  MISS %:       -nan   MPKI: 0
PSCL4 PREFETCH  ACCESS:          0  HIT:          0  MISS:          0  HIT %:       -nan  MISS %:       -nan   MPKI: 0
PSCL4 WRITEBACK ACCESS:          0  HIT:          0  MISS:          0  HIT %:       -nan  MISS %:       -nan   MPKI: 0
PSCL3 TOTAL     ACCESS:    5721979  HIT:    5721979  MISS:          0  HIT %:        100  MISS %:          0   MPKI: 0
PSCL3 LOAD      ACCESS:          0  HIT:          0  MISS:          0  HIT %:       -nan  MISS %:       -nan   MPKI: 0
PSCL3 RFO       ACCESS:          0  HIT:          0  MISS:          0  HIT %:       -nan  MISS %:       -nan   MPKI: 0
PSCL3 PREFETCH  ACCESS:          0  HIT:          0  MISS:          0  HIT %:       -nan  MISS %:       -nan   MPKI: 0
PSCL3 WRITEBACK ACCESS:          0  HIT:          0  MISS:          0  HIT %:       -nan  MISS %:       -nan   MPKI: 0
PSCL2 TOTAL     ACCESS:    5663512  HIT:    5663447  MISS:         65  HIT %:    99.9989  MISS %:  0.0011477   MPKI: 0.000324376
PSCL2 LOAD      ACCESS:          0  HIT:          0  MISS:          0  HIT %:       -nan  MISS %:       -nan   MPKI: 0
PSCL2 RFO       ACCESS:          0  HIT:          0  MISS:          0  HIT %:       -nan  MISS %:       -nan   MPKI: 0
PSCL2 PREFETCH  ACCESS:          0  HIT:          0  MISS:          0  HIT %:       -nan  MISS %:       -nan   MPKI: 0
PSCL2 WRITEBACK ACCESS:          0  HIT:          0  MISS:          0  HIT %:       -nan  MISS %:       -nan   MPKI: 0
LLC TOTAL     ACCESS:    3733005  HIT:    1209479  MISS:    2523526  HIT %:    32.3996  MISS %:    67.6004   MPKI: 12.5934
LLC LOAD      ACCESS:    1979110  HIT:    1040628  MISS:     938482  HIT %:    52.5806  MISS %:    47.4194   MPKI: 4.6834
LLC RFO       ACCESS:     152662  HIT:         93  MISS:     152569  HIT %:  0.0609189  MISS %:    99.9391   MPKI: 0.76138
LLC PREFETCH  ACCESS:    1441788  HIT:      20076  MISS:    1421712  HIT %:    1.39244  MISS %:    98.6076   MPKI: 7.09491
LLC WRITEBACK ACCESS:     155624  HIT:     148228  MISS:       7396  HIT %:    95.2475  MISS %:    4.75248   MPKI: 0.036909

RAW hits: 992829
Loads Generated: 50461788
Loads sent to L1D: 49468959
Stores Generated: 5211942
Stores sent to L1D: 5211943

CPU 1 cumulative IPC: 0.476648 instructions: 200093784 cycles: 419793342
ITLB TOTAL     ACCESS:   41058954  HIT:   41058944  MISS:         10  HIT %:        100  MISS %: 2.43552e-05   MPKI: 4.99766e-05
ITLB LOAD      ACCESS:          0  HIT:          0  MISS:          0  HIT %:       -nan  MISS %:       -nan   MPKI: 0
ITLB RFO       ACCESS:          0  HIT:          0  MISS:          0  HIT %:       -nan  MISS %:       -nan   MPKI: 0
ITLB PREFETCH  ACCESS:          0  HIT:          0  MISS:          0  HIT %:       -nan  MISS %:       -nan   MPKI: 0
ITLB WRITEBACK ACCESS:          0  HIT:          0  MISS:          0  HIT %:       -nan  MISS %:       -nan   MPKI: 0
DTLB TOTAL     ACCESS:   38508778  HIT:   36517269  MISS:    1991509  HIT %:    94.8284  MISS %:    5.17157   MPKI: 9.95288
DTLB LOAD      ACCESS:          0  HIT:          0  MISS:          0  HIT %:       -nan  MISS %:       -nan   MPKI: 0
DTLB RFO       ACCESS:          0  HIT:          0  MISS:          0  HIT %:       -nan  MISS %:       -nan   MPKI: 0
DTLB PREFETCH  ACCESS:          0  HIT:          0  MISS:          0  HIT %:       -nan  MISS %:       -nan   MPKI: 0
DTLB WRITEBACK ACCESS:          0  HIT:          0  MISS:          0  HIT %:       -nan  MISS %:       -nan   MPKI: 0
STLB TOTAL     ACCESS:   14643374  HIT:   14618071  MISS:      25303  HIT %:    99.8272  MISS %:   0.172795   MPKI: 0.126456
STLB LOAD      ACCESS:          0  HIT:          0  MISS:          0  HIT %:       -nan  MISS %:       -nan   MPKI: 0
STLB RFO       ACCESS:          0  HIT:          0  MISS:          0  HIT %:       -nan  MISS %:       -nan   MPKI: 0
STLB PREFETCH  ACCESS:          0  HIT:          0  MISS:          0  HIT %:       -nan  MISS %:       -nan   MPKI: 0
STLB WRITEBACK ACCESS:          0  HIT:          0  MISS:          0  HIT %:       -nan  MISS %:       -nan   MPKI: 0
L1D TOTAL     ACCESS:  101445474  HIT:   97635889  MISS:    3809585  HIT %:    96.2447  MISS %:     3.7553   MPKI: 19.039
L1D LOAD      ACCESS:   34039355  HIT:   31687824  MISS:    2351531  HIT %:    93.0917  MISS %:    6.90827   MPKI: 11.7521
L1D RFO       ACCESS:    4414743  HIT:    4262182  MISS:     152561  HIT %:    96.5443  MISS %:    3.45572   MPKI: 0.762447
L1D PREFETCH  ACCESS:   62991376  HIT:   61685883  MISS:    1305493  HIT %:    97.9275  MISS %:    2.07249   MPKI: 6.52441
L1D WRITEBACK ACCESS:          0  HIT:          0  MISS:          0  HIT %:       -nan  MISS %:       -nan   MPKI: 0
L1I TOTAL     ACCESS:   48222772  HIT:   48222646  MISS:        126  HIT %:    99.9997  MISS %: 0.000261287   MPKI: 0.000629705
L1I LOAD      ACCESS:   48222772  HIT:   48222646  MISS:        126  HIT %:    99.9997  MISS %: 0.000261287   MPKI: 0.000629705
L1I RFO       ACCESS:          0  HIT:          0  MISS:          0  HIT %:       -nan  MISS %:       -nan   MPKI: 0
L1I PREFETCH  ACCESS:          0  HIT:          0  MISS:          0  HIT %:       -nan  MISS %:       -nan   MPKI: 0
L1I WRITEBACK ACCESS:          0  HIT:          0  MISS:          0  HIT %:       -nan  MISS %:       -nan   MPKI: 0
L2C TOTAL     ACCESS:   16129940  HIT:   12552232  MISS:    3577708  HIT %:    77.8195  MISS %:    22.1805   MPKI: 17.8802
L2C LOAD      ACCESS:    2338384  HIT:     348584  MISS:    1989800  HIT %:     14.907  MISS %:     85.093   MPKI: 9.94434
L2C RFO       ACCESS:     152561  HIT:         14  MISS:     152547  HIT %: 0.00917666  MISS %:    99.9908   MPKI: 0.762378
L2C PREFETCH  ACCESS:    7898346  HIT:    6475591  MISS:    1422755  HIT %:    81.9867  MISS %:    18.0133   MPKI: 7.11044
L2C WRITEBACK ACCESS:     156259  HIT:     147480  MISS:       8779  HIT %:    94.3818  MISS %:    5.61824   MPKI: 0.0438744
PSCL5 TOTAL     ACCESS:    5581009  HIT:    5581009  MISS:          0  HIT %:        100  MISS %:          0   MPKI: 0
PSCL5 LOAD      ACCESS:          0  HIT:          0  MISS:          0  HIT %:       -nan  MISS %:       -nan   MPKI: 0
PSCL5 RFO       ACCESS:          0  HIT:          0  MISS:          0  HIT %:       -nan  MISS %:       -nan   MPKI: 0
PSCL5 PREFETCH  ACCESS:          0  HIT:          0  MISS:          0  HIT %:       -nan  MISS %:       -nan   MPKI: 0
PSCL5 WRITEBACK ACCESS:          0  HIT:          0  MISS:          0  HIT %:       -nan  MISS %:       -nan   MPKI: 0
PSCL4 TOTAL     ACCESS:    5581009  HIT:    5581009  MISS:          0  HIT %:        100  MISS %:          0   MPKI: 0
PSCL4 LOAD      ACCESS:          0  HIT:          0  MISS:          0  HIT %:       -nan  MISS %:       -nan   MPKI: 0
PSCL4 RFO       ACCESS:          0  HIT:          0  MISS:          0  HIT %:       -nan  MISS %:       -nan   MPKI: 0
PSCL4 PREFETCH  ACCESS:          0  HIT:          0  MISS:          0  HIT %:       -nan  MISS %:       -nan   MPKI: 0
PSCL4 WRITEBACK ACCESS:          0  HIT:          0  MISS:          0  HIT %:       -nan  MISS %:       -nan   MPKI: 0
PSCL3 TOTAL     ACCESS:    5581009  HIT:    5581009  MISS:          0  HIT %:        100  MISS %:          0   MPKI: 0
PSCL3 LOAD      ACCESS:          0  HIT:          0  MISS:          0  HIT %:       -nan  MISS %:       -nan   MPKI: 0
PSCL3 RFO       ACCESS:          0  HIT:          0  MISS:          0  HIT %:       -nan  MISS %:       -nan   MPKI: 0
PSCL3 PREFETCH  ACCESS:          0  HIT:          0  MISS:          0  HIT %:       -nan  MISS %:       -nan   MPKI: 0
PSCL3 WRITEBACK ACCESS:          0  HIT:          0  MISS:          0  HIT %:       -nan  MISS %:       -nan   MPKI: 0
PSCL2 TOTAL     ACCESS:    5523064  HIT:    5522999  MISS:         65  HIT %:    99.9988  MISS %: 0.00117688   MPKI: 0.000324848
PSCL2 LOAD      ACCESS:          0  HIT:          0  MISS:          0  HIT %:       -nan  MISS %:       -nan   MPKI: 0
PSCL2 RFO       ACCESS:          0  HIT:          0  MISS:          0  HIT %:       -nan  MISS %:       -nan   MPKI: 0
PSCL2 PREFETCH  ACCESS:          0  HIT:          0  MISS:          0  HIT %:       -nan  MISS %:       -nan   MPKI: 0
PSCL2 WRITEBACK ACCESS:          0  HIT:          0  MISS:          0  HIT %:       -nan  MISS %:       -nan   MPKI: 0
LLC TOTAL     ACCESS:    3723619  HIT:    1194337  MISS:    2529282  HIT %:    32.0746  MISS %:    67.9254   MPKI: 12.6405
LLC LOAD      ACCESS:    1973744  HIT:    1026850  MISS:     946894  HIT %:    52.0255  MISS %:    47.9745   MPKI: 4.73225
LLC RFO       ACCESS:     152547  HIT:         98  MISS:     152449  HIT %:  0.0642425  MISS %:    99.9358   MPKI: 0.761888
LLC PREFETCH  ACCESS:    1438811  HIT:      19332  MISS:    1419479  HIT %:    1.34361  MISS %:    98.6564   MPKI: 7.09407
LLC WRITEBACK ACCESS:     154690  HIT:     147591  MISS:       7099  HIT %:    95.4108  MISS %:    4.58918   MPKI: 0.0354784

RAW hits: 991131
Loads Generated: 50374980
Loads sent to L1D: 49383849
Stores Generated: 5205005
Stores sent to L1D: 5205005

CPU 2 cumulative IPC: 0.476529 instructions: 200043778 cycles: 419793342
ITLB TOTAL     ACCESS:   41050853  HIT:   41050843  MISS:         10  HIT %:        100  MISS %:  2.436e-05   MPKI: 4.99891e-05
ITLB LOAD      ACCESS:          0  HIT:          0  MISS:          0  HIT %:       -nan  MISS %:       -nan   MPKI: 0
ITLB RFO       ACCESS:          0  HIT:          0  MISS:          0  HIT %:       -nan  MISS %:       -nan   MPKI: 0
ITLB PREFETCH  ACCESS:          0  HIT:          0  MISS:          0  HIT %:       -nan  MISS %:       -nan   MPKI: 0
ITLB WRITEBACK ACCESS:          0  HIT:          0  MISS:          0  HIT %:       -nan  MISS %:       -nan   MPKI: 0
DTLB TOTAL     ACCESS:   38497727  HIT:   36507270  MISS:    1990457  HIT %:    94.8297  MISS %:    5.17032   MPKI: 9.95011
DTLB LOAD      ACCESS:          0  HIT:          0  MISS:          0  HIT %:       -nan  MISS %:       -nan   MPKI: 0
DTLB RFO       ACCESS:          0  HIT:          0  MISS:          0  HIT %:       -nan  MISS %:       -nan   MPKI: 0
DTLB PREFETCH  ACCESS:          0  HIT:          0  MISS:          0  HIT %:       -nan  MISS %:       -nan   MPKI: 0
DTLB WRITEBACK ACCESS:          0  HIT:          0  MISS:          0  HIT %:       -nan  MISS %:       -nan   MPKI: 0
STLB TOTAL     ACCESS:   14641855  HIT:   14616640  MISS:      25215  HIT %:    99.8278  MISS %:   0.172212   MPKI: 0.126047
STLB LOAD      ACCESS:          0  HIT:          0  MISS:          0  HIT %:       -nan  MISS %:       -nan   MPKI: 0
STLB RFO       ACCESS:          0  HIT:          0  MISS:          0  HIT %:       -nan  MISS %:       -nan   MPKI: 0
STLB PREFETCH  ACCESS:          0  HIT:          0  MISS:          0  HIT %:       -nan  MISS %:       -nan   MPKI: 0
STLB WRITEBACK ACCESS:          0  HIT:          0  MISS:          0  HIT %:       -nan  MISS %:       -nan   MPKI: 0
L1D TOTAL     ACCESS:  101518668  HIT:   97710896  MISS:    3807772  HIT %:    96.2492  MISS %:    3.75081   MPKI: 19.0347
L1D LOAD      ACCESS:   34028867  HIT:   31679177  MISS:    2349690  HIT %:     93.095  MISS %:    6.90499   MPKI: 11.7459
L1D RFO       ACCESS:    4414048  HIT:    4261511  MISS:     152537  HIT %:    96.5443  MISS %:    3.45572   MPKI: 0.762518
L1D PREFETCH  ACCESS:   63075753  HIT:   61770208  MISS:    1305545  HIT %:    97.9302  MISS %:     2.0698   MPKI: 6.5263
L1D WRITEBACK ACCESS:          0  HIT:          0  MISS:          0  HIT %:       -nan  MISS %:       -nan   MPKI: 0
L1I TOTAL     ACCESS:   48211773  HIT:   48211647  MISS:        126  HIT %:    99.9997  MISS %: 0.000261347   MPKI: 0.000629862
L1I LOAD      ACCESS:   48211773  HIT:   48211647  MISS:        126  HIT %:    99.9997  MISS %: 0.000261347   MPKI: 0.000629862
L1I RFO       ACCESS:          0  HIT:          0  MISS:          0  HIT %:       -nan  MISS %:       -nan   MPKI: 0
L1I PREFETCH  ACCESS:          0  HIT:          0  MISS:          0  HIT %:       -nan  MISS %:       -nan   MPKI: 0
L1I WRITEBACK ACCESS:          0  HIT:          0  MISS:          0  HIT %:       -nan  MISS %:       -nan   MPKI: 0
L2C TOTAL     ACCESS:   16087313  HIT:   12509638  MISS:    3577675  HIT %:    77.7609  MISS %:    22.2391   MPKI: 17.8845
L2C LOAD      ACCESS:    2336564  HIT:     345870  MISS:    1990694  HIT %:    14.8025  MISS %:    85.1975   MPKI: 9.95129
L2C RFO       ACCESS:     152537  HIT:         28  MISS:     152509  HIT %:  0.0183562  MISS %:    99.9816   MPKI: 0.762378
L2C PREFETCH  ACCESS:    7794627  HIT:    6372909  MISS:    1421718  HIT %:    81.7603  MISS %:    18.2397   MPKI: 7.10703
L2C WRITEBACK ACCESS:     156233  HIT:     147320  MISS:       8913  HIT %:    94.2951  MISS %:    5.70494   MPKI: 0.0445552
PSCL5 TOTAL     ACCESS:    5644136  HIT:    5644136  MISS:          0  HIT %:        100  MISS %:          0   MPKI: 0
PSCL5 LOAD      ACCESS:          0  HIT:          0  MISS:          0  HIT %:       -nan  MISS %:       -nan   MPKI: 0
PSCL5 RFO       ACCESS:          0  HIT:          0  MISS:          0  HIT %:       -nan  MISS %:       -nan   MPKI: 0
PSCL5 PREFETCH  ACCESS:          0  HIT:          0  MISS:          0  HIT %:       -nan  MISS %:       -nan   MPKI: 0
PSCL5 WRITEBACK ACCESS:          0  HIT:          0  MISS:          0  HIT %:       -nan  MISS %:       -nan   MPKI: 0
PSCL4 TOTAL     ACCESS:    5644136  HIT:    5644136  MISS:          0  HIT %:        100  MISS %:          0   MPKI: 0
PSCL4 LOAD      ACCESS:          0  HIT:          0  MISS:          0  HIT %:       -nan  MISS %:       -nan   MPKI: 0
PSCL4 RFO       ACCESS:          0  HIT:          0  MISS:          0  HIT %:       -nan  MISS %:       -nan   MPKI: 0
PSCL4 PREFETCH  ACCESS:          0  HIT:          0  MISS:          0  HIT %:       -nan  MISS %:       -nan   MPKI: 0
PSCL4 WRITEBACK ACCESS:          0  HIT:          0  MISS:          0  HIT %:       -nan  MISS %:       -nan   MPKI: 0
PSCL3 TOTAL     ACCESS:    5644136  HIT:    5644136  MISS:          0  HIT %:        100  MISS %:          0   MPKI: 0
PSCL3 LOAD      ACCESS:          0  HIT:          0  MISS:          0  HIT %:       -nan  MISS %:       -nan   MPKI: 0
PSCL3 RFO       ACCESS:          0  HIT:          0  MISS:          0  HIT %:       -nan  MISS %:       -nan   MPKI: 0
PSCL3 PREFETCH  ACCESS:          0  HIT:          0  MISS:          0  HIT %:       -nan  MISS %:       -nan   MPKI: 0
PSCL3 WRITEBACK ACCESS:          0  HIT:          0  MISS:          0  HIT %:       -nan  MISS %:       -nan   MPKI: 0
PSCL2 TOTAL     ACCESS:    5591172  HIT:    5591107  MISS:         65  HIT %:    99.9988  MISS %: 0.00116255   MPKI: 0.000324929
PSCL2 LOAD      ACCESS:          0  HIT:          0  MISS:          0  HIT %:       -nan  MISS %:       -nan   MPKI: 0
PSCL2 RFO       ACCESS:          0  HIT:          0  MISS:          0  HIT %:       -nan  MISS %:       -nan   MPKI: 0
PSCL2 PREFETCH  ACCESS:          0  HIT:          0  MISS:          0  HIT %:       -nan  MISS %:       -nan   MPKI: 0
PSCL2 WRITEBACK ACCESS:          0  HIT:          0  MISS:          0  HIT %:       -nan  MISS %:       -nan   MPKI: 0
LLC TOTAL     ACCESS:    3722810  HIT:    1193017  MISS:    2529793  HIT %:    32.0461  MISS %:    67.9539   MPKI: 12.6462
LLC LOAD      ACCESS:    1974519  HIT:    1026694  MISS:     947825  HIT %:    51.9972  MISS %:    48.0028   MPKI: 4.73809
LLC RFO       ACCESS:     152509  HIT:         92  MISS:     152417  HIT %:  0.0603243  MISS %:    99.9397   MPKI: 0.761918
LLC PREFETCH  ACCESS:    1437893  HIT:      19167  MISS:    1418726  HIT %:    1.33299  MISS %:     98.667   MPKI: 7.09208
LLC WRITEBACK ACCESS:     154048  HIT:     146577  MISS:       7471  HIT %:    95.1502  MISS %:    4.84979   MPKI: 0.0373468

RAW hits: 990834
Loads Generated: 50360134
Loads sent to L1D: 49369300
Stores Generated: 5203698
Stores sent to L1D: 5203700

CPU 3 cumulative IPC: 0.476425 instructions: 200000003 cycles: 419793343
ITLB TOTAL     ACCESS:   41043022  HIT:   41043012  MISS:         10  HIT %:        100  MISS %: 2.43647e-05   MPKI: 5e-05
ITLB LOAD      ACCESS:          0  HIT:          0  MISS:          0  HIT %:       -nan  MISS %:       -nan   MPKI: 0
ITLB RFO       ACCESS:          0  HIT:          0  MISS:          0  HIT %:       -nan  MISS %:       -nan   MPKI: 0
ITLB PREFETCH  ACCESS:          0  HIT:          0  MISS:          0  HIT %:       -nan  MISS %:       -nan   MPKI: 0
ITLB WRITEBACK ACCESS:          0  HIT:          0  MISS:          0  HIT %:       -nan  MISS %:       -nan   MPKI: 0
DTLB TOTAL     ACCESS:   38487186  HIT:   36497766  MISS:    1989420  HIT %:     94.831  MISS %:    5.16905   MPKI: 9.9471
DTLB LOAD      ACCESS:          0  HIT:          0  MISS:          0  HIT %:       -nan  MISS %:       -nan   MPKI: 0
DTLB RFO       ACCESS:          0  HIT:          0  MISS:          0  HIT %:       -nan  MISS %:       -nan   MPKI: 0
DTLB PREFETCH  ACCESS:          0  HIT:          0  MISS:          0  HIT %:       -nan  MISS %:       -nan   MPKI: 0
DTLB WRITEBACK ACCESS:          0  HIT:          0  MISS:          0  HIT %:       -nan  MISS %:       -nan   MPKI: 0
STLB TOTAL     ACCESS:   14656490  HIT:   14631619  MISS:      24871  HIT %:    99.8303  MISS %:   0.169693   MPKI: 0.124355
STLB LOAD      ACCESS:          0  HIT:          0  MISS:          0  HIT %:       -nan  MISS %:       -nan   MPKI: 0
STLB RFO       ACCESS:          0  HIT:          0  MISS:          0  HIT %:       -nan  MISS %:       -nan   MPKI: 0
STLB PREFETCH  ACCESS:          0  HIT:          0  MISS:          0  HIT %:       -nan  MISS %:       -nan   MPKI: 0
STLB WRITEBACK ACCESS:          0  HIT:          0  MISS:          0  HIT %:       -nan  MISS %:       -nan   MPKI: 0
L1D TOTAL     ACCESS:  101431741  HIT:   97625472  MISS:    3806269  HIT %:    96.2475  MISS %:    3.75254   MPKI: 19.0313
L1D LOAD      ACCESS:   34018980  HIT:   31670299  MISS:    2348681  HIT %:     93.096  MISS %:    6.90403   MPKI: 11.7434
L1D RFO       ACCESS:    4410803  HIT:    4258285  MISS:     152518  HIT %:    96.5422  MISS %:    3.45783   MPKI: 0.76259
L1D PREFETCH  ACCESS:   63001958  HIT:   61696888  MISS:    1305070  HIT %:    97.9285  MISS %:    2.07148   MPKI: 6.52535
L1D WRITEBACK ACCESS:          0  HIT:          0  MISS:          0  HIT %:       -nan  MISS %:       -nan   MPKI: 0
L1I TOTAL     ACCESS:   48201242  HIT:   48201116  MISS:        126  HIT %:    99.9997  MISS %: 0.000261404   MPKI: 0.00063
L1I LOAD      ACCESS:   48201242  HIT:   48201116  MISS:        126  HIT %:    99.9997  MISS %: 0.000261404   MPKI: 0.00063
L1I RFO       ACCESS:          0  HIT:          0  MISS:          0  HIT %:       -nan  MISS %:       -nan   MPKI: 0
L1I PREFETCH  ACCESS:          0  HIT:          0  MISS:          0  HIT %:       -nan  MISS %:       -nan   MPKI: 0
L1I WRITEBACK ACCESS:          0  HIT:          0  MISS:          0  HIT %:       -nan  MISS %:       -nan   MPKI: 0
L2C TOTAL     ACCESS:   16223686  HIT:   12649825  MISS:    3573861  HIT %:    77.9713  MISS %:    22.0287   MPKI: 17.8693
L2C LOAD      ACCESS:    2335445  HIT:     346991  MISS:    1988454  HIT %:    14.8576  MISS %:    85.1424   MPKI: 9.94227
L2C RFO       ACCESS:     152518  HIT:         14  MISS:     152504  HIT %: 0.00917924  MISS %:    99.9908   MPKI: 0.76252
L2C PREFETCH  ACCESS:    8046853  HIT:    6626251  MISS:    1420602  HIT %:    82.3459  MISS %:    17.6541   MPKI: 7.10301
L2C WRITEBACK ACCESS:     155982  HIT:     147401  MISS:       8581  HIT %:    94.4987  MISS %:    5.50128   MPKI: 0.042905
PSCL5 TOTAL     ACCESS:    5529659  HIT:    5529659  MISS:          0  HIT %:        100  MISS %:          0   MPKI: 0
PSCL5 LOAD      ACCESS:          0  HIT:          0  MISS:          0  HIT %:       -nan  MISS %:       -nan   MPKI: 0
PSCL5 RFO       ACCESS:          0  HIT:          0  MISS:          0  HIT %:       -nan  MISS %:       -nan   MPKI: 0
PSCL5 PREFETCH  ACCESS:          0  HIT:          0  MISS:          0  HIT %:       -nan  MISS %:       -nan   MPKI: 0
PSCL5 WRITEBACK ACCESS:          0  HIT:          0  MISS:          0  HIT %:       -nan  MISS %:       -nan   MPKI: 0
PSCL4 TOTAL     ACCESS:    5529659  HIT:    5529659  MISS:          0  HIT %:        100  MISS %:          0   MPKI: 0
PSCL4 LOAD      ACCESS:          0  HIT:          0  MISS:          0  HIT %:       -nan  MISS %:       -nan   MPKI: 0
PSCL4 RFO       ACCESS:          0  HIT:          0  MISS:          0  HIT %:       -nan  MISS %:       -nan   MPKI: 0
PSCL4 PREFETCH  ACCESS:          0  HIT:          0  MISS:          0  HIT %:       -nan  MISS %:       -nan   MPKI: 0
PSCL4 WRITEBACK ACCESS:          0  HIT:          0  MISS:          0  HIT %:       -nan  MISS %:       -nan   MPKI: 0
PSCL3 TOTAL     ACCESS:    5529659  HIT:    5529659  MISS:          0  HIT %:        100  MISS %:          0   MPKI: 0
PSCL3 LOAD      ACCESS:          0  HIT:          0  MISS:          0  HIT %:       -nan  MISS %:       -nan   MPKI: 0
PSCL3 RFO       ACCESS:          0  HIT:          0  MISS:          0  HIT %:       -nan  MISS %:       -nan   MPKI: 0
PSCL3 PREFETCH  ACCESS:          0  HIT:          0  MISS:          0  HIT %:       -nan  MISS %:       -nan   MPKI: 0
PSCL3 WRITEBACK ACCESS:          0  HIT:          0  MISS:          0  HIT %:       -nan  MISS %:       -nan   MPKI: 0
PSCL2 TOTAL     ACCESS:    5472142  HIT:    5472077  MISS:         65  HIT %:    99.9988  MISS %: 0.00118783   MPKI: 0.000325
PSCL2 LOAD      ACCESS:          0  HIT:          0  MISS:          0  HIT %:       -nan  MISS %:       -nan   MPKI: 0
PSCL2 RFO       ACCESS:          0  HIT:          0  MISS:          0  HIT %:       -nan  MISS %:       -nan   MPKI: 0
PSCL2 PREFETCH  ACCESS:          0  HIT:          0  MISS:          0  HIT %:       -nan  MISS %:       -nan   MPKI: 0
PSCL2 WRITEBACK ACCESS:          0  HIT:          0  MISS:          0  HIT %:       -nan  MISS %:       -nan   MPKI: 0
LLC TOTAL     ACCESS:    3718714  HIT:    1184945  MISS:    2533769  HIT %:    31.8644  MISS %:    68.1356   MPKI: 12.6688
LLC LOAD      ACCESS:    1972815  HIT:    1020081  MISS:     952734  HIT %:    51.7069  MISS %:    48.2931   MPKI: 4.76367
LLC RFO       ACCESS:     152504  HIT:        116  MISS:     152388  HIT %:  0.0760636  MISS %:    99.9239   MPKI: 0.76194
LLC PREFETCH  ACCESS:    1436241  HIT:      18678  MISS:    1417563  HIT %:    1.30048  MISS %:    98.6995   MPKI: 7.08781
LLC WRITEBACK ACCESS:     153434  HIT:     145653  MISS:       7781  HIT %:    94.9288  MISS %:    5.07124   MPKI: 0.038905

RAW hits: 990593
Loads Generated: 50346816
Loads sent to L1D: 49356223
Stores Generated: 5202735
Stores sent to L1D: 5202733

Region of Interest Statistics

CPU 0 cumulative IPC: 0.481203 instructions: 200000000 cycles: 415624937
ITLB TOTAL     ACCESS:   41042389  HIT:   41042379  MISS:         10  HIT %:        100  MISS %: 2.43651e-05   MPKI: 5e-05
ITLB LOAD TRANSLATION ACCESS:   41042389  HIT:   41042379  MISS:         10  HIT %:        100  MISS %: 2.43651e-05   MPKI: 5e-05
ITLB PREFETCH  REQUESTED:          0  ISSUED:          0  USEFUL:          0  USELESS:          0
ITLB USEFUL LOAD PREFETCHES:          0 PREFETCH ISSUED TO LOWER LEVEL:          0  ACCURACY: -nan
ITLB TIMELY PREFETCHES:          0 LATE PREFETCHES: 0 DROPPED PREFETCHES: 0
ITLB PREFETCHES SAME FILL-ORIGIN LEVEL: 0 DIFFERENT FILL-ORIGIN LEVEL: 0
ITLB AVERAGE MISS LATENCY: 368.6 cycles
ITLB RQ	ACCESS:   48287646	FORWARD:          0	MERGED:    7181016	TO_CACHE:   41106630

DTLB TOTAL     ACCESS:   38489890  HIT:   36500456  MISS:    1989434  HIT %:    94.8313  MISS %:    5.16872   MPKI: 9.94717
DTLB LOAD TRANSLATION ACCESS:   38489890  HIT:   36500456  MISS:    1989434  HIT %:    94.8313  MISS %:    5.16872   MPKI: 9.94717
DTLB PREFETCH  REQUESTED:          0  ISSUED:          0  USEFUL:          0  USELESS:          0
DTLB USEFUL LOAD PREFETCHES:          0 PREFETCH ISSUED TO LOWER LEVEL:          0  ACCURACY: -nan
DTLB TIMELY PREFETCHES:          0 LATE PREFETCHES: 0 DROPPED PREFETCHES: 0
DTLB PREFETCHES SAME FILL-ORIGIN LEVEL: 0 DIFFERENT FILL-ORIGIN LEVEL: 0
DTLB AVERAGE MISS LATENCY: 11.0212 cycles
DTLB RQ	ACCESS:   39464779	FORWARD:          0	MERGED:     874744	TO_CACHE:   38590035

STLB TOTAL     ACCESS:   14581790  HIT:   14556830  MISS:      24960  HIT %:    99.8288  MISS %:   0.171172   MPKI: 0.1248
STLB LOAD TRANSLATION ACCESS:    1989444  HIT:    1965360  MISS:      24084  HIT %:    98.7894  MISS %:    1.21059   MPKI: 0.12042
STLB TRANSLATION FROM L1D PREFETCHER ACCESS:   12592346  HIT:   12591470  MISS:        876  HIT %:     99.993  MISS %: 0.00695661   MPKI: 0.00438
STLB PREFETCH  REQUESTED:          0  ISSUED:          0  USEFUL:        920  USELESS:          0
STLB USEFUL LOAD PREFETCHES:        920 PREFETCH ISSUED TO LOWER LEVEL:          0  ACCURACY: inf
STLB TIMELY PREFETCHES:        920 LATE PREFETCHES: 4009 DROPPED PREFETCHES: 5692625
STLB PREFETCHES SAME FILL-ORIGIN LEVEL: 0 DIFFERENT FILL-ORIGIN LEVEL: 0
STLB AVERAGE MISS LATENCY: 141.701 cycles
STLB RQ	ACCESS:   83120193	FORWARD:          0	MERGED:   62674977	TO_CACHE:   20445216

STLB Hit, L1D data hit: 0
STLB Hit, L2C data hit: 0
STLB Hit, LLC data hit: 0
STLB Hit, LLC data miss: 0
STLB STLB hints to L2: 0
L1D TOTAL     ACCESS:  101248531  HIT:   97442409  MISS:    3806122  HIT %:    96.2408  MISS %:    3.75919   MPKI: 19.0306
L1D LOAD      ACCESS:   34021751  HIT:   31673507  MISS:    2348244  HIT %:    93.0978  MISS %:    6.90218   MPKI: 11.7412
L1D RFO       ACCESS:    4411709  HIT:    4259193  MISS:     152516  HIT %:    96.5429  MISS %:    3.45707   MPKI: 0.76258
L1D PREFETCH  ACCESS:   62815071  HIT:   61509709  MISS:    1305362  HIT %:    97.9219  MISS %:     2.0781   MPKI: 6.52681
L1D PREFETCH  REQUESTED:  308749022  ISSUED:  247926847  USEFUL:    1298948  USELESS:       9437
L1D USEFUL LOAD PREFETCHES:    1298948 PREFETCH ISSUED TO LOWER LEVEL:    8475572  ACCURACY: 15.3258
L1D TIMELY PREFETCHES:    1298948 LATE PREFETCHES: 13561 DROPPED PREFETCHES: 7827903
L1D PREFETCHES SAME FILL-ORIGIN LEVEL: 1321939 DIFFERENT FILL-ORIGIN LEVEL: 7153633
L1D AVERAGE MISS LATENCY: 169.764 cycles
L1D RQ	ACCESS:   49468959	FORWARD:          0	MERGED:   15212912	TO_CACHE:   34252850
L1D WQ	ACCESS:    5211943	FORWARD:       3197	MERGED:         14	TO_CACHE:    5211929
L1D PQ	ACCESS:  166803074	FORWARD:          0	MERGED:   85679301	TO_CACHE:   81123773

L1D UNIQUE REGIONS ACCESSED: 0
L1D REGIONS CONFLICTS: 0
L1D Cross Page Prefetch Requests: 22142271
L1D Same Page Prefetch Requests: 188933873
L1D ROI Sum of L1D PQ occupancy: 1898773261
L1D PREFETCHES PUSHED FROM L2C: 0
L1I TOTAL     ACCESS:   48200842  HIT:   48200716  MISS:        126  HIT %:    99.9997  MISS %: 0.000261406   MPKI: 0.00063
L1I LOAD      ACCESS:   48200842  HIT:   48200716  MISS:        126  HIT %:    99.9997  MISS %: 0.000261406   MPKI: 0.00063
L1I PREFETCH  REQUESTED:          0  ISSUED:          0  USEFUL:          0  USELESS:          0
L1I USEFUL LOAD PREFETCHES:          0 PREFETCH ISSUED TO LOWER LEVEL:          0  ACCURACY: -nan
L1I TIMELY PREFETCHES:          0 LATE PREFETCHES: 0 DROPPED PREFETCHES: 0
L1I PREFETCHES SAME FILL-ORIGIN LEVEL: 0 DIFFERENT FILL-ORIGIN LEVEL: 0
L1I AVERAGE MISS LATENCY: 247.238 cycles
L1I RQ	ACCESS:   62817229	FORWARD:          0	MERGED:   14529583	TO_CACHE:   48287646

BTB TOTAL     ACCESS:   38280138  HIT:   38279967  MISS:        171  HIT %:    99.9996  MISS %: 0.000446707   MPKI: 0.000855
BTB BRANCH_DIRECT_JUMP	ACCESS:    3506828  HIT:    3506800  MISS:         28
BTB BRANCH_INDIRECT	ACCESS:          0  HIT:          0  MISS:          0
BTB BRANCH_CONDITIONAL	ACCESS:   34773247  HIT:   34773151  MISS:         96
BTB BRANCH_DIRECT_CALL	ACCESS:         31  HIT:          9  MISS:         22
BTB BRANCH_INDIRECT_CALL	ACCESS:          0  HIT:          0  MISS:          0
BTB BRANCH_RETURN	ACCESS:         32  HIT:          7  MISS:         25
BTB BRANCH_OTHER ACCESS:          0  HIT:          0  MISS:          0

L2C TOTAL     ACCESS:   16234773  HIT:   12661627  MISS:    3573146  HIT %:    77.9908  MISS %:    22.0092   MPKI: 17.8657
L2C LOAD      ACCESS:    2334813  HIT:     347965  MISS:    1986848  HIT %:    14.9033  MISS %:    85.0967   MPKI: 9.93424
L2C DATA LOAD MPKI: 9.93361
L2C INSTRUCTION LOAD MPKI: 0.00063
L2C RFO       ACCESS:     152516  HIT:         18  MISS:     152498  HIT %:   0.011802  MISS %:    99.9882   MPKI: 0.76249
L2C PREFETCH  ACCESS:    7866250  HIT:    6443444  MISS:    1422806  HIT %:    81.9125  MISS %:    18.0875   MPKI: 7.11403
L2C DATA PREFETCH MPKI: 7.11403
L2C INSTRUCTION PREFETCH MPKI: 0
L2C WRITEBACK ACCESS:     156040  HIT:     148844  MISS:       7196  HIT %:    95.3884  MISS %:    4.61164   MPKI: 0.03598
L2C LOAD TRANSLATION ACCESS:      24096  HIT:      23018  MISS:       1078  HIT %:    95.5262  MISS %:    4.47377   MPKI: 0.00539
L2C TRANSLATION FROM L1D PREFETCHER ACCESS:    5701058  HIT:    5698338  MISS:       2720  HIT %:    99.9523  MISS %:  0.0477104   MPKI: 0.0136
L2C PREFETCH  REQUESTED:          0  ISSUED:          0  USEFUL:      43119  USELESS:    1386024
L2C USEFUL LOAD PREFETCHES:      43119 PREFETCH ISSUED TO LOWER LEVEL:    1441789  ACCURACY: 2.99066
L2C TIMELY PREFETCHES:      43119 LATE PREFETCHES: 15737 DROPPED PREFETCHES: 0
L2C PREFETCHES SAME FILL-ORIGIN LEVEL: 371333 DIFFERENT FILL-ORIGIN LEVEL: 0
L2C AVERAGE MISS LATENCY: 199.477 cycles
L2C RQ	ACCESS:    8222151	FORWARD:          0	MERGED:          0	TO_CACHE:    8222151
L2C WQ	ACCESS:     156385	FORWARD:          0	MERGED:          0	TO_CACHE:     156385
L2C PQ	ACCESS:    8467824	FORWARD:          0	MERGED:       6960	TO_CACHE:    8460864

L2C Instructions Evicting Data 126
L2C Translations Evicting Data 3819
L2C Data Evicting Data 3569530
L2C Instructions Evicting Instructions 0
L2C Translations Evicting Instructions 1
L2C Data Evicting Instructions 125
L2C Instructions Evicting Translations 0
L2C Translations Evicting Translations 1
L2C Data Evicting Translations 3779
L2C Dense regions hint from L2: 0
PSCL5 TOTAL     ACCESS:    5721594  HIT:    5721594  MISS:          0  HIT %:        100  MISS %:          0   MPKI: 0
PSCL5 LOAD TRANSLATION ACCESS:      24084  HIT:      24084  MISS:          0  HIT %:        100  MISS %:          0   MPKI: 0
PSCL5 TRANSLATION FROM L1D PREFETCHER ACCESS:    5697510  HIT:    5697510  MISS:          0  HIT %:        100  MISS %:          0   MPKI: 0
PSCL5 PREFETCH  REQUESTED:          0  ISSUED:          0  USEFUL:          0  USELESS:          0
PSCL5 USEFUL LOAD PREFETCHES:          0 PREFETCH ISSUED TO LOWER LEVEL:          0  ACCURACY: -nan
PSCL5 TIMELY PREFETCHES:          0 LATE PREFETCHES: 0 DROPPED PREFETCHES: 0
PSCL5 PREFETCHES SAME FILL-ORIGIN LEVEL: 0 DIFFERENT FILL-ORIGIN LEVEL: 0

PSCL4 TOTAL     ACCESS:    5721594  HIT:    5721594  MISS:          0  HIT %:        100  MISS %:          0   MPKI: 0
PSCL4 LOAD TRANSLATION ACCESS:      24084  HIT:      24084  MISS:          0  HIT %:        100  MISS %:          0   MPKI: 0
PSCL4 TRANSLATION FROM L1D PREFETCHER ACCESS:    5697510  HIT:    5697510  MISS:          0  HIT %:        100  MISS %:          0   MPKI: 0
PSCL4 PREFETCH  REQUESTED:          0  ISSUED:          0  USEFUL:          0  USELESS:          0
PSCL4 USEFUL LOAD PREFETCHES:          0 PREFETCH ISSUED TO LOWER LEVEL:          0  ACCURACY: -nan
PSCL4 TIMELY PREFETCHES:          0 LATE PREFETCHES: 0 DROPPED PREFETCHES: 0
PSCL4 PREFETCHES SAME FILL-ORIGIN LEVEL: 0 DIFFERENT FILL-ORIGIN LEVEL: 0

PSCL3 TOTAL     ACCESS:    5721594  HIT:    5721594  MISS:          0  HIT %:        100  MISS %:          0   MPKI: 0
PSCL3 LOAD TRANSLATION ACCESS:      24084  HIT:      24084  MISS:          0  HIT %:        100  MISS %:          0   MPKI: 0
PSCL3 TRANSLATION FROM L1D PREFETCHER ACCESS:    5697510  HIT:    5697510  MISS:          0  HIT %:        100  MISS %:          0   MPKI: 0
PSCL3 PREFETCH  REQUESTED:          0  ISSUED:          0  USEFUL:          0  USELESS:          0
PSCL3 USEFUL LOAD PREFETCHES:          0 PREFETCH ISSUED TO LOWER LEVEL:          0  ACCURACY: -nan
PSCL3 TIMELY PREFETCHES:          0 LATE PREFETCHES: 0 DROPPED PREFETCHES: 0
PSCL3 PREFETCHES SAME FILL-ORIGIN LEVEL: 0 DIFFERENT FILL-ORIGIN LEVEL: 0

PSCL2 TOTAL     ACCESS:    5663127  HIT:    5663062  MISS:         65  HIT %:    99.9989  MISS %: 0.00114778   MPKI: 0.000325
PSCL2 LOAD TRANSLATION ACCESS:      24085  HIT:      24020  MISS:         65  HIT %:    99.7301  MISS %:   0.269878   MPKI: 0.000325
PSCL2 TRANSLATION FROM L1D PREFETCHER ACCESS:    5639042  HIT:    5639042  MISS:          0  HIT %:        100  MISS %:          0   MPKI: 0
PSCL2 PREFETCH  REQUESTED:          0  ISSUED:          0  USEFUL:          0  USELESS:          0
PSCL2 USEFUL LOAD PREFETCHES:          0 PREFETCH ISSUED TO LOWER LEVEL:          0  ACCURACY: -nan
PSCL2 TIMELY PREFETCHES:          0 LATE PREFETCHES: 0 DROPPED PREFETCHES: 0
PSCL2 PREFETCHES SAME FILL-ORIGIN LEVEL: 0 DIFFERENT FILL-ORIGIN LEVEL: 0

LLC TOTAL     ACCESS:    3719638  HIT:    1207877  MISS:    2511761  HIT %:     32.473  MISS %:     67.527   MPKI: 12.5588
LLC LOAD      ACCESS:    1971111  HIT:    1040300  MISS:     930811  HIT %:    52.7773  MISS %:    47.2227   MPKI: 4.65405
LLC RFO       ACCESS:     152498  HIT:         93  MISS:     152405  HIT %:  0.0609844  MISS %:     99.939   MPKI: 0.762025
LLC PREFETCH  ACCESS:    1438543  HIT:      19917  MISS:    1418626  HIT %:    1.38453  MISS %:    98.6155   MPKI: 7.09313
LLC WRITEBACK ACCESS:     153688  HIT:     147121  MISS:       6567  HIT %:    95.7271  MISS %:    4.27294   MPKI: 0.032835
LLC LOAD TRANSLATION ACCESS:       1078  HIT:        394  MISS:        684  HIT %:    36.5492  MISS %:    63.4508   MPKI: 0.00342
LLC TRANSLATION FROM L1D PREFETCHER ACCESS:       2720  HIT:         52  MISS:       2668  HIT %:    1.91176  MISS %:    98.0882   MPKI: 0.01334
LLC PREFETCH  REQUESTED:          0  ISSUED:          0  USEFUL:      15177  USELESS:    5644937
LLC USEFUL LOAD PREFETCHES:      15177 PREFETCH ISSUED TO LOWER LEVEL:   12029901  ACCURACY: 0.126161
LLC TIMELY PREFETCHES:      15177 LATE PREFETCHES: 0 DROPPED PREFETCHES: 0
LLC PREFETCHES SAME FILL-ORIGIN LEVEL: 0 DIFFERENT FILL-ORIGIN LEVEL: 0
LLC AVERAGE MISS LATENCY: 986.067 cycles
LLC RQ	ACCESS:    8525623	FORWARD:          0	MERGED:          0	TO_CACHE:    8525623
LLC WQ	ACCESS:     617796	FORWARD:          0	MERGED:          0	TO_CACHE:     617796
LLC PQ	ACCESS:    5754735	FORWARD:          0	MERGED:          0	TO_CACHE:    5754735

LLC Dense regions hint to LLC: 0

RAW hits: 990635
Loads Generated: 50346852
Loads sent to L1D: 49356217
Stores Generated: 5202722
Stores sent to L1D: 5202723
Major fault: 0 Minor fault: 31005
Allocated PAGES: 124020

CPU 1 cumulative IPC: 0.477588 instructions: 200000000 cycles: 418770600
ITLB TOTAL     ACCESS:   41043332  HIT:   41043322  MISS:         10  HIT %:        100  MISS %: 2.43645e-05   MPKI: 5e-05
ITLB LOAD TRANSLATION ACCESS:   41043332  HIT:   41043322  MISS:         10  HIT %:        100  MISS %: 2.43645e-05   MPKI: 5e-05
ITLB PREFETCH  REQUESTED:          0  ISSUED:          0  USEFUL:          0  USELESS:          0
ITLB USEFUL LOAD PREFETCHES:          0 PREFETCH ISSUED TO LOWER LEVEL:          0  ACCURACY: -nan
ITLB TIMELY PREFETCHES:          0 LATE PREFETCHES: 0 DROPPED PREFETCHES: 0
ITLB PREFETCHES SAME FILL-ORIGIN LEVEL: 0 DIFFERENT FILL-ORIGIN LEVEL: 0
ITLB AVERAGE MISS LATENCY: 335 cycles
ITLB RQ	ACCESS:   48222787	FORWARD:          0	MERGED:    7163831	TO_CACHE:   41058956

DTLB TOTAL     ACCESS:   38486929  HIT:   36497502  MISS:    1989427  HIT %:    94.8309  MISS %:     5.1691   MPKI: 9.94713
DTLB LOAD TRANSLATION ACCESS:   38486929  HIT:   36497502  MISS:    1989427  HIT %:    94.8309  MISS %:     5.1691   MPKI: 9.94713
DTLB PREFETCH  REQUESTED:          0  ISSUED:          0  USEFUL:          0  USELESS:          0
DTLB USEFUL LOAD PREFETCHES:          0 PREFETCH ISSUED TO LOWER LEVEL:          0  ACCURACY: -nan
DTLB TIMELY PREFETCHES:          0 LATE PREFETCHES: 0 DROPPED PREFETCHES: 0
DTLB PREFETCHES SAME FILL-ORIGIN LEVEL: 0 DIFFERENT FILL-ORIGIN LEVEL: 0
DTLB AVERAGE MISS LATENCY: 10.9717 cycles
DTLB RQ	ACCESS:   39393636	FORWARD:          0	MERGED:     873941	TO_CACHE:   38519695

STLB TOTAL     ACCESS:   14629822  HIT:   14604877  MISS:      24945  HIT %:    99.8295  MISS %:   0.170508   MPKI: 0.124725
STLB LOAD TRANSLATION ACCESS:    1989437  HIT:    1965368  MISS:      24069  HIT %:    98.7902  MISS %:    1.20984   MPKI: 0.120345
STLB TRANSLATION FROM L1D PREFETCHER ACCESS:   12640385  HIT:   12639509  MISS:        876  HIT %:    99.9931  MISS %: 0.00693017   MPKI: 0.00438
STLB PREFETCH  REQUESTED:          0  ISSUED:          0  USEFUL:        890  USELESS:          0
STLB USEFUL LOAD PREFETCHES:        890 PREFETCH ISSUED TO LOWER LEVEL:          0  ACCURACY: inf
STLB TIMELY PREFETCHES:        890 LATE PREFETCHES: 3898 DROPPED PREFETCHES: 5551808
STLB PREFETCHES SAME FILL-ORIGIN LEVEL: 0 DIFFERENT FILL-ORIGIN LEVEL: 0
STLB AVERAGE MISS LATENCY: 139.51 cycles
STLB RQ	ACCESS:   83285972	FORWARD:          0	MERGED:   62965880	TO_CACHE:   20320092

STLB Hit, L1D data hit: 0
STLB Hit, L2C data hit: 0
STLB Hit, LLC data hit: 0
STLB Hit, LLC data miss: 0
STLB STLB hints to L2: 0
L1D TOTAL     ACCESS:  101391903  HIT:   97585782  MISS:    3806121  HIT %:    96.2461  MISS %:    3.75387   MPKI: 19.0306
L1D LOAD      ACCESS:   34019563  HIT:   31670704  MISS:    2348859  HIT %:    93.0956  MISS %:    6.90444   MPKI: 11.7443
L1D RFO       ACCESS:    4412496  HIT:    4259982  MISS:     152514  HIT %:    96.5436  MISS %:    3.45641   MPKI: 0.76257
L1D PREFETCH  ACCESS:   62959844  HIT:   61655096  MISS:    1304748  HIT %:    97.9277  MISS %:    2.07235   MPKI: 6.52374
L1D PREFETCH  REQUESTED:  308351749  ISSUED:  248410866  USEFUL:    1296149  USELESS:       9351
L1D USEFUL LOAD PREFETCHES:    1296149 PREFETCH ISSUED TO LOWER LEVEL:    8492047  ACCURACY: 15.2631
L1D TIMELY PREFETCHES:    1296149 LATE PREFETCHES: 13273 DROPPED PREFETCHES: 7706981
L1D PREFETCHES SAME FILL-ORIGIN LEVEL: 1318768 DIFFERENT FILL-ORIGIN LEVEL: 7173279
L1D AVERAGE MISS LATENCY: 172.505 cycles
L1D RQ	ACCESS:   49383849	FORWARD:          0	MERGED:   15192016	TO_CACHE:   34188650
L1D WQ	ACCESS:    5205005	FORWARD:       3183	MERGED:         19	TO_CACHE:    5204986
L1D PQ	ACCESS:  167116413	FORWARD:          0	MERGED:   85821960	TO_CACHE:   81294453

L1D UNIQUE REGIONS ACCESSED: 0
L1D REGIONS CONFLICTS: 0
L1D Cross Page Prefetch Requests: 21955125
L1D Same Page Prefetch Requests: 189428231
L1D ROI Sum of L1D PQ occupancy: 1879561292
L1D PREFETCHES PUSHED FROM L2C: 0
L1I TOTAL     ACCESS:   48201618  HIT:   48201492  MISS:        126  HIT %:    99.9997  MISS %: 0.000261402   MPKI: 0.00063
L1I LOAD      ACCESS:   48201618  HIT:   48201492  MISS:        126  HIT %:    99.9997  MISS %: 0.000261402   MPKI: 0.00063
L1I PREFETCH  REQUESTED:          0  ISSUED:          0  USEFUL:          0  USELESS:          0
L1I USEFUL LOAD PREFETCHES:          0 PREFETCH ISSUED TO LOWER LEVEL:          0  ACCURACY: -nan
L1I TIMELY PREFETCHES:          0 LATE PREFETCHES: 0 DROPPED PREFETCHES: 0
L1I PREFETCHES SAME FILL-ORIGIN LEVEL: 0 DIFFERENT FILL-ORIGIN LEVEL: 0
L1I AVERAGE MISS LATENCY: 246.667 cycles
L1I RQ	ACCESS:   62742106	FORWARD:          0	MERGED:   14519319	TO_CACHE:   48222787

BTB TOTAL     ACCESS:   38280118  HIT:   38279947  MISS:        171  HIT %:    99.9996  MISS %: 0.000446707   MPKI: 0.000855
BTB BRANCH_DIRECT_JUMP	ACCESS:    3506830  HIT:    3506802  MISS:         28
BTB BRANCH_INDIRECT	ACCESS:          0  HIT:          0  MISS:          0
BTB BRANCH_CONDITIONAL	ACCESS:   34773225  HIT:   34773129  MISS:         96
BTB BRANCH_DIRECT_CALL	ACCESS:         31  HIT:          9  MISS:         22
BTB BRANCH_INDIRECT_CALL	ACCESS:          0  HIT:          0  MISS:          0
BTB BRANCH_RETURN	ACCESS:         32  HIT:          7  MISS:         25
BTB BRANCH_OTHER ACCESS:          0  HIT:          0  MISS:          0

L2C TOTAL     ACCESS:   16114142  HIT:   12540230  MISS:    3573912  HIT %:    77.8213  MISS %:    22.1787   MPKI: 17.8696
L2C LOAD      ACCESS:    2335712  HIT:     348516  MISS:    1987196  HIT %:    14.9212  MISS %:    85.0788   MPKI: 9.93598
L2C DATA LOAD MPKI: 9.93535
L2C INSTRUCTION LOAD MPKI: 0.00063
L2C RFO       ACCESS:     152514  HIT:         14  MISS:     152500  HIT %: 0.00917949  MISS %:    99.9908   MPKI: 0.7625
L2C PREFETCH  ACCESS:    7885856  HIT:    6464202  MISS:    1421654  HIT %:    81.9721  MISS %:    18.0279   MPKI: 7.10827
L2C DATA PREFETCH MPKI: 7.10827
L2C INSTRUCTION PREFETCH MPKI: 0
L2C WRITEBACK ACCESS:     156028  HIT:     147275  MISS:       8753  HIT %:    94.3901  MISS %:    5.60989   MPKI: 0.043765
L2C LOAD TRANSLATION ACCESS:      24081  HIT:      22992  MISS:       1089  HIT %:    95.4778  MISS %:    4.52224   MPKI: 0.005445
L2C TRANSLATION FROM L1D PREFETCHER ACCESS:    5559951  HIT:    5557231  MISS:       2720  HIT %:    99.9511  MISS %:  0.0489213   MPKI: 0.0136
L2C PREFETCH  REQUESTED:          0  ISSUED:          0  USEFUL:      43434  USELESS:    1381907
L2C USEFUL LOAD PREFETCHES:      43434 PREFETCH ISSUED TO LOWER LEVEL:    1438811  ACCURACY: 3.01874
L2C TIMELY PREFETCHES:      43434 LATE PREFETCHES: 16056 DROPPED PREFETCHES: 0
L2C PREFETCHES SAME FILL-ORIGIN LEVEL: 371073 DIFFERENT FILL-ORIGIN LEVEL: 0
L2C AVERAGE MISS LATENCY: 204.575 cycles
L2C RQ	ACCESS:    8075336	FORWARD:          0	MERGED:          0	TO_CACHE:    8075336
L2C WQ	ACCESS:     156259	FORWARD:          0	MERGED:          0	TO_CACHE:     156259
L2C PQ	ACCESS:    8488283	FORWARD:          0	MERGED:       7291	TO_CACHE:    8480992

L2C Instructions Evicting Data 126
L2C Translations Evicting Data 3822
L2C Data Evicting Data 3561116
L2C Instructions Evicting Instructions 0
L2C Translations Evicting Instructions 0
L2C Data Evicting Instructions 126
L2C Instructions Evicting Translations 0
L2C Translations Evicting Translations 5
L2C Data Evicting Translations 3734
L2C Dense regions hint from L2: 0
PSCL5 TOTAL     ACCESS:    5580651  HIT:    5580651  MISS:          0  HIT %:        100  MISS %:          0   MPKI: 0
PSCL5 LOAD TRANSLATION ACCESS:      24069  HIT:      24069  MISS:          0  HIT %:        100  MISS %:          0   MPKI: 0
PSCL5 TRANSLATION FROM L1D PREFETCHER ACCESS:    5556582  HIT:    5556582  MISS:          0  HIT %:        100  MISS %:          0   MPKI: 0
PSCL5 PREFETCH  REQUESTED:          0  ISSUED:          0  USEFUL:          0  USELESS:          0
PSCL5 USEFUL LOAD PREFETCHES:          0 PREFETCH ISSUED TO LOWER LEVEL:          0  ACCURACY: -nan
PSCL5 TIMELY PREFETCHES:          0 LATE PREFETCHES: 0 DROPPED PREFETCHES: 0
PSCL5 PREFETCHES SAME FILL-ORIGIN LEVEL: 0 DIFFERENT FILL-ORIGIN LEVEL: 0

PSCL4 TOTAL     ACCESS:    5580651  HIT:    5580651  MISS:          0  HIT %:        100  MISS %:          0   MPKI: 0
PSCL4 LOAD TRANSLATION ACCESS:      24069  HIT:      24069  MISS:          0  HIT %:        100  MISS %:          0   MPKI: 0
PSCL4 TRANSLATION FROM L1D PREFETCHER ACCESS:    5556582  HIT:    5556582  MISS:          0  HIT %:        100  MISS %:          0   MPKI: 0
PSCL4 PREFETCH  REQUESTED:          0  ISSUED:          0  USEFUL:          0  USELESS:          0
PSCL4 USEFUL LOAD PREFETCHES:          0 PREFETCH ISSUED TO LOWER LEVEL:          0  ACCURACY: -nan
PSCL4 TIMELY PREFETCHES:          0 LATE PREFETCHES: 0 DROPPED PREFETCHES: 0
PSCL4 PREFETCHES SAME FILL-ORIGIN LEVEL: 0 DIFFERENT FILL-ORIGIN LEVEL: 0

PSCL3 TOTAL     ACCESS:    5580651  HIT:    5580651  MISS:          0  HIT %:        100  MISS %:          0   MPKI: 0
PSCL3 LOAD TRANSLATION ACCESS:      24069  HIT:      24069  MISS:          0  HIT %:        100  MISS %:          0   MPKI: 0
PSCL3 TRANSLATION FROM L1D PREFETCHER ACCESS:    5556582  HIT:    5556582  MISS:          0  HIT %:        100  MISS %:          0   MPKI: 0
PSCL3 PREFETCH  REQUESTED:          0  ISSUED:          0  USEFUL:          0  USELESS:          0
PSCL3 USEFUL LOAD PREFETCHES:          0 PREFETCH ISSUED TO LOWER LEVEL:          0  ACCURACY: -nan
PSCL3 TIMELY PREFETCHES:          0 LATE PREFETCHES: 0 DROPPED PREFETCHES: 0
PSCL3 PREFETCHES SAME FILL-ORIGIN LEVEL: 0 DIFFERENT FILL-ORIGIN LEVEL: 0

PSCL2 TOTAL     ACCESS:    5522706  HIT:    5522641  MISS:         65  HIT %:    99.9988  MISS %: 0.00117696   MPKI: 0.000325
PSCL2 LOAD TRANSLATION ACCESS:      24070  HIT:      24005  MISS:         65  HIT %:      99.73  MISS %:   0.270046   MPKI: 0.000325
PSCL2 TRANSLATION FROM L1D PREFETCHER ACCESS:    5498636  HIT:    5498636  MISS:          0  HIT %:        100  MISS %:          0   MPKI: 0
PSCL2 PREFETCH  REQUESTED:          0  ISSUED:          0  USEFUL:          0  USELESS:          0
PSCL2 USEFUL LOAD PREFETCHES:          0 PREFETCH ISSUED TO LOWER LEVEL:          0  ACCURACY: -nan
PSCL2 TIMELY PREFETCHES:          0 LATE PREFETCHES: 0 DROPPED PREFETCHES: 0
PSCL2 PREFETCHES SAME FILL-ORIGIN LEVEL: 0 DIFFERENT FILL-ORIGIN LEVEL: 0

LLC TOTAL     ACCESS:    3718854  HIT:    1193319  MISS:    2525535  HIT %:    32.0884  MISS %:    67.9116   MPKI: 12.6277
LLC LOAD      ACCESS:    1971140  HIT:    1026834  MISS:     944306  HIT %:    52.0934  MISS %:    47.9066   MPKI: 4.72153
LLC RFO       ACCESS:     152500  HIT:         98  MISS:     152402  HIT %:  0.0642623  MISS %:    99.9357   MPKI: 0.76201
LLC PREFETCH  ACCESS:    1437710  HIT:      19310  MISS:    1418400  HIT %:    1.34311  MISS %:    98.6569   MPKI: 7.092
LLC WRITEBACK ACCESS:     153695  HIT:     146617  MISS:       7078  HIT %:    95.3948  MISS %:    4.60522   MPKI: 0.03539
LLC LOAD TRANSLATION ACCESS:       1089  HIT:        403  MISS:        686  HIT %:    37.0064  MISS %:    62.9936   MPKI: 0.00343
LLC TRANSLATION FROM L1D PREFETCHER ACCESS:       2720  HIT:         57  MISS:       2663  HIT %:    2.09559  MISS %:    97.9044   MPKI: 0.013315
LLC PREFETCH  REQUESTED:          0  ISSUED:          0  USEFUL:      15177  USELESS:    5644937
LLC USEFUL LOAD PREFETCHES:      15177 PREFETCH ISSUED TO LOWER LEVEL:   12029901  ACCURACY: 0.126161
LLC TIMELY PREFETCHES:      15177 LATE PREFETCHES: 0 DROPPED PREFETCHES: 0
LLC PREFETCHES SAME FILL-ORIGIN LEVEL: 0 DIFFERENT FILL-ORIGIN LEVEL: 0
LLC AVERAGE MISS LATENCY: 980.689 cycles
LLC RQ	ACCESS:    8525623	FORWARD:          0	MERGED:          0	TO_CACHE:    8525623
LLC WQ	ACCESS:     617796	FORWARD:          0	MERGED:          0	TO_CACHE:     617796
LLC PQ	ACCESS:    5754735	FORWARD:          0	MERGED:          0	TO_CACHE:    5754735

LLC Dense regions hint to LLC: 0

RAW hits: 990531
Loads Generated: 50346851
Loads sent to L1D: 49356316
Stores Generated: 5202726
Stores sent to L1D: 5202726
Major fault: 0 Minor fault: 31005
Allocated PAGES: 124020

CPU 2 cumulative IPC: 0.476877 instructions: 200000001 cycles: 419395254
ITLB TOTAL     ACCESS:   41043574  HIT:   41043564  MISS:         10  HIT %:        100  MISS %: 2.43643e-05   MPKI: 5e-05
ITLB LOAD TRANSLATION ACCESS:   41043574  HIT:   41043564  MISS:         10  HIT %:        100  MISS %: 2.43643e-05   MPKI: 5e-05
ITLB PREFETCH  REQUESTED:          0  ISSUED:          0  USEFUL:          0  USELESS:          0
ITLB USEFUL LOAD PREFETCHES:          0 PREFETCH ISSUED TO LOWER LEVEL:          0  ACCURACY: -nan
ITLB TIMELY PREFETCHES:          0 LATE PREFETCHES: 0 DROPPED PREFETCHES: 0
ITLB PREFETCHES SAME FILL-ORIGIN LEVEL: 0 DIFFERENT FILL-ORIGIN LEVEL: 0
ITLB AVERAGE MISS LATENCY: 419.3 cycles
ITLB RQ	ACCESS:   48211785	FORWARD:          0	MERGED:    7160930	TO_CACHE:   41050855

DTLB TOTAL     ACCESS:   38487603  HIT:   36498180  MISS:    1989423  HIT %:     94.831  MISS %:      5.169   MPKI: 9.94711
DTLB LOAD TRANSLATION ACCESS:   38487603  HIT:   36498180  MISS:    1989423  HIT %:     94.831  MISS %:      5.169   MPKI: 9.94711
DTLB PREFETCH  REQUESTED:          0  ISSUED:          0  USEFUL:          0  USELESS:          0
DTLB USEFUL LOAD PREFETCHES:          0 PREFETCH ISSUED TO LOWER LEVEL:          0  ACCURACY: -nan
DTLB TIMELY PREFETCHES:          0 LATE PREFETCHES: 0 DROPPED PREFETCHES: 0
DTLB PREFETCHES SAME FILL-ORIGIN LEVEL: 0 DIFFERENT FILL-ORIGIN LEVEL: 0
DTLB AVERAGE MISS LATENCY: 10.9494 cycles
DTLB RQ	ACCESS:   39382024	FORWARD:          0	MERGED:     873637	TO_CACHE:   38508387

STLB TOTAL     ACCESS:   14635284  HIT:   14610438  MISS:      24846  HIT %:    99.8302  MISS %:   0.169768   MPKI: 0.12423
STLB LOAD TRANSLATION ACCESS:    1989433  HIT:    1965458  MISS:      23975  HIT %:    98.7949  MISS %:    1.20512   MPKI: 0.119875
STLB TRANSLATION FROM L1D PREFETCHER ACCESS:   12645851  HIT:   12644980  MISS:        871  HIT %:    99.9931  MISS %: 0.00688763   MPKI: 0.004355
STLB PREFETCH  REQUESTED:          0  ISSUED:          0  USEFUL:        883  USELESS:          0
STLB USEFUL LOAD PREFETCHES:        883 PREFETCH ISSUED TO LOWER LEVEL:          0  ACCURACY: inf
STLB TIMELY PREFETCHES:        883 LATE PREFETCHES: 3935 DROPPED PREFETCHES: 5614986
STLB PREFETCHES SAME FILL-ORIGIN LEVEL: 0 DIFFERENT FILL-ORIGIN LEVEL: 0
STLB AVERAGE MISS LATENCY: 138.337 cycles
STLB RQ	ACCESS:   83104481	FORWARD:          0	MERGED:   62719312	TO_CACHE:   20385169

STLB Hit, L1D data hit: 0
STLB Hit, L2C data hit: 0
STLB Hit, LLC data hit: 0
STLB Hit, LLC data miss: 0
STLB STLB hints to L2: 0
L1D TOTAL     ACCESS:  101493655  HIT:   97687461  MISS:    3806194  HIT %:    96.2498  MISS %:    3.75018   MPKI: 19.031
L1D LOAD      ACCESS:   34019633  HIT:   31671146  MISS:    2348487  HIT %:    93.0967  MISS %:    6.90333   MPKI: 11.7424
L1D RFO       ACCESS:    4413066  HIT:    4260561  MISS:     152505  HIT %:    96.5442  MISS %:    3.45576   MPKI: 0.762525
L1D PREFETCH  ACCESS:   63060956  HIT:   61755754  MISS:    1305202  HIT %:    97.9303  MISS %:    2.06975   MPKI: 6.52601
L1D PREFETCH  REQUESTED:  308104175  ISSUED:  247766646  USEFUL:    1296081  USELESS:       9469
L1D USEFUL LOAD PREFETCHES:    1296081 PREFETCH ISSUED TO LOWER LEVEL:    8361281  ACCURACY: 15.501
L1D TIMELY PREFETCHES:    1296081 LATE PREFETCHES: 13252 DROPPED PREFETCHES: 7754741
L1D PREFETCHES SAME FILL-ORIGIN LEVEL: 1318799 DIFFERENT FILL-ORIGIN LEVEL: 7042482
L1D AVERAGE MISS LATENCY: 172.058 cycles
L1D RQ	ACCESS:   49369300	FORWARD:          0	MERGED:   15187762	TO_CACHE:   34178340
L1D WQ	ACCESS:    5203700	FORWARD:       3198	MERGED:         16	TO_CACHE:    5203684
L1D PQ	ACCESS:  166652632	FORWARD:          0	MERGED:   85538618	TO_CACHE:   81114014

L1D UNIQUE REGIONS ACCESSED: 0
L1D REGIONS CONFLICTS: 0
L1D Cross Page Prefetch Requests: 22660940
L1D Same Page Prefetch Requests: 187849278
L1D ROI Sum of L1D PQ occupancy: 1888490204
L1D PREFETCHES PUSHED FROM L2C: 0
L1I TOTAL     ACCESS:   48201791  HIT:   48201665  MISS:        126  HIT %:    99.9997  MISS %: 0.000261401   MPKI: 0.00063
L1I LOAD      ACCESS:   48201791  HIT:   48201665  MISS:        126  HIT %:    99.9997  MISS %: 0.000261401   MPKI: 0.00063
L1I PREFETCH  REQUESTED:          0  ISSUED:          0  USEFUL:          0  USELESS:          0
L1I USEFUL LOAD PREFETCHES:          0 PREFETCH ISSUED TO LOWER LEVEL:          0  ACCURACY: -nan
L1I TIMELY PREFETCHES:          0 LATE PREFETCHES: 0 DROPPED PREFETCHES: 0
L1I PREFETCHES SAME FILL-ORIGIN LEVEL: 0 DIFFERENT FILL-ORIGIN LEVEL: 0
L1I AVERAGE MISS LATENCY: 262.667 cycles
L1I RQ	ACCESS:   62729844	FORWARD:          0	MERGED:   14518059	TO_CACHE:   48211785

BTB TOTAL     ACCESS:   38279970  HIT:   38279792  MISS:        178  HIT %:    99.9995  MISS %: 0.000464995   MPKI: 0.00089
BTB BRANCH_DIRECT_JUMP	ACCESS:    3506833  HIT:    3506803  MISS:         30
BTB BRANCH_INDIRECT	ACCESS:          0  HIT:          0  MISS:          0
BTB BRANCH_CONDITIONAL	ACCESS:   34773074  HIT:   34772973  MISS:        101
BTB BRANCH_DIRECT_CALL	ACCESS:         31  HIT:          9  MISS:         22
BTB BRANCH_INDIRECT_CALL	ACCESS:          0  HIT:          0  MISS:          0
BTB BRANCH_RETURN	ACCESS:         32  HIT:          7  MISS:         25
BTB BRANCH_OTHER ACCESS:          0  HIT:          0  MISS:          0

L2C TOTAL     ACCESS:   16080614  HIT:   12504906  MISS:    3575708  HIT %:    77.7639  MISS %:    22.2361   MPKI: 17.8785
L2C LOAD      ACCESS:    2335361  HIT:     345860  MISS:    1989501  HIT %:    14.8097  MISS %:    85.1903   MPKI: 9.9475
L2C DATA LOAD MPKI: 9.94687
L2C INSTRUCTION LOAD MPKI: 0.00063
L2C RFO       ACCESS:     152505  HIT:         28  MISS:     152477  HIT %:  0.0183601  MISS %:    99.9816   MPKI: 0.762385
L2C PREFETCH  ACCESS:    7789798  HIT:    6368720  MISS:    1421078  HIT %:    81.7572  MISS %:    18.2428   MPKI: 7.10539
L2C DATA PREFETCH MPKI: 7.10539
L2C INSTRUCTION PREFETCH MPKI: 0
L2C WRITEBACK ACCESS:     155970  HIT:     147094  MISS:       8876  HIT %:    94.3092  MISS %:    5.69084   MPKI: 0.04438
L2C LOAD TRANSLATION ACCESS:      23984  HIT:      22931  MISS:       1053  HIT %:    95.6096  MISS %:    4.39043   MPKI: 0.005265
L2C TRANSLATION FROM L1D PREFETCHER ACCESS:    5622996  HIT:    5620273  MISS:       2723  HIT %:    99.9516  MISS %:  0.0484261   MPKI: 0.013615
L2C PREFETCH  REQUESTED:          0  ISSUED:          0  USEFUL:      43090  USELESS:    1381188
L2C USEFUL LOAD PREFETCHES:      43090 PREFETCH ISSUED TO LOWER LEVEL:    1437894  ACCURACY: 2.99674
L2C TIMELY PREFETCHES:      43090 LATE PREFETCHES: 16175 DROPPED PREFETCHES: 0
L2C PREFETCHES SAME FILL-ORIGIN LEVEL: 368969 DIFFERENT FILL-ORIGIN LEVEL: 0
L2C AVERAGE MISS LATENCY: 203.766 cycles
L2C RQ	ACCESS:    8136455	FORWARD:          0	MERGED:          0	TO_CACHE:    8136455
L2C WQ	ACCESS:     156233	FORWARD:          0	MERGED:          0	TO_CACHE:     156233
L2C PQ	ACCESS:    8357738	FORWARD:          0	MERGED:       7089	TO_CACHE:    8350649

L2C Instructions Evicting Data 125
L2C Translations Evicting Data 3838
L2C Data Evicting Data 3560925
L2C Instructions Evicting Instructions 0
L2C Translations Evicting Instructions 0
L2C Data Evicting Instructions 126
L2C Instructions Evicting Translations 1
L2C Translations Evicting Translations 3
L2C Data Evicting Translations 3744
L2C Dense regions hint from L2: 0
PSCL5 TOTAL     ACCESS:    5643768  HIT:    5643768  MISS:          0  HIT %:        100  MISS %:          0   MPKI: 0
PSCL5 LOAD TRANSLATION ACCESS:      23976  HIT:      23976  MISS:          0  HIT %:        100  MISS %:          0   MPKI: 0
PSCL5 TRANSLATION FROM L1D PREFETCHER ACCESS:    5619792  HIT:    5619792  MISS:          0  HIT %:        100  MISS %:          0   MPKI: 0
PSCL5 PREFETCH  REQUESTED:          0  ISSUED:          0  USEFUL:          0  USELESS:          0
PSCL5 USEFUL LOAD PREFETCHES:          0 PREFETCH ISSUED TO LOWER LEVEL:          0  ACCURACY: -nan
PSCL5 TIMELY PREFETCHES:          0 LATE PREFETCHES: 0 DROPPED PREFETCHES: 0
PSCL5 PREFETCHES SAME FILL-ORIGIN LEVEL: 0 DIFFERENT FILL-ORIGIN LEVEL: 0

PSCL4 TOTAL     ACCESS:    5643768  HIT:    5643768  MISS:          0  HIT %:        100  MISS %:          0   MPKI: 0
PSCL4 LOAD TRANSLATION ACCESS:      23976  HIT:      23976  MISS:          0  HIT %:        100  MISS %:          0   MPKI: 0
PSCL4 TRANSLATION FROM L1D PREFETCHER ACCESS:    5619792  HIT:    5619792  MISS:          0  HIT %:        100  MISS %:          0   MPKI: 0
PSCL4 PREFETCH  REQUESTED:          0  ISSUED:          0  USEFUL:          0  USELESS:          0
PSCL4 USEFUL LOAD PREFETCHES:          0 PREFETCH ISSUED TO LOWER LEVEL:          0  ACCURACY: -nan
PSCL4 TIMELY PREFETCHES:          0 LATE PREFETCHES: 0 DROPPED PREFETCHES: 0
PSCL4 PREFETCHES SAME FILL-ORIGIN LEVEL: 0 DIFFERENT FILL-ORIGIN LEVEL: 0

PSCL3 TOTAL     ACCESS:    5643768  HIT:    5643768  MISS:          0  HIT %:        100  MISS %:          0   MPKI: 0
PSCL3 LOAD TRANSLATION ACCESS:      23976  HIT:      23976  MISS:          0  HIT %:        100  MISS %:          0   MPKI: 0
PSCL3 TRANSLATION FROM L1D PREFETCHER ACCESS:    5619792  HIT:    5619792  MISS:          0  HIT %:        100  MISS %:          0   MPKI: 0
PSCL3 PREFETCH  REQUESTED:          0  ISSUED:          0  USEFUL:          0  USELESS:          0
PSCL3 USEFUL LOAD PREFETCHES:          0 PREFETCH ISSUED TO LOWER LEVEL:          0  ACCURACY: -nan
PSCL3 TIMELY PREFETCHES:          0 LATE PREFETCHES: 0 DROPPED PREFETCHES: 0
PSCL3 PREFETCHES SAME FILL-ORIGIN LEVEL: 0 DIFFERENT FILL-ORIGIN LEVEL: 0

PSCL2 TOTAL     ACCESS:    5590803  HIT:    5590741  MISS:         62  HIT %:    99.9989  MISS %: 0.00110896   MPKI: 0.00031
PSCL2 LOAD TRANSLATION ACCESS:      23976  HIT:      23914  MISS:         62  HIT %:    99.7414  MISS %:   0.258592   MPKI: 0.00031
PSCL2 TRANSLATION FROM L1D PREFETCHER ACCESS:    5566827  HIT:    5566827  MISS:          0  HIT %:        100  MISS %:          0   MPKI: 0
PSCL2 PREFETCH  REQUESTED:          0  ISSUED:          0  USEFUL:          0  USELESS:          0
PSCL2 USEFUL LOAD PREFETCHES:          0 PREFETCH ISSUED TO LOWER LEVEL:          0  ACCURACY: -nan
PSCL2 TIMELY PREFETCHES:          0 LATE PREFETCHES: 0 DROPPED PREFETCHES: 0
PSCL2 PREFETCHES SAME FILL-ORIGIN LEVEL: 0 DIFFERENT FILL-ORIGIN LEVEL: 0

LLC TOTAL     ACCESS:    3720362  HIT:    1192500  MISS:    2527862  HIT %:    32.0533  MISS %:    67.9467   MPKI: 12.6393
LLC LOAD      ACCESS:    1973326  HIT:    1026692  MISS:     946634  HIT %:    52.0285  MISS %:    47.9715   MPKI: 4.73317
LLC RFO       ACCESS:     152477  HIT:         92  MISS:     152385  HIT %:   0.060337  MISS %:    99.9397   MPKI: 0.761925
LLC PREFETCH  ACCESS:    1437253  HIT:      19167  MISS:    1418086  HIT %:    1.33359  MISS %:    98.6664   MPKI: 7.09043
LLC WRITEBACK ACCESS:     153530  HIT:     146062  MISS:       7468  HIT %:    95.1358  MISS %:     4.8642   MPKI: 0.03734
LLC LOAD TRANSLATION ACCESS:       1053  HIT:        424  MISS:        629  HIT %:    40.2659  MISS %:    59.7341   MPKI: 0.003145
LLC TRANSLATION FROM L1D PREFETCHER ACCESS:       2723  HIT:         63  MISS:       2660  HIT %:    2.31362  MISS %:    97.6864   MPKI: 0.0133
LLC PREFETCH  REQUESTED:          0  ISSUED:          0  USEFUL:      15177  USELESS:    5644937
LLC USEFUL LOAD PREFETCHES:      15177 PREFETCH ISSUED TO LOWER LEVEL:   12029901  ACCURACY: 0.126161
LLC TIMELY PREFETCHES:      15177 LATE PREFETCHES: 0 DROPPED PREFETCHES: 0
LLC PREFETCHES SAME FILL-ORIGIN LEVEL: 0 DIFFERENT FILL-ORIGIN LEVEL: 0
LLC AVERAGE MISS LATENCY: 979.786 cycles
LLC RQ	ACCESS:    8525623	FORWARD:          0	MERGED:          0	TO_CACHE:    8525623
LLC WQ	ACCESS:     617796	FORWARD:          0	MERGED:          0	TO_CACHE:     617796
LLC PQ	ACCESS:    5754735	FORWARD:          0	MERGED:          0	TO_CACHE:    5754735

LLC Dense regions hint to LLC: 0

RAW hits: 990539
Loads Generated: 50346795
Loads sent to L1D: 49356256
Stores Generated: 5202713
Stores sent to L1D: 5202709
Major fault: 0 Minor fault: 31005
Allocated PAGES: 124020

CPU 3 cumulative IPC: 0.476425 instructions: 200000003 cycles: 419793343
ITLB TOTAL     ACCESS:   41043022  HIT:   41043012  MISS:         10  HIT %:        100  MISS %: 2.43647e-05   MPKI: 5e-05
ITLB LOAD TRANSLATION ACCESS:   41043022  HIT:   41043012  MISS:         10  HIT %:        100  MISS %: 2.43647e-05   MPKI: 5e-05
ITLB PREFETCH  REQUESTED:          0  ISSUED:          0  USEFUL:          0  USELESS:          0
ITLB USEFUL LOAD PREFETCHES:          0 PREFETCH ISSUED TO LOWER LEVEL:          0  ACCURACY: -nan
ITLB TIMELY PREFETCHES:          0 LATE PREFETCHES: 0 DROPPED PREFETCHES: 0
ITLB PREFETCHES SAME FILL-ORIGIN LEVEL: 0 DIFFERENT FILL-ORIGIN LEVEL: 0
ITLB AVERAGE MISS LATENCY: 400 cycles
ITLB RQ	ACCESS:   48201256	FORWARD:          0	MERGED:    7158231	TO_CACHE:   41043025

DTLB TOTAL     ACCESS:   38487186  HIT:   36497766  MISS:    1989420  HIT %:     94.831  MISS %:    5.16905   MPKI: 9.9471
DTLB LOAD TRANSLATION ACCESS:   38487186  HIT:   36497766  MISS:    1989420  HIT %:     94.831  MISS %:    5.16905   MPKI: 9.9471
DTLB PREFETCH  REQUESTED:          0  ISSUED:          0  USEFUL:          0  USELESS:          0
DTLB USEFUL LOAD PREFETCHES:          0 PREFETCH ISSUED TO LOWER LEVEL:          0  ACCURACY: -nan
DTLB TIMELY PREFETCHES:          0 LATE PREFETCHES: 0 DROPPED PREFETCHES: 0
DTLB PREFETCHES SAME FILL-ORIGIN LEVEL: 0 DIFFERENT FILL-ORIGIN LEVEL: 0
DTLB AVERAGE MISS LATENCY: 10.8778 cycles
DTLB RQ	ACCESS:   39371378	FORWARD:          0	MERGED:     873529	TO_CACHE:   38497849

STLB TOTAL     ACCESS:   14656490  HIT:   14631619  MISS:      24871  HIT %:    99.8303  MISS %:   0.169693   MPKI: 0.124355
STLB LOAD TRANSLATION ACCESS:    1989430  HIT:    1965433  MISS:      23997  HIT %:    98.7938  MISS %:    1.20622   MPKI: 0.119985
STLB TRANSLATION FROM L1D PREFETCHER ACCESS:   12667060  HIT:   12666186  MISS:        874  HIT %:    99.9931  MISS %: 0.00689979   MPKI: 0.00437
STLB PREFETCH  REQUESTED:          0  ISSUED:          0  USEFUL:        874  USELESS:          0
STLB USEFUL LOAD PREFETCHES:        874 PREFETCH ISSUED TO LOWER LEVEL:          0  ACCURACY: inf
STLB TIMELY PREFETCHES:        874 LATE PREFETCHES: 3873 DROPPED PREFETCHES: 5500915
STLB PREFETCHES SAME FILL-ORIGIN LEVEL: 0 DIFFERENT FILL-ORIGIN LEVEL: 0
STLB AVERAGE MISS LATENCY: 133.412 cycles
STLB RQ	ACCESS:   83265930	FORWARD:          0	MERGED:   62979860	TO_CACHE:   20286070

STLB Hit, L1D data hit: 0
STLB Hit, L2C data hit: 0
STLB Hit, LLC data hit: 0
STLB Hit, LLC data miss: 0
STLB STLB hints to L2: 0
L1D TOTAL     ACCESS:  101431741  HIT:   97625472  MISS:    3806269  HIT %:    96.2475  MISS %:    3.75254   MPKI: 19.0313
L1D LOAD      ACCESS:   34018980  HIT:   31670299  MISS:    2348681  HIT %:     93.096  MISS %:    6.90403   MPKI: 11.7434
L1D RFO       ACCESS:    4410803  HIT:    4258285  MISS:     152518  HIT %:    96.5422  MISS %:    3.45783   MPKI: 0.76259
L1D PREFETCH  ACCESS:   63001958  HIT:   61696888  MISS:    1305070  HIT %:    97.9285  MISS %:    2.07148   MPKI: 6.52535
L1D PREFETCH  REQUESTED:  308092726  ISSUED:  248495485  USEFUL:    1295543  USELESS:       9515
L1D USEFUL LOAD PREFETCHES:    1295543 PREFETCH ISSUED TO LOWER LEVEL:    8613674  ACCURACY: 15.0405
L1D TIMELY PREFETCHES:    1295543 LATE PREFETCHES: 13362 DROPPED PREFETCHES: 7658841
L1D PREFETCHES SAME FILL-ORIGIN LEVEL: 1318434 DIFFERENT FILL-ORIGIN LEVEL: 7295240
L1D AVERAGE MISS LATENCY: 172.346 cycles
L1D RQ	ACCESS:   49356223	FORWARD:          0	MERGED:   15184378	TO_CACHE:   34168662
L1D WQ	ACCESS:    5202733	FORWARD:       3183	MERGED:         17	TO_CACHE:    5202716
L1D PQ	ACCESS:  167218985	FORWARD:          0	MERGED:   85942485	TO_CACHE:   81276500

L1D UNIQUE REGIONS ACCESSED: 0
L1D REGIONS CONFLICTS: 0
L1D Cross Page Prefetch Requests: 22321997
L1D Same Page Prefetch Requests: 188956603
L1D ROI Sum of L1D PQ occupancy: 1872612059
L1D PREFETCHES PUSHED FROM L2C: 0
L1I TOTAL     ACCESS:   48201242  HIT:   48201116  MISS:        126  HIT %:    99.9997  MISS %: 0.000261404   MPKI: 0.00063
L1I LOAD      ACCESS:   48201242  HIT:   48201116  MISS:        126  HIT %:    99.9997  MISS %: 0.000261404   MPKI: 0.00063
L1I PREFETCH  REQUESTED:          0  ISSUED:          0  USEFUL:          0  USELESS:          0
L1I USEFUL LOAD PREFETCHES:          0 PREFETCH ISSUED TO LOWER LEVEL:          0  ACCURACY: -nan
L1I TIMELY PREFETCHES:          0 LATE PREFETCHES: 0 DROPPED PREFETCHES: 0
L1I PREFETCHES SAME FILL-ORIGIN LEVEL: 0 DIFFERENT FILL-ORIGIN LEVEL: 0
L1I AVERAGE MISS LATENCY: 269.452 cycles
L1I RQ	ACCESS:   62717330	FORWARD:          0	MERGED:   14516074	TO_CACHE:   48201256

BTB TOTAL     ACCESS:   38280012  HIT:   38279839  MISS:        173  HIT %:    99.9995  MISS %: 0.000451933   MPKI: 0.000865
BTB BRANCH_DIRECT_JUMP	ACCESS:    3506845  HIT:    3506817  MISS:         28
BTB BRANCH_INDIRECT	ACCESS:          0  HIT:          0  MISS:          0
BTB BRANCH_CONDITIONAL	ACCESS:   34773104  HIT:   34773006  MISS:         98
BTB BRANCH_DIRECT_CALL	ACCESS:         31  HIT:          9  MISS:         22
BTB BRANCH_INDIRECT_CALL	ACCESS:          0  HIT:          0  MISS:          0
BTB BRANCH_RETURN	ACCESS:         32  HIT:          7  MISS:         25
BTB BRANCH_OTHER ACCESS:          0  HIT:          0  MISS:          0

L2C TOTAL     ACCESS:   16223686  HIT:   12649825  MISS:    3573861  HIT %:    77.9713  MISS %:    22.0287   MPKI: 17.8693
L2C LOAD      ACCESS:    2335445  HIT:     346991  MISS:    1988454  HIT %:    14.8576  MISS %:    85.1424   MPKI: 9.94227
L2C DATA LOAD MPKI: 9.94164
L2C INSTRUCTION LOAD MPKI: 0.00063
L2C RFO       ACCESS:     152518  HIT:         14  MISS:     152504  HIT %: 0.00917924  MISS %:    99.9908   MPKI: 0.76252
L2C PREFETCH  ACCESS:    8046853  HIT:    6626251  MISS:    1420602  HIT %:    82.3459  MISS %:    17.6541   MPKI: 7.10301
L2C DATA PREFETCH MPKI: 7.10301
L2C INSTRUCTION PREFETCH MPKI: 0
L2C WRITEBACK ACCESS:     155982  HIT:     147401  MISS:       8581  HIT %:    94.4987  MISS %:    5.50128   MPKI: 0.042905
L2C LOAD TRANSLATION ACCESS:      24009  HIT:      22993  MISS:       1016  HIT %:    95.7683  MISS %:    4.23175   MPKI: 0.00508
L2C TRANSLATION FROM L1D PREFETCHER ACCESS:    5508879  HIT:    5506175  MISS:       2704  HIT %:    99.9509  MISS %:  0.0490844   MPKI: 0.01352
L2C PREFETCH  REQUESTED:          0  ISSUED:          0  USEFUL:      43156  USELESS:    1379992
L2C USEFUL LOAD PREFETCHES:      43156 PREFETCH ISSUED TO LOWER LEVEL:    1436241  ACCURACY: 3.00479
L2C TIMELY PREFETCHES:      43156 LATE PREFETCHES: 15639 DROPPED PREFETCHES: 0
L2C PREFETCHES SAME FILL-ORIGIN LEVEL: 367994 DIFFERENT FILL-ORIGIN LEVEL: 0
L2C AVERAGE MISS LATENCY: 203.878 cycles
L2C RQ	ACCESS:    8020851	FORWARD:          0	MERGED:          0	TO_CACHE:    8020851
L2C WQ	ACCESS:     155982	FORWARD:          0	MERGED:          0	TO_CACHE:     155982
L2C PQ	ACCESS:    8612377	FORWARD:          0	MERGED:       6783	TO_CACHE:    8605594

L2C Instructions Evicting Data 126
L2C Translations Evicting Data 3720
L2C Data Evicting Data 3557627
L2C Instructions Evicting Instructions 0
L2C Translations Evicting Instructions 0
L2C Data Evicting Instructions 126
L2C Instructions Evicting Translations 0
L2C Translations Evicting Translations 0
L2C Data Evicting Translations 3681
L2C Dense regions hint from L2: 0
PSCL5 TOTAL     ACCESS:    5529659  HIT:    5529659  MISS:          0  HIT %:        100  MISS %:          0   MPKI: 0
PSCL5 LOAD TRANSLATION ACCESS:      23997  HIT:      23997  MISS:          0  HIT %:        100  MISS %:          0   MPKI: 0
PSCL5 TRANSLATION FROM L1D PREFETCHER ACCESS:    5505662  HIT:    5505662  MISS:          0  HIT %:        100  MISS %:          0   MPKI: 0
PSCL5 PREFETCH  REQUESTED:          0  ISSUED:          0  USEFUL:          0  USELESS:          0
PSCL5 USEFUL LOAD PREFETCHES:          0 PREFETCH ISSUED TO LOWER LEVEL:          0  ACCURACY: -nan
PSCL5 TIMELY PREFETCHES:          0 LATE PREFETCHES: 0 DROPPED PREFETCHES: 0
PSCL5 PREFETCHES SAME FILL-ORIGIN LEVEL: 0 DIFFERENT FILL-ORIGIN LEVEL: 0

PSCL4 TOTAL     ACCESS:    5529659  HIT:    5529659  MISS:          0  HIT %:        100  MISS %:          0   MPKI: 0
PSCL4 LOAD TRANSLATION ACCESS:      23997  HIT:      23997  MISS:          0  HIT %:        100  MISS %:          0   MPKI: 0
PSCL4 TRANSLATION FROM L1D PREFETCHER ACCESS:    5505662  HIT:    5505662  MISS:          0  HIT %:        100  MISS %:          0   MPKI: 0
PSCL4 PREFETCH  REQUESTED:          0  ISSUED:          0  USEFUL:          0  USELESS:          0
PSCL4 USEFUL LOAD PREFETCHES:          0 PREFETCH ISSUED TO LOWER LEVEL:          0  ACCURACY: -nan
PSCL4 TIMELY PREFETCHES:          0 LATE PREFETCHES: 0 DROPPED PREFETCHES: 0
PSCL4 PREFETCHES SAME FILL-ORIGIN LEVEL: 0 DIFFERENT FILL-ORIGIN LEVEL: 0

PSCL3 TOTAL     ACCESS:    5529659  HIT:    5529659  MISS:          0  HIT %:        100  MISS %:          0   MPKI: 0
PSCL3 LOAD TRANSLATION ACCESS:      23997  HIT:      23997  MISS:          0  HIT %:        100  MISS %:          0   MPKI: 0
PSCL3 TRANSLATION FROM L1D PREFETCHER ACCESS:    5505662  HIT:    5505662  MISS:          0  HIT %:        100  MISS %:          0   MPKI: 0
PSCL3 PREFETCH  REQUESTED:          0  ISSUED:          0  USEFUL:          0  USELESS:          0
PSCL3 USEFUL LOAD PREFETCHES:          0 PREFETCH ISSUED TO LOWER LEVEL:          0  ACCURACY: -nan
PSCL3 TIMELY PREFETCHES:          0 LATE PREFETCHES: 0 DROPPED PREFETCHES: 0
PSCL3 PREFETCHES SAME FILL-ORIGIN LEVEL: 0 DIFFERENT FILL-ORIGIN LEVEL: 0

PSCL2 TOTAL     ACCESS:    5472142  HIT:    5472077  MISS:         65  HIT %:    99.9988  MISS %: 0.00118783   MPKI: 0.000325
PSCL2 LOAD TRANSLATION ACCESS:      23998  HIT:      23933  MISS:         65  HIT %:    99.7291  MISS %:   0.270856   MPKI: 0.000325
PSCL2 TRANSLATION FROM L1D PREFETCHER ACCESS:    5448144  HIT:    5448144  MISS:          0  HIT %:        100  MISS %:          0   MPKI: 0
PSCL2 PREFETCH  REQUESTED:          0  ISSUED:          0  USEFUL:          0  USELESS:          0
PSCL2 USEFUL LOAD PREFETCHES:          0 PREFETCH ISSUED TO LOWER LEVEL:          0  ACCURACY: -nan
PSCL2 TIMELY PREFETCHES:          0 LATE PREFETCHES: 0 DROPPED PREFETCHES: 0
PSCL2 PREFETCHES SAME FILL-ORIGIN LEVEL: 0 DIFFERENT FILL-ORIGIN LEVEL: 0

LLC TOTAL     ACCESS:    3718714  HIT:    1184945  MISS:    2533769  HIT %:    31.8644  MISS %:    68.1356   MPKI: 12.6688
LLC LOAD      ACCESS:    1972815  HIT:    1020081  MISS:     952734  HIT %:    51.7069  MISS %:    48.2931   MPKI: 4.76367
LLC RFO       ACCESS:     152504  HIT:        116  MISS:     152388  HIT %:  0.0760636  MISS %:    99.9239   MPKI: 0.76194
LLC PREFETCH  ACCESS:    1436241  HIT:      18678  MISS:    1417563  HIT %:    1.30048  MISS %:    98.6995   MPKI: 7.08781
LLC WRITEBACK ACCESS:     153434  HIT:     145653  MISS:       7781  HIT %:    94.9288  MISS %:    5.07124   MPKI: 0.038905
LLC LOAD TRANSLATION ACCESS:       1016  HIT:        367  MISS:        649  HIT %:     36.122  MISS %:     63.878   MPKI: 0.003245
LLC TRANSLATION FROM L1D PREFETCHER ACCESS:       2704  HIT:         50  MISS:       2654  HIT %:    1.84911  MISS %:    98.1509   MPKI: 0.01327
LLC PREFETCH  REQUESTED:          0  ISSUED:          0  USEFUL:      15177  USELESS:    5644937
LLC USEFUL LOAD PREFETCHES:      15177 PREFETCH ISSUED TO LOWER LEVEL:   12029901  ACCURACY: 0.126161
LLC TIMELY PREFETCHES:      15177 LATE PREFETCHES: 0 DROPPED PREFETCHES: 0
LLC PREFETCHES SAME FILL-ORIGIN LEVEL: 0 DIFFERENT FILL-ORIGIN LEVEL: 0
LLC AVERAGE MISS LATENCY: 977.502 cycles
LLC RQ	ACCESS:    8525623	FORWARD:          0	MERGED:          0	TO_CACHE:    8525623
LLC WQ	ACCESS:     617796	FORWARD:          0	MERGED:          0	TO_CACHE:     617796
LLC PQ	ACCESS:    5754735	FORWARD:          0	MERGED:          0	TO_CACHE:    5754735

LLC Dense regions hint to LLC: 0

RAW hits: 990593
Loads Generated: 50346816
Loads sent to L1D: 49356223
Stores Generated: 5202735
Stores sent to L1D: 5202733
Major fault: 0 Minor fault: 31005
Allocated PAGES: 124020

DRAM Statistics
 CHANNEL 0
 RQ ROW_BUFFER_HIT:    2180695  ROW_BUFFER_MISS:    7905857
 DBUS_CONGESTED:       1504
 WQ ROW_BUFFER_HIT:      75889  ROW_BUFFER_MISS:     507235  FULL:          0

 AVG_CONGESTED_CYCLE: 5
 All warmup complete: 5
Channel 0 Bank busy for read cycles: 0
Channel 0 Bank busy for write cycles: 0
Channel 0
Rank 0
0banks busy for read cycles: 2402920
0banks busy for write cycles: 1126
1banks busy for read cycles: 47643398
1banks busy for write cycles: 695610
2banks busy for read cycles: 85873471
2banks busy for write cycles: 464100
3banks busy for read cycles: 101534373
3banks busy for write cycles: 379565
4banks busy for read cycles: 75420426
4banks busy for write cycles: 339861
5banks busy for read cycles: 41074508
5banks busy for write cycles: 315005
6banks busy for read cycles: 18797504
6banks busy for write cycles: 339095
7banks busy for read cycles: 8817233
7banks busy for write cycles: 1390501
8banks busy for read cycles: 12113764
8banks busy for write cycles: 22190883

CPU 0 Branch Prediction Accuracy: 95.5837% MPKI: 10.2934 Average ROB Occupancy at Mispredict: 33.672
Branch types
NOT_BRANCH: 153678759 76.6919%
BRANCH_DIRECT_JUMP: 3514598 1.75393%
BRANCH_INDIRECT: 0 0%
BRANCH_CONDITIONAL: 43191286 21.5542%
BRANCH_DIRECT_CALL: 31 1.54702e-05%
BRANCH_INDIRECT_CALL: 0 0%
BRANCH_RETURN: 32 1.59693e-05%
BRANCH_OTHER: 0 0%


CPU 1 Branch Prediction Accuracy: 95.5833% MPKI: 10.2942 Average ROB Occupancy at Mispredict: 33.6704
Branch types
NOT_BRANCH: 153456198 76.6921%
BRANCH_DIRECT_JUMP: 3508688 1.75352%
BRANCH_INDIRECT: 0 0%
BRANCH_CONDITIONAL: 43128830 21.5543%
BRANCH_DIRECT_CALL: 31 1.54927e-05%
BRANCH_INDIRECT_CALL: 0 0%
BRANCH_RETURN: 32 1.59925e-05%
BRANCH_OTHER: 0 0%


CPU 2 Branch Prediction Accuracy: 95.5834% MPKI: 10.2942 Average ROB Occupancy at Mispredict: 33.6743
Branch types
NOT_BRANCH: 153417814 76.6921%
BRANCH_DIRECT_JUMP: 3507603 1.75342%
BRANCH_INDIRECT: 0 0%
BRANCH_CONDITIONAL: 43118216 21.5544%
BRANCH_DIRECT_CALL: 31 1.54966e-05%
BRANCH_INDIRECT_CALL: 0 0%
BRANCH_RETURN: 32 1.59965e-05%
BRANCH_OTHER: 0 0%


CPU 3 Branch Prediction Accuracy: 95.5832% MPKI: 10.2945 Average ROB Occupancy at Mispredict: 33.6666
Branch types
NOT_BRANCH: 153384447 76.6922%
BRANCH_DIRECT_JUMP: 3506845 1.75342%
BRANCH_INDIRECT: 0 0%
BRANCH_CONDITIONAL: 43108661 21.5543%
BRANCH_DIRECT_CALL: 31 1.55e-05%
BRANCH_INDIRECT_CALL: 0 0%
BRANCH_RETURN: 32 1.6e-05%
BRANCH_OTHER: 0 0%

DRAM PAGES: 1048576
Allocated PAGES: 124020
