
*** ChampSim Multicore Out-of-Order Simulator ***

Warmup Instructions: 50000000
Simulation Instructions: 200000000
Number of CPUs: 4
LLC sets: 8192
LLC ways: 16
Off-chip DRAM Size: 4096 MB Channels: 1 Width: 64-bit Data Rate: 6400 MT/s
CPU 0 runs ./traces/spec/433.milc-337B.champsimtrace.xz
.xz
CPU 1 runs ./traces/ligra/ligra_Components-Shortcut.com-lj.ungraph.gcc_6.3.0_O3.drop_11500M.length_250M.champsimtrace.xz
.xz
CPU 2 runs ./traces/gap/pr-14.trace.gz
.gz
CPU 3 runs ./traces/ligra/ligra_BC.com-lj.ungraph.gcc_6.3.0_O3.drop_500M.length_250M.champsimtrace.xz
.xz
BTB has LRU replacement policy
ITLB has LRU replacement policy
DTLB has LRU replacement policy
STLB has LRU replacement policy
L1I has LRU replacement policy
History Sets: 8
History Ways: 16
BERTI Size: 16
BERTI Stride Size: 8
L1D has LRU replacement policy
Initialize SRRIP state for L2C
Initialize DRRIP state for LLC
BTB has LRU replacement policy
ITLB has LRU replacement policy
DTLB has LRU replacement policy
STLB has LRU replacement policy
L1I has LRU replacement policy
History Sets: 8
History Ways: 16
BERTI Size: 16
BERTI Stride Size: 8
L1D has LRU replacement policy
Initialize SRRIP state for L2C
Initialize DRRIP state for LLC
BTB has LRU replacement policy
ITLB has LRU replacement policy
DTLB has LRU replacement policy
STLB has LRU replacement policy
L1I has LRU replacement policy
History Sets: 8
History Ways: 16
BERTI Size: 16
BERTI Stride Size: 8
L1D has LRU replacement policy
Initialize SRRIP state for L2C
Initialize DRRIP state for LLC
BTB has LRU replacement policy
ITLB has LRU replacement policy
DTLB has LRU replacement policy
STLB has LRU replacement policy
L1I has LRU replacement policy
History Sets: 8
History Ways: 16
BERTI Size: 16
BERTI Stride Size: 8
L1D has LRU replacement policy
Initialize SRRIP state for L2C
Initialize DRRIP state for LLC
Heartbeat CPU 0 instructions: 10000001 cycles: 2585456 heartbeat IPC: 3.86779 cumulative IPC: 3.86779 (Simulation time: 0 hr 2 min 33 sec) 
Heartbeat CPU 1 instructions: 10000001 cycles: 2932848 heartbeat IPC: 3.40966 cumulative IPC: 3.40966 (Simulation time: 0 hr 2 min 55 sec) 
Heartbeat CPU 3 instructions: 10000002 cycles: 3333349 heartbeat IPC: 2.99999 cumulative IPC: 2.99999 (Simulation time: 0 hr 3 min 18 sec) 
Heartbeat CPU 2 instructions: 10000001 cycles: 3333485 heartbeat IPC: 2.99986 cumulative IPC: 2.99986 (Simulation time: 0 hr 3 min 18 sec) 
Heartbeat CPU 0 instructions: 20000002 cycles: 5170955 heartbeat IPC: 3.86773 cumulative IPC: 3.86776 (Simulation time: 0 hr 5 min 11 sec) 
Heartbeat CPU 1 instructions: 20000001 cycles: 5864014 heartbeat IPC: 3.41161 cumulative IPC: 3.41063 (Simulation time: 0 hr 5 min 53 sec) 
Heartbeat CPU 3 instructions: 20000002 cycles: 6666682 heartbeat IPC: 3 cumulative IPC: 2.99999 (Simulation time: 0 hr 6 min 44 sec) 
Heartbeat CPU 0 instructions: 30000001 cycles: 7756529 heartbeat IPC: 3.86761 cumulative IPC: 3.86771 (Simulation time: 0 hr 7 min 58 sec) 
Heartbeat CPU 1 instructions: 30000000 cycles: 8795904 heartbeat IPC: 3.41077 cumulative IPC: 3.41068 (Simulation time: 0 hr 9 min 6 sec) 
Heartbeat CPU 2 instructions: 20000001 cycles: 9508725 heartbeat IPC: 1.61937 cumulative IPC: 2.10333 (Simulation time: 0 hr 9 min 50 sec) 
Heartbeat CPU 3 instructions: 30000002 cycles: 10000015 heartbeat IPC: 3 cumulative IPC: 3 (Simulation time: 0 hr 10 min 20 sec) 
Heartbeat CPU 0 instructions: 40000001 cycles: 10342027 heartbeat IPC: 3.86773 cumulative IPC: 3.86771 (Simulation time: 0 hr 10 min 41 sec) 
Heartbeat CPU 1 instructions: 40000001 cycles: 11728371 heartbeat IPC: 3.4101 cumulative IPC: 3.41053 (Simulation time: 0 hr 12 min 2 sec) 
Heartbeat CPU 0 instructions: 50000000 cycles: 12927534 heartbeat IPC: 3.86771 cumulative IPC: 3.86771 (Simulation time: 0 hr 13 min 19 sec) 
Heartbeat CPU 3 instructions: 40000000 cycles: 13333348 heartbeat IPC: 3 cumulative IPC: 3 (Simulation time: 0 hr 13 min 40 sec) 
Heartbeat CPU 1 instructions: 50000000 cycles: 14658583 heartbeat IPC: 3.41272 cumulative IPC: 3.41097 (Simulation time: 0 hr 15 min 1 sec) 
Heartbeat CPU 0 instructions: 60000001 cycles: 16028741 heartbeat IPC: 3.22455 cumulative IPC: 0.623879 (Simulation time: 0 hr 16 min 17 sec) 
Heartbeat CPU 2 instructions: 30000003 cycles: 16172466 heartbeat IPC: 1.50066 cumulative IPC: 1.855 (Simulation time: 0 hr 16 min 25 sec) 
Heartbeat CPU 3 instructions: 50000002 cycles: 16666681 heartbeat IPC: 3 cumulative IPC: 3 (Simulation time: 0 hr 16 min 51 sec) 
Heartbeat CPU 1 instructions: 60000000 cycles: 18436240 heartbeat IPC: 2.64714 cumulative IPC: 0.54241 (Simulation time: 0 hr 18 min 23 sec) 
Heartbeat CPU 0 instructions: 70000001 cycles: 18623470 heartbeat IPC: 3.85397 cumulative IPC: 1.07391 (Simulation time: 0 hr 18 min 32 sec) 
Heartbeat CPU 3 instructions: 60000000 cycles: 20063913 heartbeat IPC: 2.94357 cumulative IPC: 0.498407 (Simulation time: 0 hr 19 min 47 sec) 
Heartbeat CPU 0 instructions: 80000001 cycles: 21202986 heartbeat IPC: 3.8767 cumulative IPC: 1.4149 (Simulation time: 0 hr 20 min 52 sec) 
Heartbeat CPU 1 instructions: 70000000 cycles: 22177718 heartbeat IPC: 2.67274 cumulative IPC: 0.901806 (Simulation time: 0 hr 21 min 45 sec) 
Heartbeat CPU 2 instructions: 40000003 cycles: 22843369 heartbeat IPC: 1.49905 cumulative IPC: 1.75106 (Simulation time: 0 hr 22 min 20 sec) 
Heartbeat CPU 3 instructions: 70000000 cycles: 23467479 heartbeat IPC: 2.93809 cumulative IPC: 0.852243 (Simulation time: 0 hr 22 min 52 sec) 
Heartbeat CPU 0 instructions: 90000002 cycles: 23773818 heartbeat IPC: 3.88979 cumulative IPC: 1.68252 (Simulation time: 0 hr 23 min 8 sec) 
Heartbeat CPU 1 instructions: 80000001 cycles: 25928856 heartbeat IPC: 2.66586 cumulative IPC: 1.15701 (Simulation time: 0 hr 25 min 2 sec) 
Heartbeat CPU 0 instructions: 100000002 cycles: 26344714 heartbeat IPC: 3.88969 cumulative IPC: 1.89791 (Simulation time: 0 hr 25 min 20 sec) 
Heartbeat CPU 3 instructions: 80000001 cycles: 26875724 heartbeat IPC: 2.93406 cumulative IPC: 1.11625 (Simulation time: 0 hr 25 min 48 sec) 
Heartbeat CPU 0 instructions: 110000000 cycles: 28915558 heartbeat IPC: 3.88977 cumulative IPC: 2.07501 (Simulation time: 0 hr 27 min 40 sec) 
Heartbeat CPU 2 instructions: 50000000 cycles: 29521141 heartbeat IPC: 1.4975 cumulative IPC: 1.6937 (Simulation time: 0 hr 28 min 15 sec) 

Warmup complete CPU 0 instructions: 112355593 cycles: 29521145 (Simulation time: 0 hr 28 min 15 sec) 
Warmup complete CPU 1 instructions: 89545588 cycles: 29521145 (Simulation time: 0 hr 28 min 15 sec) 
Warmup complete CPU 2 instructions: 50000004 cycles: 29521145 (Simulation time: 0 hr 28 min 15 sec) 
Warmup complete CPU 3 instructions: 87749214 cycles: 29521144 (Simulation time: 0 hr 28 min 15 sec) 

Heartbeat CPU 1 instructions: 90000002 cycles: 30045206 heartbeat IPC: 2.42934 cumulative IPC: 0.867101 (Simulation time: 0 hr 28 min 26 sec) 
Heartbeat CPU 3 instructions: 90000002 cycles: 31471623 heartbeat IPC: 2.17585 cumulative IPC: 1.15397 (Simulation time: 0 hr 28 min 55 sec) 
Heartbeat CPU 0 instructions: 120000003 cycles: 35401524 heartbeat IPC: 1.54179 cumulative IPC: 1.29999 (Simulation time: 0 hr 30 min 12 sec) 
Heartbeat CPU 3 instructions: 100000003 cycles: 40068424 heartbeat IPC: 1.16322 cumulative IPC: 1.16151 (Simulation time: 0 hr 31 min 43 sec) 
Heartbeat CPU 1 instructions: 100000002 cycles: 42033568 heartbeat IPC: 0.834142 cumulative IPC: 0.835523 (Simulation time: 0 hr 32 min 20 sec) 
Heartbeat CPU 0 instructions: 130000002 cycles: 44660241 heartbeat IPC: 1.08006 cumulative IPC: 1.16549 (Simulation time: 0 hr 33 min 4 sec) 
Heartbeat CPU 3 instructions: 110000000 cycles: 48953134 heartbeat IPC: 1.12553 cumulative IPC: 1.14506 (Simulation time: 0 hr 34 min 20 sec) 
Heartbeat CPU 0 instructions: 140000002 cycles: 53255020 heartbeat IPC: 1.1635 cumulative IPC: 1.16477 (Simulation time: 0 hr 35 min 39 sec) 
Heartbeat CPU 1 instructions: 110000000 cycles: 54089763 heartbeat IPC: 0.829449 cumulative IPC: 0.832542 (Simulation time: 0 hr 35 min 54 sec) 
Heartbeat CPU 3 instructions: 120000003 cycles: 57812780 heartbeat IPC: 1.12871 cumulative IPC: 1.13994 (Simulation time: 0 hr 37 min 2 sec) 
Heartbeat CPU 0 instructions: 150000003 cycles: 61509945 heartbeat IPC: 1.2114 cumulative IPC: 1.1768 (Simulation time: 0 hr 38 min 11 sec) 
Heartbeat CPU 1 instructions: 120000001 cycles: 65962741 heartbeat IPC: 0.842249 cumulative IPC: 0.835705 (Simulation time: 0 hr 39 min 34 sec) 
Heartbeat CPU 3 instructions: 130000002 cycles: 66710190 heartbeat IPC: 1.12392 cumulative IPC: 1.13611 (Simulation time: 0 hr 39 min 47 sec) 
Heartbeat CPU 0 instructions: 160000001 cycles: 69855044 heartbeat IPC: 1.19831 cumulative IPC: 1.18125 (Simulation time: 0 hr 40 min 43 sec) 
Heartbeat CPU 3 instructions: 140000001 cycles: 75677922 heartbeat IPC: 1.11511 cumulative IPC: 1.13203 (Simulation time: 0 hr 42 min 25 sec) 
Heartbeat CPU 1 instructions: 130000002 cycles: 77700867 heartbeat IPC: 0.851925 cumulative IPC: 0.839656 (Simulation time: 0 hr 43 min 2 sec) 
Heartbeat CPU 0 instructions: 170000000 cycles: 78148286 heartbeat IPC: 1.2058 cumulative IPC: 1.18544 (Simulation time: 0 hr 43 min 10 sec) 
Heartbeat CPU 3 instructions: 150000002 cycles: 84626356 heartbeat IPC: 1.11751 cumulative IPC: 1.12967 (Simulation time: 0 hr 44 min 57 sec) 
Heartbeat CPU 0 instructions: 180000003 cycles: 86417811 heartbeat IPC: 1.20926 cumulative IPC: 1.1889 (Simulation time: 0 hr 45 min 29 sec) 
Heartbeat CPU 1 instructions: 140000000 cycles: 89781890 heartbeat IPC: 0.827744 cumulative IPC: 0.837268 (Simulation time: 0 hr 46 min 31 sec) 
Heartbeat CPU 3 instructions: 160000001 cycles: 93633496 heartbeat IPC: 1.11023 cumulative IPC: 1.12694 (Simulation time: 0 hr 47 min 41 sec) 
Heartbeat CPU 0 instructions: 190000000 cycles: 94587469 heartbeat IPC: 1.22404 cumulative IPC: 1.19331 (Simulation time: 0 hr 47 min 59 sec) 
Heartbeat CPU 1 instructions: 150000002 cycles: 102016380 heartbeat IPC: 0.817362 cumulative IPC: 0.833909 (Simulation time: 0 hr 50 min 10 sec) 
Heartbeat CPU 3 instructions: 170000001 cycles: 102693060 heartbeat IPC: 1.10381 cumulative IPC: 1.12408 (Simulation time: 0 hr 50 min 22 sec) 
Heartbeat CPU 0 instructions: 200000001 cycles: 104128471 heartbeat IPC: 1.04811 cumulative IPC: 1.17474 (Simulation time: 0 hr 50 min 46 sec) 
Heartbeat CPU 3 instructions: 180000000 cycles: 111498412 heartbeat IPC: 1.13567 cumulative IPC: 1.12532 (Simulation time: 0 hr 52 min 50 sec) 
Heartbeat CPU 1 instructions: 160000002 cycles: 114150917 heartbeat IPC: 0.824094 cumulative IPC: 0.832502 (Simulation time: 0 hr 53 min 35 sec) 
Heartbeat CPU 0 instructions: 210000003 cycles: 118407199 heartbeat IPC: 0.700343 cumulative IPC: 1.09853 (Simulation time: 0 hr 54 min 46 sec) 
Heartbeat CPU 3 instructions: 190000003 cycles: 120255093 heartbeat IPC: 1.14199 cumulative IPC: 1.12693 (Simulation time: 0 hr 55 min 19 sec) 
Heartbeat CPU 1 instructions: 170000003 cycles: 126263211 heartbeat IPC: 0.825608 cumulative IPC: 0.831638 (Simulation time: 0 hr 57 min 1 sec) 
Heartbeat CPU 3 instructions: 200000000 cycles: 129008478 heartbeat IPC: 1.14241 cumulative IPC: 1.12829 (Simulation time: 0 hr 57 min 46 sec) 
Heartbeat CPU 0 instructions: 220000000 cycles: 132089577 heartbeat IPC: 0.730867 cumulative IPC: 1.04949 (Simulation time: 0 hr 58 min 39 sec) 
Heartbeat CPU 3 instructions: 210000000 cycles: 137716945 heartbeat IPC: 1.14831 cumulative IPC: 1.1299 (Simulation time: 1 hr 0 min 13 sec) 
Heartbeat CPU 1 instructions: 180000002 cycles: 138477678 heartbeat IPC: 0.818701 cumulative IPC: 0.830188 (Simulation time: 1 hr 0 min 25 sec) 
Heartbeat CPU 0 instructions: 230000001 cycles: 146402643 heartbeat IPC: 0.698662 cumulative IPC: 1.00653 (Simulation time: 1 hr 2 min 35 sec) 
Heartbeat CPU 3 instructions: 220000000 cycles: 146478681 heartbeat IPC: 1.14133 cumulative IPC: 1.13076 (Simulation time: 1 hr 2 min 37 sec) 
Heartbeat CPU 1 instructions: 190000000 cycles: 150670197 heartbeat IPC: 0.820175 cumulative IPC: 0.82918 (Simulation time: 1 hr 3 min 44 sec) 
Heartbeat CPU 3 instructions: 230000001 cycles: 155407842 heartbeat IPC: 1.11993 cumulative IPC: 1.12999 (Simulation time: 1 hr 5 min 2 sec) 
Heartbeat CPU 1 instructions: 200000002 cycles: 162784693 heartbeat IPC: 0.825458 cumulative IPC: 0.828842 (Simulation time: 1 hr 6 min 51 sec) 
Heartbeat CPU 3 instructions: 240000000 cycles: 164380909 heartbeat IPC: 1.11445 cumulative IPC: 1.12896 (Simulation time: 1 hr 7 min 15 sec) 
Heartbeat CPU 0 instructions: 240000002 cycles: 172689128 heartbeat IPC: 0.380424 cumulative IPC: 0.891571 (Simulation time: 1 hr 9 min 20 sec) 
*** Reached end of trace for Core: 3 Repeating trace: ./traces/ligra/ligra_BC.com-lj.ungraph.gcc_6.3.0_O3.drop_500M.length_250M.champsimtrace.xz
Heartbeat CPU 3 instructions: 250000003 cycles: 173248247 heartbeat IPC: 1.12773 cumulative IPC: 1.12888 (Simulation time: 1 hr 9 min 29 sec) 
Heartbeat CPU 1 instructions: 210000002 cycles: 174800550 heartbeat IPC: 0.832234 cumulative IPC: 0.829122 (Simulation time: 1 hr 9 min 53 sec) 
Heartbeat CPU 3 instructions: 260000001 cycles: 181778415 heartbeat IPC: 1.17231 cumulative IPC: 1.13131 (Simulation time: 1 hr 11 min 29 sec) 
Heartbeat CPU 1 instructions: 220000000 cycles: 186782761 heartbeat IPC: 0.83457 cumulative IPC: 0.829538 (Simulation time: 1 hr 12 min 47 sec) 
Heartbeat CPU 3 instructions: 270000002 cycles: 190323270 heartbeat IPC: 1.1703 cumulative IPC: 1.13339 (Simulation time: 1 hr 13 min 41 sec) 
Heartbeat CPU 1 instructions: 230000002 cycles: 198801265 heartbeat IPC: 0.832051 cumulative IPC: 0.829716 (Simulation time: 1 hr 15 min 58 sec) 
Heartbeat CPU 3 instructions: 280000000 cycles: 198859196 heartbeat IPC: 1.17152 cumulative IPC: 1.13531 (Simulation time: 1 hr 15 min 59 sec) 
Heartbeat CPU 0 instructions: 250000001 cycles: 201519265 heartbeat IPC: 0.346859 cumulative IPC: 0.800267 (Simulation time: 1 hr 16 min 45 sec) 
Finished CPU 3 instructions: 200000002 cycles: 175912637 cumulative IPC: 1.13693 (Simulation time: 1 hr 17 min 57 sec) 
Heartbeat CPU 3 instructions: 290000002 cycles: 207340883 heartbeat IPC: 1.17901 cumulative IPC: 1.13739 (Simulation time: 1 hr 18 min 32 sec) 
Heartbeat CPU 0 instructions: 260000000 cycles: 209999201 heartbeat IPC: 1.17925 cumulative IPC: 0.818074 (Simulation time: 1 hr 19 min 20 sec) 
Heartbeat CPU 1 instructions: 240000001 cycles: 210620788 heartbeat IPC: 0.846058 cumulative IPC: 0.830782 (Simulation time: 1 hr 19 min 32 sec) 
Heartbeat CPU 3 instructions: 300000001 cycles: 215849521 heartbeat IPC: 1.17528 cumulative IPC: 1.13912 (Simulation time: 1 hr 21 min 10 sec) 
Heartbeat CPU 0 instructions: 270000001 cycles: 218243567 heartbeat IPC: 1.21295 cumulative IPC: 0.835324 (Simulation time: 1 hr 21 min 54 sec) 
*** Reached end of trace for Core: 1 Repeating trace: ./traces/ligra/ligra_Components-Shortcut.com-lj.ungraph.gcc_6.3.0_O3.drop_11500M.length_250M.champsimtrace.xz
Heartbeat CPU 1 instructions: 250000001 cycles: 222353088 heartbeat IPC: 0.852348 cumulative IPC: 0.832095 (Simulation time: 1 hr 23 min 6 sec) 
Heartbeat CPU 3 instructions: 310000002 cycles: 224362689 heartbeat IPC: 1.17465 cumulative IPC: 1.14067 (Simulation time: 1 hr 23 min 44 sec) 
Heartbeat CPU 0 instructions: 280000000 cycles: 226699604 heartbeat IPC: 1.18259 cumulative IPC: 0.850217 (Simulation time: 1 hr 24 min 25 sec) 
Heartbeat CPU 3 instructions: 320000003 cycles: 232893859 heartbeat IPC: 1.17217 cumulative IPC: 1.142 (Simulation time: 1 hr 26 min 15 sec) 
Heartbeat CPU 1 instructions: 260000002 cycles: 234205687 heartbeat IPC: 0.843697 cumulative IPC: 0.832766 (Simulation time: 1 hr 26 min 40 sec) 
Heartbeat CPU 0 instructions: 290000003 cycles: 235183484 heartbeat IPC: 1.17871 cumulative IPC: 0.863767 (Simulation time: 1 hr 26 min 55 sec) 
Heartbeat CPU 3 instructions: 330000000 cycles: 241446590 heartbeat IPC: 1.16922 cumulative IPC: 1.14309 (Simulation time: 1 hr 28 min 39 sec) 
Heartbeat CPU 0 instructions: 300000003 cycles: 243733456 heartbeat IPC: 1.16959 cumulative IPC: 0.875974 (Simulation time: 1 hr 29 min 20 sec) 
Heartbeat CPU 1 instructions: 270000001 cycles: 246232693 heartbeat IPC: 0.831462 cumulative IPC: 0.832694 (Simulation time: 1 hr 30 min 1 sec) 
Heartbeat CPU 3 instructions: 340000001 cycles: 250002216 heartbeat IPC: 1.16882 cumulative IPC: 1.14409 (Simulation time: 1 hr 31 min 11 sec) 
Heartbeat CPU 0 instructions: 310000001 cycles: 252183991 heartbeat IPC: 1.18336 cumulative IPC: 0.88764 (Simulation time: 1 hr 31 min 48 sec) 
Finished CPU 0 instructions: 200000000 cycles: 224869702 cumulative IPC: 0.889404 (Simulation time: 1 hr 32 min 27 sec) 
Heartbeat CPU 1 instructions: 280000000 cycles: 258102139 heartbeat IPC: 0.842499 cumulative IPC: 0.833203 (Simulation time: 1 hr 33 min 29 sec) 
Heartbeat CPU 3 instructions: 350000000 cycles: 258495715 heartbeat IPC: 1.17737 cumulative IPC: 1.14533 (Simulation time: 1 hr 33 min 36 sec) 
Heartbeat CPU 0 instructions: 320000002 cycles: 260966940 heartbeat IPC: 1.13857 cumulative IPC: 0.897162 (Simulation time: 1 hr 34 min 22 sec) 
Heartbeat CPU 3 instructions: 360000000 cycles: 267016155 heartbeat IPC: 1.17365 cumulative IPC: 1.14634 (Simulation time: 1 hr 36 min 14 sec) 
Finished CPU 1 instructions: 200000002 cycles: 239842906 cumulative IPC: 0.833879 (Simulation time: 1 hr 36 min 55 sec) 
Heartbeat CPU 1 instructions: 290000001 cycles: 269877942 heartbeat IPC: 0.849199 cumulative IPC: 0.833987 (Simulation time: 1 hr 37 min 4 sec) 
Heartbeat CPU 0 instructions: 330000000 cycles: 271508933 heartbeat IPC: 0.948587 cumulative IPC: 0.899402 (Simulation time: 1 hr 37 min 31 sec) 
Heartbeat CPU 3 instructions: 370000001 cycles: 275565352 heartbeat IPC: 1.1697 cumulative IPC: 1.14715 (Simulation time: 1 hr 38 min 39 sec) 
Heartbeat CPU 0 instructions: 340000000 cycles: 280744395 heartbeat IPC: 1.08278 cumulative IPC: 0.906144 (Simulation time: 1 hr 40 min 9 sec) 
Heartbeat CPU 1 instructions: 300000000 cycles: 281622725 heartbeat IPC: 0.851442 cumulative IPC: 0.8348 (Simulation time: 1 hr 40 min 22 sec) 
Heartbeat CPU 3 instructions: 380000001 cycles: 284143194 heartbeat IPC: 1.16579 cumulative IPC: 1.14778 (Simulation time: 1 hr 41 min 7 sec) 
Heartbeat CPU 0 instructions: 350000000 cycles: 289876935 heartbeat IPC: 1.09499 cumulative IPC: 0.912768 (Simulation time: 1 hr 42 min 48 sec) 
Heartbeat CPU 3 instructions: 390000000 cycles: 292784833 heartbeat IPC: 1.15719 cumulative IPC: 1.14809 (Simulation time: 1 hr 43 min 36 sec) 
Heartbeat CPU 1 instructions: 310000000 cycles: 293561084 heartbeat IPC: 0.837636 cumulative IPC: 0.834928 (Simulation time: 1 hr 43 min 51 sec) 
Heartbeat CPU 0 instructions: 360000001 cycles: 299070183 heartbeat IPC: 1.08775 cumulative IPC: 0.918736 (Simulation time: 1 hr 45 min 27 sec) 
Heartbeat CPU 3 instructions: 400000001 cycles: 301436748 heartbeat IPC: 1.15581 cumulative IPC: 1.14834 (Simulation time: 1 hr 46 min 7 sec) 
Heartbeat CPU 1 instructions: 320000000 cycles: 305363772 heartbeat IPC: 0.847265 cumulative IPC: 0.835456 (Simulation time: 1 hr 47 min 18 sec) 
Heartbeat CPU 0 instructions: 370000000 cycles: 308611981 heartbeat IPC: 1.04802 cumulative IPC: 0.923156 (Simulation time: 1 hr 48 min 15 sec) 
Heartbeat CPU 3 instructions: 410000000 cycles: 310161867 heartbeat IPC: 1.14612 cumulative IPC: 1.14827 (Simulation time: 1 hr 48 min 41 sec) 
Heartbeat CPU 1 instructions: 330000000 cycles: 317218767 heartbeat IPC: 0.843526 cumulative IPC: 0.835789 (Simulation time: 1 hr 50 min 36 sec) 
Heartbeat CPU 0 instructions: 380000000 cycles: 317804800 heartbeat IPC: 1.08781 cumulative IPC: 0.928406 (Simulation time: 1 hr 50 min 45 sec) 
Heartbeat CPU 3 instructions: 420000000 cycles: 318941839 heartbeat IPC: 1.13896 cumulative IPC: 1.14799 (Simulation time: 1 hr 51 min 5 sec) 
Heartbeat CPU 0 instructions: 390000002 cycles: 326899015 heartbeat IPC: 1.0996 cumulative IPC: 0.933642 (Simulation time: 1 hr 53 min 28 sec) 
Heartbeat CPU 3 instructions: 430000000 cycles: 327530770 heartbeat IPC: 1.16429 cumulative IPC: 1.14846 (Simulation time: 1 hr 53 min 38 sec) 
Heartbeat CPU 1 instructions: 340000002 cycles: 329074224 heartbeat IPC: 0.843494 cumulative IPC: 0.836094 (Simulation time: 1 hr 54 min 5 sec) 
Heartbeat CPU 0 instructions: 400000003 cycles: 334851576 heartbeat IPC: 1.25746 cumulative IPC: 0.942076 (Simulation time: 1 hr 55 min 54 sec) 
Heartbeat CPU 3 instructions: 440000000 cycles: 336063396 heartbeat IPC: 1.17197 cumulative IPC: 1.14911 (Simulation time: 1 hr 56 min 18 sec) 
Heartbeat CPU 1 instructions: 350000002 cycles: 340962936 heartbeat IPC: 0.841134 cumulative IPC: 0.836286 (Simulation time: 1 hr 57 min 58 sec) 
Heartbeat CPU 0 instructions: 410000003 cycles: 341647554 heartbeat IPC: 1.47146 cumulative IPC: 0.953602 (Simulation time: 1 hr 58 min 12 sec) 
Heartbeat CPU 3 instructions: 450000002 cycles: 344544069 heartbeat IPC: 1.17915 cumulative IPC: 1.14992 (Simulation time: 1 hr 59 min 11 sec) 
Heartbeat CPU 0 instructions: 420000000 cycles: 348578825 heartbeat IPC: 1.44274 cumulative IPC: 0.964228 (Simulation time: 2 hr 0 min 31 sec) 
Heartbeat CPU 1 instructions: 360000003 cycles: 352880416 heartbeat IPC: 0.839104 cumulative IPC: 0.83639 (Simulation time: 2 hr 2 min 2 sec) 
Heartbeat CPU 3 instructions: 460000002 cycles: 353004962 heartbeat IPC: 1.18191 cumulative IPC: 1.15076 (Simulation time: 2 hr 2 min 5 sec) 
Heartbeat CPU 0 instructions: 430000002 cycles: 355599665 heartbeat IPC: 1.42433 cumulative IPC: 0.974135 (Simulation time: 2 hr 2 min 55 sec) 
Heartbeat CPU 3 instructions: 470000001 cycles: 361473438 heartbeat IPC: 1.18085 cumulative IPC: 1.15152 (Simulation time: 2 hr 4 min 51 sec) 
Heartbeat CPU 0 instructions: 440000000 cycles: 362577989 heartbeat IPC: 1.43301 cumulative IPC: 0.983749 (Simulation time: 2 hr 5 min 13 sec) 
Heartbeat CPU 1 instructions: 370000001 cycles: 364618868 heartbeat IPC: 0.851901 cumulative IPC: 0.836933 (Simulation time: 2 hr 5 min 54 sec) 
Heartbeat CPU 0 instructions: 450000003 cycles: 370016159 heartbeat IPC: 1.34442 cumulative IPC: 0.991628 (Simulation time: 2 hr 7 min 32 sec) 
Heartbeat CPU 3 instructions: 480000000 cycles: 370173470 heartbeat IPC: 1.14942 cumulative IPC: 1.15147 (Simulation time: 2 hr 7 min 35 sec) 
Heartbeat CPU 1 instructions: 380000002 cycles: 376222120 heartbeat IPC: 0.861827 cumulative IPC: 0.837766 (Simulation time: 2 hr 9 min 25 sec) 
Heartbeat CPU 0 instructions: 460000000 cycles: 376920148 heartbeat IPC: 1.44844 cumulative IPC: 1.00071 (Simulation time: 2 hr 9 min 38 sec) 
Heartbeat CPU 3 instructions: 490000002 cycles: 378802818 heartbeat IPC: 1.15884 cumulative IPC: 1.15165 (Simulation time: 2 hr 10 min 14 sec) 
Heartbeat CPU 0 instructions: 470000003 cycles: 385441519 heartbeat IPC: 1.17352 cumulative IPC: 1.00484 (Simulation time: 2 hr 12 min 16 sec) 
*** Reached end of trace for Core: 3 Repeating trace: ./traces/ligra/ligra_BC.com-lj.ungraph.gcc_6.3.0_O3.drop_500M.length_250M.champsimtrace.xz
Heartbeat CPU 3 instructions: 500000001 cycles: 387406715 heartbeat IPC: 1.16226 cumulative IPC: 1.15191 (Simulation time: 2 hr 12 min 47 sec) 
Heartbeat CPU 1 instructions: 390000000 cycles: 388174738 heartbeat IPC: 0.836637 cumulative IPC: 0.837729 (Simulation time: 2 hr 13 min 0 sec) 
Heartbeat CPU 0 instructions: 480000002 cycles: 393930590 heartbeat IPC: 1.17799 cumulative IPC: 1.00888 (Simulation time: 2 hr 14 min 36 sec) 
Heartbeat CPU 3 instructions: 510000000 cycles: 396063261 heartbeat IPC: 1.15519 cumulative IPC: 1.15198 (Simulation time: 2 hr 15 min 12 sec) 
Heartbeat CPU 1 instructions: 400000001 cycles: 400276201 heartbeat IPC: 0.826346 cumulative IPC: 0.837357 (Simulation time: 2 hr 16 min 26 sec) 
Heartbeat CPU 0 instructions: 490000000 cycles: 402039572 heartbeat IPC: 1.2332 cumulative IPC: 1.01376 (Simulation time: 2 hr 16 min 58 sec) 
Heartbeat CPU 3 instructions: 520000002 cycles: 404705402 heartbeat IPC: 1.15712 cumulative IPC: 1.1521 (Simulation time: 2 hr 17 min 44 sec) 
Heartbeat CPU 0 instructions: 500000000 cycles: 410191501 heartbeat IPC: 1.2267 cumulative IPC: 1.01832 (Simulation time: 2 hr 19 min 22 sec) 
Heartbeat CPU 1 instructions: 410000002 cycles: 412266480 heartbeat IPC: 0.834009 cumulative IPC: 0.837252 (Simulation time: 2 hr 20 min 0 sec) 
Heartbeat CPU 3 instructions: 530000002 cycles: 413373003 heartbeat IPC: 1.15372 cumulative IPC: 1.15214 (Simulation time: 2 hr 20 min 21 sec) 
Heartbeat CPU 0 instructions: 510000001 cycles: 418310381 heartbeat IPC: 1.2317 cumulative IPC: 1.02278 (Simulation time: 2 hr 21 min 46 sec) 
Heartbeat CPU 3 instructions: 540000001 cycles: 421988539 heartbeat IPC: 1.16069 cumulative IPC: 1.15233 (Simulation time: 2 hr 22 min 49 sec) 
Heartbeat CPU 1 instructions: 420000003 cycles: 424237356 heartbeat IPC: 0.835361 cumulative IPC: 0.837195 (Simulation time: 2 hr 23 min 28 sec) 
Heartbeat CPU 0 instructions: 520000003 cycles: 426330936 heartbeat IPC: 1.2468 cumulative IPC: 1.0273 (Simulation time: 2 hr 24 min 3 sec) 
Heartbeat CPU 3 instructions: 550000000 cycles: 430640958 heartbeat IPC: 1.15575 cumulative IPC: 1.1524 (Simulation time: 2 hr 25 min 12 sec) 
Heartbeat CPU 0 instructions: 530000001 cycles: 434313347 heartbeat IPC: 1.25275 cumulative IPC: 1.03175 (Simulation time: 2 hr 26 min 12 sec) 
Heartbeat CPU 1 instructions: 430000002 cycles: 436319585 heartbeat IPC: 0.827662 cumulative IPC: 0.836912 (Simulation time: 2 hr 26 min 46 sec) 
Heartbeat CPU 3 instructions: 560000001 cycles: 439295028 heartbeat IPC: 1.15553 cumulative IPC: 1.15247 (Simulation time: 2 hr 27 min 36 sec) 
Heartbeat CPU 0 instructions: 540000002 cycles: 443051630 heartbeat IPC: 1.14439 cumulative IPC: 1.03413 (Simulation time: 2 hr 28 min 40 sec) 
Heartbeat CPU 3 instructions: 570000001 cycles: 447854799 heartbeat IPC: 1.16826 cumulative IPC: 1.15279 (Simulation time: 2 hr 29 min 45 sec) 
Heartbeat CPU 1 instructions: 440000000 cycles: 448368082 heartbeat IPC: 0.829979 cumulative IPC: 0.836712 (Simulation time: 2 hr 29 min 51 sec) 
Heartbeat CPU 3 instructions: 580000002 cycles: 456422847 heartbeat IPC: 1.16713 cumulative IPC: 1.15308 (Simulation time: 2 hr 31 min 45 sec) 
Heartbeat CPU 1 instructions: 450000003 cycles: 460337311 heartbeat IPC: 0.835476 cumulative IPC: 0.836678 (Simulation time: 2 hr 32 min 42 sec) 
Heartbeat CPU 3 instructions: 590000000 cycles: 465034760 heartbeat IPC: 1.16118 cumulative IPC: 1.15324 (Simulation time: 2 hr 33 min 49 sec) 
Heartbeat CPU 1 instructions: 460000000 cycles: 472215224 heartbeat IPC: 0.841899 cumulative IPC: 0.836818 (Simulation time: 2 hr 35 min 36 sec) 
Heartbeat CPU 3 instructions: 600000000 cycles: 473549542 heartbeat IPC: 1.17443 cumulative IPC: 1.15364 (Simulation time: 2 hr 35 min 54 sec) 
Heartbeat CPU 3 instructions: 610000002 cycles: 482088952 heartbeat IPC: 1.17104 cumulative IPC: 1.15397 (Simulation time: 2 hr 38 min 1 sec) 
Heartbeat CPU 1 instructions: 470000000 cycles: 484041594 heartbeat IPC: 0.845568 cumulative IPC: 0.837046 (Simulation time: 2 hr 38 min 32 sec) 
Heartbeat CPU 0 instructions: 550000000 cycles: 485660718 heartbeat IPC: 0.234692 cumulative IPC: 0.959453 (Simulation time: 2 hr 38 min 56 sec) 
Heartbeat CPU 3 instructions: 620000000 cycles: 490953155 heartbeat IPC: 1.12813 cumulative IPC: 1.15348 (Simulation time: 2 hr 40 min 18 sec) 
Heartbeat CPU 1 instructions: 480000002 cycles: 495912386 heartbeat IPC: 0.842404 cumulative IPC: 0.837182 (Simulation time: 2 hr 41 min 38 sec) 
Heartbeat CPU 3 instructions: 630000002 cycles: 499661544 heartbeat IPC: 1.14832 cumulative IPC: 1.15338 (Simulation time: 2 hr 42 min 35 sec) 
Heartbeat CPU 1 instructions: 490000001 cycles: 507629334 heartbeat IPC: 0.853464 cumulative IPC: 0.837581 (Simulation time: 2 hr 44 min 41 sec) 
Heartbeat CPU 3 instructions: 640000002 cycles: 508411766 heartbeat IPC: 1.14283 cumulative IPC: 1.15319 (Simulation time: 2 hr 44 min 53 sec) 
Heartbeat CPU 3 instructions: 650000000 cycles: 517156522 heartbeat IPC: 1.14354 cumulative IPC: 1.15301 (Simulation time: 2 hr 47 min 13 sec) 
*** Reached end of trace for Core: 1 Repeating trace: ./traces/ligra/ligra_Components-Shortcut.com-lj.ungraph.gcc_6.3.0_O3.drop_11500M.length_250M.champsimtrace.xz
Heartbeat CPU 1 instructions: 500000001 cycles: 519263777 heartbeat IPC: 0.859517 cumulative IPC: 0.838102 (Simulation time: 2 hr 47 min 47 sec) 
Heartbeat CPU 3 instructions: 660000000 cycles: 525937084 heartbeat IPC: 1.13888 cumulative IPC: 1.15276 (Simulation time: 2 hr 49 min 20 sec) 
Heartbeat CPU 1 instructions: 510000002 cycles: 531112581 heartbeat IPC: 0.843967 cumulative IPC: 0.838241 (Simulation time: 2 hr 50 min 29 sec) 
Heartbeat CPU 3 instructions: 670000002 cycles: 534779614 heartbeat IPC: 1.1309 cumulative IPC: 1.15238 (Simulation time: 2 hr 51 min 26 sec) 
Heartbeat CPU 0 instructions: 560000003 cycles: 535173880 heartbeat IPC: 0.201967 cumulative IPC: 0.88528 (Simulation time: 2 hr 51 min 33 sec) 
Heartbeat CPU 1 instructions: 520000001 cycles: 543137956 heartbeat IPC: 0.831575 cumulative IPC: 0.838085 (Simulation time: 2 hr 53 min 44 sec) 
Heartbeat CPU 3 instructions: 680000002 cycles: 543304917 heartbeat IPC: 1.17298 cumulative IPC: 1.15272 (Simulation time: 2 hr 53 min 47 sec) 
Heartbeat CPU 0 instructions: 570000003 cycles: 548945014 heartbeat IPC: 0.726157 cumulative IPC: 0.881062 (Simulation time: 2 hr 55 min 20 sec) 
Heartbeat CPU 3 instructions: 690000003 cycles: 551809828 heartbeat IPC: 1.17579 cumulative IPC: 1.1531 (Simulation time: 2 hr 56 min 3 sec) 
Heartbeat CPU 1 instructions: 530000000 cycles: 555002900 heartbeat IPC: 0.842819 cumulative IPC: 0.838192 (Simulation time: 2 hr 56 min 57 sec) 
Heartbeat CPU 3 instructions: 700000000 cycles: 560300567 heartbeat IPC: 1.17775 cumulative IPC: 1.15349 (Simulation time: 2 hr 58 min 25 sec) 
Heartbeat CPU 0 instructions: 580000003 cycles: 563331141 heartbeat IPC: 0.695114 cumulative IPC: 0.87605 (Simulation time: 2 hr 59 min 14 sec) 
Heartbeat CPU 1 instructions: 540000001 cycles: 566771148 heartbeat IPC: 0.849744 cumulative IPC: 0.838445 (Simulation time: 3 hr 0 min 11 sec) 
Heartbeat CPU 3 instructions: 710000001 cycles: 568763471 heartbeat IPC: 1.18163 cumulative IPC: 1.15394 (Simulation time: 3 hr 0 min 40 sec) 
Heartbeat CPU 3 instructions: 720000000 cycles: 577235097 heartbeat IPC: 1.18041 cumulative IPC: 1.15434 (Simulation time: 3 hr 3 min 1 sec) 
Heartbeat CPU 0 instructions: 590000003 cycles: 577621007 heartbeat IPC: 0.699797 cumulative IPC: 0.871455 (Simulation time: 3 hr 3 min 7 sec) 
Heartbeat CPU 1 instructions: 550000000 cycles: 578511913 heartbeat IPC: 0.851733 cumulative IPC: 0.838729 (Simulation time: 3 hr 3 min 23 sec) 
Heartbeat CPU 3 instructions: 730000003 cycles: 585903301 heartbeat IPC: 1.15364 cumulative IPC: 1.15433 (Simulation time: 3 hr 5 min 18 sec) 
Heartbeat CPU 0 instructions: 600000002 cycles: 590067519 heartbeat IPC: 0.803438 cumulative IPC: 0.869945 (Simulation time: 3 hr 6 min 28 sec) 
Heartbeat CPU 1 instructions: 560000000 cycles: 590449150 heartbeat IPC: 0.837715 cumulative IPC: 0.838707 (Simulation time: 3 hr 6 min 35 sec) 
Heartbeat CPU 3 instructions: 740000000 cycles: 594560109 heartbeat IPC: 1.15516 cumulative IPC: 1.15435 (Simulation time: 3 hr 7 min 44 sec) 
Heartbeat CPU 0 instructions: 610000001 cycles: 597598300 heartbeat IPC: 1.32788 cumulative IPC: 0.876016 (Simulation time: 3 hr 8 min 36 sec) 
Heartbeat CPU 1 instructions: 570000000 cycles: 602245238 heartbeat IPC: 0.847739 cumulative IPC: 0.838893 (Simulation time: 3 hr 9 min 57 sec) 
*** Reached end of trace for Core: 3 Repeating trace: ./traces/ligra/ligra_BC.com-lj.ungraph.gcc_6.3.0_O3.drop_500M.length_250M.champsimtrace.xz
Heartbeat CPU 3 instructions: 750000003 cycles: 603102020 heartbeat IPC: 1.1707 cumulative IPC: 1.15459 (Simulation time: 3 hr 10 min 13 sec) 
Heartbeat CPU 2 instructions: 60000000 cycles: 603652309 heartbeat IPC: 0.0174176 cumulative IPC: 0.0174176 (Simulation time: 3 hr 10 min 23 sec) 
Heartbeat CPU 0 instructions: 620000002 cycles: 605712691 heartbeat IPC: 1.23238 cumulative IPC: 0.881034 (Simulation time: 3 hr 10 min 58 sec) 
Heartbeat CPU 3 instructions: 760000002 cycles: 611608143 heartbeat IPC: 1.17562 cumulative IPC: 1.1549 (Simulation time: 3 hr 12 min 42 sec) 
Heartbeat CPU 0 instructions: 630000003 cycles: 613953639 heartbeat IPC: 1.21345 cumulative IPC: 0.885721 (Simulation time: 3 hr 13 min 20 sec) 
Heartbeat CPU 1 instructions: 580000001 cycles: 614096808 heartbeat IPC: 0.84377 cumulative IPC: 0.838992 (Simulation time: 3 hr 13 min 23 sec) 
Heartbeat CPU 3 instructions: 770000000 cycles: 620112557 heartbeat IPC: 1.17586 cumulative IPC: 1.1552 (Simulation time: 3 hr 15 min 7 sec) 
Heartbeat CPU 0 instructions: 640000000 cycles: 622133636 heartbeat IPC: 1.22249 cumulative IPC: 0.89037 (Simulation time: 3 hr 15 min 44 sec) 
Heartbeat CPU 1 instructions: 590000002 cycles: 625949503 heartbeat IPC: 0.84369 cumulative IPC: 0.839086 (Simulation time: 3 hr 16 min 51 sec) 
Heartbeat CPU 3 instructions: 780000000 cycles: 628641365 heartbeat IPC: 1.1725 cumulative IPC: 1.15545 (Simulation time: 3 hr 17 min 32 sec) 
Heartbeat CPU 0 instructions: 650000000 cycles: 630357558 heartbeat IPC: 1.21596 cumulative IPC: 0.894827 (Simulation time: 3 hr 17 min 58 sec) 
Heartbeat CPU 3 instructions: 790000000 cycles: 637128128 heartbeat IPC: 1.17831 cumulative IPC: 1.15576 (Simulation time: 3 hr 19 min 55 sec) 
Heartbeat CPU 1 instructions: 600000002 cycles: 637833801 heartbeat IPC: 0.841446 cumulative IPC: 0.839132 (Simulation time: 3 hr 20 min 7 sec) 
Heartbeat CPU 0 instructions: 660000000 cycles: 638602800 heartbeat IPC: 1.21282 cumulative IPC: 0.899131 (Simulation time: 3 hr 20 min 21 sec) 
Heartbeat CPU 3 instructions: 800000002 cycles: 645656799 heartbeat IPC: 1.17252 cumulative IPC: 1.156 (Simulation time: 3 hr 22 min 16 sec) 
Heartbeat CPU 0 instructions: 670000000 cycles: 647631160 heartbeat IPC: 1.10762 cumulative IPC: 0.902177 (Simulation time: 3 hr 22 min 55 sec) 
Heartbeat CPU 1 instructions: 610000003 cycles: 649741591 heartbeat IPC: 0.839786 cumulative IPC: 0.839144 (Simulation time: 3 hr 23 min 32 sec) 
Heartbeat CPU 3 instructions: 810000000 cycles: 654222379 heartbeat IPC: 1.16746 cumulative IPC: 1.15615 (Simulation time: 3 hr 24 min 38 sec) 
Heartbeat CPU 1 instructions: 620000001 cycles: 661476528 heartbeat IPC: 0.852156 cumulative IPC: 0.839386 (Simulation time: 3 hr 26 min 25 sec) 
Heartbeat CPU 3 instructions: 820000003 cycles: 662807407 heartbeat IPC: 1.16482 cumulative IPC: 1.15627 (Simulation time: 3 hr 26 min 45 sec) 
Heartbeat CPU 3 instructions: 830000001 cycles: 671396738 heartbeat IPC: 1.16423 cumulative IPC: 1.15638 (Simulation time: 3 hr 28 min 46 sec) 
Heartbeat CPU 1 instructions: 630000002 cycles: 673074563 heartbeat IPC: 0.862215 cumulative IPC: 0.839797 (Simulation time: 3 hr 29 min 9 sec) 
Heartbeat CPU 0 instructions: 680000000 cycles: 676663634 heartbeat IPC: 0.344442 cumulative IPC: 0.877155 (Simulation time: 3 hr 29 min 59 sec) 
Heartbeat CPU 3 instructions: 840000002 cycles: 679991483 heartbeat IPC: 1.1635 cumulative IPC: 1.15647 (Simulation time: 3 hr 30 min 47 sec) 
Heartbeat CPU 1 instructions: 640000000 cycles: 685025095 heartbeat IPC: 0.836783 cumulative IPC: 0.839742 (Simulation time: 3 hr 32 min 3 sec) 
Heartbeat CPU 0 instructions: 690000001 cycles: 687113673 heartbeat IPC: 0.956934 cumulative IPC: 0.878423 (Simulation time: 3 hr 32 min 33 sec) 
Heartbeat CPU 3 instructions: 850000000 cycles: 688542437 heartbeat IPC: 1.16946 cumulative IPC: 1.15664 (Simulation time: 3 hr 32 min 55 sec) 
Heartbeat CPU 0 instructions: 700000001 cycles: 696466719 heartbeat IPC: 1.06917 cumulative IPC: 0.881098 (Simulation time: 3 hr 35 min 3 sec) 
Heartbeat CPU 3 instructions: 860000001 cycles: 697076607 heartbeat IPC: 1.17176 cumulative IPC: 1.15683 (Simulation time: 3 hr 35 min 14 sec) 
Heartbeat CPU 1 instructions: 650000001 cycles: 697124857 heartbeat IPC: 0.826463 cumulative IPC: 0.839502 (Simulation time: 3 hr 35 min 15 sec) 
Heartbeat CPU 0 instructions: 710000002 cycles: 705338061 heartbeat IPC: 1.12723 cumulative IPC: 0.884329 (Simulation time: 3 hr 37 min 32 sec) 
Heartbeat CPU 3 instructions: 870000002 cycles: 705579859 heartbeat IPC: 1.17602 cumulative IPC: 1.15708 (Simulation time: 3 hr 37 min 36 sec) 
Heartbeat CPU 1 instructions: 660000000 cycles: 709115338 heartbeat IPC: 0.833995 cumulative IPC: 0.839404 (Simulation time: 3 hr 38 min 38 sec) 
Heartbeat CPU 3 instructions: 880000000 cycles: 714136491 heartbeat IPC: 1.16868 cumulative IPC: 1.15722 (Simulation time: 3 hr 40 min 3 sec) 
Heartbeat CPU 0 instructions: 720000003 cycles: 714197648 heartbeat IPC: 1.12872 cumulative IPC: 0.887491 (Simulation time: 3 hr 40 min 4 sec) 
Heartbeat CPU 1 instructions: 670000002 cycles: 721086397 heartbeat IPC: 0.835348 cumulative IPC: 0.839334 (Simulation time: 3 hr 42 min 5 sec) 
Heartbeat CPU 3 instructions: 890000001 cycles: 722727007 heartbeat IPC: 1.16407 cumulative IPC: 1.15731 (Simulation time: 3 hr 42 min 34 sec) 
Heartbeat CPU 0 instructions: 730000002 cycles: 722812042 heartbeat IPC: 1.16085 cumulative IPC: 0.890888 (Simulation time: 3 hr 42 min 36 sec) 
Heartbeat CPU 3 instructions: 900000002 cycles: 731345189 heartbeat IPC: 1.16034 cumulative IPC: 1.15734 (Simulation time: 3 hr 45 min 4 sec) 
Heartbeat CPU 0 instructions: 740000003 cycles: 731439004 heartbeat IPC: 1.15916 cumulative IPC: 0.894185 (Simulation time: 3 hr 45 min 5 sec) 
Heartbeat CPU 1 instructions: 680000002 cycles: 733165204 heartbeat IPC: 0.827896 cumulative IPC: 0.839138 (Simulation time: 3 hr 45 min 35 sec) 
Heartbeat CPU 3 instructions: 910000001 cycles: 740019327 heartbeat IPC: 1.15285 cumulative IPC: 1.15729 (Simulation time: 3 hr 47 min 29 sec) 
Heartbeat CPU 0 instructions: 750000003 cycles: 740248324 heartbeat IPC: 1.13516 cumulative IPC: 0.897172 (Simulation time: 3 hr 47 min 33 sec) 
Heartbeat CPU 1 instructions: 690000000 cycles: 745208908 heartbeat IPC: 0.830309 cumulative IPC: 0.838989 (Simulation time: 3 hr 48 min 59 sec) 
Heartbeat CPU 3 instructions: 920000000 cycles: 748770686 heartbeat IPC: 1.14268 cumulative IPC: 1.15711 (Simulation time: 3 hr 50 min 1 sec) 
Heartbeat CPU 0 instructions: 760000000 cycles: 749419844 heartbeat IPC: 1.09033 cumulative IPC: 0.899633 (Simulation time: 3 hr 50 min 11 sec) 
Heartbeat CPU 1 instructions: 700000002 cycles: 757174403 heartbeat IPC: 0.835737 cumulative IPC: 0.838936 (Simulation time: 3 hr 52 min 23 sec) 
Heartbeat CPU 3 instructions: 930000000 cycles: 757289165 heartbeat IPC: 1.17392 cumulative IPC: 1.15731 (Simulation time: 3 hr 52 min 25 sec) 
Heartbeat CPU 0 instructions: 770000000 cycles: 757560087 heartbeat IPC: 1.22846 cumulative IPC: 0.903309 (Simulation time: 3 hr 52 min 29 sec) 
Heartbeat CPU 3 instructions: 940000000 cycles: 765783902 heartbeat IPC: 1.1772 cumulative IPC: 1.15754 (Simulation time: 3 hr 54 min 44 sec) 
Heartbeat CPU 0 instructions: 780000003 cycles: 765996931 heartbeat IPC: 1.18528 cumulative IPC: 0.906539 (Simulation time: 3 hr 54 min 48 sec) 
Heartbeat CPU 1 instructions: 710000000 cycles: 769049290 heartbeat IPC: 0.842113 cumulative IPC: 0.838987 (Simulation time: 3 hr 55 min 39 sec) 
Heartbeat CPU 3 instructions: 950000002 cycles: 774259261 heartbeat IPC: 1.17989 cumulative IPC: 1.15779 (Simulation time: 3 hr 57 min 8 sec) 
Heartbeat CPU 0 instructions: 790000003 cycles: 774513178 heartbeat IPC: 1.17423 cumulative IPC: 0.9096 (Simulation time: 3 hr 57 min 13 sec) 
Heartbeat CPU 1 instructions: 720000000 cycles: 780874746 heartbeat IPC: 0.845633 cumulative IPC: 0.839091 (Simulation time: 3 hr 58 min 58 sec) 
Heartbeat CPU 3 instructions: 960000000 cycles: 782714721 heartbeat IPC: 1.18267 cumulative IPC: 1.15807 (Simulation time: 3 hr 59 min 28 sec) 
Heartbeat CPU 0 instructions: 800000002 cycles: 782953776 heartbeat IPC: 1.18475 cumulative IPC: 0.912682 (Simulation time: 3 hr 59 min 32 sec) 
Heartbeat CPU 3 instructions: 970000003 cycles: 791171583 heartbeat IPC: 1.18247 cumulative IPC: 1.15834 (Simulation time: 4 hr 1 min 51 sec) 
Heartbeat CPU 0 instructions: 810000001 cycles: 791441379 heartbeat IPC: 1.17819 cumulative IPC: 0.91564 (Simulation time: 4 hr 1 min 55 sec) 
Heartbeat CPU 1 instructions: 730000002 cycles: 792746909 heartbeat IPC: 0.842307 cumulative IPC: 0.839141 (Simulation time: 4 hr 2 min 17 sec) 
Heartbeat CPU 3 instructions: 980000001 cycles: 799841145 heartbeat IPC: 1.15346 cumulative IPC: 1.15829 (Simulation time: 4 hr 4 min 16 sec) 
Heartbeat CPU 0 instructions: 820000001 cycles: 800363532 heartbeat IPC: 1.12081 cumulative IPC: 0.918014 (Simulation time: 4 hr 4 min 25 sec) 
Heartbeat CPU 1 instructions: 740000001 cycles: 804461043 heartbeat IPC: 0.85367 cumulative IPC: 0.839361 (Simulation time: 4 hr 5 min 30 sec) 
Heartbeat CPU 3 instructions: 990000000 cycles: 808487057 heartbeat IPC: 1.15662 cumulative IPC: 1.15827 (Simulation time: 4 hr 6 min 41 sec) 
Heartbeat CPU 0 instructions: 830000000 cycles: 810264653 heartbeat IPC: 1.00999 cumulative IPC: 0.919181 (Simulation time: 4 hr 7 min 13 sec) 
*** Reached end of trace for Core: 1 Repeating trace: ./traces/ligra/ligra_Components-Shortcut.com-lj.ungraph.gcc_6.3.0_O3.drop_11500M.length_250M.champsimtrace.xz
Heartbeat CPU 1 instructions: 750000001 cycles: 816097262 heartbeat IPC: 0.859386 cumulative IPC: 0.839657 (Simulation time: 4 hr 8 min 53 sec) 
*** Reached end of trace for Core: 3 Repeating trace: ./traces/ligra/ligra_BC.com-lj.ungraph.gcc_6.3.0_O3.drop_500M.length_250M.champsimtrace.xz
Heartbeat CPU 3 instructions: 1000000002 cycles: 817230645 heartbeat IPC: 1.1437 cumulative IPC: 1.15811 (Simulation time: 4 hr 9 min 11 sec) 
Heartbeat CPU 0 instructions: 840000003 cycles: 818897250 heartbeat IPC: 1.1584 cumulative IPC: 0.921797 (Simulation time: 4 hr 9 min 41 sec) 
Heartbeat CPU 3 instructions: 1010000001 cycles: 825853944 heartbeat IPC: 1.15965 cumulative IPC: 1.15812 (Simulation time: 4 hr 11 min 43 sec) 
Heartbeat CPU 0 instructions: 850000000 cycles: 826964342 heartbeat IPC: 1.2396 cumulative IPC: 0.925012 (Simulation time: 4 hr 12 min 0 sec) 
Heartbeat CPU 1 instructions: 760000002 cycles: 827947743 heartbeat IPC: 0.843848 cumulative IPC: 0.83972 (Simulation time: 4 hr 12 min 18 sec) 
Heartbeat CPU 3 instructions: 1020000001 cycles: 834467083 heartbeat IPC: 1.16102 cumulative IPC: 1.15815 (Simulation time: 4 hr 14 min 5 sec) 
Heartbeat CPU 0 instructions: 860000002 cycles: 835045133 heartbeat IPC: 1.2375 cumulative IPC: 0.928147 (Simulation time: 4 hr 14 min 15 sec) 
Heartbeat CPU 1 instructions: 770000000 cycles: 839968537 heartbeat IPC: 0.831892 cumulative IPC: 0.839603 (Simulation time: 4 hr 15 min 37 sec) 
Heartbeat CPU 3 instructions: 1030000002 cycles: 843104246 heartbeat IPC: 1.15779 cumulative IPC: 1.15815 (Simulation time: 4 hr 16 min 31 sec) 
Heartbeat CPU 0 instructions: 870000000 cycles: 843139653 heartbeat IPC: 1.2354 cumulative IPC: 0.931203 (Simulation time: 4 hr 16 min 32 sec) 
Heartbeat CPU 0 instructions: 880000000 cycles: 851207805 heartbeat IPC: 1.23944 cumulative IPC: 0.93423 (Simulation time: 4 hr 18 min 50 sec) 
Heartbeat CPU 3 instructions: 1040000000 cycles: 851739083 heartbeat IPC: 1.1581 cumulative IPC: 1.15815 (Simulation time: 4 hr 18 min 59 sec) 
Heartbeat CPU 1 instructions: 780000003 cycles: 851830296 heartbeat IPC: 0.843046 cumulative IPC: 0.839653 (Simulation time: 4 hr 19 min 1 sec) 
Heartbeat CPU 0 instructions: 890000000 cycles: 859211749 heartbeat IPC: 1.24938 cumulative IPC: 0.93727 (Simulation time: 4 hr 21 min 3 sec) 
Heartbeat CPU 3 instructions: 1050000001 cycles: 860393815 heartbeat IPC: 1.15544 cumulative IPC: 1.15812 (Simulation time: 4 hr 21 min 25 sec) 
Heartbeat CPU 1 instructions: 790000001 cycles: 863598048 heartbeat IPC: 0.84978 cumulative IPC: 0.839796 (Simulation time: 4 hr 22 min 22 sec) 
Heartbeat CPU 0 instructions: 900000002 cycles: 867162650 heartbeat IPC: 1.25772 cumulative IPC: 0.940312 (Simulation time: 4 hr 23 min 25 sec) 
Heartbeat CPU 3 instructions: 1060000002 cycles: 869030334 heartbeat IPC: 1.15787 cumulative IPC: 1.15812 (Simulation time: 4 hr 23 min 56 sec) 
Heartbeat CPU 1 instructions: 800000000 cycles: 875339999 heartbeat IPC: 0.851647 cumulative IPC: 0.83996 (Simulation time: 4 hr 25 min 40 sec) 
Heartbeat CPU 3 instructions: 1070000001 cycles: 877576644 heartbeat IPC: 1.1701 cumulative IPC: 1.15824 (Simulation time: 4 hr 26 min 18 sec) 
Heartbeat CPU 0 instructions: 910000002 cycles: 880621976 heartbeat IPC: 0.742979 cumulative IPC: 0.937191 (Simulation time: 4 hr 27 min 9 sec) 
Heartbeat CPU 3 instructions: 1080000000 cycles: 886135904 heartbeat IPC: 1.16833 cumulative IPC: 1.15834 (Simulation time: 4 hr 28 min 32 sec) 
Heartbeat CPU 1 instructions: 810000000 cycles: 887275923 heartbeat IPC: 0.837807 cumulative IPC: 0.839931 (Simulation time: 4 hr 28 min 49 sec) 
Heartbeat CPU 0 instructions: 920000000 cycles: 894646868 heartbeat IPC: 0.713018 cumulative IPC: 0.933557 (Simulation time: 4 hr 30 min 49 sec) 
Heartbeat CPU 3 instructions: 1090000000 cycles: 894712731 heartbeat IPC: 1.16593 cumulative IPC: 1.15841 (Simulation time: 4 hr 30 min 50 sec) 
Heartbeat CPU 1 instructions: 820000000 cycles: 899071149 heartbeat IPC: 0.847801 cumulative IPC: 0.840037 (Simulation time: 4 hr 31 min 55 sec) 
Heartbeat CPU 3 instructions: 1100000000 cycles: 903221339 heartbeat IPC: 1.17528 cumulative IPC: 1.15858 (Simulation time: 4 hr 33 min 3 sec) 
Heartbeat CPU 0 instructions: 930000002 cycles: 908883728 heartbeat IPC: 0.702402 cumulative IPC: 0.929815 (Simulation time: 4 hr 34 min 25 sec) 
Heartbeat CPU 1 instructions: 830000001 cycles: 910920277 heartbeat IPC: 0.843944 cumulative IPC: 0.84009 (Simulation time: 4 hr 34 min 54 sec) 
Heartbeat CPU 3 instructions: 1110000000 cycles: 911705727 heartbeat IPC: 1.17864 cumulative IPC: 1.15877 (Simulation time: 4 hr 35 min 6 sec) 
Heartbeat CPU 3 instructions: 1120000003 cycles: 920190030 heartbeat IPC: 1.17865 cumulative IPC: 1.15896 (Simulation time: 4 hr 37 min 21 sec) 
Heartbeat CPU 1 instructions: 840000002 cycles: 922772359 heartbeat IPC: 0.843734 cumulative IPC: 0.840138 (Simulation time: 4 hr 37 min 55 sec) 
Heartbeat CPU 3 instructions: 1130000001 cycles: 928775161 heartbeat IPC: 1.1648 cumulative IPC: 1.15902 (Simulation time: 4 hr 39 min 15 sec) 
Heartbeat CPU 0 instructions: 940000000 cycles: 932601433 heartbeat IPC: 0.421626 cumulative IPC: 0.916468 (Simulation time: 4 hr 40 min 4 sec) 
Heartbeat CPU 1 instructions: 850000002 cycles: 934656474 heartbeat IPC: 0.841459 cumulative IPC: 0.840155 (Simulation time: 4 hr 40 min 33 sec) 
Heartbeat CPU 3 instructions: 1140000002 cycles: 937367790 heartbeat IPC: 1.16379 cumulative IPC: 1.15906 (Simulation time: 4 hr 41 min 9 sec) 
Heartbeat CPU 3 instructions: 1150000003 cycles: 945984537 heartbeat IPC: 1.16053 cumulative IPC: 1.15908 (Simulation time: 4 hr 43 min 3 sec) 
Heartbeat CPU 1 instructions: 860000003 cycles: 946564372 heartbeat IPC: 0.839779 cumulative IPC: 0.840151 (Simulation time: 4 hr 43 min 11 sec) 
Heartbeat CPU 3 instructions: 1160000000 cycles: 954651488 heartbeat IPC: 1.15381 cumulative IPC: 1.15903 (Simulation time: 4 hr 45 min 5 sec) 
Heartbeat CPU 1 instructions: 870000001 cycles: 958302443 heartbeat IPC: 0.851929 cumulative IPC: 0.840299 (Simulation time: 4 hr 45 min 56 sec) 
Heartbeat CPU 3 instructions: 1170000000 cycles: 963387951 heartbeat IPC: 1.14463 cumulative IPC: 1.15889 (Simulation time: 4 hr 47 min 6 sec) 
Heartbeat CPU 1 instructions: 880000000 cycles: 969900661 heartbeat IPC: 0.862201 cumulative IPC: 0.84057 (Simulation time: 4 hr 48 min 37 sec) 
Heartbeat CPU 3 instructions: 1180000002 cycles: 971959533 heartbeat IPC: 1.16665 cumulative IPC: 1.15896 (Simulation time: 4 hr 49 min 6 sec) 
Heartbeat CPU 0 instructions: 950000000 cycles: 978884803 heartbeat IPC: 0.21606 cumulative IPC: 0.882322 (Simulation time: 4 hr 50 min 45 sec) 
Heartbeat CPU 3 instructions: 1190000002 cycles: 980474221 heartbeat IPC: 1.17444 cumulative IPC: 1.1591 (Simulation time: 4 hr 51 min 11 sec) 
Heartbeat CPU 1 instructions: 890000001 cycles: 981853612 heartbeat IPC: 0.836614 cumulative IPC: 0.84052 (Simulation time: 4 hr 51 min 34 sec) 
Heartbeat CPU 0 instructions: 960000000 cycles: 988202741 heartbeat IPC: 1.0732 cumulative IPC: 0.884177 (Simulation time: 4 hr 53 min 24 sec) 
Heartbeat CPU 3 instructions: 1200000002 cycles: 988972139 heartbeat IPC: 1.17676 cumulative IPC: 1.15926 (Simulation time: 4 hr 53 min 37 sec) 
Heartbeat CPU 1 instructions: 900000002 cycles: 993946863 heartbeat IPC: 0.826908 cumulative IPC: 0.840349 (Simulation time: 4 hr 55 min 1 sec) 
Heartbeat CPU 0 instructions: 970000003 cycles: 996985586 heartbeat IPC: 1.13858 cumulative IPC: 0.886487 (Simulation time: 4 hr 55 min 55 sec) 
Heartbeat CPU 3 instructions: 1210000000 cycles: 997429016 heartbeat IPC: 1.18247 cumulative IPC: 1.15946 (Simulation time: 4 hr 56 min 1 sec) 
Heartbeat CPU 0 instructions: 980000000 cycles: 1005833354 heartbeat IPC: 1.13023 cumulative IPC: 0.888696 (Simulation time: 4 hr 58 min 20 sec) 
Heartbeat CPU 3 instructions: 1220000001 cycles: 1005896292 heartbeat IPC: 1.18102 cumulative IPC: 1.15965 (Simulation time: 4 hr 58 min 21 sec) 
Heartbeat CPU 1 instructions: 910000002 cycles: 1005933439 heartbeat IPC: 0.834267 cumulative IPC: 0.840275 (Simulation time: 4 hr 58 min 22 sec) 
Heartbeat CPU 3 instructions: 1230000000 cycles: 1014618381 heartbeat IPC: 1.14651 cumulative IPC: 1.15953 (Simulation time: 5 hr 0 min 42 sec) 
Heartbeat CPU 0 instructions: 990000000 cycles: 1015847731 heartbeat IPC: 0.998564 cumulative IPC: 0.889811 (Simulation time: 5 hr 1 min 3 sec) 
Heartbeat CPU 1 instructions: 920000003 cycles: 1017901177 heartbeat IPC: 0.83558 cumulative IPC: 0.840218 (Simulation time: 5 hr 1 min 38 sec) 
Heartbeat CPU 3 instructions: 1240000000 cycles: 1023246744 heartbeat IPC: 1.15897 cumulative IPC: 1.15953 (Simulation time: 5 hr 3 min 9 sec) 
Heartbeat CPU 0 instructions: 1000000000 cycles: 1024686095 heartbeat IPC: 1.13143 cumulative IPC: 0.891957 (Simulation time: 5 hr 3 min 33 sec) 
Heartbeat CPU 1 instructions: 930000002 cycles: 1029978119 heartbeat IPC: 0.828024 cumulative IPC: 0.840071 (Simulation time: 5 hr 5 min 1 sec) 
*** Reached end of trace for Core: 3 Repeating trace: ./traces/ligra/ligra_BC.com-lj.ungraph.gcc_6.3.0_O3.drop_500M.length_250M.champsimtrace.xz
Heartbeat CPU 3 instructions: 1250000001 cycles: 1031776286 heartbeat IPC: 1.1724 cumulative IPC: 1.15964 (Simulation time: 5 hr 5 min 32 sec) 
Heartbeat CPU 0 instructions: 1010000000 cycles: 1033919193 heartbeat IPC: 1.08306 cumulative IPC: 0.893714 (Simulation time: 5 hr 6 min 5 sec) 
Heartbeat CPU 3 instructions: 1260000000 cycles: 1040242190 heartbeat IPC: 1.18121 cumulative IPC: 1.15982 (Simulation time: 5 hr 7 min 54 sec) 
Heartbeat CPU 1 instructions: 940000000 cycles: 1042019652 heartbeat IPC: 0.830459 cumulative IPC: 0.839956 (Simulation time: 5 hr 8 min 21 sec) 
Heartbeat CPU 0 instructions: 1020000000 cycles: 1042770524 heartbeat IPC: 1.12977 cumulative IPC: 0.895776 (Simulation time: 5 hr 8 min 35 sec) 
Heartbeat CPU 3 instructions: 1270000000 cycles: 1048731966 heartbeat IPC: 1.17789 cumulative IPC: 1.15997 (Simulation time: 5 hr 10 min 16 sec) 
Heartbeat CPU 0 instructions: 1030000000 cycles: 1053112886 heartbeat IPC: 0.966897 cumulative IPC: 0.896495 (Simulation time: 5 hr 11 min 30 sec) 
Heartbeat CPU 1 instructions: 950000002 cycles: 1053989117 heartbeat IPC: 0.835459 cumulative IPC: 0.839904 (Simulation time: 5 hr 11 min 44 sec) 
Heartbeat CPU 3 instructions: 1280000001 cycles: 1057312508 heartbeat IPC: 1.16543 cumulative IPC: 1.16001 (Simulation time: 5 hr 12 min 40 sec) 
Heartbeat CPU 0 instructions: 1040000000 cycles: 1062634268 heartbeat IPC: 1.05027 cumulative IPC: 0.897912 (Simulation time: 5 hr 14 min 8 sec) 
Heartbeat CPU 3 instructions: 1290000001 cycles: 1065841967 heartbeat IPC: 1.17241 cumulative IPC: 1.16011 (Simulation time: 5 hr 15 min 1 sec) 
Heartbeat CPU 1 instructions: 960000002 cycles: 1065861854 heartbeat IPC: 0.842266 cumulative IPC: 0.839931 (Simulation time: 5 hr 15 min 2 sec) 
Heartbeat CPU 0 instructions: 1050000000 cycles: 1071901321 heartbeat IPC: 1.07909 cumulative IPC: 0.899522 (Simulation time: 5 hr 16 min 36 sec) 
Heartbeat CPU 3 instructions: 1300000000 cycles: 1074422389 heartbeat IPC: 1.16544 cumulative IPC: 1.16016 (Simulation time: 5 hr 17 min 19 sec) 
Heartbeat CPU 1 instructions: 970000000 cycles: 1077689024 heartbeat IPC: 0.845511 cumulative IPC: 0.839994 (Simulation time: 5 hr 18 min 6 sec) 
Heartbeat CPU 0 instructions: 1060000000 cycles: 1081574469 heartbeat IPC: 1.03379 cumulative IPC: 0.900757 (Simulation time: 5 hr 19 min 8 sec) 
Heartbeat CPU 3 instructions: 1310000001 cycles: 1083050028 heartbeat IPC: 1.15907 cumulative IPC: 1.16015 (Simulation time: 5 hr 19 min 32 sec) 
Heartbeat CPU 1 instructions: 980000002 cycles: 1089562733 heartbeat IPC: 0.842197 cumulative IPC: 0.840018 (Simulation time: 5 hr 21 min 26 sec) 
Heartbeat CPU 0 instructions: 1070000003 cycles: 1090798107 heartbeat IPC: 1.08417 cumulative IPC: 0.902351 (Simulation time: 5 hr 21 min 47 sec) 
Heartbeat CPU 3 instructions: 1320000000 cycles: 1091650075 heartbeat IPC: 1.16278 cumulative IPC: 1.16017 (Simulation time: 5 hr 22 min 2 sec) 
Heartbeat CPU 0 instructions: 1080000000 cycles: 1100042329 heartbeat IPC: 1.08176 cumulative IPC: 0.9039 (Simulation time: 5 hr 24 min 22 sec) 
Heartbeat CPU 3 instructions: 1330000002 cycles: 1100264301 heartbeat IPC: 1.16087 cumulative IPC: 1.16018 (Simulation time: 5 hr 24 min 25 sec) 
Heartbeat CPU 1 instructions: 990000000 cycles: 1101273262 heartbeat IPC: 0.853932 cumulative IPC: 0.84017 (Simulation time: 5 hr 24 min 43 sec) 
Heartbeat CPU 3 instructions: 1340000000 cycles: 1108896560 heartbeat IPC: 1.15845 cumulative IPC: 1.16016 (Simulation time: 5 hr 26 min 49 sec) 
Heartbeat CPU 0 instructions: 1090000001 cycles: 1109238037 heartbeat IPC: 1.08746 cumulative IPC: 0.905464 (Simulation time: 5 hr 26 min 55 sec) 
*** Reached end of trace for Core: 1 Repeating trace: ./traces/ligra/ligra_Components-Shortcut.com-lj.ungraph.gcc_6.3.0_O3.drop_11500M.length_250M.champsimtrace.xz
Heartbeat CPU 1 instructions: 1000000001 cycles: 1112905488 heartbeat IPC: 0.859681 cumulative IPC: 0.84038 (Simulation time: 5 hr 27 min 50 sec) 
Heartbeat CPU 3 instructions: 1350000000 cycles: 1117496109 heartbeat IPC: 1.16285 cumulative IPC: 1.16018 (Simulation time: 5 hr 29 min 3 sec) 
Heartbeat CPU 0 instructions: 1100000000 cycles: 1118631454 heartbeat IPC: 1.06458 cumulative IPC: 0.906836 (Simulation time: 5 hr 29 min 22 sec) 
Heartbeat CPU 1 instructions: 1010000002 cycles: 1124756102 heartbeat IPC: 0.843838 cumulative IPC: 0.840417 (Simulation time: 5 hr 31 min 12 sec) 
Heartbeat CPU 3 instructions: 1360000000 cycles: 1125981732 heartbeat IPC: 1.17846 cumulative IPC: 1.16033 (Simulation time: 5 hr 31 min 30 sec) 
Heartbeat CPU 0 instructions: 1110000003 cycles: 1125999578 heartbeat IPC: 1.3572 cumulative IPC: 0.909862 (Simulation time: 5 hr 31 min 31 sec) 
Heartbeat CPU 0 instructions: 1120000003 cycles: 1133803270 heartbeat IPC: 1.28144 cumulative IPC: 0.912488 (Simulation time: 5 hr 33 min 50 sec) 
Heartbeat CPU 3 instructions: 1370000000 cycles: 1134473009 heartbeat IPC: 1.17768 cumulative IPC: 1.16046 (Simulation time: 5 hr 34 min 2 sec) 
Heartbeat CPU 1 instructions: 1020000001 cycles: 1136776478 heartbeat IPC: 0.831921 cumulative IPC: 0.840325 (Simulation time: 5 hr 34 min 42 sec) 
Heartbeat CPU 0 instructions: 1130000003 cycles: 1141821889 heartbeat IPC: 1.2471 cumulative IPC: 0.9149 (Simulation time: 5 hr 36 min 13 sec) 
Heartbeat CPU 3 instructions: 1380000000 cycles: 1143029787 heartbeat IPC: 1.16866 cumulative IPC: 1.16052 (Simulation time: 5 hr 36 min 34 sec) 
Heartbeat CPU 1 instructions: 1030000000 cycles: 1148638044 heartbeat IPC: 0.843059 cumulative IPC: 0.840354 (Simulation time: 5 hr 38 min 11 sec) 
Heartbeat CPU 0 instructions: 1140000003 cycles: 1149830634 heartbeat IPC: 1.24864 cumulative IPC: 0.917286 (Simulation time: 5 hr 38 min 29 sec) 
Heartbeat CPU 3 instructions: 1390000000 cycles: 1151624143 heartbeat IPC: 1.16355 cumulative IPC: 1.16054 (Simulation time: 5 hr 39 min 3 sec) 
Heartbeat CPU 0 instructions: 1150000003 cycles: 1157708121 heartbeat IPC: 1.26944 cumulative IPC: 0.919745 (Simulation time: 5 hr 40 min 52 sec) 
Heartbeat CPU 2 instructions: 70000000 cycles: 1160049271 heartbeat IPC: 0.0179728 cumulative IPC: 0.0176908 (Simulation time: 5 hr 41 min 35 sec) 
Heartbeat CPU 3 instructions: 1400000000 cycles: 1160240118 heartbeat IPC: 1.16063 cumulative IPC: 1.16055 (Simulation time: 5 hr 41 min 39 sec) 
Heartbeat CPU 1 instructions: 1040000001 cycles: 1160403683 heartbeat IPC: 0.849933 cumulative IPC: 0.840454 (Simulation time: 5 hr 41 min 42 sec) 
Heartbeat CPU 0 instructions: 1160000001 cycles: 1165584031 heartbeat IPC: 1.26969 cumulative IPC: 0.922171 (Simulation time: 5 hr 43 min 15 sec) 
Heartbeat CPU 3 instructions: 1410000000 cycles: 1168910755 heartbeat IPC: 1.15332 cumulative IPC: 1.16049 (Simulation time: 5 hr 44 min 14 sec) 
Heartbeat CPU 1 instructions: 1050000000 cycles: 1172138393 heartbeat IPC: 0.852173 cumulative IPC: 0.840574 (Simulation time: 5 hr 45 min 10 sec) 
Heartbeat CPU 0 instructions: 1170000001 cycles: 1174651266 heartbeat IPC: 1.10287 cumulative IPC: 0.923602 (Simulation time: 5 hr 45 min 56 sec) 
Heartbeat CPU 3 instructions: 1420000002 cycles: 1177656417 heartbeat IPC: 1.14342 cumulative IPC: 1.16036 (Simulation time: 5 hr 46 min 47 sec) 
Heartbeat CPU 1 instructions: 1060000000 cycles: 1184072301 heartbeat IPC: 0.837949 cumulative IPC: 0.840547 (Simulation time: 5 hr 48 min 33 sec) 
Heartbeat CPU 0 instructions: 1180000003 cycles: 1184103474 heartbeat IPC: 1.05795 cumulative IPC: 0.924702 (Simulation time: 5 hr 48 min 33 sec) 
Heartbeat CPU 3 instructions: 1430000000 cycles: 1186264592 heartbeat IPC: 1.16169 cumulative IPC: 1.16037 (Simulation time: 5 hr 49 min 5 sec) 
Heartbeat CPU 0 instructions: 1190000002 cycles: 1193467924 heartbeat IPC: 1.06787 cumulative IPC: 0.925854 (Simulation time: 5 hr 50 min 56 sec) 
Heartbeat CPU 3 instructions: 1440000001 cycles: 1194848692 heartbeat IPC: 1.16494 cumulative IPC: 1.1604 (Simulation time: 5 hr 51 min 19 sec) 
Heartbeat CPU 1 instructions: 1070000000 cycles: 1195868692 heartbeat IPC: 0.847717 cumulative IPC: 0.840619 (Simulation time: 5 hr 51 min 37 sec) 
Heartbeat CPU 0 instructions: 1200000002 cycles: 1202769718 heartbeat IPC: 1.07506 cumulative IPC: 0.927037 (Simulation time: 5 hr 53 min 27 sec) 
Heartbeat CPU 3 instructions: 1450000000 cycles: 1203434291 heartbeat IPC: 1.16474 cumulative IPC: 1.16044 (Simulation time: 5 hr 53 min 37 sec) 
Heartbeat CPU 1 instructions: 1080000001 cycles: 1207710847 heartbeat IPC: 0.844441 cumulative IPC: 0.840658 (Simulation time: 5 hr 54 min 49 sec) 
Heartbeat CPU 3 instructions: 1460000001 cycles: 1211976073 heartbeat IPC: 1.17072 cumulative IPC: 1.16051 (Simulation time: 5 hr 56 min 1 sec) 
Heartbeat CPU 0 instructions: 1210000000 cycles: 1212150990 heartbeat IPC: 1.06595 cumulative IPC: 0.928139 (Simulation time: 5 hr 56 min 3 sec) 
Heartbeat CPU 1 instructions: 1090000002 cycles: 1219559592 heartbeat IPC: 0.843971 cumulative IPC: 0.840691 (Simulation time: 5 hr 58 min 9 sec) 
Heartbeat CPU 3 instructions: 1470000003 cycles: 1220543886 heartbeat IPC: 1.16716 cumulative IPC: 1.16056 (Simulation time: 5 hr 58 min 26 sec) 
Heartbeat CPU 0 instructions: 1220000003 cycles: 1221460922 heartbeat IPC: 1.07412 cumulative IPC: 0.929279 (Simulation time: 5 hr 58 min 42 sec) 
Heartbeat CPU 3 instructions: 1480000001 cycles: 1229300571 heartbeat IPC: 1.14198 cumulative IPC: 1.16042 (Simulation time: 6 hr 0 min 48 sec) 
Heartbeat CPU 0 instructions: 1230000000 cycles: 1230718531 heartbeat IPC: 1.08019 cumulative IPC: 0.930442 (Simulation time: 6 hr 1 min 12 sec) 
Heartbeat CPU 1 instructions: 1100000000 cycles: 1231441059 heartbeat IPC: 0.841647 cumulative IPC: 0.8407 (Simulation time: 6 hr 1 min 23 sec) 
Heartbeat CPU 3 instructions: 1490000001 cycles: 1238014896 heartbeat IPC: 1.14754 cumulative IPC: 1.16033 (Simulation time: 6 hr 3 min 10 sec) 
Heartbeat CPU 0 instructions: 1240000000 cycles: 1239859494 heartbeat IPC: 1.09398 cumulative IPC: 0.931677 (Simulation time: 6 hr 3 min 39 sec) 
Heartbeat CPU 1 instructions: 1110000002 cycles: 1243347129 heartbeat IPC: 0.839908 cumulative IPC: 0.840693 (Simulation time: 6 hr 4 min 34 sec) 
*** Reached end of trace for Core: 3 Repeating trace: ./traces/ligra/ligra_BC.com-lj.ungraph.gcc_6.3.0_O3.drop_500M.length_250M.champsimtrace.xz
Heartbeat CPU 3 instructions: 1500000000 cycles: 1246565592 heartbeat IPC: 1.1695 cumulative IPC: 1.16039 (Simulation time: 6 hr 5 min 20 sec) 
Heartbeat CPU 3 instructions: 1510000001 cycles: 1255046832 heartbeat IPC: 1.17907 cumulative IPC: 1.16052 (Simulation time: 6 hr 7 min 21 sec) 
Heartbeat CPU 1 instructions: 1120000001 cycles: 1255082603 heartbeat IPC: 0.852117 cumulative IPC: 0.840802 (Simulation time: 6 hr 7 min 21 sec) 
Heartbeat CPU 3 instructions: 1520000000 cycles: 1263565629 heartbeat IPC: 1.17387 cumulative IPC: 1.16062 (Simulation time: 6 hr 9 min 18 sec) 
Heartbeat CPU 1 instructions: 1130000002 cycles: 1266676047 heartbeat IPC: 0.862557 cumulative IPC: 0.841006 (Simulation time: 6 hr 10 min 2 sec) 
Heartbeat CPU 0 instructions: 1250000003 cycles: 1271748700 heartbeat IPC: 0.313586 cumulative IPC: 0.91581 (Simulation time: 6 hr 11 min 15 sec) 
Heartbeat CPU 3 instructions: 1530000000 cycles: 1272085135 heartbeat IPC: 1.17378 cumulative IPC: 1.16071 (Simulation time: 6 hr 11 min 19 sec) 
Heartbeat CPU 1 instructions: 1140000000 cycles: 1278628115 heartbeat IPC: 0.836675 cumulative IPC: 0.840964 (Simulation time: 6 hr 12 min 45 sec) 
Heartbeat CPU 3 instructions: 1540000000 cycles: 1280620248 heartbeat IPC: 1.17163 cumulative IPC: 1.16078 (Simulation time: 6 hr 13 min 11 sec) 
Heartbeat CPU 3 instructions: 1550000002 cycles: 1289405472 heartbeat IPC: 1.13828 cumulative IPC: 1.16062 (Simulation time: 6 hr 15 min 16 sec) 
Heartbeat CPU 1 instructions: 1150000001 cycles: 1290724646 heartbeat IPC: 0.826683 cumulative IPC: 0.840827 (Simulation time: 6 hr 15 min 35 sec) 
Heartbeat CPU 3 instructions: 1560000000 cycles: 1298115037 heartbeat IPC: 1.14816 cumulative IPC: 1.16054 (Simulation time: 6 hr 17 min 28 sec) 
Heartbeat CPU 1 instructions: 1160000002 cycles: 1302708611 heartbeat IPC: 0.834448 cumulative IPC: 0.840767 (Simulation time: 6 hr 18 min 35 sec) 
Heartbeat CPU 3 instructions: 1570000003 cycles: 1306813008 heartbeat IPC: 1.14969 cumulative IPC: 1.16046 (Simulation time: 6 hr 19 min 38 sec) 
Heartbeat CPU 1 instructions: 1170000003 cycles: 1314674313 heartbeat IPC: 0.835722 cumulative IPC: 0.84072 (Simulation time: 6 hr 21 min 35 sec) 
Heartbeat CPU 3 instructions: 1580000000 cycles: 1315502035 heartbeat IPC: 1.15088 cumulative IPC: 1.1604 (Simulation time: 6 hr 21 min 47 sec) 
Heartbeat CPU 3 instructions: 1590000000 cycles: 1324268847 heartbeat IPC: 1.14067 cumulative IPC: 1.16027 (Simulation time: 6 hr 23 min 51 sec) 
Heartbeat CPU 1 instructions: 1180000002 cycles: 1326750199 heartbeat IPC: 0.828097 cumulative IPC: 0.840603 (Simulation time: 6 hr 24 min 23 sec) 
Heartbeat CPU 0 instructions: 1260000000 cycles: 1327598570 heartbeat IPC: 0.179051 cumulative IPC: 0.884111 (Simulation time: 6 hr 24 min 33 sec) 
Heartbeat CPU 3 instructions: 1600000002 cycles: 1332923522 heartbeat IPC: 1.15545 cumulative IPC: 1.16023 (Simulation time: 6 hr 25 min 47 sec) 
Heartbeat CPU 1 instructions: 1190000000 cycles: 1338791958 heartbeat IPC: 0.830443 cumulative IPC: 0.840509 (Simulation time: 6 hr 27 min 20 sec) 
Heartbeat CPU 3 instructions: 1610000000 cycles: 1341411693 heartbeat IPC: 1.17811 cumulative IPC: 1.16035 (Simulation time: 6 hr 27 min 57 sec) 
Heartbeat CPU 0 instructions: 1270000003 cycles: 1345319426 heartbeat IPC: 0.564307 cumulative IPC: 0.879804 (Simulation time: 6 hr 28 min 57 sec) 
Heartbeat CPU 3 instructions: 1620000000 cycles: 1349877416 heartbeat IPC: 1.18123 cumulative IPC: 1.16048 (Simulation time: 6 hr 30 min 6 sec) 
Heartbeat CPU 1 instructions: 1200000002 cycles: 1350756278 heartbeat IPC: 0.835819 cumulative IPC: 0.840467 (Simulation time: 6 hr 30 min 20 sec) 
Heartbeat CPU 3 instructions: 1630000002 cycles: 1358414451 heartbeat IPC: 1.17137 cumulative IPC: 1.16055 (Simulation time: 6 hr 32 min 17 sec) 
Heartbeat CPU 0 instructions: 1280000001 cycles: 1359329634 heartbeat IPC: 0.713765 cumulative IPC: 0.878055 (Simulation time: 6 hr 32 min 31 sec) 
Heartbeat CPU 1 instructions: 1210000000 cycles: 1362629560 heartbeat IPC: 0.842227 cumulative IPC: 0.840483 (Simulation time: 6 hr 33 min 24 sec) 
Heartbeat CPU 3 instructions: 1640000001 cycles: 1366990315 heartbeat IPC: 1.16606 cumulative IPC: 1.16059 (Simulation time: 6 hr 34 min 32 sec) 
Heartbeat CPU 0 instructions: 1290000003 cycles: 1373444782 heartbeat IPC: 0.708459 cumulative IPC: 0.876273 (Simulation time: 6 hr 36 min 5 sec) 
Heartbeat CPU 1 instructions: 1220000000 cycles: 1374450698 heartbeat IPC: 0.845942 cumulative IPC: 0.840531 (Simulation time: 6 hr 36 min 20 sec) 
Heartbeat CPU 3 instructions: 1650000000 cycles: 1375590516 heartbeat IPC: 1.16276 cumulative IPC: 1.1606 (Simulation time: 6 hr 36 min 37 sec) 
Heartbeat CPU 3 instructions: 1660000002 cycles: 1384248847 heartbeat IPC: 1.15496 cumulative IPC: 1.16057 (Simulation time: 6 hr 38 min 52 sec) 
Heartbeat CPU 1 instructions: 1230000002 cycles: 1386317870 heartbeat IPC: 0.842661 cumulative IPC: 0.840549 (Simulation time: 6 hr 39 min 27 sec) 
Heartbeat CPU 0 instructions: 1300000001 cycles: 1387421546 heartbeat IPC: 0.715473 cumulative IPC: 0.874618 (Simulation time: 6 hr 39 min 46 sec) 
Heartbeat CPU 3 instructions: 1670000001 cycles: 1393032015 heartbeat IPC: 1.13854 cumulative IPC: 1.16042 (Simulation time: 6 hr 41 min 16 sec) 
Heartbeat CPU 0 instructions: 1310000000 cycles: 1396567291 heartbeat IPC: 1.0934 cumulative IPC: 0.876082 (Simulation time: 6 hr 42 min 13 sec) 
Heartbeat CPU 1 instructions: 1240000001 cycles: 1398031851 heartbeat IPC: 0.853681 cumulative IPC: 0.840662 (Simulation time: 6 hr 42 min 34 sec) 
Heartbeat CPU 3 instructions: 1680000000 cycles: 1401589363 heartbeat IPC: 1.16859 cumulative IPC: 1.16047 (Simulation time: 6 hr 43 min 28 sec) 
Heartbeat CPU 0 instructions: 1320000000 cycles: 1405118494 heartbeat IPC: 1.16943 cumulative IPC: 0.877905 (Simulation time: 6 hr 44 min 27 sec) 
*** Reached end of trace for Core: 1 Repeating trace: ./traces/ligra/ligra_Components-Shortcut.com-lj.ungraph.gcc_6.3.0_O3.drop_11500M.length_250M.champsimtrace.xz
Heartbeat CPU 1 instructions: 1250000001 cycles: 1409667060 heartbeat IPC: 0.85946 cumulative IPC: 0.84082 (Simulation time: 6 hr 45 min 40 sec) 
Heartbeat CPU 3 instructions: 1690000000 cycles: 1410113393 heartbeat IPC: 1.17315 cumulative IPC: 1.16055 (Simulation time: 6 hr 45 min 48 sec) 
Heartbeat CPU 0 instructions: 1330000001 cycles: 1413997255 heartbeat IPC: 1.12628 cumulative IPC: 0.879498 (Simulation time: 6 hr 46 min 46 sec) 
Heartbeat CPU 3 instructions: 1700000000 cycles: 1418616126 heartbeat IPC: 1.17609 cumulative IPC: 1.16065 (Simulation time: 6 hr 47 min 57 sec) 
Heartbeat CPU 1 instructions: 1260000002 cycles: 1421515913 heartbeat IPC: 0.843964 cumulative IPC: 0.840847 (Simulation time: 6 hr 48 min 46 sec) 
Heartbeat CPU 0 instructions: 1340000001 cycles: 1422782313 heartbeat IPC: 1.1383 cumulative IPC: 0.88113 (Simulation time: 6 hr 49 min 6 sec) 
Heartbeat CPU 3 instructions: 1710000000 cycles: 1427092850 heartbeat IPC: 1.1797 cumulative IPC: 1.16076 (Simulation time: 6 hr 50 min 16 sec) 
Heartbeat CPU 0 instructions: 1350000003 cycles: 1431284577 heartbeat IPC: 1.17616 cumulative IPC: 0.88292 (Simulation time: 6 hr 51 min 22 sec) 
Heartbeat CPU 1 instructions: 1270000001 cycles: 1433535875 heartbeat IPC: 0.831949 cumulative IPC: 0.840771 (Simulation time: 6 hr 51 min 57 sec) 
Heartbeat CPU 3 instructions: 1720000001 cycles: 1435572865 heartbeat IPC: 1.17924 cumulative IPC: 1.16088 (Simulation time: 6 hr 52 min 28 sec) 
Heartbeat CPU 0 instructions: 1360000001 cycles: 1440372419 heartbeat IPC: 1.10037 cumulative IPC: 0.88432 (Simulation time: 6 hr 53 min 45 sec) 
Heartbeat CPU 3 instructions: 1730000003 cycles: 1444276708 heartbeat IPC: 1.14892 cumulative IPC: 1.1608 (Simulation time: 6 hr 54 min 50 sec) 
Heartbeat CPU 1 instructions: 1280000000 cycles: 1445395104 heartbeat IPC: 0.843225 cumulative IPC: 0.840791 (Simulation time: 6 hr 55 min 9 sec) 
Heartbeat CPU 0 instructions: 1370000003 cycles: 1449647271 heartbeat IPC: 1.07818 cumulative IPC: 0.885586 (Simulation time: 6 hr 56 min 21 sec) 
Heartbeat CPU 3 instructions: 1740000003 cycles: 1452928709 heartbeat IPC: 1.1558 cumulative IPC: 1.16077 (Simulation time: 6 hr 57 min 18 sec) 
Heartbeat CPU 1 instructions: 1290000001 cycles: 1457162469 heartbeat IPC: 0.849808 cumulative IPC: 0.840866 (Simulation time: 6 hr 58 min 23 sec) 
*** Reached end of trace for Core: 3 Repeating trace: ./traces/ligra/ligra_BC.com-lj.ungraph.gcc_6.3.0_O3.drop_500M.length_250M.champsimtrace.xz
Heartbeat CPU 3 instructions: 1750000002 cycles: 1461525065 heartbeat IPC: 1.16328 cumulative IPC: 1.16079 (Simulation time: 6 hr 59 min 29 sec) 
Heartbeat CPU 1 instructions: 1300000000 cycles: 1468900550 heartbeat IPC: 0.851928 cumulative IPC: 0.840956 (Simulation time: 7 hr 1 min 14 sec) 
Heartbeat CPU 3 instructions: 1760000000 cycles: 1470042995 heartbeat IPC: 1.17399 cumulative IPC: 1.16086 (Simulation time: 7 hr 1 min 29 sec) 
Heartbeat CPU 0 instructions: 1380000000 cycles: 1475132717 heartbeat IPC: 0.392381 cumulative IPC: 0.876891 (Simulation time: 7 hr 2 min 41 sec) 
Heartbeat CPU 3 instructions: 1770000000 cycles: 1478561640 heartbeat IPC: 1.1739 cumulative IPC: 1.16094 (Simulation time: 7 hr 3 min 29 sec) 
Heartbeat CPU 1 instructions: 1310000000 cycles: 1480831855 heartbeat IPC: 0.838131 cumulative IPC: 0.840933 (Simulation time: 7 hr 4 min 0 sec) 
Heartbeat CPU 3 instructions: 1780000002 cycles: 1487095983 heartbeat IPC: 1.17174 cumulative IPC: 1.161 (Simulation time: 7 hr 5 min 42 sec) 
Heartbeat CPU 0 instructions: 1390000001 cycles: 1490664545 heartbeat IPC: 0.643839 cumulative IPC: 0.874414 (Simulation time: 7 hr 6 min 38 sec) 
Heartbeat CPU 1 instructions: 1320000000 cycles: 1492625634 heartbeat IPC: 0.847905 cumulative IPC: 0.840989 (Simulation time: 7 hr 7 min 6 sec) 
Heartbeat CPU 3 instructions: 1790000002 cycles: 1495653115 heartbeat IPC: 1.16862 cumulative IPC: 1.16105 (Simulation time: 7 hr 7 min 49 sec) 
Heartbeat CPU 0 instructions: 1400000001 cycles: 1501214484 heartbeat IPC: 0.947873 cumulative IPC: 0.874941 (Simulation time: 7 hr 9 min 12 sec) 
Heartbeat CPU 3 instructions: 1800000001 cycles: 1504257489 heartbeat IPC: 1.1622 cumulative IPC: 1.16106 (Simulation time: 7 hr 9 min 56 sec) 
Heartbeat CPU 1 instructions: 1330000003 cycles: 1504473567 heartbeat IPC: 0.844029 cumulative IPC: 0.841013 (Simulation time: 7 hr 10 min 0 sec) 
Heartbeat CPU 0 instructions: 1410000000 cycles: 1510569937 heartbeat IPC: 1.0689 cumulative IPC: 0.876166 (Simulation time: 7 hr 11 min 32 sec) 
Heartbeat CPU 3 instructions: 1810000002 cycles: 1512832772 heartbeat IPC: 1.16614 cumulative IPC: 1.16108 (Simulation time: 7 hr 12 min 8 sec) 
Heartbeat CPU 1 instructions: 1340000002 cycles: 1516321607 heartbeat IPC: 0.844021 cumulative IPC: 0.841037 (Simulation time: 7 hr 13 min 1 sec) 
Heartbeat CPU 0 instructions: 1420000000 cycles: 1519456037 heartbeat IPC: 1.12535 cumulative IPC: 0.877652 (Simulation time: 7 hr 13 min 47 sec) 
Heartbeat CPU 3 instructions: 1820000001 cycles: 1521417816 heartbeat IPC: 1.16482 cumulative IPC: 1.16111 (Simulation time: 7 hr 14 min 19 sec) 
Heartbeat CPU 1 instructions: 1350000002 cycles: 1528205765 heartbeat IPC: 0.841456 cumulative IPC: 0.84104 (Simulation time: 7 hr 16 min 2 sec) 
Heartbeat CPU 0 instructions: 1430000000 cycles: 1528211813 heartbeat IPC: 1.1421 cumulative IPC: 0.879197 (Simulation time: 7 hr 16 min 3 sec) 
Heartbeat CPU 3 instructions: 1830000002 cycles: 1529995658 heartbeat IPC: 1.16579 cumulative IPC: 1.16113 (Simulation time: 7 hr 16 min 29 sec) 
Heartbeat CPU 0 instructions: 1440000002 cycles: 1536888546 heartbeat IPC: 1.15251 cumulative IPC: 0.88077 (Simulation time: 7 hr 18 min 16 sec) 
Heartbeat CPU 3 instructions: 1840000001 cycles: 1538580066 heartbeat IPC: 1.1649 cumulative IPC: 1.16115 (Simulation time: 7 hr 18 min 41 sec) 
Heartbeat CPU 1 instructions: 1360000003 cycles: 1540116445 heartbeat IPC: 0.839583 cumulative IPC: 0.841029 (Simulation time: 7 hr 19 min 6 sec) 
Heartbeat CPU 0 instructions: 1450000002 cycles: 1545478720 heartbeat IPC: 1.16412 cumulative IPC: 0.882376 (Simulation time: 7 hr 20 min 34 sec) 
Heartbeat CPU 3 instructions: 1850000002 cycles: 1547094205 heartbeat IPC: 1.17452 cumulative IPC: 1.16123 (Simulation time: 7 hr 20 min 59 sec) 
Heartbeat CPU 1 instructions: 1370000001 cycles: 1551851495 heartbeat IPC: 0.852148 cumulative IPC: 0.841115 (Simulation time: 7 hr 22 min 16 sec) 
Heartbeat CPU 0 instructions: 1460000001 cycles: 1555178056 heartbeat IPC: 1.031 cumulative IPC: 0.883321 (Simulation time: 7 hr 23 min 6 sec) 
Heartbeat CPU 3 instructions: 1860000000 cycles: 1555591772 heartbeat IPC: 1.17681 cumulative IPC: 1.16132 (Simulation time: 7 hr 23 min 13 sec) 
Heartbeat CPU 0 instructions: 1470000001 cycles: 1563341619 heartbeat IPC: 1.22496 cumulative IPC: 0.885139 (Simulation time: 7 hr 25 min 16 sec) 
Heartbeat CPU 1 instructions: 1380000002 cycles: 1563446534 heartbeat IPC: 0.862438 cumulative IPC: 0.841276 (Simulation time: 7 hr 25 min 17 sec) 
Heartbeat CPU 3 instructions: 1870000000 cycles: 1564049910 heartbeat IPC: 1.18229 cumulative IPC: 1.16143 (Simulation time: 7 hr 25 min 26 sec) 
Heartbeat CPU 3 instructions: 1880000001 cycles: 1572598495 heartbeat IPC: 1.16978 cumulative IPC: 1.16148 (Simulation time: 7 hr 27 min 38 sec) 
Heartbeat CPU 0 instructions: 1480000003 cycles: 1572810645 heartbeat IPC: 1.05608 cumulative IPC: 0.886188 (Simulation time: 7 hr 27 min 42 sec) 
Heartbeat CPU 1 instructions: 1390000000 cycles: 1575392598 heartbeat IPC: 0.837096 cumulative IPC: 0.841244 (Simulation time: 7 hr 28 min 28 sec) 
Heartbeat CPU 3 instructions: 1890000001 cycles: 1581175605 heartbeat IPC: 1.16589 cumulative IPC: 1.1615 (Simulation time: 7 hr 29 min 54 sec) 
Heartbeat CPU 0 instructions: 1490000002 cycles: 1581408765 heartbeat IPC: 1.16304 cumulative IPC: 0.887722 (Simulation time: 7 hr 29 min 59 sec) 
Heartbeat CPU 1 instructions: 1400000001 cycles: 1587487009 heartbeat IPC: 0.826828 cumulative IPC: 0.841132 (Simulation time: 7 hr 31 min 33 sec) 
Heartbeat CPU 3 instructions: 1900000001 cycles: 1589775966 heartbeat IPC: 1.16274 cumulative IPC: 1.16151 (Simulation time: 7 hr 32 min 9 sec) 
Heartbeat CPU 0 instructions: 1500000002 cycles: 1589988976 heartbeat IPC: 1.16547 cumulative IPC: 0.889249 (Simulation time: 7 hr 32 min 13 sec) 
Heartbeat CPU 3 instructions: 1910000002 cycles: 1598430130 heartbeat IPC: 1.15551 cumulative IPC: 1.16148 (Simulation time: 7 hr 34 min 23 sec) 
Heartbeat CPU 0 instructions: 1510000000 cycles: 1598669730 heartbeat IPC: 1.15197 cumulative IPC: 0.890702 (Simulation time: 7 hr 34 min 26 sec) 
Heartbeat CPU 1 instructions: 1410000002 cycles: 1599473027 heartbeat IPC: 0.834306 cumulative IPC: 0.84108 (Simulation time: 7 hr 34 min 38 sec) 
Heartbeat CPU 3 instructions: 1920000000 cycles: 1607163670 heartbeat IPC: 1.14501 cumulative IPC: 1.16139 (Simulation time: 7 hr 36 min 34 sec) 
Heartbeat CPU 0 instructions: 1520000002 cycles: 1608204084 heartbeat IPC: 1.04884 cumulative IPC: 0.891657 (Simulation time: 7 hr 36 min 50 sec) 
Heartbeat CPU 1 instructions: 1420000003 cycles: 1611440303 heartbeat IPC: 0.835612 cumulative IPC: 0.841038 (Simulation time: 7 hr 37 min 39 sec) 
Heartbeat CPU 3 instructions: 1930000000 cycles: 1615696637 heartbeat IPC: 1.17193 cumulative IPC: 1.16144 (Simulation time: 7 hr 38 min 41 sec) 
Heartbeat CPU 0 instructions: 1530000002 cycles: 1617827806 heartbeat IPC: 1.0391 cumulative IPC: 0.892551 (Simulation time: 7 hr 39 min 17 sec) 
Heartbeat CPU 1 instructions: 1430000000 cycles: 1623514437 heartbeat IPC: 0.828216 cumulative IPC: 0.840941 (Simulation time: 7 hr 40 min 51 sec) 
Heartbeat CPU 3 instructions: 1940000002 cycles: 1624274937 heartbeat IPC: 1.16573 cumulative IPC: 1.16147 (Simulation time: 7 hr 41 min 1 sec) 
Heartbeat CPU 0 instructions: 1540000000 cycles: 1627781483 heartbeat IPC: 1.00465 cumulative IPC: 0.893249 (Simulation time: 7 hr 41 min 56 sec) 
Heartbeat CPU 3 instructions: 1950000002 cycles: 1632886828 heartbeat IPC: 1.16119 cumulative IPC: 1.16146 (Simulation time: 7 hr 43 min 8 sec) 
Heartbeat CPU 1 instructions: 1440000000 cycles: 1635556569 heartbeat IPC: 0.830418 cumulative IPC: 0.840862 (Simulation time: 7 hr 43 min 50 sec) 
Heartbeat CPU 0 instructions: 1550000003 cycles: 1636769969 heartbeat IPC: 1.11253 cumulative IPC: 0.894475 (Simulation time: 7 hr 44 min 9 sec) 
Heartbeat CPU 3 instructions: 1960000002 cycles: 1641444424 heartbeat IPC: 1.16855 cumulative IPC: 1.1615 (Simulation time: 7 hr 45 min 19 sec) 
Heartbeat CPU 0 instructions: 1560000002 cycles: 1646067081 heartbeat IPC: 1.0756 cumulative IPC: 0.895517 (Simulation time: 7 hr 46 min 31 sec) 
Heartbeat CPU 1 instructions: 1450000002 cycles: 1647521664 heartbeat IPC: 0.835765 cumulative IPC: 0.840824 (Simulation time: 7 hr 46 min 52 sec) 
Heartbeat CPU 3 instructions: 1970000003 cycles: 1650097217 heartbeat IPC: 1.1557 cumulative IPC: 1.16147 (Simulation time: 7 hr 47 min 32 sec) 
Heartbeat CPU 0 instructions: 1570000000 cycles: 1654938811 heartbeat IPC: 1.12718 cumulative IPC: 0.896781 (Simulation time: 7 hr 48 min 40 sec) 
Heartbeat CPU 3 instructions: 1980000000 cycles: 1658854486 heartbeat IPC: 1.14191 cumulative IPC: 1.16137 (Simulation time: 7 hr 49 min 45 sec) 
Heartbeat CPU 1 instructions: 1460000002 cycles: 1659392668 heartbeat IPC: 0.842389 cumulative IPC: 0.840836 (Simulation time: 7 hr 49 min 53 sec) 
Heartbeat CPU 0 instructions: 1580000000 cycles: 1663751624 heartbeat IPC: 1.13471 cumulative IPC: 0.898064 (Simulation time: 7 hr 51 min 2 sec) 
Heartbeat CPU 3 instructions: 1990000003 cycles: 1667642754 heartbeat IPC: 1.13788 cumulative IPC: 1.16124 (Simulation time: 7 hr 52 min 2 sec) 
Heartbeat CPU 1 instructions: 1470000000 cycles: 1671212906 heartbeat IPC: 0.846007 cumulative IPC: 0.840873 (Simulation time: 7 hr 52 min 54 sec) 
Heartbeat CPU 0 instructions: 1590000000 cycles: 1672877951 heartbeat IPC: 1.09573 cumulative IPC: 0.899162 (Simulation time: 7 hr 53 min 19 sec) 
*** Reached end of trace for Core: 3 Repeating trace: ./traces/ligra/ligra_BC.com-lj.ungraph.gcc_6.3.0_O3.drop_500M.length_250M.champsimtrace.xz
Heartbeat CPU 3 instructions: 2000000002 cycles: 1676262833 heartbeat IPC: 1.16008 cumulative IPC: 1.16123 (Simulation time: 7 hr 54 min 9 sec) 
Heartbeat CPU 0 instructions: 1600000000 cycles: 1681584275 heartbeat IPC: 1.14859 cumulative IPC: 0.900477 (Simulation time: 7 hr 55 min 37 sec) 
Heartbeat CPU 1 instructions: 1480000002 cycles: 1683083697 heartbeat IPC: 0.842404 cumulative IPC: 0.840884 (Simulation time: 7 hr 56 min 0 sec) 
Heartbeat CPU 3 instructions: 2010000000 cycles: 1684820755 heartbeat IPC: 1.16851 cumulative IPC: 1.16127 (Simulation time: 7 hr 56 min 28 sec) 
Heartbeat CPU 3 instructions: 2020000000 cycles: 1693314674 heartbeat IPC: 1.17731 cumulative IPC: 1.16135 (Simulation time: 7 hr 58 min 45 sec) 
Heartbeat CPU 0 instructions: 1610000000 cycles: 1693624714 heartbeat IPC: 0.830535 cumulative IPC: 0.899971 (Simulation time: 7 hr 58 min 50 sec) 
Heartbeat CPU 1 instructions: 1490000001 cycles: 1694794243 heartbeat IPC: 0.853931 cumulative IPC: 0.840976 (Simulation time: 7 hr 59 min 8 sec) 
Heartbeat CPU 3 instructions: 2030000001 cycles: 1701827550 heartbeat IPC: 1.17469 cumulative IPC: 1.16142 (Simulation time: 8 hr 0 min 56 sec) 
[...]
L2C PREFETCHES SAME FILL-ORIGIN LEVEL: 10451867 DIFFERENT FILL-ORIGIN LEVEL: 0
L2C AVERAGE MISS LATENCY: 473.412 cycles
L2C RQ	ACCESS:   33842872	FORWARD:          0	MERGED:          0	TO_CACHE:   33842872
L2C WQ	ACCESS:     151224	FORWARD:          0	MERGED:          0	TO_CACHE:     151224
L2C PQ	ACCESS:   84921868	FORWARD:          0	MERGED:     179174	TO_CACHE:   84742694

L2C Instructions Evicting Data 21
L2C Translations Evicting Data 8802
L2C Data Evicting Data 33182893
L2C Instructions Evicting Instructions 0
L2C Translations Evicting Instructions 1
L2C Data Evicting Instructions 20
L2C Instructions Evicting Translations 0
L2C Translations Evicting Translations 3
L2C Data Evicting Translations 8795
L2C Dense regions hint from L2: 0
PSCL5 TOTAL     ACCESS:    1716115  HIT:    1716115  MISS:          0  HIT %:        100  MISS %:          0   MPKI: 0
PSCL5 LOAD TRANSLATION ACCESS:      25497  HIT:      25497  MISS:          0  HIT %:        100  MISS %:          0   MPKI: 0
PSCL5 TRANSLATION FROM L1D PREFETCHER ACCESS:    1690618  HIT:    1690618  MISS:          0  HIT %:        100  MISS %:          0   MPKI: 0
PSCL5 PREFETCH  REQUESTED:          0  ISSUED:          0  USEFUL:          0  USELESS:          0
PSCL5 USEFUL LOAD PREFETCHES:          0 PREFETCH ISSUED TO LOWER LEVEL:          0  ACCURACY: -nan
PSCL5 TIMELY PREFETCHES:          0 LATE PREFETCHES: 0 DROPPED PREFETCHES: 0
PSCL5 PREFETCHES SAME FILL-ORIGIN LEVEL: 0 DIFFERENT FILL-ORIGIN LEVEL: 0

PSCL4 TOTAL     ACCESS:    1716115  HIT:    1716115  MISS:          0  HIT %:        100  MISS %:          0   MPKI: 0
PSCL4 LOAD TRANSLATION ACCESS:      25497  HIT:      25497  MISS:          0  HIT %:        100  MISS %:          0   MPKI: 0
PSCL4 TRANSLATION FROM L1D PREFETCHER ACCESS:    1690618  HIT:    1690618  MISS:          0  HIT %:        100  MISS %:          0   MPKI: 0
PSCL4 PREFETCH  REQUESTED:          0  ISSUED:          0  USEFUL:          0  USELESS:          0
PSCL4 USEFUL LOAD PREFETCHES:          0 PREFETCH ISSUED TO LOWER LEVEL:          0  ACCURACY: -nan
PSCL4 TIMELY PREFETCHES:          0 LATE PREFETCHES: 0 DROPPED PREFETCHES: 0
PSCL4 PREFETCHES SAME FILL-ORIGIN LEVEL: 0 DIFFERENT FILL-ORIGIN LEVEL: 0

PSCL3 TOTAL     ACCESS:    1716115  HIT:    1716115  MISS:          0  HIT %:        100  MISS %:          0   MPKI: 0
PSCL3 LOAD TRANSLATION ACCESS:      25497  HIT:      25497  MISS:          0  HIT %:        100  MISS %:          0   MPKI: 0
PSCL3 TRANSLATION FROM L1D PREFETCHER ACCESS:    1690618  HIT:    1690618  MISS:          0  HIT %:        100  MISS %:          0   MPKI: 0
PSCL3 PREFETCH  REQUESTED:          0  ISSUED:          0  USEFUL:          0  USELESS:          0
PSCL3 USEFUL LOAD PREFETCHES:          0 PREFETCH ISSUED TO LOWER LEVEL:          0  ACCURACY: -nan
PSCL3 TIMELY PREFETCHES:          0 LATE PREFETCHES: 0 DROPPED PREFETCHES: 0
PSCL3 PREFETCHES SAME FILL-ORIGIN LEVEL: 0 DIFFERENT FILL-ORIGIN LEVEL: 0

PSCL2 TOTAL     ACCESS:    1712626  HIT:    1712541  MISS:         85  HIT %:     99.995  MISS %: 0.00496314   MPKI: 0.000425
PSCL2 LOAD TRANSLATION ACCESS:      25524  HIT:      25439  MISS:         85  HIT %:     99.667  MISS %:    0.33302   MPKI: 0.000425
PSCL2 TRANSLATION FROM L1D PREFETCHER ACCESS:    1687102  HIT:    1687102  MISS:          0  HIT %:        100  MISS %:          0   MPKI: 0
PSCL2 PREFETCH  REQUESTED:          0  ISSUED:          0  USEFUL:          0  USELESS:          0
PSCL2 USEFUL LOAD PREFETCHES:          0 PREFETCH ISSUED TO LOWER LEVEL:          0  ACCURACY: -nan
PSCL2 TIMELY PREFETCHES:          0 LATE PREFETCHES: 0 DROPPED PREFETCHES: 0
PSCL2 PREFETCHES SAME FILL-ORIGIN LEVEL: 0 DIFFERENT FILL-ORIGIN LEVEL: 0

LLC TOTAL     ACCESS:   33338926  HIT:   13585795  MISS:   19753131  HIT %:    40.7505  MISS %:    59.2495   MPKI: 98.7657
LLC LOAD      ACCESS:   22368246  HIT:   10928425  MISS:   11439821  HIT %:    48.8569  MISS %:    51.1431   MPKI: 57.1991
LLC RFO       ACCESS:      65389  HIT:      17137  MISS:      48252  HIT %:    26.2078  MISS %:    73.7922   MPKI: 0.24126
LLC PREFETCH  ACCESS:   10758094  HIT:    2523092  MISS:    8235002  HIT %:     23.453  MISS %:     76.547   MPKI: 41.175
LLC WRITEBACK ACCESS:     138391  HIT:     114908  MISS:      23483  HIT %:    83.0314  MISS %:    16.9686   MPKI: 0.117415
LLC LOAD TRANSLATION ACCESS:        263  HIT:         20  MISS:        243  HIT %:    7.60456  MISS %:    92.3954   MPKI: 0.001215
LLC TRANSLATION FROM L1D PREFETCHER ACCESS:       8543  HIT:       2213  MISS:       6330  HIT %:    25.9042  MISS %:    74.0958   MPKI: 0.03165
LLC PREFETCH  REQUESTED:          0  ISSUED:          0  USEFUL:     714889  USELESS:  264784273
LLC USEFUL LOAD PREFETCHES:     714889 PREFETCH ISSUED TO LOWER LEVEL:  264314083  ACCURACY: 0.27047
LLC TIMELY PREFETCHES:     714889 LATE PREFETCHES: 0 DROPPED PREFETCHES: 0
LLC PREFETCHES SAME FILL-ORIGIN LEVEL: 0 DIFFERENT FILL-ORIGIN LEVEL: 0
LLC AVERAGE MISS LATENCY: 11593 cycles
LLC RQ	ACCESS:   97870824	FORWARD:          0	MERGED:          0	TO_CACHE:   97870824
LLC WQ	ACCESS:  111752525	FORWARD:          0	MERGED:          0	TO_CACHE:  111752525
LLC PQ	ACCESS:  266827978	FORWARD:          0	MERGED:          0	TO_CACHE:  266827978

LLC Dense regions hint to LLC: 0

RAW hits: 30
Loads Generated: 77350942
Loads sent to L1D: 77350911
Stores Generated: 3305817
Stores sent to L1D: 3305817
Major fault: 0 Minor fault: 34901
Allocated PAGES: 142026

CPU 3 cumulative IPC: 1.13693 instructions: 200000002 cycles: 175912637
ITLB TOTAL     ACCESS:   33214676  HIT:   33214676  MISS:          0  HIT %:        100  MISS %:          0   MPKI: 0
ITLB LOAD TRANSLATION ACCESS:   33214676  HIT:   33214676  MISS:          0  HIT %:        100  MISS %:          0   MPKI: 0
ITLB PREFETCH  REQUESTED:          0  ISSUED:          0  USEFUL:          0  USELESS:          0
ITLB USEFUL LOAD PREFETCHES:          0 PREFETCH ISSUED TO LOWER LEVEL:          0  ACCURACY: -nan
ITLB TIMELY PREFETCHES:          0 LATE PREFETCHES: 0 DROPPED PREFETCHES: 0
ITLB PREFETCHES SAME FILL-ORIGIN LEVEL: 0 DIFFERENT FILL-ORIGIN LEVEL: 0
ITLB AVERAGE MISS LATENCY: -nan cycles
ITLB RQ	ACCESS: 2002595686	FORWARD:          0	MERGED:          0	TO_CACHE: 2002595686

DTLB TOTAL     ACCESS:   18047145  HIT:   18039860  MISS:       7285  HIT %:    99.9596  MISS %:  0.0403665   MPKI: 0.036425
DTLB LOAD TRANSLATION ACCESS:   18047145  HIT:   18039860  MISS:       7285  HIT %:    99.9596  MISS %:  0.0403665   MPKI: 0.036425
DTLB PREFETCH  REQUESTED:          0  ISSUED:          0  USEFUL:          0  USELESS:          0
DTLB USEFUL LOAD PREFETCHES:          0 PREFETCH ISSUED TO LOWER LEVEL:          0  ACCURACY: -nan
DTLB TIMELY PREFETCHES:          0 LATE PREFETCHES: 0 DROPPED PREFETCHES: 0
DTLB PREFETCHES SAME FILL-ORIGIN LEVEL: 0 DIFFERENT FILL-ORIGIN LEVEL: 0
DTLB AVERAGE MISS LATENCY: 486.149 cycles
DTLB RQ	ACCESS: 1127908571	FORWARD:          0	MERGED:   33165019	TO_CACHE: 1094743552

STLB TOTAL     ACCESS:   11519916  HIT:   11512631  MISS:       7285  HIT %:    99.9368  MISS %:  0.0632383   MPKI: 0.036425
STLB LOAD TRANSLATION ACCESS:       7285  HIT:       1364  MISS:       5921  HIT %:    18.7234  MISS %:    81.2766   MPKI: 0.029605
STLB TRANSLATION FROM L1D PREFETCHER ACCESS:   11512631  HIT:   11511267  MISS:       1364  HIT %:    99.9882  MISS %:  0.0118479   MPKI: 0.00682
STLB PREFETCH  REQUESTED:          0  ISSUED:          0  USEFUL:     432581  USELESS:          0
STLB USEFUL LOAD PREFETCHES:     432581 PREFETCH ISSUED TO LOWER LEVEL:          0  ACCURACY: inf
STLB TIMELY PREFETCHES:     432581 LATE PREFETCHES: 1793 DROPPED PREFETCHES: 429434
STLB PREFETCHES SAME FILL-ORIGIN LEVEL: 0 DIFFERENT FILL-ORIGIN LEVEL: 0
STLB AVERAGE MISS LATENCY: 7087.31 cycles
STLB RQ	ACCESS: 4380312964	FORWARD:          0	MERGED: 3614401323	TO_CACHE:  765911641

STLB Hit, L1D data hit: 0
STLB Hit, L2C data hit: 0
STLB Hit, LLC data hit: 0
STLB Hit, LLC data miss: 0
STLB STLB hints to L2: 0
L1D TOTAL     ACCESS:   69386289  HIT:   68920134  MISS:     466155  HIT %:    99.3282  MISS %:   0.671826   MPKI: 2.33077
L1D LOAD      ACCESS:   14337338  HIT:   14325460  MISS:      11878  HIT %:    99.9172  MISS %:  0.0828466   MPKI: 0.05939
L1D RFO       ACCESS:    4199956  HIT:    4199955  MISS:          1  HIT %:        100  MISS %: 2.38098e-05   MPKI: 5e-06
L1D PREFETCH  ACCESS:   50848995  HIT:   50394719  MISS:     454276  HIT %:    99.1066  MISS %:   0.893382   MPKI: 2.27138
L1D PREFETCH  REQUESTED: 16495117432  ISSUED: 16495094962  USEFUL:   27892208  USELESS:        372
L1D USEFUL LOAD PREFETCHES:   27892208 PREFETCH ISSUED TO LOWER LEVEL:  168458977  ACCURACY: 16.5573
L1D TIMELY PREFETCHES:   27892208 LATE PREFETCHES: 198531 DROPPED PREFETCHES: 1965984
L1D PREFETCHES SAME FILL-ORIGIN LEVEL: 28091111 DIFFERENT FILL-ORIGIN LEVEL: 140367866
L1D AVERAGE MISS LATENCY: 38926.5 cycles
L1D RQ	ACCESS: 1798099155	FORWARD:          0	MERGED:  924379975	TO_CACHE:  873719180
L1D WQ	ACCESS:  254189391	FORWARD:          0	MERGED:          0	TO_CACHE:  254189391
L1D PQ	ACCESS: 12115221062	FORWARD:          0	MERGED: 7735347162	TO_CACHE: 4379873900

L1D UNIQUE REGIONS ACCESSED: 0
L1D REGIONS CONFLICTS: 0
L1D Cross Page Prefetch Requests: 800457391
L1D Same Page Prefetch Requests: 11494655383
L1D ROI Sum of L1D PQ occupancy: 52693454239
L1D PREFETCHES PUSHED FROM L2C: 0
L1I TOTAL     ACCESS:   33214676  HIT:   33214676  MISS:          0  HIT %:        100  MISS %:          0   MPKI: 0
L1I LOAD      ACCESS:   33214676  HIT:   33214676  MISS:          0  HIT %:        100  MISS %:          0   MPKI: 0
L1I PREFETCH  REQUESTED:          0  ISSUED:          0  USEFUL:          0  USELESS:          0
L1I USEFUL LOAD PREFETCHES:          0 PREFETCH ISSUED TO LOWER LEVEL:          0  ACCURACY: -nan
L1I TIMELY PREFETCHES:          0 LATE PREFETCHES: 0 DROPPED PREFETCHES: 0
L1I PREFETCHES SAME FILL-ORIGIN LEVEL: 0 DIFFERENT FILL-ORIGIN LEVEL: 0
L1I AVERAGE MISS LATENCY: -nan cycles
L1I RQ	ACCESS: 4820479204	FORWARD:          0	MERGED: 2817883518	TO_CACHE: 2002595686

BTB TOTAL     ACCESS:   59666746  HIT:   59666744  MISS:          2  HIT %:        100  MISS %: 3.35195e-06   MPKI: 1e-05
BTB BRANCH_DIRECT_JUMP	ACCESS:          0  HIT:          0  MISS:          0
BTB BRANCH_INDIRECT	ACCESS:          0  HIT:          0  MISS:          0
BTB BRANCH_CONDITIONAL	ACCESS:   59666746  HIT:   59666744  MISS:          2
BTB BRANCH_DIRECT_CALL	ACCESS:          0  HIT:          0  MISS:          0
BTB BRANCH_INDIRECT_CALL	ACCESS:          0  HIT:          0  MISS:          0
BTB BRANCH_RETURN	ACCESS:          0  HIT:          0  MISS:          0
BTB BRANCH_OTHER ACCESS:          0  HIT:          0  MISS:          0

L2C TOTAL     ACCESS:    2011153  HIT:    1502792  MISS:     508361  HIT %:    74.7229  MISS %:    25.2771   MPKI: 2.5418
L2C LOAD      ACCESS:       4352  HIT:          5  MISS:       4347  HIT %:    0.11489  MISS %:    99.8851   MPKI: 0.021735
L2C DATA LOAD MPKI: 0.021735
L2C INSTRUCTION LOAD MPKI: 0
L2C RFO       ACCESS:          1  HIT:          0  MISS:          1  HIT %:          0  MISS %:        100   MPKI: 5e-06
L2C PREFETCH  ACCESS:    1102659  HIT:     640852  MISS:     461807  HIT %:    58.1188  MISS %:    41.8812   MPKI: 2.30903
L2C DATA PREFETCH MPKI: 2.30903
L2C INSTRUCTION PREFETCH MPKI: 0
L2C WRITEBACK ACCESS:     466147  HIT:     424863  MISS:      41284  HIT %:    91.1436  MISS %:    8.85643   MPKI: 0.20642
L2C LOAD TRANSLATION ACCESS:       5918  HIT:       5917  MISS:          1  HIT %:    99.9831  MISS %:  0.0168976   MPKI: 5e-06
L2C TRANSLATION FROM L1D PREFETCHER ACCESS:     432076  HIT:     431155  MISS:        921  HIT %:    99.7868  MISS %:   0.213157   MPKI: 0.004605
L2C PREFETCH  REQUESTED:          0  ISSUED:          0  USEFUL:      55072  USELESS:   28091291
L2C USEFUL LOAD PREFETCHES:      55072 PREFETCH ISSUED TO LOWER LEVEL:   28091332  ACCURACY: 0.196046
L2C TIMELY PREFETCHES:      55072 LATE PREFETCHES: 0 DROPPED PREFETCHES: 0
L2C PREFETCHES SAME FILL-ORIGIN LEVEL: 3810759 DIFFERENT FILL-ORIGIN LEVEL: 0
L2C AVERAGE MISS LATENCY: 40234.9 cycles
L2C RQ	ACCESS:     874380	FORWARD:          0	MERGED:          0	TO_CACHE:     874380
L2C WQ	ACCESS:   28095345	FORWARD:          0	MERGED:          0	TO_CACHE:   28095345
L2C PQ	ACCESS:  168458977	FORWARD:          0	MERGED:     164359	TO_CACHE:  168294618

L2C Instructions Evicting Data 0
L2C Translations Evicting Data 55039
L2C Data Evicting Data 28045467
L2C Instructions Evicting Instructions 0
L2C Translations Evicting Instructions 0
L2C Data Evicting Instructions 0
L2C Instructions Evicting Translations 0
L2C Translations Evicting Translations 13
L2C Data Evicting Translations 50263
L2C Dense regions hint from L2: 0
PSCL5 TOTAL     ACCESS:     437994  HIT:     437994  MISS:          0  HIT %:        100  MISS %:          0   MPKI: 0
PSCL5 LOAD TRANSLATION ACCESS:       5918  HIT:       5918  MISS:          0  HIT %:        100  MISS %:          0   MPKI: 0
PSCL5 TRANSLATION FROM L1D PREFETCHER ACCESS:     432076  HIT:     432076  MISS:          0  HIT %:        100  MISS %:          0   MPKI: 0
PSCL5 PREFETCH  REQUESTED:          0  ISSUED:          0  USEFUL:          0  USELESS:          0
PSCL5 USEFUL LOAD PREFETCHES:          0 PREFETCH ISSUED TO LOWER LEVEL:          0  ACCURACY: -nan
PSCL5 TIMELY PREFETCHES:          0 LATE PREFETCHES: 0 DROPPED PREFETCHES: 0
PSCL5 PREFETCHES SAME FILL-ORIGIN LEVEL: 0 DIFFERENT FILL-ORIGIN LEVEL: 0

PSCL4 TOTAL     ACCESS:     437994  HIT:     437994  MISS:          0  HIT %:        100  MISS %:          0   MPKI: 0
PSCL4 LOAD TRANSLATION ACCESS:       5918  HIT:       5918  MISS:          0  HIT %:        100  MISS %:          0   MPKI: 0
PSCL4 TRANSLATION FROM L1D PREFETCHER ACCESS:     432076  HIT:     432076  MISS:          0  HIT %:        100  MISS %:          0   MPKI: 0
PSCL4 PREFETCH  REQUESTED:          0  ISSUED:          0  USEFUL:          0  USELESS:          0
PSCL4 USEFUL LOAD PREFETCHES:          0 PREFETCH ISSUED TO LOWER LEVEL:          0  ACCURACY: -nan
PSCL4 TIMELY PREFETCHES:          0 LATE PREFETCHES: 0 DROPPED PREFETCHES: 0
PSCL4 PREFETCHES SAME FILL-ORIGIN LEVEL: 0 DIFFERENT FILL-ORIGIN LEVEL: 0

PSCL3 TOTAL     ACCESS:     437994  HIT:     437994  MISS:          0  HIT %:        100  MISS %:          0   MPKI: 0
PSCL3 LOAD TRANSLATION ACCESS:       5918  HIT:       5918  MISS:          0  HIT %:        100  MISS %:          0   MPKI: 0
PSCL3 TRANSLATION FROM L1D PREFETCHER ACCESS:     432076  HIT:     432076  MISS:          0  HIT %:        100  MISS %:          0   MPKI: 0
PSCL3 PREFETCH  REQUESTED:          0  ISSUED:          0  USEFUL:          0  USELESS:          0
PSCL3 USEFUL LOAD PREFETCHES:          0 PREFETCH ISSUED TO LOWER LEVEL:          0  ACCURACY: -nan
PSCL3 TIMELY PREFETCHES:          0 LATE PREFETCHES: 0 DROPPED PREFETCHES: 0
PSCL3 PREFETCHES SAME FILL-ORIGIN LEVEL: 0 DIFFERENT FILL-ORIGIN LEVEL: 0

PSCL2 TOTAL     ACCESS:     437334  HIT:     437322  MISS:         12  HIT %:    99.9973  MISS %:  0.0027439   MPKI: 6e-05
PSCL2 LOAD TRANSLATION ACCESS:       5918  HIT:       5906  MISS:         12  HIT %:    99.7972  MISS %:   0.202771   MPKI: 6e-05
PSCL2 TRANSLATION FROM L1D PREFETCHER ACCESS:     431416  HIT:     431416  MISS:          0  HIT %:        100  MISS %:          0   MPKI: 0
PSCL2 PREFETCH  REQUESTED:          0  ISSUED:          0  USEFUL:          0  USELESS:          0
PSCL2 USEFUL LOAD PREFETCHES:          0 PREFETCH ISSUED TO LOWER LEVEL:          0  ACCURACY: -nan
PSCL2 TIMELY PREFETCHES:          0 LATE PREFETCHES: 0 DROPPED PREFETCHES: 0
PSCL2 PREFETCHES SAME FILL-ORIGIN LEVEL: 0 DIFFERENT FILL-ORIGIN LEVEL: 0

LLC TOTAL     ACCESS:     933229  HIT:     354460  MISS:     578769  HIT %:    37.9821  MISS %:    62.0179   MPKI: 2.89384
LLC LOAD      ACCESS:       4347  HIT:          0  MISS:       4347  HIT %:          0  MISS %:        100   MPKI: 0.021735
LLC RFO       ACCESS:          1  HIT:          0  MISS:          1  HIT %:          0  MISS %:        100   MPKI: 5e-06
LLC PREFETCH  ACCESS:     461807  HIT:          0  MISS:     461807  HIT %:          0  MISS %:        100   MPKI: 2.30903
LLC WRITEBACK ACCESS:     466152  HIT:     354460  MISS:     111692  HIT %:    76.0396  MISS %:    23.9604   MPKI: 0.55846
LLC LOAD TRANSLATION ACCESS:          1  HIT:          0  MISS:          1  HIT %:          0  MISS %:        100   MPKI: 5e-06
LLC TRANSLATION FROM L1D PREFETCHER ACCESS:        921  HIT:          0  MISS:        921  HIT %:          0  MISS %:        100   MPKI: 0.004605
LLC PREFETCH  REQUESTED:          0  ISSUED:          0  USEFUL:     714889  USELESS:  264784273
LLC USEFUL LOAD PREFETCHES:     714889 PREFETCH ISSUED TO LOWER LEVEL:  264314083  ACCURACY: 0.27047
LLC TIMELY PREFETCHES:     714889 LATE PREFETCHES: 0 DROPPED PREFETCHES: 0
LLC PREFETCHES SAME FILL-ORIGIN LEVEL: 0 DIFFERENT FILL-ORIGIN LEVEL: 0
LLC AVERAGE MISS LATENCY: 395665 cycles
LLC RQ	ACCESS:   97870824	FORWARD:          0	MERGED:          0	TO_CACHE:   97870824
LLC WQ	ACCESS:  111752525	FORWARD:          0	MERGED:          0	TO_CACHE:  111752525
LLC PQ	ACCESS:  266827978	FORWARD:          0	MERGED:          0	TO_CACHE:  266827978

LLC Dense regions hint to LLC: 0

RAW hits: 0
Loads Generated: 29833372
Loads sent to L1D: 29833371
Stores Generated: 4199955
Stores sent to L1D: 4199956
Major fault: 0 Minor fault: 9127
Allocated PAGES: 142026

DRAM Statistics
 CHANNEL 0
 RQ ROW_BUFFER_HIT:  169153428  ROW_BUFFER_MISS:  180954408
 DBUS_CONGESTED:         20
 WQ ROW_BUFFER_HIT:   22124117  ROW_BUFFER_MISS:   89561302  FULL:       2685

 AVG_CONGESTED_CYCLE: 4
 All warmup complete: 5
Channel 0 Bank busy for read cycles: 0
Channel 0 Bank busy for write cycles: 0
Channel 0
Rank 0
0banks busy for read cycles: 423272
0banks busy for write cycles: 720
1banks busy for read cycles: 62043068
1banks busy for write cycles: 11928630
2banks busy for read cycles: 202668668
2banks busy for write cycles: 47183910
3banks busy for read cycles: 492631730
3banks busy for write cycles: 1454547665
4banks busy for read cycles: 753864377
4banks busy for write cycles: 564027319
5banks busy for read cycles: 980344003
5banks busy for write cycles: 354720734
6banks busy for read cycles: 1273119603
6banks busy for write cycles: 196020914
7banks busy for read cycles: 1465922052
7banks busy for write cycles: 221658653
8banks busy for read cycles: 1405620103
8banks busy for write cycles: 877034310

CPU 0 Branch Prediction Accuracy: 99.9998% MPKI: 8.30146e-05 Average ROB Occupancy at Mispredict: 145.559
Branch types
NOT_BRANCH: 8982052183 95.6166%
BRANCH_DIRECT_JUMP: 1028 1.09434e-05%
BRANCH_INDIRECT: 0 0%
BRANCH_CONDITIONAL: 344289608 3.66507%
BRANCH_DIRECT_CALL: 33736792 0.359138%
BRANCH_INDIRECT_CALL: 0 0%
BRANCH_RETURN: 33736792 0.359138%
BRANCH_OTHER: 0 0%


CPU 1 Branch Prediction Accuracy: 97.6004% MPKI: 7.23104 Average ROB Occupancy at Mispredict: 79.3718
Branch types
NOT_BRANCH: 6086903569 69.729%
BRANCH_DIRECT_JUMP: 354139809 4.05688%
BRANCH_INDIRECT: 0 0%
BRANCH_CONDITIONAL: 2214063883 25.3634%
BRANCH_DIRECT_CALL: 37132898 0.425379%
BRANCH_INDIRECT_CALL: 0 0%
BRANCH_RETURN: 37132898 0.425379%
BRANCH_OTHER: 0 0%


CPU 2 Branch Prediction Accuracy: 96.9509% MPKI: 5.6443 Average ROB Occupancy at Mispredict: 140.336
Branch types
NOT_BRANCH: 162977012 81.4885%
BRANCH_DIRECT_JUMP: 66 3.3e-05%
BRANCH_INDIRECT: 4 2e-06%
BRANCH_CONDITIONAL: 37022851 18.5114%
BRANCH_DIRECT_CALL: 28 1.4e-05%
BRANCH_INDIRECT_CALL: 5 2.5e-06%
BRANCH_RETURN: 33 1.65e-05%
BRANCH_OTHER: 0 0%


CPU 3 Branch Prediction Accuracy: 99.6866% MPKI: 0.997356 Average ROB Occupancy at Mispredict: 25.5845
Branch types
NOT_BRANCH: 8209154288 68.0719%
BRANCH_DIRECT_JUMP: 0 0%
BRANCH_INDIRECT: 0 0%
BRANCH_CONDITIONAL: 3850387752 31.9281%
BRANCH_DIRECT_CALL: 0 0%
BRANCH_INDIRECT_CALL: 0 0%
BRANCH_RETURN: 0 0%
BRANCH_OTHER: 0 0%

DRAM PAGES: 1048576
Allocated PAGES: 142026
