
*** ChampSim Multicore Out-of-Order Simulator ***

Warmup Instructions: 50000000
Simulation Instructions: 200000000
Number of CPUs: 4
LLC sets: 8192
LLC ways: 16
Off-chip DRAM Size: 4096 MB Channels: 1 Width: 64-bit Data Rate: 6400 MT/s
CPU 0 runs ./traces/ligra/ligra_CF.com-lj.ungraph.gcc_6.3.0_O3.drop_2500M.length_250M.champsimtrace.xz
.xz
CPU 1 runs ./traces/gap/bfs-10.trace.gz
.gz
CPU 2 runs ./traces/spec/437.leslie3d-271B.champsimtrace.xz
.xz
CPU 3 runs ./traces/ligra/ligra_BFS.com-lj.ungraph.gcc_6.3.0_O3.drop_3500M.length_250M.champsimtrace.xz
.xz
BTB has LRU replacement policy
ITLB has LRU replacement policy
DTLB has LRU replacement policy
STLB has LRU replacement policy
L1I has LRU replacement policy
History Sets: 8
History Ways: 16
BERTI Size: 16
BERTI Stride Size: 8
L1D has LRU replacement policy
Initialize SRRIP state for L2C
Initialize DRRIP state for LLC
BTB has LRU replacement policy
ITLB has LRU replacement policy
DTLB has LRU replacement policy
STLB has LRU replacement policy
L1I has LRU replacement policy
History Sets: 8
History Ways: 16
BERTI Size: 16
BERTI Stride Size: 8
L1D has LRU replacement policy
Initialize SRRIP state for L2C
Initialize DRRIP state for LLC
BTB has LRU replacement policy
ITLB has LRU replacement policy
DTLB has LRU replacement policy
STLB has LRU replacement policy
L1I has LRU replacement policy
History Sets: 8
History Ways: 16
BERTI Size: 16
BERTI Stride Size: 8
L1D has LRU replacement policy
Initialize SRRIP state for L2C
Initialize DRRIP state for LLC
BTB has LRU replacement policy
ITLB has LRU replacement policy
DTLB has LRU replacement policy
STLB has LRU replacement policy
L1I has LRU replacement policy
History Sets: 8
History Ways: 16
BERTI Size: 16
BERTI Stride Size: 8
L1D has LRU replacement policy
Initialize SRRIP state for L2C
Initialize DRRIP state for LLC
Heartbeat CPU 2 instructions: 10000002 cycles: 2945125 heartbeat IPC: 3.39544 cumulative IPC: 3.39544 (Simulation time: 0 hr 2 min 27 sec) 
Heartbeat CPU 1 instructions: 10000000 cycles: 2972395 heartbeat IPC: 3.36429 cumulative IPC: 3.36429 (Simulation time: 0 hr 2 min 29 sec) 
Heartbeat CPU 0 instructions: 10000002 cycles: 3333345 heartbeat IPC: 2.99999 cumulative IPC: 2.99999 (Simulation time: 0 hr 2 min 48 sec) 
Heartbeat CPU 3 instructions: 10000002 cycles: 3333348 heartbeat IPC: 2.99999 cumulative IPC: 2.99999 (Simulation time: 0 hr 2 min 48 sec) 
Heartbeat CPU 2 instructions: 20000001 cycles: 5890105 heartbeat IPC: 3.39561 cumulative IPC: 3.39553 (Simulation time: 0 hr 4 min 58 sec) 
Heartbeat CPU 1 instructions: 20000003 cycles: 5918484 heartbeat IPC: 3.39433 cumulative IPC: 3.37924 (Simulation time: 0 hr 4 min 59 sec) 
Heartbeat CPU 0 instructions: 20000000 cycles: 6666678 heartbeat IPC: 3 cumulative IPC: 2.99999 (Simulation time: 0 hr 5 min 38 sec) 
Heartbeat CPU 3 instructions: 20000001 cycles: 6666681 heartbeat IPC: 3 cumulative IPC: 2.99999 (Simulation time: 0 hr 5 min 38 sec) 
Heartbeat CPU 2 instructions: 30000002 cycles: 8835025 heartbeat IPC: 3.39568 cumulative IPC: 3.39558 (Simulation time: 0 hr 7 min 23 sec) 
Heartbeat CPU 1 instructions: 30000003 cycles: 8850582 heartbeat IPC: 3.41053 cumulative IPC: 3.38961 (Simulation time: 0 hr 7 min 24 sec) 
Heartbeat CPU 0 instructions: 30000000 cycles: 10000011 heartbeat IPC: 3 cumulative IPC: 3 (Simulation time: 0 hr 8 min 27 sec) 
Heartbeat CPU 3 instructions: 30000000 cycles: 10000014 heartbeat IPC: 3 cumulative IPC: 3 (Simulation time: 0 hr 8 min 27 sec) 
Heartbeat CPU 2 instructions: 40000002 cycles: 11780040 heartbeat IPC: 3.39557 cumulative IPC: 3.39557 (Simulation time: 0 hr 9 min 52 sec) 
Heartbeat CPU 1 instructions: 40000000 cycles: 11783070 heartbeat IPC: 3.41007 cumulative IPC: 3.3947 (Simulation time: 0 hr 9 min 52 sec) 
Heartbeat CPU 0 instructions: 40000003 cycles: 13333345 heartbeat IPC: 3 cumulative IPC: 3 (Simulation time: 0 hr 11 min 7 sec) 
Heartbeat CPU 3 instructions: 40000002 cycles: 13333348 heartbeat IPC: 3 cumulative IPC: 3 (Simulation time: 0 hr 11 min 7 sec) 
Heartbeat CPU 1 instructions: 50000001 cycles: 14714101 heartbeat IPC: 3.41177 cumulative IPC: 3.3981 (Simulation time: 0 hr 12 min 19 sec) 
Heartbeat CPU 2 instructions: 50000003 cycles: 14725103 heartbeat IPC: 3.39551 cumulative IPC: 3.39556 (Simulation time: 0 hr 12 min 20 sec) 
Heartbeat CPU 0 instructions: 50000001 cycles: 16666678 heartbeat IPC: 3 cumulative IPC: 3 (Simulation time: 0 hr 13 min 48 sec) 
Heartbeat CPU 3 instructions: 50000000 cycles: 16666680 heartbeat IPC: 3 cumulative IPC: 3 (Simulation time: 0 hr 13 min 48 sec) 

Warmup complete CPU 0 instructions: 50000008 cycles: 16666681 (Simulation time: 0 hr 13 min 48 sec) 
Warmup complete CPU 1 instructions: 54072167 cycles: 16666681 (Simulation time: 0 hr 13 min 48 sec) 
Warmup complete CPU 2 instructions: 56591065 cycles: 16666681 (Simulation time: 0 hr 13 min 48 sec) 
Warmup complete CPU 3 instructions: 50000001 cycles: 16666681 (Simulation time: 0 hr 13 min 48 sec) 

Heartbeat CPU 2 instructions: 60000001 cycles: 18647434 heartbeat IPC: 2.5495 cumulative IPC: 1.72103 (Simulation time: 0 hr 14 min 32 sec) 
Heartbeat CPU 2 instructions: 70000000 cycles: 24593660 heartbeat IPC: 1.68174 cumulative IPC: 1.69156 (Simulation time: 0 hr 16 min 33 sec) 
Heartbeat CPU 3 instructions: 60000002 cycles: 25447044 heartbeat IPC: 1.13891 cumulative IPC: 1.13891 (Simulation time: 0 hr 16 min 51 sec) 
Heartbeat CPU 0 instructions: 60000002 cycles: 28749755 heartbeat IPC: 0.827604 cumulative IPC: 0.827603 (Simulation time: 0 hr 18 min 0 sec) 
Heartbeat CPU 2 instructions: 80000002 cycles: 30480810 heartbeat IPC: 1.69862 cumulative IPC: 1.69456 (Simulation time: 0 hr 18 min 35 sec) 
Heartbeat CPU 3 instructions: 70000002 cycles: 34268574 heartbeat IPC: 1.13359 cumulative IPC: 1.13624 (Simulation time: 0 hr 19 min 59 sec) 
Heartbeat CPU 2 instructions: 90000000 cycles: 36969028 heartbeat IPC: 1.54125 cumulative IPC: 1.64557 (Simulation time: 0 hr 21 min 2 sec) 
Heartbeat CPU 0 instructions: 70000000 cycles: 40787087 heartbeat IPC: 0.830749 cumulative IPC: 0.829173 (Simulation time: 0 hr 22 min 33 sec) 
Heartbeat CPU 3 instructions: 80000000 cycles: 43026979 heartbeat IPC: 1.14176 cumulative IPC: 1.13808 (Simulation time: 0 hr 23 min 24 sec) 
Heartbeat CPU 2 instructions: 100000000 cycles: 43597237 heartbeat IPC: 1.5087 cumulative IPC: 1.61188 (Simulation time: 0 hr 23 min 37 sec) 
Heartbeat CPU 1 instructions: 60000001 cycles: 47130749 heartbeat IPC: 0.308483 cumulative IPC: 0.194584 (Simulation time: 0 hr 24 min 52 sec) 
Heartbeat CPU 2 instructions: 110000000 cycles: 50227799 heartbeat IPC: 1.50817 cumulative IPC: 1.59139 (Simulation time: 0 hr 26 min 2 sec) 
Heartbeat CPU 3 instructions: 90000003 cycles: 51821038 heartbeat IPC: 1.13713 cumulative IPC: 1.13784 (Simulation time: 0 hr 26 min 41 sec) 
Heartbeat CPU 0 instructions: 80000000 cycles: 52834481 heartbeat IPC: 0.830055 cumulative IPC: 0.829467 (Simulation time: 0 hr 27 min 5 sec) 
Heartbeat CPU 2 instructions: 120000000 cycles: 56851100 heartbeat IPC: 1.50982 cumulative IPC: 1.57795 (Simulation time: 0 hr 28 min 33 sec) 
Heartbeat CPU 3 instructions: 100000001 cycles: 60600400 heartbeat IPC: 1.13903 cumulative IPC: 1.13808 (Simulation time: 0 hr 29 min 55 sec) 
Heartbeat CPU 2 instructions: 130000000 cycles: 63233854 heartbeat IPC: 1.56672 cumulative IPC: 1.57641 (Simulation time: 0 hr 31 min 0 sec) 
Heartbeat CPU 0 instructions: 90000003 cycles: 64874964 heartbeat IPC: 0.830532 cumulative IPC: 0.829733 (Simulation time: 0 hr 31 min 35 sec) 
Heartbeat CPU 3 instructions: 110000000 cycles: 69386318 heartbeat IPC: 1.13818 cumulative IPC: 1.1381 (Simulation time: 0 hr 33 min 20 sec) 
Heartbeat CPU 2 instructions: 140000002 cycles: 69527997 heartbeat IPC: 1.58878 cumulative IPC: 1.57788 (Simulation time: 0 hr 33 min 24 sec) 
Heartbeat CPU 2 instructions: 150000003 cycles: 75806710 heartbeat IPC: 1.59268 cumulative IPC: 1.57945 (Simulation time: 0 hr 35 min 49 sec) 
Heartbeat CPU 0 instructions: 100000000 cycles: 76902633 heartbeat IPC: 0.831416 cumulative IPC: 0.830069 (Simulation time: 0 hr 36 min 11 sec) 
Heartbeat CPU 3 instructions: 120000001 cycles: 78186097 heartbeat IPC: 1.13639 cumulative IPC: 1.13785 (Simulation time: 0 hr 36 min 39 sec) 
Heartbeat CPU 2 instructions: 160000001 cycles: 82087771 heartbeat IPC: 1.59209 cumulative IPC: 1.58067 (Simulation time: 0 hr 38 min 0 sec) 
Heartbeat CPU 3 instructions: 130000002 cycles: 87001617 heartbeat IPC: 1.13436 cumulative IPC: 1.13741 (Simulation time: 0 hr 39 min 54 sec) 
Heartbeat CPU 2 instructions: 170000001 cycles: 88358110 heartbeat IPC: 1.59481 cumulative IPC: 1.5819 (Simulation time: 0 hr 40 min 21 sec) 
Heartbeat CPU 0 instructions: 110000000 cycles: 88927962 heartbeat IPC: 0.831578 cumulative IPC: 0.83032 (Simulation time: 0 hr 40 min 34 sec) 
Heartbeat CPU 1 instructions: 70000003 cycles: 90556803 heartbeat IPC: 0.230277 cumulative IPC: 0.215561 (Simulation time: 0 hr 41 min 10 sec) 
Heartbeat CPU 2 instructions: 180000003 cycles: 94648162 heartbeat IPC: 1.58981 cumulative IPC: 1.58254 (Simulation time: 0 hr 42 min 42 sec) 
Heartbeat CPU 3 instructions: 140000000 cycles: 95805588 heartbeat IPC: 1.13585 cumulative IPC: 1.13724 (Simulation time: 0 hr 43 min 8 sec) 
Heartbeat CPU 2 instructions: 190000000 cycles: 100925806 heartbeat IPC: 1.59295 cumulative IPC: 1.58332 (Simulation time: 0 hr 45 min 2 sec) 
Heartbeat CPU 0 instructions: 120000001 cycles: 100946791 heartbeat IPC: 0.832028 cumulative IPC: 0.830564 (Simulation time: 0 hr 45 min 2 sec) 
Heartbeat CPU 3 instructions: 150000001 cycles: 104596036 heartbeat IPC: 1.1376 cumulative IPC: 1.13728 (Simulation time: 0 hr 46 min 28 sec) 
Heartbeat CPU 2 instructions: 200000000 cycles: 107188616 heartbeat IPC: 1.59673 cumulative IPC: 1.58425 (Simulation time: 0 hr 47 min 29 sec) 
Heartbeat CPU 0 instructions: 130000000 cycles: 112955704 heartbeat IPC: 0.832715 cumulative IPC: 0.830832 (Simulation time: 0 hr 49 min 38 sec) 
Heartbeat CPU 3 instructions: 160000002 cycles: 113390866 heartbeat IPC: 1.13703 cumulative IPC: 1.13725 (Simulation time: 0 hr 49 min 48 sec) 
Heartbeat CPU 2 instructions: 210000001 cycles: 113446184 heartbeat IPC: 1.59807 cumulative IPC: 1.58514 (Simulation time: 0 hr 49 min 49 sec) 
Heartbeat CPU 1 instructions: 80000002 cycles: 116303355 heartbeat IPC: 0.388401 cumulative IPC: 0.260224 (Simulation time: 0 hr 50 min 54 sec) 
Heartbeat CPU 2 instructions: 220000000 cycles: 119690603 heartbeat IPC: 1.60143 cumulative IPC: 1.58613 (Simulation time: 0 hr 52 min 17 sec) 
Heartbeat CPU 3 instructions: 170000000 cycles: 122077226 heartbeat IPC: 1.15123 cumulative IPC: 1.13841 (Simulation time: 0 hr 53 min 17 sec) 
Heartbeat CPU 1 instructions: 90000000 cycles: 124729397 heartbeat IPC: 1.1868 cumulative IPC: 0.332472 (Simulation time: 0 hr 54 min 22 sec) 
Heartbeat CPU 0 instructions: 140000000 cycles: 124939106 heartbeat IPC: 0.834488 cumulative IPC: 0.831236 (Simulation time: 0 hr 54 min 28 sec) 
Heartbeat CPU 2 instructions: 230000001 cycles: 125890735 heartbeat IPC: 1.61287 cumulative IPC: 1.58764 (Simulation time: 0 hr 54 min 54 sec) 
Heartbeat CPU 3 instructions: 180000003 cycles: 130854879 heartbeat IPC: 1.13926 cumulative IPC: 1.13847 (Simulation time: 0 hr 56 min 49 sec) 
Heartbeat CPU 2 instructions: 240000001 cycles: 132153633 heartbeat IPC: 1.5967 cumulative IPC: 1.58814 (Simulation time: 0 hr 57 min 20 sec) 
Heartbeat CPU 0 instructions: 150000000 cycles: 136943669 heartbeat IPC: 0.833017 cumulative IPC: 0.831414 (Simulation time: 0 hr 58 min 56 sec) 
Heartbeat CPU 1 instructions: 100000000 cycles: 137143361 heartbeat IPC: 0.805544 cumulative IPC: 0.381218 (Simulation time: 0 hr 59 min 1 sec) 
Heartbeat CPU 2 instructions: 250000001 cycles: 138391052 heartbeat IPC: 1.60323 cumulative IPC: 1.58891 (Simulation time: 0 hr 59 min 28 sec) 
Heartbeat CPU 3 instructions: 190000003 cycles: 139690731 heartbeat IPC: 1.13175 cumulative IPC: 1.13799 (Simulation time: 0 hr 59 min 58 sec) 
Finished CPU 2 instructions: 200000001 cycles: 125855460 cumulative IPC: 1.58912 (Simulation time: 1 hr 1 min 0 sec) 
Heartbeat CPU 2 instructions: 260000003 cycles: 144672265 heartbeat IPC: 1.59205 cumulative IPC: 1.58906 (Simulation time: 1 hr 1 min 48 sec) 
Heartbeat CPU 3 instructions: 200000000 cycles: 148572689 heartbeat IPC: 1.12588 cumulative IPC: 1.13717 (Simulation time: 1 hr 3 min 12 sec) 
Heartbeat CPU 0 instructions: 160000001 cycles: 148966201 heartbeat IPC: 0.831772 cumulative IPC: 0.831447 (Simulation time: 1 hr 3 min 22 sec) 
Heartbeat CPU 2 instructions: 270000002 cycles: 151279874 heartbeat IPC: 1.51341 cumulative IPC: 1.58535 (Simulation time: 1 hr 4 min 11 sec) 
Heartbeat CPU 3 instructions: 210000000 cycles: 157446955 heartbeat IPC: 1.12685 cumulative IPC: 1.13652 (Simulation time: 1 hr 6 min 35 sec) 
Heartbeat CPU 2 instructions: 280000001 cycles: 158059135 heartbeat IPC: 1.47509 cumulative IPC: 1.58006 (Simulation time: 1 hr 6 min 50 sec) 
Heartbeat CPU 1 instructions: 110000000 cycles: 159419423 heartbeat IPC: 0.448912 cumulative IPC: 0.391781 (Simulation time: 1 hr 7 min 19 sec) 
Heartbeat CPU 0 instructions: 170000001 cycles: 160999321 heartbeat IPC: 0.83104 cumulative IPC: 0.831413 (Simulation time: 1 hr 7 min 53 sec) 
Heartbeat CPU 2 instructions: 290000003 cycles: 164582320 heartbeat IPC: 1.53299 cumulative IPC: 1.57799 (Simulation time: 1 hr 9 min 18 sec) 
Heartbeat CPU 3 instructions: 220000000 cycles: 166388850 heartbeat IPC: 1.11833 cumulative IPC: 1.13544 (Simulation time: 1 hr 10 min 1 sec) 
Heartbeat CPU 0 instructions: 180000001 cycles: 169862282 heartbeat IPC: 1.12829 cumulative IPC: 0.848588 (Simulation time: 1 hr 11 min 23 sec) 
Heartbeat CPU 2 instructions: 300000000 cycles: 171105574 heartbeat IPC: 1.53298 cumulative IPC: 1.57609 (Simulation time: 1 hr 11 min 47 sec) 
Heartbeat CPU 3 instructions: 230000000 cycles: 175238851 heartbeat IPC: 1.12994 cumulative IPC: 1.13513 (Simulation time: 1 hr 13 min 20 sec) 
Heartbeat CPU 2 instructions: 310000000 cycles: 177631439 heartbeat IPC: 1.53236 cumulative IPC: 1.57431 (Simulation time: 1 hr 14 min 14 sec) 
Heartbeat CPU 0 instructions: 190000003 cycles: 178297520 heartbeat IPC: 1.1855 cumulative IPC: 0.866171 (Simulation time: 1 hr 14 min 29 sec) 
Heartbeat CPU 3 instructions: 240000001 cycles: 184067979 heartbeat IPC: 1.13261 cumulative IPC: 1.135 (Simulation time: 1 hr 16 min 34 sec) 
Heartbeat CPU 2 instructions: 320000001 cycles: 184158223 heartbeat IPC: 1.53215 cumulative IPC: 1.57267 (Simulation time: 1 hr 16 min 36 sec) 
Heartbeat CPU 0 instructions: 200000003 cycles: 186719031 heartbeat IPC: 1.18744 cumulative IPC: 0.882081 (Simulation time: 1 hr 17 min 28 sec) 
Heartbeat CPU 2 instructions: 330000000 cycles: 190672928 heartbeat IPC: 1.53499 cumulative IPC: 1.57126 (Simulation time: 1 hr 18 min 59 sec) 
*** Reached end of trace for Core: 3 Repeating trace: ./traces/ligra/ligra_BFS.com-lj.ungraph.gcc_6.3.0_O3.drop_3500M.length_250M.champsimtrace.xz
Heartbeat CPU 3 instructions: 250000000 cycles: 192871769 heartbeat IPC: 1.13587 cumulative IPC: 1.13504 (Simulation time: 1 hr 19 min 50 sec) 
Finished CPU 3 instructions: 200000001 cycles: 176205089 cumulative IPC: 1.13504 (Simulation time: 1 hr 19 min 50 sec) 
Heartbeat CPU 0 instructions: 210000000 cycles: 195193326 heartbeat IPC: 1.18004 cumulative IPC: 0.896225 (Simulation time: 1 hr 20 min 42 sec) 
Heartbeat CPU 2 instructions: 340000001 cycles: 197025653 heartbeat IPC: 1.57413 cumulative IPC: 1.57136 (Simulation time: 1 hr 21 min 23 sec) 
Heartbeat CPU 1 instructions: 120000000 cycles: 197121409 heartbeat IPC: 0.265238 cumulative IPC: 0.365343 (Simulation time: 1 hr 21 min 25 sec) 
Heartbeat CPU 3 instructions: 260000002 cycles: 201531558 heartbeat IPC: 1.15476 cumulative IPC: 1.13596 (Simulation time: 1 hr 22 min 59 sec) 
Heartbeat CPU 2 instructions: 350000000 cycles: 203584629 heartbeat IPC: 1.52463 cumulative IPC: 1.56972 (Simulation time: 1 hr 23 min 46 sec) 
Heartbeat CPU 0 instructions: 220000000 cycles: 203712998 heartbeat IPC: 1.17375 cumulative IPC: 0.908866 (Simulation time: 1 hr 23 min 49 sec) 
Heartbeat CPU 2 instructions: 360000003 cycles: 210172158 heartbeat IPC: 1.51802 cumulative IPC: 1.56796 (Simulation time: 1 hr 26 min 8 sec) 
Heartbeat CPU 3 instructions: 270000002 cycles: 210212965 heartbeat IPC: 1.15189 cumulative IPC: 1.13668 (Simulation time: 1 hr 26 min 9 sec) 
Heartbeat CPU 0 instructions: 230000001 cycles: 212226716 heartbeat IPC: 1.17458 cumulative IPC: 0.920433 (Simulation time: 1 hr 26 min 57 sec) 
Heartbeat CPU 2 instructions: 370000003 cycles: 216566326 heartbeat IPC: 1.56393 cumulative IPC: 1.56783 (Simulation time: 1 hr 28 min 45 sec) 
Heartbeat CPU 3 instructions: 280000003 cycles: 218858216 heartbeat IPC: 1.1567 cumulative IPC: 1.13754 (Simulation time: 1 hr 29 min 39 sec) 
Heartbeat CPU 0 instructions: 240000003 cycles: 220721329 heartbeat IPC: 1.17722 cumulative IPC: 0.931123 (Simulation time: 1 hr 30 min 25 sec) 
Heartbeat CPU 2 instructions: 380000003 cycles: 222959453 heartbeat IPC: 1.56418 cumulative IPC: 1.56772 (Simulation time: 1 hr 31 min 18 sec) 
Heartbeat CPU 3 instructions: 290000000 cycles: 227512378 heartbeat IPC: 1.15551 cumulative IPC: 1.13827 (Simulation time: 1 hr 33 min 3 sec) 
*** Reached end of trace for Core: 0 Repeating trace: ./traces/ligra/ligra_CF.com-lj.ungraph.gcc_6.3.0_O3.drop_2500M.length_250M.champsimtrace.xz
Heartbeat CPU 0 instructions: 250000002 cycles: 229219695 heartbeat IPC: 1.1767 cumulative IPC: 0.940942 (Simulation time: 1 hr 33 min 43 sec) 
Finished CPU 0 instructions: 200000000 cycles: 212553034 cumulative IPC: 0.940942 (Simulation time: 1 hr 33 min 43 sec) 
Heartbeat CPU 2 instructions: 390000003 cycles: 229353373 heartbeat IPC: 1.56399 cumulative IPC: 1.56761 (Simulation time: 1 hr 33 min 46 sec) 
Heartbeat CPU 2 instructions: 400000001 cycles: 235844975 heartbeat IPC: 1.54045 cumulative IPC: 1.5668 (Simulation time: 1 hr 36 min 12 sec) 
Heartbeat CPU 3 instructions: 300000000 cycles: 236157395 heartbeat IPC: 1.15674 cumulative IPC: 1.139 (Simulation time: 1 hr 36 min 19 sec) 
Heartbeat CPU 1 instructions: 130000002 cycles: 238685902 heartbeat IPC: 0.24059 cumulative IPC: 0.341988 (Simulation time: 1 hr 37 min 17 sec) 
Heartbeat CPU 0 instructions: 260000000 cycles: 241130187 heartbeat IPC: 0.839596 cumulative IPC: 0.935564 (Simulation time: 1 hr 38 min 12 sec) 
Heartbeat CPU 2 instructions: 410000000 cycles: 242117511 heartbeat IPC: 1.59425 cumulative IPC: 1.56757 (Simulation time: 1 hr 38 min 34 sec) 
Heartbeat CPU 3 instructions: 310000003 cycles: 244799142 heartbeat IPC: 1.15717 cumulative IPC: 1.13969 (Simulation time: 1 hr 39 min 32 sec) 
Heartbeat CPU 2 instructions: 420000001 cycles: 248382624 heartbeat IPC: 1.59614 cumulative IPC: 1.56834 (Simulation time: 1 hr 40 min 46 sec) 
Heartbeat CPU 0 instructions: 270000002 cycles: 253040469 heartbeat IPC: 0.839611 cumulative IPC: 0.930729 (Simulation time: 1 hr 42 min 25 sec) 
Heartbeat CPU 3 instructions: 320000003 cycles: 253469300 heartbeat IPC: 1.15338 cumulative IPC: 1.14019 (Simulation time: 1 hr 42 min 35 sec) 
Heartbeat CPU 2 instructions: 430000000 cycles: 254677165 heartbeat IPC: 1.58868 cumulative IPC: 1.56888 (Simulation time: 1 hr 43 min 3 sec) 
Heartbeat CPU 2 instructions: 440000000 cycles: 260929450 heartbeat IPC: 1.59942 cumulative IPC: 1.56966 (Simulation time: 1 hr 45 min 23 sec) 
Heartbeat CPU 3 instructions: 330000000 cycles: 262102213 heartbeat IPC: 1.15836 cumulative IPC: 1.14083 (Simulation time: 1 hr 45 min 50 sec) 
Heartbeat CPU 0 instructions: 280000003 cycles: 264952543 heartbeat IPC: 0.839484 cumulative IPC: 0.926352 (Simulation time: 1 hr 46 min 53 sec) 
Heartbeat CPU 2 instructions: 450000002 cycles: 267110961 heartbeat IPC: 1.61773 cumulative IPC: 1.57084 (Simulation time: 1 hr 47 min 43 sec) 
Heartbeat CPU 3 instructions: 340000001 cycles: 270772532 heartbeat IPC: 1.15336 cumulative IPC: 1.14126 (Simulation time: 1 hr 49 min 2 sec) 
Heartbeat CPU 2 instructions: 460000000 cycles: 273333798 heartbeat IPC: 1.60698 cumulative IPC: 1.57172 (Simulation time: 1 hr 49 min 59 sec) 
Heartbeat CPU 0 instructions: 290000002 cycles: 276862464 heartbeat IPC: 0.839636 cumulative IPC: 0.922382 (Simulation time: 1 hr 51 min 21 sec) 
Heartbeat CPU 3 instructions: 350000002 cycles: 279426627 heartbeat IPC: 1.15552 cumulative IPC: 1.14173 (Simulation time: 1 hr 52 min 21 sec) 
Heartbeat CPU 2 instructions: 470000000 cycles: 279570689 heartbeat IPC: 1.60336 cumulative IPC: 1.57247 (Simulation time: 1 hr 52 min 24 sec) 
Heartbeat CPU 1 instructions: 140000003 cycles: 280394368 heartbeat IPC: 0.23976 cumulative IPC: 0.32582 (Simulation time: 1 hr 52 min 40 sec) 
Heartbeat CPU 2 instructions: 480000002 cycles: 285828829 heartbeat IPC: 1.59792 cumulative IPC: 1.57306 (Simulation time: 1 hr 54 min 37 sec) 
Heartbeat CPU 3 instructions: 360000003 cycles: 288092379 heartbeat IPC: 1.15397 cumulative IPC: 1.14212 (Simulation time: 1 hr 55 min 30 sec) 
Heartbeat CPU 0 instructions: 300000001 cycles: 288766763 heartbeat IPC: 0.840033 cumulative IPC: 0.91878 (Simulation time: 1 hr 55 min 46 sec) 
Heartbeat CPU 2 instructions: 490000002 cycles: 292044219 heartbeat IPC: 1.60891 cumulative IPC: 1.57387 (Simulation time: 1 hr 56 min 56 sec) 
Heartbeat CPU 3 instructions: 370000000 cycles: 296778692 heartbeat IPC: 1.15124 cumulative IPC: 1.1424 (Simulation time: 1 hr 58 min 41 sec) 
Heartbeat CPU 2 instructions: 500000000 cycles: 298261637 heartbeat IPC: 1.60838 cumulative IPC: 1.57463 (Simulation time: 1 hr 59 min 11 sec) 
Heartbeat CPU 0 instructions: 310000002 cycles: 300685219 heartbeat IPC: 0.839035 cumulative IPC: 0.915433 (Simulation time: 2 hr 0 min 3 sec) 
Heartbeat CPU 2 instructions: 510000001 cycles: 304466088 heartbeat IPC: 1.61175 cumulative IPC: 1.57543 (Simulation time: 2 hr 1 min 24 sec) 
Heartbeat CPU 3 instructions: 380000003 cycles: 305480398 heartbeat IPC: 1.1492 cumulative IPC: 1.14261 (Simulation time: 2 hr 1 min 47 sec) 
Heartbeat CPU 2 instructions: 520000003 cycles: 310627841 heartbeat IPC: 1.62292 cumulative IPC: 1.57643 (Simulation time: 2 hr 3 min 34 sec) 
Heartbeat CPU 0 instructions: 320000001 cycles: 312583317 heartbeat IPC: 0.84047 cumulative IPC: 0.912419 (Simulation time: 2 hr 4 min 14 sec) 
Heartbeat CPU 3 instructions: 390000001 cycles: 314176283 heartbeat IPC: 1.14997 cumulative IPC: 1.14282 (Simulation time: 2 hr 4 min 48 sec) 
Heartbeat CPU 2 instructions: 530000003 cycles: 316825660 heartbeat IPC: 1.61347 cumulative IPC: 1.57719 (Simulation time: 2 hr 5 min 45 sec) 
Heartbeat CPU 3 instructions: 400000002 cycles: 322865281 heartbeat IPC: 1.15088 cumulative IPC: 1.14305 (Simulation time: 2 hr 7 min 53 sec) 
Heartbeat CPU 2 instructions: 540000001 cycles: 323036532 heartbeat IPC: 1.61008 cumulative IPC: 1.57786 (Simulation time: 2 hr 7 min 56 sec) 
Heartbeat CPU 0 instructions: 330000000 cycles: 324505756 heartbeat IPC: 0.838754 cumulative IPC: 0.909566 (Simulation time: 2 hr 8 min 26 sec) 
Heartbeat CPU 1 instructions: 150000003 cycles: 327320079 heartbeat IPC: 0.213103 cumulative IPC: 0.308794 (Simulation time: 2 hr 9 min 29 sec) 
Heartbeat CPU 2 instructions: 550000000 cycles: 329553352 heartbeat IPC: 1.53449 cumulative IPC: 1.57696 (Simulation time: 2 hr 10 min 18 sec) 
Heartbeat CPU 3 instructions: 410000003 cycles: 331556929 heartbeat IPC: 1.15053 cumulative IPC: 1.14326 (Simulation time: 2 hr 11 min 4 sec) 
Heartbeat CPU 2 instructions: 560000003 cycles: 336083732 heartbeat IPC: 1.5313 cumulative IPC: 1.57602 (Simulation time: 2 hr 12 min 56 sec) 
Heartbeat CPU 0 instructions: 340000001 cycles: 336422904 heartbeat IPC: 0.839127 cumulative IPC: 0.906941 (Simulation time: 2 hr 13 min 5 sec) 
Heartbeat CPU 3 instructions: 420000000 cycles: 340161623 heartbeat IPC: 1.16216 cumulative IPC: 1.14376 (Simulation time: 2 hr 14 min 40 sec) 
Heartbeat CPU 2 instructions: 570000001 cycles: 342608058 heartbeat IPC: 1.53273 cumulative IPC: 1.57516 (Simulation time: 2 hr 15 min 43 sec) 
Heartbeat CPU 1 instructions: 160000001 cycles: 346191953 heartbeat IPC: 0.529889 cumulative IPC: 0.321456 (Simulation time: 2 hr 17 min 13 sec) 
Heartbeat CPU 0 instructions: 350000001 cycles: 348339712 heartbeat IPC: 0.839151 cumulative IPC: 0.904505 (Simulation time: 2 hr 18 min 14 sec) 
Heartbeat CPU 3 instructions: 430000000 cycles: 348844089 heartbeat IPC: 1.15175 cumulative IPC: 1.14397 (Simulation time: 2 hr 18 min 29 sec) 
Heartbeat CPU 2 instructions: 580000003 cycles: 349125327 heartbeat IPC: 1.53439 cumulative IPC: 1.57436 (Simulation time: 2 hr 18 min 37 sec) 
Heartbeat CPU 1 instructions: 170000001 cycles: 354381416 heartbeat IPC: 1.22108 cumulative IPC: 0.343271 (Simulation time: 2 hr 21 min 3 sec) 
Heartbeat CPU 2 instructions: 590000001 cycles: 355645154 heartbeat IPC: 1.53378 cumulative IPC: 1.57358 (Simulation time: 2 hr 21 min 42 sec) 
Heartbeat CPU 3 instructions: 440000000 cycles: 357580685 heartbeat IPC: 1.14461 cumulative IPC: 1.14398 (Simulation time: 2 hr 22 min 39 sec) 
Heartbeat CPU 0 instructions: 360000000 cycles: 360257904 heartbeat IPC: 0.839053 cumulative IPC: 0.902235 (Simulation time: 2 hr 23 min 57 sec) 
Heartbeat CPU 2 instructions: 600000001 cycles: 361734997 heartbeat IPC: 1.64208 cumulative IPC: 1.57479 (Simulation time: 2 hr 24 min 36 sec) 
Heartbeat CPU 3 instructions: 450000000 cycles: 366344987 heartbeat IPC: 1.14099 cumulative IPC: 1.14391 (Simulation time: 2 hr 26 min 28 sec) 
Heartbeat CPU 2 instructions: 610000002 cycles: 368390205 heartbeat IPC: 1.50258 cumulative IPC: 1.57342 (Simulation time: 2 hr 27 min 20 sec) 
Heartbeat CPU 1 instructions: 180000000 cycles: 369757991 heartbeat IPC: 0.65034 cumulative IPC: 0.356644 (Simulation time: 2 hr 27 min 51 sec) 
Heartbeat CPU 0 instructions: 370000000 cycles: 372169348 heartbeat IPC: 0.839529 cumulative IPC: 0.900134 (Simulation time: 2 hr 28 min 53 sec) 
Heartbeat CPU 2 instructions: 620000000 cycles: 374994511 heartbeat IPC: 1.51416 cumulative IPC: 1.57233 (Simulation time: 2 hr 30 min 11 sec) 
Heartbeat CPU 3 instructions: 460000001 cycles: 375088548 heartbeat IPC: 1.1437 cumulative IPC: 1.1439 (Simulation time: 2 hr 30 min 13 sec) 
Heartbeat CPU 2 instructions: 630000001 cycles: 381393741 heartbeat IPC: 1.56269 cumulative IPC: 1.57216 (Simulation time: 2 hr 33 min 2 sec) 
Heartbeat CPU 3 instructions: 470000003 cycles: 383914751 heartbeat IPC: 1.13299 cumulative IPC: 1.14364 (Simulation time: 2 hr 34 min 10 sec) 
Heartbeat CPU 0 instructions: 380000003 cycles: 384081769 heartbeat IPC: 0.83946 cumulative IPC: 0.898167 (Simulation time: 2 hr 34 min 14 sec) 
Heartbeat CPU 2 instructions: 640000001 cycles: 387790417 heartbeat IPC: 1.56331 cumulative IPC: 1.57201 (Simulation time: 2 hr 35 min 44 sec) 
Heartbeat CPU 3 instructions: 480000003 cycles: 392639751 heartbeat IPC: 1.14613 cumulative IPC: 1.1437 (Simulation time: 2 hr 37 min 36 sec) 
Heartbeat CPU 2 instructions: 650000000 cycles: 394807423 heartbeat IPC: 1.42511 cumulative IPC: 1.56928 (Simulation time: 2 hr 38 min 30 sec) 
Heartbeat CPU 0 instructions: 390000000 cycles: 395985095 heartbeat IPC: 0.840101 cumulative IPC: 0.896345 (Simulation time: 2 hr 38 min 58 sec) 
Heartbeat CPU 1 instructions: 190000000 cycles: 399503157 heartbeat IPC: 0.336189 cumulative IPC: 0.355055 (Simulation time: 2 hr 40 min 26 sec) 
Heartbeat CPU 3 instructions: 490000001 cycles: 401339648 heartbeat IPC: 1.14944 cumulative IPC: 1.14383 (Simulation time: 2 hr 41 min 10 sec) 
Heartbeat CPU 2 instructions: 660000000 cycles: 401501497 heartbeat IPC: 1.49386 cumulative IPC: 1.56797 (Simulation time: 2 hr 41 min 13 sec) 
Heartbeat CPU 0 instructions: 400000003 cycles: 407893808 heartbeat IPC: 0.839722 cumulative IPC: 0.894621 (Simulation time: 2 hr 43 min 53 sec) 
Heartbeat CPU 2 instructions: 670000003 cycles: 408189833 heartbeat IPC: 1.49514 cumulative IPC: 1.56672 (Simulation time: 2 hr 44 min 0 sec) 
*** Reached end of trace for Core: 3 Repeating trace: ./traces/ligra/ligra_BFS.com-lj.ungraph.gcc_6.3.0_O3.drop_3500M.length_250M.champsimtrace.xz
Heartbeat CPU 3 instructions: 500000001 cycles: 410002768 heartbeat IPC: 1.15432 cumulative IPC: 1.14406 (Simulation time: 2 hr 44 min 47 sec) 
Heartbeat CPU 2 instructions: 680000000 cycles: 414864423 heartbeat IPC: 1.49822 cumulative IPC: 1.56558 (Simulation time: 2 hr 46 min 46 sec) 
Heartbeat CPU 3 instructions: 510000003 cycles: 418651756 heartbeat IPC: 1.1562 cumulative IPC: 1.14432 (Simulation time: 2 hr 48 min 12 sec) 
Heartbeat CPU 0 instructions: 410000001 cycles: 419805692 heartbeat IPC: 0.839498 cumulative IPC: 0.892992 (Simulation time: 2 hr 48 min 41 sec) 
Heartbeat CPU 2 instructions: 690000002 cycles: 421588948 heartbeat IPC: 1.48709 cumulative IPC: 1.56427 (Simulation time: 2 hr 49 min 25 sec) 
Heartbeat CPU 3 instructions: 520000003 cycles: 427327077 heartbeat IPC: 1.1527 cumulative IPC: 1.1445 (Simulation time: 2 hr 51 min 49 sec) 
Heartbeat CPU 2 instructions: 700000001 cycles: 428298808 heartbeat IPC: 1.49034 cumulative IPC: 1.56307 (Simulation time: 2 hr 52 min 14 sec) 
Heartbeat CPU 0 instructions: 420000000 cycles: 431709006 heartbeat IPC: 0.840102 cumulative IPC: 0.891475 (Simulation time: 2 hr 53 min 39 sec) 
Heartbeat CPU 1 instructions: 200000000 cycles: 433339549 heartbeat IPC: 0.29554 cumulative IPC: 0.350222 (Simulation time: 2 hr 54 min 22 sec) 
Heartbeat CPU 2 instructions: 710000003 cycles: 435049766 heartbeat IPC: 1.48127 cumulative IPC: 1.56175 (Simulation time: 2 hr 55 min 8 sec) 
Heartbeat CPU 3 instructions: 530000000 cycles: 435969128 heartbeat IPC: 1.15713 cumulative IPC: 1.14476 (Simulation time: 2 hr 55 min 33 sec) 
Heartbeat CPU 0 instructions: 430000003 cycles: 440439856 heartbeat IPC: 1.14536 cumulative IPC: 0.896706 (Simulation time: 2 hr 57 min 27 sec) 
Heartbeat CPU 2 instructions: 720000002 cycles: 441856250 heartbeat IPC: 1.46919 cumulative IPC: 1.56027 (Simulation time: 2 hr 58 min 2 sec) 
Heartbeat CPU 3 instructions: 540000000 cycles: 444621434 heartbeat IPC: 1.15576 cumulative IPC: 1.14498 (Simulation time: 2 hr 59 min 16 sec) 
Heartbeat CPU 2 instructions: 730000003 cycles: 448646007 heartbeat IPC: 1.47281 cumulative IPC: 1.55889 (Simulation time: 3 hr 1 min 4 sec) 
Heartbeat CPU 0 instructions: 440000000 cycles: 448774243 heartbeat IPC: 1.19985 cumulative IPC: 0.902553 (Simulation time: 3 hr 1 min 7 sec) 
Heartbeat CPU 3 instructions: 550000000 cycles: 453264939 heartbeat IPC: 1.15694 cumulative IPC: 1.14522 (Simulation time: 3 hr 3 min 10 sec) 
Heartbeat CPU 2 instructions: 740000003 cycles: 455441491 heartbeat IPC: 1.47157 cumulative IPC: 1.55754 (Simulation time: 3 hr 4 min 1 sec) 
Heartbeat CPU 0 instructions: 450000003 cycles: 457108199 heartbeat IPC: 1.19991 cumulative IPC: 0.90818 (Simulation time: 3 hr 4 min 45 sec) 
Heartbeat CPU 3 instructions: 560000001 cycles: 461905609 heartbeat IPC: 1.15732 cumulative IPC: 1.14545 (Simulation time: 3 hr 6 min 44 sec) 
Heartbeat CPU 2 instructions: 750000002 cycles: 462207878 heartbeat IPC: 1.47789 cumulative IPC: 1.55633 (Simulation time: 3 hr 6 min 52 sec) 
Heartbeat CPU 0 instructions: 460000000 cycles: 465442200 heartbeat IPC: 1.1999 cumulative IPC: 0.913597 (Simulation time: 3 hr 8 min 19 sec) 
Heartbeat CPU 1 instructions: 210000003 cycles: 467793052 heartbeat IPC: 0.290246 cumulative IPC: 0.345641 (Simulation time: 3 hr 9 min 25 sec) 
Heartbeat CPU 2 instructions: 760000000 cycles: 468971745 heartbeat IPC: 1.47844 cumulative IPC: 1.55516 (Simulation time: 3 hr 9 min 53 sec) 
Heartbeat CPU 3 instructions: 570000000 cycles: 470574536 heartbeat IPC: 1.15355 cumulative IPC: 1.14561 (Simulation time: 3 hr 10 min 34 sec) 
Heartbeat CPU 0 instructions: 470000001 cycles: 473776039 heartbeat IPC: 1.19993 cumulative IPC: 0.918817 (Simulation time: 3 hr 11 min 57 sec) 
Heartbeat CPU 2 instructions: 770000000 cycles: 475747150 heartbeat IPC: 1.47593 cumulative IPC: 1.554 (Simulation time: 3 hr 12 min 52 sec) 
Heartbeat CPU 3 instructions: 580000002 cycles: 479204876 heartbeat IPC: 1.1587 cumulative IPC: 1.14585 (Simulation time: 3 hr 14 min 25 sec) 
Heartbeat CPU 0 instructions: 480000001 cycles: 482109370 heartbeat IPC: 1.2 cumulative IPC: 0.923852 (Simulation time: 3 hr 15 min 40 sec) 
Heartbeat CPU 2 instructions: 780000003 cycles: 482486381 heartbeat IPC: 1.48385 cumulative IPC: 1.55298 (Simulation time: 3 hr 15 min 49 sec) 
Heartbeat CPU 3 instructions: 590000001 cycles: 487874033 heartbeat IPC: 1.15351 cumulative IPC: 1.14599 (Simulation time: 3 hr 18 min 10 sec) 
Heartbeat CPU 2 instructions: 790000002 cycles: 489201692 heartbeat IPC: 1.48913 cumulative IPC: 1.55207 (Simulation time: 3 hr 18 min 46 sec) 
Heartbeat CPU 0 instructions: 490000002 cycles: 490443254 heartbeat IPC: 1.19992 cumulative IPC: 0.928708 (Simulation time: 3 hr 19 min 19 sec) 
Heartbeat CPU 2 instructions: 800000002 cycles: 496338223 heartbeat IPC: 1.40124 cumulative IPC: 1.54983 (Simulation time: 3 hr 21 min 52 sec) 
Heartbeat CPU 3 instructions: 600000000 cycles: 496527268 heartbeat IPC: 1.15564 cumulative IPC: 1.14617 (Simulation time: 3 hr 21 min 57 sec) 
*** Reached end of trace for Core: 0 Repeating trace: ./traces/ligra/ligra_CF.com-lj.ungraph.gcc_6.3.0_O3.drop_2500M.length_250M.champsimtrace.xz
Heartbeat CPU 0 instructions: 500000000 cycles: 498778649 heartbeat IPC: 1.1997 cumulative IPC: 0.933393 (Simulation time: 3 hr 22 min 47 sec) 
Heartbeat CPU 3 instructions: 610000000 cycles: 505194528 heartbeat IPC: 1.15377 cumulative IPC: 1.1463 (Simulation time: 3 hr 24 min 59 sec) 
Heartbeat CPU 2 instructions: 810000000 cycles: 507089215 heartbeat IPC: 0.930147 cumulative IPC: 1.53624 (Simulation time: 3 hr 25 min 37 sec) 
Heartbeat CPU 0 instructions: 510000002 cycles: 510689712 heartbeat IPC: 0.839556 cumulative IPC: 0.931131 (Simulation time: 3 hr 26 min 51 sec) 
Heartbeat CPU 3 instructions: 620000001 cycles: 513885014 heartbeat IPC: 1.15068 cumulative IPC: 1.14638 (Simulation time: 3 hr 27 min 55 sec) 
Heartbeat CPU 1 instructions: 220000000 cycles: 515822149 heartbeat IPC: 0.208207 cumulative IPC: 0.332417 (Simulation time: 3 hr 28 min 36 sec) 
Heartbeat CPU 2 instructions: 820000002 cycles: 518138103 heartbeat IPC: 0.905069 cumulative IPC: 1.52234 (Simulation time: 3 hr 29 min 24 sec) 
Heartbeat CPU 3 instructions: 630000000 cycles: 522588810 heartbeat IPC: 1.14892 cumulative IPC: 1.14642 (Simulation time: 3 hr 30 min 50 sec) 
Heartbeat CPU 0 instructions: 520000000 cycles: 522597618 heartbeat IPC: 0.839778 cumulative IPC: 0.928981 (Simulation time: 3 hr 30 min 51 sec) 
Heartbeat CPU 2 instructions: 830000003 cycles: 529205811 heartbeat IPC: 0.90353 cumulative IPC: 1.50898 (Simulation time: 3 hr 32 min 49 sec) 
Heartbeat CPU 3 instructions: 640000002 cycles: 531287204 heartbeat IPC: 1.14964 cumulative IPC: 1.14648 (Simulation time: 3 hr 33 min 28 sec) 
Heartbeat CPU 0 instructions: 530000002 cycles: 534510800 heartbeat IPC: 0.839406 cumulative IPC: 0.92692 (Simulation time: 3 hr 34 min 30 sec) 
Heartbeat CPU 3 instructions: 650000003 cycles: 539977947 heartbeat IPC: 1.15065 cumulative IPC: 1.14655 (Simulation time: 3 hr 36 min 14 sec) 
Heartbeat CPU 2 instructions: 840000002 cycles: 540283350 heartbeat IPC: 0.902727 cumulative IPC: 1.49615 (Simulation time: 3 hr 36 min 20 sec) 
Heartbeat CPU 0 instructions: 540000001 cycles: 546419934 heartbeat IPC: 0.839692 cumulative IPC: 0.924959 (Simulation time: 3 hr 38 min 21 sec) 
Heartbeat CPU 3 instructions: 660000000 cycles: 548672689 heartbeat IPC: 1.15012 cumulative IPC: 1.1466 (Simulation time: 3 hr 38 min 58 sec) 
Heartbeat CPU 2 instructions: 850000000 cycles: 551278420 heartbeat IPC: 0.909498 cumulative IPC: 1.48408 (Simulation time: 3 hr 39 min 56 sec) 
Heartbeat CPU 3 instructions: 670000001 cycles: 557285702 heartbeat IPC: 1.16103 cumulative IPC: 1.14683 (Simulation time: 3 hr 42 min 9 sec) 
Heartbeat CPU 2 instructions: 860000002 cycles: 557756948 heartbeat IPC: 1.54356 cumulative IPC: 1.4848 (Simulation time: 3 hr 42 min 20 sec) 
Heartbeat CPU 0 instructions: 550000000 cycles: 558348339 heartbeat IPC: 0.838335 cumulative IPC: 0.923051 (Simulation time: 3 hr 42 min 32 sec) 
Heartbeat CPU 2 instructions: 870000002 cycles: 563381562 heartbeat IPC: 1.7779 cumulative IPC: 1.48781 (Simulation time: 3 hr 44 min 39 sec) 
Heartbeat CPU 1 instructions: 230000000 cycles: 565618669 heartbeat IPC: 0.200817 cumulative IPC: 0.320479 (Simulation time: 3 hr 45 min 36 sec) 
Heartbeat CPU 3 instructions: 680000002 cycles: 565975659 heartbeat IPC: 1.15075 cumulative IPC: 1.1469 (Simulation time: 3 hr 45 min 44 sec) 
Heartbeat CPU 2 instructions: 880000000 cycles: 568928497 heartbeat IPC: 1.8028 cumulative IPC: 1.49098 (Simulation time: 3 hr 46 min 57 sec) 
Heartbeat CPU 0 instructions: 560000002 cycles: 570267367 heartbeat IPC: 0.838995 cumulative IPC: 0.921242 (Simulation time: 3 hr 47 min 33 sec) 
Heartbeat CPU 2 instructions: 890000000 cycles: 574475427 heartbeat IPC: 1.8028 cumulative IPC: 1.49408 (Simulation time: 3 hr 49 min 15 sec) 
Heartbeat CPU 3 instructions: 690000001 cycles: 574711768 heartbeat IPC: 1.14467 cumulative IPC: 1.14686 (Simulation time: 3 hr 49 min 21 sec) 
Heartbeat CPU 2 instructions: 900000001 cycles: 580022259 heartbeat IPC: 1.80283 cumulative IPC: 1.49712 (Simulation time: 3 hr 51 min 36 sec) 
Heartbeat CPU 1 instructions: 240000002 cycles: 580809554 heartbeat IPC: 0.65829 cumulative IPC: 0.329576 (Simulation time: 3 hr 51 min 59 sec) 
Heartbeat CPU 0 instructions: 570000000 cycles: 582165615 heartbeat IPC: 0.84046 cumulative IPC: 0.919542 (Simulation time: 3 hr 52 min 40 sec) 
Heartbeat CPU 3 instructions: 700000001 cycles: 583470996 heartbeat IPC: 1.14165 cumulative IPC: 1.14678 (Simulation time: 3 hr 53 min 18 sec) 
Heartbeat CPU 2 instructions: 910000000 cycles: 585568685 heartbeat IPC: 1.80296 cumulative IPC: 1.5001 (Simulation time: 3 hr 54 min 18 sec) 
Heartbeat CPU 1 instructions: 250000001 cycles: 589793930 heartbeat IPC: 1.11304 cumulative IPC: 0.341857 (Simulation time: 3 hr 56 min 9 sec) 
Heartbeat CPU 2 instructions: 920000000 cycles: 591116719 heartbeat IPC: 1.80244 cumulative IPC: 1.50302 (Simulation time: 3 hr 56 min 45 sec) 
Heartbeat CPU 3 instructions: 710000002 cycles: 592209142 heartbeat IPC: 1.14441 cumulative IPC: 1.14674 (Simulation time: 3 hr 57 min 15 sec) 
Heartbeat CPU 0 instructions: 580000002 cycles: 594086263 heartbeat IPC: 0.838881 cumulative IPC: 0.917877 (Simulation time: 3 hr 58 min 3 sec) 
Finished CPU 1 instructions: 200000001 cycles: 578585652 cumulative IPC: 0.345671 (Simulation time: 3 hr 58 min 31 sec) 

ChampSim completed all CPUs

Total Simulation Statistics (not including warmup)

CPU 0 cumulative IPC: 0.917716 instructions: 530977246 cycles: 578585652
ITLB TOTAL     ACCESS:   83219916  HIT:   83219909  MISS:          7  HIT %:        100  MISS %: 8.41145e-06   MPKI: 1.31832e-05
ITLB LOAD      ACCESS:          0  HIT:          0  MISS:          0  HIT %:       -nan  MISS %:       -nan   MPKI: 0
ITLB RFO       ACCESS:          0  HIT:          0  MISS:          0  HIT %:       -nan  MISS %:       -nan   MPKI: 0
ITLB PREFETCH  ACCESS:          0  HIT:          0  MISS:          0  HIT %:       -nan  MISS %:       -nan   MPKI: 0
ITLB WRITEBACK ACCESS:          0  HIT:          0  MISS:          0  HIT %:       -nan  MISS %:       -nan   MPKI: 0
DTLB TOTAL     ACCESS:   67812808  HIT:   67792528  MISS:      20280  HIT %:    99.9701  MISS %:  0.0299059   MPKI: 0.0381937
DTLB LOAD      ACCESS:          0  HIT:          0  MISS:          0  HIT %:       -nan  MISS %:       -nan   MPKI: 0
DTLB RFO       ACCESS:          0  HIT:          0  MISS:          0  HIT %:       -nan  MISS %:       -nan   MPKI: 0
DTLB PREFETCH  ACCESS:          0  HIT:          0  MISS:          0  HIT %:       -nan  MISS %:       -nan   MPKI: 0
DTLB WRITEBACK ACCESS:          0  HIT:          0  MISS:          0  HIT %:       -nan  MISS %:       -nan   MPKI: 0
STLB TOTAL     ACCESS:   34065556  HIT:   34045269  MISS:      20287  HIT %:    99.9404  MISS %:  0.0595528   MPKI: 0.0382069
STLB LOAD      ACCESS:          0  HIT:          0  MISS:          0  HIT %:       -nan  MISS %:       -nan   MPKI: 0
STLB RFO       ACCESS:          0  HIT:          0  MISS:          0  HIT %:       -nan  MISS %:       -nan   MPKI: 0
STLB PREFETCH  ACCESS:          0  HIT:          0  MISS:          0  HIT %:       -nan  MISS %:       -nan   MPKI: 0
STLB WRITEBACK ACCESS:          0  HIT:          0  MISS:          0  HIT %:       -nan  MISS %:       -nan   MPKI: 0
L1D TOTAL     ACCESS:  238271738  HIT:  236975521  MISS:    1296217  HIT %:     99.456  MISS %:   0.544008   MPKI: 2.44119
L1D LOAD      ACCESS:   37138821  HIT:   37132090  MISS:       6731  HIT %:    99.9819  MISS %:  0.0181239   MPKI: 0.0126766
L1D RFO       ACCESS:   23583540  HIT:   23302422  MISS:     281118  HIT %:     98.808  MISS %:    1.19201   MPKI: 0.529435
L1D PREFETCH  ACCESS:  177549377  HIT:  176541009  MISS:    1008368  HIT %:    99.4321  MISS %:   0.567937   MPKI: 1.89908
L1D WRITEBACK ACCESS:          0  HIT:          0  MISS:          0  HIT %:       -nan  MISS %:       -nan   MPKI: 0
L1I TOTAL     ACCESS:   83219935  HIT:   83219890  MISS:         45  HIT %:    99.9999  MISS %: 5.40736e-05   MPKI: 8.47494e-05
L1I LOAD      ACCESS:   83219935  HIT:   83219890  MISS:         45  HIT %:    99.9999  MISS %: 5.40736e-05   MPKI: 8.47494e-05
L1I RFO       ACCESS:          0  HIT:          0  MISS:          0  HIT %:       -nan  MISS %:       -nan   MPKI: 0
L1I PREFETCH  ACCESS:          0  HIT:          0  MISS:          0  HIT %:       -nan  MISS %:       -nan   MPKI: 0
L1I WRITEBACK ACCESS:          0  HIT:          0  MISS:          0  HIT %:       -nan  MISS %:       -nan   MPKI: 0
L2C TOTAL     ACCESS:    9430315  HIT:    8027926  MISS:    1402389  HIT %:    85.1289  MISS %:    14.8711   MPKI: 2.64115
L2C LOAD      ACCESS:       3182  HIT:          0  MISS:       3182  HIT %:          0  MISS %:        100   MPKI: 0.00599272
L2C RFO       ACCESS:     281118  HIT:          2  MISS:     281116  HIT %: 0.000711445  MISS %:    99.9993   MPKI: 0.529431
L2C PREFETCH  ACCESS:    7503868  HIT:    6491898  MISS:    1011970  HIT %:     86.514  MISS %:     13.486   MPKI: 1.90586
L2C WRITEBACK ACCESS:    1015053  HIT:     911512  MISS:     103541  HIT %:    89.7994  MISS %:    10.2006   MPKI: 0.195001
PSCL5 TOTAL     ACCESS:     627094  HIT:     627094  MISS:          0  HIT %:        100  MISS %:          0   MPKI: 0
PSCL5 LOAD      ACCESS:          0  HIT:          0  MISS:          0  HIT %:       -nan  MISS %:       -nan   MPKI: 0
PSCL5 RFO       ACCESS:          0  HIT:          0  MISS:          0  HIT %:       -nan  MISS %:       -nan   MPKI: 0
PSCL5 PREFETCH  ACCESS:          0  HIT:          0  MISS:          0  HIT %:       -nan  MISS %:       -nan   MPKI: 0
PSCL5 WRITEBACK ACCESS:          0  HIT:          0  MISS:          0  HIT %:       -nan  MISS %:       -nan   MPKI: 0
PSCL4 TOTAL     ACCESS:     627094  HIT:     627093  MISS:          1  HIT %:    99.9998  MISS %: 0.000159466   MPKI: 1.88332e-06
PSCL4 LOAD      ACCESS:          0  HIT:          0  MISS:          0  HIT %:       -nan  MISS %:       -nan   MPKI: 0
PSCL4 RFO       ACCESS:          0  HIT:          0  MISS:          0  HIT %:       -nan  MISS %:       -nan   MPKI: 0
PSCL4 PREFETCH  ACCESS:          0  HIT:          0  MISS:          0  HIT %:       -nan  MISS %:       -nan   MPKI: 0
PSCL4 WRITEBACK ACCESS:          0  HIT:          0  MISS:          0  HIT %:       -nan  MISS %:       -nan   MPKI: 0
PSCL3 TOTAL     ACCESS:     627094  HIT:     627092  MISS:          2  HIT %:    99.9997  MISS %: 0.000318931   MPKI: 3.76664e-06
PSCL3 LOAD      ACCESS:          0  HIT:          0  MISS:          0  HIT %:       -nan  MISS %:       -nan   MPKI: 0
PSCL3 RFO       ACCESS:          0  HIT:          0  MISS:          0  HIT %:       -nan  MISS %:       -nan   MPKI: 0
PSCL3 PREFETCH  ACCESS:          0  HIT:          0  MISS:          0  HIT %:       -nan  MISS %:       -nan   MPKI: 0
PSCL3 WRITEBACK ACCESS:          0  HIT:          0  MISS:          0  HIT %:       -nan  MISS %:       -nan   MPKI: 0
PSCL2 TOTAL     ACCESS:     625962  HIT:     625938  MISS:         24  HIT %:    99.9962  MISS %:  0.0038341   MPKI: 4.51997e-05
PSCL2 LOAD      ACCESS:          0  HIT:          0  MISS:          0  HIT %:       -nan  MISS %:       -nan   MPKI: 0
PSCL2 RFO       ACCESS:          0  HIT:          0  MISS:          0  HIT %:       -nan  MISS %:       -nan   MPKI: 0
PSCL2 PREFETCH  ACCESS:          0  HIT:          0  MISS:          0  HIT %:       -nan  MISS %:       -nan   MPKI: 0
PSCL2 WRITEBACK ACCESS:          0  HIT:          0  MISS:          0  HIT %:       -nan  MISS %:       -nan   MPKI: 0
LLC TOTAL     ACCESS:    2313884  HIT:     653662  MISS:    1660222  HIT %:    28.2496  MISS %:    71.7504   MPKI: 3.12673
LLC LOAD      ACCESS:       3182  HIT:          0  MISS:       3182  HIT %:          0  MISS %:        100   MPKI: 0.00599272
LLC RFO       ACCESS:     281116  HIT:          0  MISS:     281116  HIT %:          0  MISS %:        100   MPKI: 0.529431
LLC PREFETCH  ACCESS:    1011970  HIT:          0  MISS:    1011970  HIT %:          0  MISS %:        100   MPKI: 1.90586
LLC WRITEBACK ACCESS:    1015036  HIT:     653653  MISS:     361383  HIT %:     64.397  MISS %:     35.603   MPKI: 0.6806

RAW hits: 2
Loads Generated: 80904327
Loads sent to L1D: 80904325
Stores Generated: 36257718
Stores sent to L1D: 36257719

CPU 1 cumulative IPC: 0.345671 instructions: 200000001 cycles: 578585652
ITLB TOTAL     ACCESS:   33391086  HIT:   33391086  MISS:          0  HIT %:        100  MISS %:          0   MPKI: 0
ITLB LOAD      ACCESS:          0  HIT:          0  MISS:          0  HIT %:       -nan  MISS %:       -nan   MPKI: 0
ITLB RFO       ACCESS:          0  HIT:          0  MISS:          0  HIT %:       -nan  MISS %:       -nan   MPKI: 0
ITLB PREFETCH  ACCESS:          0  HIT:          0  MISS:          0  HIT %:       -nan  MISS %:       -nan   MPKI: 0
ITLB WRITEBACK ACCESS:          0  HIT:          0  MISS:          0  HIT %:       -nan  MISS %:       -nan   MPKI: 0
DTLB TOTAL     ACCESS:   34686267  HIT:   34497876  MISS:     188391  HIT %:    99.4569  MISS %:   0.543128   MPKI: 0.941955
DTLB LOAD      ACCESS:          0  HIT:          0  MISS:          0  HIT %:       -nan  MISS %:       -nan   MPKI: 0
DTLB RFO       ACCESS:          0  HIT:          0  MISS:          0  HIT %:       -nan  MISS %:       -nan   MPKI: 0
DTLB PREFETCH  ACCESS:          0  HIT:          0  MISS:          0  HIT %:       -nan  MISS %:       -nan   MPKI: 0
DTLB WRITEBACK ACCESS:          0  HIT:          0  MISS:          0  HIT %:       -nan  MISS %:       -nan   MPKI: 0
STLB TOTAL     ACCESS:   20555879  HIT:   20389365  MISS:     166514  HIT %:    99.1899  MISS %:   0.810055   MPKI: 0.83257
STLB LOAD      ACCESS:          0  HIT:          0  MISS:          0  HIT %:       -nan  MISS %:       -nan   MPKI: 0
STLB RFO       ACCESS:          0  HIT:          0  MISS:          0  HIT %:       -nan  MISS %:       -nan   MPKI: 0
STLB PREFETCH  ACCESS:          0  HIT:          0  MISS:          0  HIT %:       -nan  MISS %:       -nan   MPKI: 0
STLB WRITEBACK ACCESS:          0  HIT:          0  MISS:          0  HIT %:       -nan  MISS %:       -nan   MPKI: 0
L1D TOTAL     ACCESS:  126323405  HIT:  121228940  MISS:    5094465  HIT %:    95.9671  MISS %:    4.03287   MPKI: 25.4723
L1D LOAD      ACCESS:   31731613  HIT:   28873119  MISS:    2858494  HIT %:    90.9917  MISS %:    9.00835   MPKI: 14.2925
L1D RFO       ACCESS:    3776442  HIT:    3606552  MISS:     169890  HIT %:    95.5013  MISS %:    4.49868   MPKI: 0.84945
L1D PREFETCH  ACCESS:   90815350  HIT:   88749269  MISS:    2066081  HIT %:     97.725  MISS %:    2.27504   MPKI: 10.3304
L1D WRITEBACK ACCESS:          0  HIT:          0  MISS:          0  HIT %:       -nan  MISS %:       -nan   MPKI: 0
L1I TOTAL     ACCESS:   42085132  HIT:   42085117  MISS:         15  HIT %:        100  MISS %: 3.5642e-05   MPKI: 7.5e-05
L1I LOAD      ACCESS:   42085132  HIT:   42085117  MISS:         15  HIT %:        100  MISS %: 3.5642e-05   MPKI: 7.5e-05
L1I RFO       ACCESS:          0  HIT:          0  MISS:          0  HIT %:       -nan  MISS %:       -nan   MPKI: 0
L1I PREFETCH  ACCESS:          0  HIT:          0  MISS:          0  HIT %:       -nan  MISS %:       -nan   MPKI: 0
L1I WRITEBACK ACCESS:          0  HIT:          0  MISS:          0  HIT %:       -nan  MISS %:       -nan   MPKI: 0
L2C TOTAL     ACCESS:   25298267  HIT:   19703637  MISS:    5594630  HIT %:    77.8853  MISS %:    22.1147   MPKI: 27.9731
L2C LOAD      ACCESS:    2818076  HIT:    1849305  MISS:     968771  HIT %:     65.623  MISS %:     34.377   MPKI: 4.84385
L2C RFO       ACCESS:     169890  HIT:       7554  MISS:     162336  HIT %:    4.44641  MISS %:    95.5536   MPKI: 0.81168
L2C PREFETCH  ACCESS:   21575753  HIT:   17176572  MISS:    4399181  HIT %:    79.6105  MISS %:    20.3895   MPKI: 21.9959
L2C WRITEBACK ACCESS:     528166  HIT:     496724  MISS:      31442  HIT %:    94.0469  MISS %:    5.95305   MPKI: 0.15721
PSCL5 TOTAL     ACCESS:     205380  HIT:     205380  MISS:          0  HIT %:        100  MISS %:          0   MPKI: 0
PSCL5 LOAD      ACCESS:          0  HIT:          0  MISS:          0  HIT %:       -nan  MISS %:       -nan   MPKI: 0
PSCL5 RFO       ACCESS:          0  HIT:          0  MISS:          0  HIT %:       -nan  MISS %:       -nan   MPKI: 0
PSCL5 PREFETCH  ACCESS:          0  HIT:          0  MISS:          0  HIT %:       -nan  MISS %:       -nan   MPKI: 0
PSCL5 WRITEBACK ACCESS:          0  HIT:          0  MISS:          0  HIT %:       -nan  MISS %:       -nan   MPKI: 0
PSCL4 TOTAL     ACCESS:     205380  HIT:     205380  MISS:          0  HIT %:        100  MISS %:          0   MPKI: 0
PSCL4 LOAD      ACCESS:          0  HIT:          0  MISS:          0  HIT %:       -nan  MISS %:       -nan   MPKI: 0
PSCL4 RFO       ACCESS:          0  HIT:          0  MISS:          0  HIT %:       -nan  MISS %:       -nan   MPKI: 0
PSCL4 PREFETCH  ACCESS:          0  HIT:          0  MISS:          0  HIT %:       -nan  MISS %:       -nan   MPKI: 0
PSCL4 WRITEBACK ACCESS:          0  HIT:          0  MISS:          0  HIT %:       -nan  MISS %:       -nan   MPKI: 0
PSCL3 TOTAL     ACCESS:     205380  HIT:     205380  MISS:          0  HIT %:        100  MISS %:          0   MPKI: 0
PSCL3 LOAD      ACCESS:          0  HIT:          0  MISS:          0  HIT %:       -nan  MISS %:       -nan   MPKI: 0
PSCL3 RFO       ACCESS:          0  HIT:          0  MISS:          0  HIT %:       -nan  MISS %:       -nan   MPKI: 0
PSCL3 PREFETCH  ACCESS:          0  HIT:          0  MISS:          0  HIT %:       -nan  MISS %:       -nan   MPKI: 0
PSCL3 WRITEBACK ACCESS:          0  HIT:          0  MISS:          0  HIT %:       -nan  MISS %:       -nan   MPKI: 0
PSCL2 TOTAL     ACCESS:     205209  HIT:     204346  MISS:        863  HIT %:    99.5795  MISS %:   0.420547   MPKI: 0.004315
PSCL2 LOAD      ACCESS:          0  HIT:          0  MISS:          0  HIT %:       -nan  MISS %:       -nan   MPKI: 0
PSCL2 RFO       ACCESS:          0  HIT:          0  MISS:          0  HIT %:       -nan  MISS %:       -nan   MPKI: 0
PSCL2 PREFETCH  ACCESS:          0  HIT:          0  MISS:          0  HIT %:       -nan  MISS %:       -nan   MPKI: 0
PSCL2 WRITEBACK ACCESS:          0  HIT:          0  MISS:          0  HIT %:       -nan  MISS %:       -nan   MPKI: 0
LLC TOTAL     ACCESS:    6086468  HIT:    1060849  MISS:    5025619  HIT %:    17.4296  MISS %:    82.5704   MPKI: 25.1281
LLC LOAD      ACCESS:     878074  HIT:     481686  MISS:     396388  HIT %:    54.8571  MISS %:    45.1429   MPKI: 1.98194
LLC RFO       ACCESS:     162336  HIT:      10478  MISS:     151858  HIT %:    6.45451  MISS %:    93.5455   MPKI: 0.75929
LLC PREFETCH  ACCESS:    4489878  HIT:      55629  MISS:    4434249  HIT %:    1.23899  MISS %:     98.761   MPKI: 22.1712
LLC WRITEBACK ACCESS:     523280  HIT:     511988  MISS:      11292  HIT %:    97.8421  MISS %:    2.15793   MPKI: 0.05646

RAW hits: 18793
Loads Generated: 48942796
Loads sent to L1D: 48924003
Stores Generated: 5666509
Stores sent to L1D: 5666508

CPU 2 cumulative IPC: 1.50517 instructions: 870867464 cycles: 578585652
ITLB TOTAL     ACCESS:  119735610  HIT:  119735593  MISS:         17  HIT %:        100  MISS %: 1.41979e-05   MPKI: 1.95208e-05
ITLB LOAD      ACCESS:          0  HIT:          0  MISS:          0  HIT %:       -nan  MISS %:       -nan   MPKI: 0
ITLB RFO       ACCESS:          0  HIT:          0  MISS:          0  HIT %:       -nan  MISS %:       -nan   MPKI: 0
ITLB PREFETCH  ACCESS:          0  HIT:          0  MISS:          0  HIT %:       -nan  MISS %:       -nan   MPKI: 0
ITLB WRITEBACK ACCESS:          0  HIT:          0  MISS:          0  HIT %:       -nan  MISS %:       -nan   MPKI: 0
DTLB TOTAL     ACCESS:  185331699  HIT:  185135300  MISS:     196399  HIT %:     99.894  MISS %:   0.105972   MPKI: 0.225521
DTLB LOAD      ACCESS:          0  HIT:          0  MISS:          0  HIT %:       -nan  MISS %:       -nan   MPKI: 0
DTLB RFO       ACCESS:          0  HIT:          0  MISS:          0  HIT %:       -nan  MISS %:       -nan   MPKI: 0
DTLB PREFETCH  ACCESS:          0  HIT:          0  MISS:          0  HIT %:       -nan  MISS %:       -nan   MPKI: 0
DTLB WRITEBACK ACCESS:          0  HIT:          0  MISS:          0  HIT %:       -nan  MISS %:       -nan   MPKI: 0
STLB TOTAL     ACCESS:   64954998  HIT:   64860922  MISS:      94076  HIT %:    99.8552  MISS %:   0.144833   MPKI: 0.108026
STLB LOAD      ACCESS:          0  HIT:          0  MISS:          0  HIT %:       -nan  MISS %:       -nan   MPKI: 0
STLB RFO       ACCESS:          0  HIT:          0  MISS:          0  HIT %:       -nan  MISS %:       -nan   MPKI: 0
STLB PREFETCH  ACCESS:          0  HIT:          0  MISS:          0  HIT %:       -nan  MISS %:       -nan   MPKI: 0
STLB WRITEBACK ACCESS:          0  HIT:          0  MISS:          0  HIT %:       -nan  MISS %:       -nan   MPKI: 0
L1D TOTAL     ACCESS:  457955230  HIT:  448710990  MISS:    9244240  HIT %:    97.9814  MISS %:    2.01859   MPKI: 10.615
L1D LOAD      ACCESS:  221003715  HIT:  220203397  MISS:     800318  HIT %:    99.6379  MISS %:   0.362129   MPKI: 0.918989
L1D RFO       ACCESS:   21423167  HIT:   19471213  MISS:    1951954  HIT %:    90.8886  MISS %:    9.11142   MPKI: 2.24139
L1D PREFETCH  ACCESS:  215528348  HIT:  209036380  MISS:    6491968  HIT %:    96.9879  MISS %:    3.01212   MPKI: 7.4546
L1D WRITEBACK ACCESS:          0  HIT:          0  MISS:          0  HIT %:       -nan  MISS %:       -nan   MPKI: 0
L1I TOTAL     ACCESS:  158040916  HIT:  158040269  MISS:        647  HIT %:    99.9996  MISS %: 0.000409388   MPKI: 0.000742937
L1I LOAD      ACCESS:  158040916  HIT:  158040269  MISS:        647  HIT %:    99.9996  MISS %: 0.000409388   MPKI: 0.000742937
L1I RFO       ACCESS:          0  HIT:          0  MISS:          0  HIT %:       -nan  MISS %:       -nan   MPKI: 0
L1I PREFETCH  ACCESS:          0  HIT:          0  MISS:          0  HIT %:       -nan  MISS %:       -nan   MPKI: 0
L1I WRITEBACK ACCESS:          0  HIT:          0  MISS:          0  HIT %:       -nan  MISS %:       -nan   MPKI: 0
L2C TOTAL     ACCESS:   73458158  HIT:   66256233  MISS:    7201925  HIT %:    90.1959  MISS %:    9.80412   MPKI: 8.26983
L2C LOAD      ACCESS:     711953  HIT:     480957  MISS:     230996  HIT %:    67.5546  MISS %:    32.4454   MPKI: 0.265248
L2C RFO       ACCESS:    1951273  HIT:     622914  MISS:    1328359  HIT %:    31.9235  MISS %:    68.0765   MPKI: 1.52533
L2C PREFETCH  ACCESS:   64289472  HIT:   58747436  MISS:    5542036  HIT %:    91.3796  MISS %:    8.62044   MPKI: 6.36381
L2C WRITEBACK ACCESS:    2754473  HIT:    2676388  MISS:      78085  HIT %:    97.1652  MISS %:    2.83484   MPKI: 0.0896635
PSCL5 TOTAL     ACCESS:    2585230  HIT:    2585230  MISS:          0  HIT %:        100  MISS %:          0   MPKI: 0
PSCL5 LOAD      ACCESS:          0  HIT:          0  MISS:          0  HIT %:       -nan  MISS %:       -nan   MPKI: 0
PSCL5 RFO       ACCESS:          0  HIT:          0  MISS:          0  HIT %:       -nan  MISS %:       -nan   MPKI: 0
PSCL5 PREFETCH  ACCESS:          0  HIT:          0  MISS:          0  HIT %:       -nan  MISS %:       -nan   MPKI: 0
PSCL5 WRITEBACK ACCESS:          0  HIT:          0  MISS:          0  HIT %:       -nan  MISS %:       -nan   MPKI: 0
PSCL4 TOTAL     ACCESS:    2585230  HIT:    2585230  MISS:          0  HIT %:        100  MISS %:          0   MPKI: 0
PSCL4 LOAD      ACCESS:          0  HIT:          0  MISS:          0  HIT %:       -nan  MISS %:       -nan   MPKI: 0
PSCL4 RFO       ACCESS:          0  HIT:          0  MISS:          0  HIT %:       -nan  MISS %:       -nan   MPKI: 0
PSCL4 PREFETCH  ACCESS:          0  HIT:          0  MISS:          0  HIT %:       -nan  MISS %:       -nan   MPKI: 0
PSCL4 WRITEBACK ACCESS:          0  HIT:          0  MISS:          0  HIT %:       -nan  MISS %:       -nan   MPKI: 0
PSCL3 TOTAL     ACCESS:    2585230  HIT:    2585230  MISS:          0  HIT %:        100  MISS %:          0   MPKI: 0
PSCL3 LOAD      ACCESS:          0  HIT:          0  MISS:          0  HIT %:       -nan  MISS %:       -nan   MPKI: 0
PSCL3 RFO       ACCESS:          0  HIT:          0  MISS:          0  HIT %:       -nan  MISS %:       -nan   MPKI: 0
PSCL3 PREFETCH  ACCESS:          0  HIT:          0  MISS:          0  HIT %:       -nan  MISS %:       -nan   MPKI: 0
PSCL3 WRITEBACK ACCESS:          0  HIT:          0  MISS:          0  HIT %:       -nan  MISS %:       -nan   MPKI: 0
PSCL2 TOTAL     ACCESS:    1419372  HIT:    1419226  MISS:        146  HIT %:    99.9897  MISS %:  0.0102862   MPKI: 0.000167649
PSCL2 LOAD      ACCESS:          0  HIT:          0  MISS:          0  HIT %:       -nan  MISS %:       -nan   MPKI: 0
PSCL2 RFO       ACCESS:          0  HIT:          0  MISS:          0  HIT %:       -nan  MISS %:       -nan   MPKI: 0
PSCL2 PREFETCH  ACCESS:          0  HIT:          0  MISS:          0  HIT %:       -nan  MISS %:       -nan   MPKI: 0
PSCL2 WRITEBACK ACCESS:          0  HIT:          0  MISS:          0  HIT %:       -nan  MISS %:       -nan   MPKI: 0
LLC TOTAL     ACCESS:    9130946  HIT:    3291659  MISS:    5839287  HIT %:    36.0495  MISS %:    63.9505   MPKI: 6.70514
LLC LOAD      ACCESS:     224661  HIT:     179897  MISS:      44764  HIT %:    80.0749  MISS %:    19.9251   MPKI: 0.0514016
LLC RFO       ACCESS:    1327459  HIT:     134712  MISS:    1192747  HIT %:    10.1481  MISS %:    89.8519   MPKI: 1.36961
LLC PREFETCH  ACCESS:    5549268  HIT:     976188  MISS:    4573080  HIT %:    17.5913  MISS %:    82.4087   MPKI: 5.25118
LLC WRITEBACK ACCESS:    2007109  HIT:    1990785  MISS:      16324  HIT %:    99.1867  MISS %:   0.813309   MPKI: 0.0187445

RAW hits: 913856
Loads Generated: 341505692
Loads sent to L1D: 340591834
Stores Generated: 30030881
Stores sent to L1D: 30030881

CPU 3 cumulative IPC: 1.14662 instructions: 663415938 cycles: 578585652
ITLB TOTAL     ACCESS:  110066987  HIT:  110066987  MISS:          0  HIT %:        100  MISS %:          0   MPKI: 0
ITLB LOAD      ACCESS:          0  HIT:          0  MISS:          0  HIT %:       -nan  MISS %:       -nan   MPKI: 0
ITLB RFO       ACCESS:          0  HIT:          0  MISS:          0  HIT %:       -nan  MISS %:       -nan   MPKI: 0
ITLB PREFETCH  ACCESS:          0  HIT:          0  MISS:          0  HIT %:       -nan  MISS %:       -nan   MPKI: 0
ITLB WRITEBACK ACCESS:          0  HIT:          0  MISS:          0  HIT %:       -nan  MISS %:       -nan   MPKI: 0
DTLB TOTAL     ACCESS:  112276677  HIT:  112239595  MISS:      37082  HIT %:     99.967  MISS %:  0.0330273   MPKI: 0.0558956
DTLB LOAD      ACCESS:          0  HIT:          0  MISS:          0  HIT %:       -nan  MISS %:       -nan   MPKI: 0
DTLB RFO       ACCESS:          0  HIT:          0  MISS:          0  HIT %:       -nan  MISS %:       -nan   MPKI: 0
DTLB PREFETCH  ACCESS:          0  HIT:          0  MISS:          0  HIT %:       -nan  MISS %:       -nan   MPKI: 0
DTLB WRITEBACK ACCESS:          0  HIT:          0  MISS:          0  HIT %:       -nan  MISS %:       -nan   MPKI: 0
STLB TOTAL     ACCESS:   40226479  HIT:   40189369  MISS:      37110  HIT %:    99.9077  MISS %:  0.0922527   MPKI: 0.0559378
STLB LOAD      ACCESS:          0  HIT:          0  MISS:          0  HIT %:       -nan  MISS %:       -nan   MPKI: 0
STLB RFO       ACCESS:          0  HIT:          0  MISS:          0  HIT %:       -nan  MISS %:       -nan   MPKI: 0
STLB PREFETCH  ACCESS:          0  HIT:          0  MISS:          0  HIT %:       -nan  MISS %:       -nan   MPKI: 0
STLB WRITEBACK ACCESS:          0  HIT:          0  MISS:          0  HIT %:       -nan  MISS %:       -nan   MPKI: 0
L1D TOTAL     ACCESS:  258279194  HIT:  255906238  MISS:    2372956  HIT %:    99.0812  MISS %:   0.918756   MPKI: 3.57688
L1D LOAD      ACCESS:   41487398  HIT:   41481260  MISS:       6138  HIT %:    99.9852  MISS %:  0.0147949   MPKI: 0.00925211
L1D RFO       ACCESS:   22858231  HIT:   21671761  MISS:    1186470  HIT %:    94.8094  MISS %:    5.19056   MPKI: 1.78843
L1D PREFETCH  ACCESS:  193933565  HIT:  192753217  MISS:    1180348  HIT %:    99.3914  MISS %:   0.608635   MPKI: 1.7792
L1D WRITEBACK ACCESS:          0  HIT:          0  MISS:          0  HIT %:       -nan  MISS %:       -nan   MPKI: 0
L1I TOTAL     ACCESS:  110066987  HIT:  110066987  MISS:          0  HIT %:        100  MISS %:          0   MPKI: 0
L1I LOAD      ACCESS:  110066987  HIT:  110066987  MISS:          0  HIT %:        100  MISS %:          0   MPKI: 0
L1I RFO       ACCESS:          0  HIT:          0  MISS:          0  HIT %:       -nan  MISS %:       -nan   MPKI: 0
L1I PREFETCH  ACCESS:          0  HIT:          0  MISS:          0  HIT %:       -nan  MISS %:       -nan   MPKI: 0
L1I WRITEBACK ACCESS:          0  HIT:          0  MISS:          0  HIT %:       -nan  MISS %:       -nan   MPKI: 0
L2C TOTAL     ACCESS:   13676139  HIT:   10787186  MISS:    2888953  HIT %:     78.876  MISS %:     21.124   MPKI: 4.35466
L2C LOAD      ACCESS:       2856  HIT:          1  MISS:       2855  HIT %:   0.035014  MISS %:     99.965   MPKI: 0.00430348
L2C RFO       ACCESS:    1186470  HIT:          0  MISS:    1186470  HIT %:          0  MISS %:        100   MPKI: 1.78843
L2C PREFETCH  ACCESS:    9941462  HIT:    8421610  MISS:    1519852  HIT %:     84.712  MISS %:     15.288   MPKI: 2.29095
L2C WRITEBACK ACCESS:    1186470  HIT:    1011494  MISS:     174976  HIT %:    85.2524  MISS %:    14.7476   MPKI: 0.26375
PSCL5 TOTAL     ACCESS:    1358881  HIT:    1358881  MISS:          0  HIT %:        100  MISS %:          0   MPKI: 0
PSCL5 LOAD      ACCESS:          0  HIT:          0  MISS:          0  HIT %:       -nan  MISS %:       -nan   MPKI: 0
PSCL5 RFO       ACCESS:          0  HIT:          0  MISS:          0  HIT %:       -nan  MISS %:       -nan   MPKI: 0
PSCL5 PREFETCH  ACCESS:          0  HIT:          0  MISS:          0  HIT %:       -nan  MISS %:       -nan   MPKI: 0
PSCL5 WRITEBACK ACCESS:          0  HIT:          0  MISS:          0  HIT %:       -nan  MISS %:       -nan   MPKI: 0
PSCL4 TOTAL     ACCESS:    1358881  HIT:    1358881  MISS:          0  HIT %:        100  MISS %:          0   MPKI: 0
PSCL4 LOAD      ACCESS:          0  HIT:          0  MISS:          0  HIT %:       -nan  MISS %:       -nan   MPKI: 0
PSCL4 RFO       ACCESS:          0  HIT:          0  MISS:          0  HIT %:       -nan  MISS %:       -nan   MPKI: 0
PSCL4 PREFETCH  ACCESS:          0  HIT:          0  MISS:          0  HIT %:       -nan  MISS %:       -nan   MPKI: 0
PSCL4 WRITEBACK ACCESS:          0  HIT:          0  MISS:          0  HIT %:       -nan  MISS %:       -nan   MPKI: 0
PSCL3 TOTAL     ACCESS:    1358881  HIT:    1358881  MISS:          0  HIT %:        100  MISS %:          0   MPKI: 0
PSCL3 LOAD      ACCESS:          0  HIT:          0  MISS:          0  HIT %:       -nan  MISS %:       -nan   MPKI: 0
PSCL3 RFO       ACCESS:          0  HIT:          0  MISS:          0  HIT %:       -nan  MISS %:       -nan   MPKI: 0
PSCL3 PREFETCH  ACCESS:          0  HIT:          0  MISS:          0  HIT %:       -nan  MISS %:       -nan   MPKI: 0
PSCL3 WRITEBACK ACCESS:          0  HIT:          0  MISS:          0  HIT %:       -nan  MISS %:       -nan   MPKI: 0
PSCL2 TOTAL     ACCESS:    1319387  HIT:    1319365  MISS:         22  HIT %:    99.9983  MISS %: 0.00166744   MPKI: 3.31617e-05
PSCL2 LOAD      ACCESS:          0  HIT:          0  MISS:          0  HIT %:       -nan  MISS %:       -nan   MPKI: 0
PSCL2 RFO       ACCESS:          0  HIT:          0  MISS:          0  HIT %:       -nan  MISS %:       -nan   MPKI: 0
PSCL2 PREFETCH  ACCESS:          0  HIT:          0  MISS:          0  HIT %:       -nan  MISS %:       -nan   MPKI: 0
PSCL2 WRITEBACK ACCESS:          0  HIT:          0  MISS:          0  HIT %:       -nan  MISS %:       -nan   MPKI: 0
LLC TOTAL     ACCESS:    3901420  HIT:    1395950  MISS:    2505470  HIT %:    35.7806  MISS %:    64.2194   MPKI: 3.77662
LLC LOAD      ACCESS:       2855  HIT:          1  MISS:       2854  HIT %:  0.0350263  MISS %:     99.965   MPKI: 0.00430198
LLC RFO       ACCESS:    1186470  HIT:          0  MISS:    1186470  HIT %:          0  MISS %:        100   MPKI: 1.78843
LLC PREFETCH  ACCESS:    1519852  HIT:     333405  MISS:    1186447  HIT %:    21.9367  MISS %:    78.0633   MPKI: 1.78839
LLC WRITEBACK ACCESS:    1187443  HIT:    1062410  MISS:     125033  HIT %:    89.4704  MISS %:    10.5296   MPKI: 0.188468

RAW hits: 0
Loads Generated: 141872912
Loads sent to L1D: 141872910
Stores Generated: 75934027
Stores sent to L1D: 75934026

Region of Interest Statistics

CPU 0 cumulative IPC: 0.940942 instructions: 200000000 cycles: 212553034
ITLB TOTAL     ACCESS:   31622658  HIT:   31622651  MISS:          7  HIT %:        100  MISS %: 2.2136e-05   MPKI: 3.5e-05
ITLB LOAD TRANSLATION ACCESS:   31622658  HIT:   31622651  MISS:          7  HIT %:        100  MISS %: 2.2136e-05   MPKI: 3.5e-05
ITLB PREFETCH  REQUESTED:          0  ISSUED:          0  USEFUL:          0  USELESS:          0
ITLB USEFUL LOAD PREFETCHES:          0 PREFETCH ISSUED TO LOWER LEVEL:          0  ACCURACY: -nan
ITLB TIMELY PREFETCHES:          0 LATE PREFETCHES: 0 DROPPED PREFETCHES: 0
ITLB PREFETCHES SAME FILL-ORIGIN LEVEL: 0 DIFFERENT FILL-ORIGIN LEVEL: 0
ITLB AVERAGE MISS LATENCY: 329 cycles
ITLB RQ	ACCESS:   83219941	FORWARD:          0	MERGED:         26	TO_CACHE:   83219915

DTLB TOTAL     ACCESS:   26682731  HIT:   26674604  MISS:       8127  HIT %:    99.9695  MISS %:  0.0304579   MPKI: 0.040635
DTLB LOAD TRANSLATION ACCESS:   26682731  HIT:   26674604  MISS:       8127  HIT %:    99.9695  MISS %:  0.0304579   MPKI: 0.040635
DTLB PREFETCH  REQUESTED:          0  ISSUED:          0  USEFUL:          0  USELESS:          0
DTLB USEFUL LOAD PREFETCHES:          0 PREFETCH ISSUED TO LOWER LEVEL:          0  ACCURACY: -nan
DTLB TIMELY PREFETCHES:          0 LATE PREFETCHES: 0 DROPPED PREFETCHES: 0
DTLB PREFETCHES SAME FILL-ORIGIN LEVEL: 0 DIFFERENT FILL-ORIGIN LEVEL: 0
DTLB AVERAGE MISS LATENCY: 168.284 cycles
DTLB RQ	ACCESS:   73433261	FORWARD:          0	MERGED:    5585433	TO_CACHE:   67847828

STLB TOTAL     ACCESS:   11810651  HIT:   11802517  MISS:       8134  HIT %:    99.9311  MISS %:    0.06887   MPKI: 0.04067
STLB LOAD TRANSLATION ACCESS:       8134  HIT:          0  MISS:       8134  HIT %:          0  MISS %:        100   MPKI: 0.04067
STLB TRANSLATION FROM L1D PREFETCHER ACCESS:   11802517  HIT:   11802517  MISS:          0  HIT %:        100  MISS %:          0   MPKI: 0
STLB PREFETCH  REQUESTED:          0  ISSUED:          0  USEFUL:       9942  USELESS:          0
STLB USEFUL LOAD PREFETCHES:       9942 PREFETCH ISSUED TO LOWER LEVEL:          0  ACCURACY: inf
STLB TIMELY PREFETCHES:       9942 LATE PREFETCHES: 975 DROPPED PREFETCHES: 605832
STLB PREFETCHES SAME FILL-ORIGIN LEVEL: 0 DIFFERENT FILL-ORIGIN LEVEL: 0
STLB AVERAGE MISS LATENCY: 235.772 cycles
STLB RQ	ACCESS:  202924368	FORWARD:          0	MERGED:  168213408	TO_CACHE:   34710960

STLB Hit, L1D data hit: 0
STLB Hit, L2C data hit: 0
STLB Hit, LLC data hit: 0
STLB Hit, LLC data miss: 0
STLB STLB hints to L2: 0
L1D TOTAL     ACCESS:   83762136  HIT:   83242842  MISS:     519294  HIT %:      99.38  MISS %:   0.619963   MPKI: 2.59647
L1D LOAD      ACCESS:   13696886  HIT:   13690226  MISS:       6660  HIT %:    99.9514  MISS %:  0.0486242   MPKI: 0.0333
L1D RFO       ACCESS:    8056550  HIT:    7915994  MISS:     140556  HIT %:    98.2554  MISS %:    1.74462   MPKI: 0.70278
L1D PREFETCH  ACCESS:   62008700  HIT:   61636622  MISS:     372078  HIT %:       99.4  MISS %:   0.600042   MPKI: 1.86039
L1D PREFETCH  REQUESTED:  717029422  ISSUED:  717029422  USEFUL:    1008338  USELESS:         30
L1D USEFUL LOAD PREFETCHES:    1008338 PREFETCH ISSUED TO LOWER LEVEL:   10280804  ACCURACY: 9.80797
L1D TIMELY PREFETCHES:    1008338 LATE PREFETCHES: 3594 DROPPED PREFETCHES: 2732964
L1D PREFETCHES SAME FILL-ORIGIN LEVEL: 1011962 DIFFERENT FILL-ORIGIN LEVEL: 9268842
L1D AVERAGE MISS LATENCY: 904.759 cycles
L1D RQ	ACCESS:   80904325	FORWARD:          0	MERGED:   43728782	TO_CACHE:   37175542
L1D WQ	ACCESS:   36257719	FORWARD:          1	MERGED:          0	TO_CACHE:   36257719
L1D PQ	ACCESS:  514125341	FORWARD:          0	MERGED:  311221260	TO_CACHE:  202904081

L1D UNIQUE REGIONS ACCESSED: 0
L1D REGIONS CONFLICTS: 0
L1D Cross Page Prefetch Requests: 38713555
L1D Same Page Prefetch Requests: 562369312
L1D ROI Sum of L1D PQ occupancy: 2590714536
L1D PREFETCHES PUSHED FROM L2C: 0
L1I TOTAL     ACCESS:   31622665  HIT:   31622620  MISS:         45  HIT %:    99.9999  MISS %: 0.000142303   MPKI: 0.000225
L1I LOAD      ACCESS:   31622665  HIT:   31622620  MISS:         45  HIT %:    99.9999  MISS %: 0.000142303   MPKI: 0.000225
L1I PREFETCH  REQUESTED:          0  ISSUED:          0  USEFUL:          0  USELESS:          0
L1I USEFUL LOAD PREFETCHES:          0 PREFETCH ISSUED TO LOWER LEVEL:          0  ACCURACY: -nan
L1I TIMELY PREFETCHES:          0 LATE PREFETCHES: 0 DROPPED PREFETCHES: 0
L1I PREFETCHES SAME FILL-ORIGIN LEVEL: 0 DIFFERENT FILL-ORIGIN LEVEL: 0
L1I AVERAGE MISS LATENCY: 396.356 cycles
L1I RQ	ACCESS:  175836242	FORWARD:          0	MERGED:   92616301	TO_CACHE:   83219941

BTB TOTAL     ACCESS:   48474533  HIT:   48474486  MISS:         47  HIT %:    99.9999  MISS %: 9.69581e-05   MPKI: 0.000235
BTB BRANCH_DIRECT_JUMP	ACCESS:          7  HIT:          0  MISS:          7
BTB BRANCH_INDIRECT	ACCESS:          0  HIT:          0  MISS:          0
BTB BRANCH_CONDITIONAL	ACCESS:   48474514  HIT:   48474486  MISS:         28
BTB BRANCH_DIRECT_CALL	ACCESS:          5  HIT:          0  MISS:          5
BTB BRANCH_INDIRECT_CALL	ACCESS:          1  HIT:          0  MISS:          1
BTB BRANCH_RETURN	ACCESS:          6  HIT:          0  MISS:          6
BTB BRANCH_OTHER ACCESS:          0  HIT:          0  MISS:          0

L2C TOTAL     ACCESS:    3723245  HIT:    3164361  MISS:     558884  HIT %:    84.9893  MISS %:    15.0107   MPKI: 2.79442
L2C LOAD      ACCESS:       3158  HIT:          0  MISS:       3158  HIT %:          0  MISS %:        100   MPKI: 0.01579
L2C DATA LOAD MPKI: 0.015565
L2C INSTRUCTION LOAD MPKI: 0.000225
L2C RFO       ACCESS:     140556  HIT:          0  MISS:     140556  HIT %:          0  MISS %:        100   MPKI: 0.70278
L2C PREFETCH  ACCESS:    2585493  HIT:    2209862  MISS:     375631  HIT %:    85.4716  MISS %:    14.5284   MPKI: 1.87816
L2C DATA PREFETCH MPKI: 1.87816
L2C INSTRUCTION PREFETCH MPKI: 0
L2C WRITEBACK ACCESS:     379097  HIT:     340605  MISS:      38492  HIT %:    89.8464  MISS %:    10.1536   MPKI: 0.19246
L2C LOAD TRANSLATION ACCESS:       8134  HIT:       7839  MISS:        295  HIT %:    96.3732  MISS %:    3.62675   MPKI: 0.001475
L2C TRANSLATION FROM L1D PREFETCHER ACCESS:     606807  HIT:     606055  MISS:        752  HIT %:    99.8761  MISS %:   0.123927   MPKI: 0.00376
L2C PREFETCH  REQUESTED:          0  ISSUED:          0  USEFUL:       1997  USELESS:    1011732
L2C USEFUL LOAD PREFETCHES:       1997 PREFETCH ISSUED TO LOWER LEVEL:    1011970  ACCURACY: 0.197338
L2C TIMELY PREFETCHES:       1997 LATE PREFETCHES: 0 DROPPED PREFETCHES: 0
L2C PREFETCHES SAME FILL-ORIGIN LEVEL: 183202 DIFFERENT FILL-ORIGIN LEVEL: 0
L2C AVERAGE MISS LATENCY: 942.637 cycles
L2C RQ	ACCESS:     911394	FORWARD:          0	MERGED:          0	TO_CACHE:     911394
L2C WQ	ACCESS:    1015053	FORWARD:          0	MERGED:          0	TO_CACHE:    1015053
L2C PQ	ACCESS:   10280804	FORWARD:          0	MERGED:       3771	TO_CACHE:   10277033

L2C Instructions Evicting Data 45
L2C Translations Evicting Data 2580
L2C Data Evicting Data 1293732
L2C Instructions Evicting Instructions 0
L2C Translations Evicting Instructions 0
L2C Data Evicting Instructions 38
L2C Instructions Evicting Translations 0
L2C Translations Evicting Translations 0
L2C Data Evicting Translations 2419
L2C Dense regions hint from L2: 0
PSCL5 TOTAL     ACCESS:     614941  HIT:     614941  MISS:          0  HIT %:        100  MISS %:          0   MPKI: 0
PSCL5 LOAD TRANSLATION ACCESS:       8134  HIT:       8134  MISS:          0  HIT %:        100  MISS %:          0   MPKI: 0
PSCL5 TRANSLATION FROM L1D PREFETCHER ACCESS:     606807  HIT:     606807  MISS:          0  HIT %:        100  MISS %:          0   MPKI: 0
PSCL5 PREFETCH  REQUESTED:          0  ISSUED:          0  USEFUL:          0  USELESS:          0
PSCL5 USEFUL LOAD PREFETCHES:          0 PREFETCH ISSUED TO LOWER LEVEL:          0  ACCURACY: -nan
PSCL5 TIMELY PREFETCHES:          0 LATE PREFETCHES: 0 DROPPED PREFETCHES: 0
PSCL5 PREFETCHES SAME FILL-ORIGIN LEVEL: 0 DIFFERENT FILL-ORIGIN LEVEL: 0

PSCL4 TOTAL     ACCESS:     614941  HIT:     614940  MISS:          1  HIT %:    99.9998  MISS %: 0.000162617   MPKI: 5e-06
PSCL4 LOAD TRANSLATION ACCESS:       8134  HIT:       8133  MISS:          1  HIT %:    99.9877  MISS %:  0.0122941   MPKI: 5e-06
PSCL4 TRANSLATION FROM L1D PREFETCHER ACCESS:     606807  HIT:     606807  MISS:          0  HIT %:        100  MISS %:          0   MPKI: 0
PSCL4 PREFETCH  REQUESTED:          0  ISSUED:          0  USEFUL:          0  USELESS:          0
PSCL4 USEFUL LOAD PREFETCHES:          0 PREFETCH ISSUED TO LOWER LEVEL:          0  ACCURACY: -nan
PSCL4 TIMELY PREFETCHES:          0 LATE PREFETCHES: 0 DROPPED PREFETCHES: 0
PSCL4 PREFETCHES SAME FILL-ORIGIN LEVEL: 0 DIFFERENT FILL-ORIGIN LEVEL: 0

PSCL3 TOTAL     ACCESS:     614941  HIT:     614939  MISS:          2  HIT %:    99.9997  MISS %: 0.000325234   MPKI: 1e-05
PSCL3 LOAD TRANSLATION ACCESS:       8134  HIT:       8132  MISS:          2  HIT %:    99.9754  MISS %:  0.0245881   MPKI: 1e-05
PSCL3 TRANSLATION FROM L1D PREFETCHER ACCESS:     606807  HIT:     606807  MISS:          0  HIT %:        100  MISS %:          0   MPKI: 0
PSCL3 PREFETCH  REQUESTED:          0  ISSUED:          0  USEFUL:          0  USELESS:          0
PSCL3 USEFUL LOAD PREFETCHES:          0 PREFETCH ISSUED TO LOWER LEVEL:          0  ACCURACY: -nan
PSCL3 TIMELY PREFETCHES:          0 LATE PREFETCHES: 0 DROPPED PREFETCHES: 0
PSCL3 PREFETCHES SAME FILL-ORIGIN LEVEL: 0 DIFFERENT FILL-ORIGIN LEVEL: 0

PSCL2 TOTAL     ACCESS:     613809  HIT:     613785  MISS:         24  HIT %:    99.9961  MISS %: 0.00391001   MPKI: 0.00012
PSCL2 LOAD TRANSLATION ACCESS:       8134  HIT:       8110  MISS:         24  HIT %:    99.7049  MISS %:   0.295058   MPKI: 0.00012
PSCL2 TRANSLATION FROM L1D PREFETCHER ACCESS:     605675  HIT:     605675  MISS:          0  HIT %:        100  MISS %:          0   MPKI: 0
PSCL2 PREFETCH  REQUESTED:          0  ISSUED:          0  USEFUL:          0  USELESS:          0
PSCL2 USEFUL LOAD PREFETCHES:          0 PREFETCH ISSUED TO LOWER LEVEL:          0  ACCURACY: -nan
PSCL2 TIMELY PREFETCHES:          0 LATE PREFETCHES: 0 DROPPED PREFETCHES: 0
PSCL2 PREFETCHES SAME FILL-ORIGIN LEVEL: 0 DIFFERENT FILL-ORIGIN LEVEL: 0

LLC TOTAL     ACCESS:     903040  HIT:     260233  MISS:     642807  HIT %:    28.8174  MISS %:    71.1826   MPKI: 3.21403
LLC LOAD      ACCESS:       3158  HIT:          0  MISS:       3158  HIT %:          0  MISS %:        100   MPKI: 0.01579
LLC RFO       ACCESS:     140556  HIT:          0  MISS:     140556  HIT %:          0  MISS %:        100   MPKI: 0.70278
LLC PREFETCH  ACCESS:     375631  HIT:          0  MISS:     375631  HIT %:          0  MISS %:        100   MPKI: 1.87816
LLC WRITEBACK ACCESS:     382648  HIT:     260230  MISS:     122418  HIT %:    68.0077  MISS %:    31.9923   MPKI: 0.61209
LLC LOAD TRANSLATION ACCESS:        295  HIT:          3  MISS:        292  HIT %:    1.01695  MISS %:    98.9831   MPKI: 0.00146
LLC TRANSLATION FROM L1D PREFETCHER ACCESS:        752  HIT:          0  MISS:        752  HIT %:          0  MISS %:        100   MPKI: 0.00376
LLC PREFETCH  REQUESTED:          0  ISSUED:          0  USEFUL:     189213  USELESS:   11057758
LLC USEFUL LOAD PREFETCHES:     189213 PREFETCH ISSUED TO LOWER LEVEL:   11206145  ACCURACY: 1.68848
LLC TIMELY PREFETCHES:     189213 LATE PREFETCHES: 0 DROPPED PREFETCHES: 0
LLC PREFETCHES SAME FILL-ORIGIN LEVEL: 0 DIFFERENT FILL-ORIGIN LEVEL: 0
LLC AVERAGE MISS LATENCY: 9278.38 cycles
LLC RQ	ACCESS:    4128885	FORWARD:          0	MERGED:          0	TO_CACHE:    4128885
LLC WQ	ACCESS:    4732868	FORWARD:          3	MERGED:          0	TO_CACHE:    4732868
LLC PQ	ACCESS:   12570975	FORWARD:          0	MERGED:          0	TO_CACHE:   12570972

LLC Dense regions hint to LLC: 0

RAW hits: 0
Loads Generated: 32208763
Loads sent to L1D: 32208762
Stores Generated: 14923217
Stores sent to L1D: 14923217
Major fault: 0 Minor fault: 9708
Allocated PAGES: 70818

CPU 1 cumulative IPC: 0.345671 instructions: 200000001 cycles: 578585652
ITLB TOTAL     ACCESS:   33391086  HIT:   33391086  MISS:          0  HIT %:        100  MISS %:          0   MPKI: 0
ITLB LOAD TRANSLATION ACCESS:   33391086  HIT:   33391086  MISS:          0  HIT %:        100  MISS %:          0   MPKI: 0
ITLB PREFETCH  REQUESTED:          0  ISSUED:          0  USEFUL:          0  USELESS:          0
ITLB USEFUL LOAD PREFETCHES:          0 PREFETCH ISSUED TO LOWER LEVEL:          0  ACCURACY: -nan
ITLB TIMELY PREFETCHES:          0 LATE PREFETCHES: 0 DROPPED PREFETCHES: 0
ITLB PREFETCHES SAME FILL-ORIGIN LEVEL: 0 DIFFERENT FILL-ORIGIN LEVEL: 0
ITLB AVERAGE MISS LATENCY: -nan cycles
ITLB RQ	ACCESS:   42085133	FORWARD:          0	MERGED:    8694047	TO_CACHE:   33391086

DTLB TOTAL     ACCESS:   34686267  HIT:   34497876  MISS:     188391  HIT %:    99.4569  MISS %:   0.543128   MPKI: 0.941955
DTLB LOAD TRANSLATION ACCESS:   34686267  HIT:   34497876  MISS:     188391  HIT %:    99.4569  MISS %:   0.543128   MPKI: 0.941955
DTLB PREFETCH  REQUESTED:          0  ISSUED:          0  USEFUL:          0  USELESS:          0
DTLB USEFUL LOAD PREFETCHES:          0 PREFETCH ISSUED TO LOWER LEVEL:          0  ACCURACY: -nan
DTLB TIMELY PREFETCHES:          0 LATE PREFETCHES: 0 DROPPED PREFETCHES: 0
DTLB PREFETCHES SAME FILL-ORIGIN LEVEL: 0 DIFFERENT FILL-ORIGIN LEVEL: 0
DTLB AVERAGE MISS LATENCY: 73.4919 cycles
DTLB RQ	ACCESS:   37549858	FORWARD:          0	MERGED:    2852499	TO_CACHE:   34697359

STLB TOTAL     ACCESS:   20555879  HIT:   20389365  MISS:     166514  HIT %:    99.1899  MISS %:   0.810055   MPKI: 0.83257
STLB LOAD TRANSLATION ACCESS:     188391  HIT:     110049  MISS:      78342  HIT %:    58.4152  MISS %:    41.5848   MPKI: 0.39171
STLB TRANSLATION FROM L1D PREFETCHER ACCESS:   20367488  HIT:   20279316  MISS:      88172  HIT %:    99.5671  MISS %:   0.432906   MPKI: 0.44086
[...]
L2C PREFETCHES SAME FILL-ORIGIN LEVEL: 3377835 DIFFERENT FILL-ORIGIN LEVEL: 0
L2C AVERAGE MISS LATENCY: 2062.01 cycles
L2C RQ	ACCESS:    6414772	FORWARD:          0	MERGED:          0	TO_CACHE:    6414214
L2C WQ	ACCESS:    2754473	FORWARD:        813	MERGED:          0	TO_CACHE:    2754473
L2C PQ	ACCESS:   73392130	FORWARD:          0	MERGED:     531987	TO_CACHE:   72859888

L2C Instructions Evicting Data 637
L2C Translations Evicting Data 22382
L2C Data Evicting Data 7078012
L2C Instructions Evicting Instructions 3
L2C Translations Evicting Instructions 1
L2C Data Evicting Instructions 639
L2C Instructions Evicting Translations 7
L2C Translations Evicting Translations 66
L2C Data Evicting Translations 22093
L2C Dense regions hint from L2: 0
PSCL5 TOTAL     ACCESS:     810707  HIT:     810707  MISS:          0  HIT %:        100  MISS %:          0   MPKI: 0
PSCL5 LOAD TRANSLATION ACCESS:       9288  HIT:       9288  MISS:          0  HIT %:        100  MISS %:          0   MPKI: 0
PSCL5 TRANSLATION FROM L1D PREFETCHER ACCESS:     801419  HIT:     801419  MISS:          0  HIT %:        100  MISS %:          0   MPKI: 0
PSCL5 PREFETCH  REQUESTED:          0  ISSUED:          0  USEFUL:          0  USELESS:          0
PSCL5 USEFUL LOAD PREFETCHES:          0 PREFETCH ISSUED TO LOWER LEVEL:          0  ACCURACY: -nan
PSCL5 TIMELY PREFETCHES:          0 LATE PREFETCHES: 0 DROPPED PREFETCHES: 0
PSCL5 PREFETCHES SAME FILL-ORIGIN LEVEL: 0 DIFFERENT FILL-ORIGIN LEVEL: 0

PSCL4 TOTAL     ACCESS:     810707  HIT:     810707  MISS:          0  HIT %:        100  MISS %:          0   MPKI: 0
PSCL4 LOAD TRANSLATION ACCESS:       9288  HIT:       9288  MISS:          0  HIT %:        100  MISS %:          0   MPKI: 0
PSCL4 TRANSLATION FROM L1D PREFETCHER ACCESS:     801419  HIT:     801419  MISS:          0  HIT %:        100  MISS %:          0   MPKI: 0
PSCL4 PREFETCH  REQUESTED:          0  ISSUED:          0  USEFUL:          0  USELESS:          0
PSCL4 USEFUL LOAD PREFETCHES:          0 PREFETCH ISSUED TO LOWER LEVEL:          0  ACCURACY: -nan
PSCL4 TIMELY PREFETCHES:          0 LATE PREFETCHES: 0 DROPPED PREFETCHES: 0
PSCL4 PREFETCHES SAME FILL-ORIGIN LEVEL: 0 DIFFERENT FILL-ORIGIN LEVEL: 0

PSCL3 TOTAL     ACCESS:     810707  HIT:     810707  MISS:          0  HIT %:        100  MISS %:          0   MPKI: 0
PSCL3 LOAD TRANSLATION ACCESS:       9288  HIT:       9288  MISS:          0  HIT %:        100  MISS %:          0   MPKI: 0
PSCL3 TRANSLATION FROM L1D PREFETCHER ACCESS:     801419  HIT:     801419  MISS:          0  HIT %:        100  MISS %:          0   MPKI: 0
PSCL3 PREFETCH  REQUESTED:          0  ISSUED:          0  USEFUL:          0  USELESS:          0
PSCL3 USEFUL LOAD PREFETCHES:          0 PREFETCH ISSUED TO LOWER LEVEL:          0  ACCURACY: -nan
PSCL3 TIMELY PREFETCHES:          0 LATE PREFETCHES: 0 DROPPED PREFETCHES: 0
PSCL3 PREFETCHES SAME FILL-ORIGIN LEVEL: 0 DIFFERENT FILL-ORIGIN LEVEL: 0

PSCL2 TOTAL     ACCESS:     265701  HIT:     265671  MISS:         30  HIT %:    99.9887  MISS %:  0.0112909   MPKI: 0.00015
PSCL2 LOAD TRANSLATION ACCESS:       9292  HIT:       9262  MISS:         30  HIT %:    99.6771  MISS %:   0.322858   MPKI: 0.00015
PSCL2 TRANSLATION FROM L1D PREFETCHER ACCESS:     256409  HIT:     256409  MISS:          0  HIT %:        100  MISS %:          0   MPKI: 0
PSCL2 PREFETCH  REQUESTED:          0  ISSUED:          0  USEFUL:          0  USELESS:          0
PSCL2 USEFUL LOAD PREFETCHES:          0 PREFETCH ISSUED TO LOWER LEVEL:          0  ACCURACY: -nan
PSCL2 TIMELY PREFETCHES:          0 LATE PREFETCHES: 0 DROPPED PREFETCHES: 0
PSCL2 PREFETCHES SAME FILL-ORIGIN LEVEL: 0 DIFFERENT FILL-ORIGIN LEVEL: 0

LLC TOTAL     ACCESS:    1739469  HIT:     383897  MISS:    1355572  HIT %:    22.0698  MISS %:    77.9302   MPKI: 6.77786
LLC LOAD      ACCESS:       6971  HIT:       1145  MISS:       5826  HIT %:    16.4252  MISS %:    83.5748   MPKI: 0.02913
LLC RFO       ACCESS:     260576  HIT:          4  MISS:     260572  HIT %: 0.00153506  MISS %:    99.9985   MPKI: 1.30286
LLC PREFETCH  ACCESS:    1170053  HIT:      85930  MISS:    1084123  HIT %:    7.34411  MISS %:    92.6559   MPKI: 5.42061
LLC WRITEBACK ACCESS:     298616  HIT:     295951  MISS:       2665  HIT %:    99.1075  MISS %:   0.892451   MPKI: 0.013325
LLC LOAD TRANSLATION ACCESS:        904  HIT:        269  MISS:        635  HIT %:    29.7566  MISS %:    70.2434   MPKI: 0.003175
LLC TRANSLATION FROM L1D PREFETCHER ACCESS:       2349  HIT:        598  MISS:       1751  HIT %:    25.4576  MISS %:    74.5424   MPKI: 0.008755
LLC PREFETCH  REQUESTED:          0  ISSUED:          0  USEFUL:     189213  USELESS:   11057758
LLC USEFUL LOAD PREFETCHES:     189213 PREFETCH ISSUED TO LOWER LEVEL:   11206145  ACCURACY: 1.68848
LLC TIMELY PREFETCHES:     189213 LATE PREFETCHES: 0 DROPPED PREFETCHES: 0
LLC PREFETCHES SAME FILL-ORIGIN LEVEL: 0 DIFFERENT FILL-ORIGIN LEVEL: 0
LLC AVERAGE MISS LATENCY: 4399.77 cycles
LLC RQ	ACCESS:    4128885	FORWARD:          0	MERGED:          0	TO_CACHE:    4128885
LLC WQ	ACCESS:    4732868	FORWARD:          3	MERGED:          0	TO_CACHE:    4732868
LLC PQ	ACCESS:   12570975	FORWARD:          0	MERGED:          0	TO_CACHE:   12570972

LLC Dense regions hint to LLC: 0

RAW hits: 475740
Loads Generated: 79598494
Loads sent to L1D: 79122758
Stores Generated: 7253059
Stores sent to L1D: 7253059
Major fault: 0 Minor fault: 19888
Allocated PAGES: 70818

CPU 3 cumulative IPC: 1.13504 instructions: 200000001 cycles: 176205089
ITLB TOTAL     ACCESS:   33181855  HIT:   33181855  MISS:          0  HIT %:        100  MISS %:          0   MPKI: 0
ITLB LOAD TRANSLATION ACCESS:   33181855  HIT:   33181855  MISS:          0  HIT %:        100  MISS %:          0   MPKI: 0
ITLB PREFETCH  REQUESTED:          0  ISSUED:          0  USEFUL:          0  USELESS:          0
ITLB USEFUL LOAD PREFETCHES:          0 PREFETCH ISSUED TO LOWER LEVEL:          0  ACCURACY: -nan
ITLB TIMELY PREFETCHES:          0 LATE PREFETCHES: 0 DROPPED PREFETCHES: 0
ITLB PREFETCHES SAME FILL-ORIGIN LEVEL: 0 DIFFERENT FILL-ORIGIN LEVEL: 0
ITLB AVERAGE MISS LATENCY: -nan cycles
ITLB RQ	ACCESS:  110066987	FORWARD:          0	MERGED:          0	TO_CACHE:  110066987

DTLB TOTAL     ACCESS:   33833537  HIT:   33822360  MISS:      11177  HIT %:     99.967  MISS %:  0.0330353   MPKI: 0.055885
DTLB LOAD TRANSLATION ACCESS:   33833537  HIT:   33822360  MISS:      11177  HIT %:     99.967  MISS %:  0.0330353   MPKI: 0.055885
DTLB PREFETCH  REQUESTED:          0  ISSUED:          0  USEFUL:          0  USELESS:          0
DTLB USEFUL LOAD PREFETCHES:          0 PREFETCH ISSUED TO LOWER LEVEL:          0  ACCURACY: -nan
DTLB TIMELY PREFETCHES:          0 LATE PREFETCHES: 0 DROPPED PREFETCHES: 0
DTLB PREFETCHES SAME FILL-ORIGIN LEVEL: 0 DIFFERENT FILL-ORIGIN LEVEL: 0
DTLB AVERAGE MISS LATENCY: 251.195 cycles
DTLB RQ	ACCESS:  117446869	FORWARD:          0	MERGED:    5025531	TO_CACHE:  112421338

STLB TOTAL     ACCESS:   10246684  HIT:   10235507  MISS:      11177  HIT %:    99.8909  MISS %:   0.109079   MPKI: 0.055885
STLB LOAD TRANSLATION ACCESS:      11177  HIT:          0  MISS:      11177  HIT %:          0  MISS %:        100   MPKI: 0.055885
STLB TRANSLATION FROM L1D PREFETCHER ACCESS:   10235507  HIT:   10235507  MISS:          0  HIT %:        100  MISS %:          0   MPKI: 0
STLB PREFETCH  REQUESTED:          0  ISSUED:          0  USEFUL:      12979  USELESS:          0
STLB USEFUL LOAD PREFETCHES:      12979 PREFETCH ISSUED TO LOWER LEVEL:          0  ACCURACY: inf
STLB TIMELY PREFETCHES:      12979 LATE PREFETCHES: 1116 DROPPED PREFETCHES: 1320655
STLB PREFETCHES SAME FILL-ORIGIN LEVEL: 0 DIFFERENT FILL-ORIGIN LEVEL: 0
STLB AVERAGE MISS LATENCY: 312.137 cycles
STLB RQ	ACCESS:  211786966	FORWARD:          0	MERGED:  170183578	TO_CACHE:   41603388

STLB Hit, L1D data hit: 0
STLB Hit, L2C data hit: 0
STLB Hit, LLC data hit: 0
STLB Hit, LLC data miss: 0
STLB STLB hints to L2: 0
L1D TOTAL     ACCESS:   71378014  HIT:   70662698  MISS:     715316  HIT %:    98.9978  MISS %:    1.00215   MPKI: 3.57658
L1D LOAD      ACCESS:   12462228  HIT:   12456110  MISS:       6118  HIT %:    99.9509  MISS %:  0.0490923   MPKI: 0.03059
L1D RFO       ACCESS:    8410282  HIT:    8052623  MISS:     357659  HIT %:    95.7474  MISS %:    4.25264   MPKI: 1.78829
L1D PREFETCH  ACCESS:   50505504  HIT:   50153965  MISS:     351539  HIT %:     99.304  MISS %:   0.696041   MPKI: 1.75769
L1D PREFETCH  REQUESTED:  781964006  ISSUED:  781926682  USEFUL:    1180334  USELESS:         14
L1D USEFUL LOAD PREFETCHES:    1180334 PREFETCH ISSUED TO LOWER LEVEL:   11082763  ACCURACY: 10.6502
L1D TIMELY PREFETCHES:    1180334 LATE PREFETCHES: 3282 DROPPED PREFETCHES: 3132014
L1D PREFETCHES SAME FILL-ORIGIN LEVEL: 1183630 DIFFERENT FILL-ORIGIN LEVEL: 9899133
L1D AVERAGE MISS LATENCY: 938.504 cycles
L1D RQ	ACCESS:  141872910	FORWARD:          0	MERGED:  100360067	TO_CACHE:   41512843
L1D WQ	ACCESS:   75934026	FORWARD:          0	MERGED:          0	TO_CACHE:   75934026
L1D PQ	ACCESS:  570176798	FORWARD:          0	MERGED:  358426914	TO_CACHE:  211749884

L1D UNIQUE REGIONS ACCESSED: 0
L1D REGIONS CONFLICTS: 0
L1D Cross Page Prefetch Requests: 46625415
L1D Same Page Prefetch Requests: 617277447
L1D ROI Sum of L1D PQ occupancy: 2821550859
L1D PREFETCHES PUSHED FROM L2C: 0
L1I TOTAL     ACCESS:   33181855  HIT:   33181855  MISS:          0  HIT %:        100  MISS %:          0   MPKI: 0
L1I LOAD      ACCESS:   33181855  HIT:   33181855  MISS:          0  HIT %:        100  MISS %:          0   MPKI: 0
L1I PREFETCH  REQUESTED:          0  ISSUED:          0  USEFUL:          0  USELESS:          0
L1I USEFUL LOAD PREFETCHES:          0 PREFETCH ISSUED TO LOWER LEVEL:          0  ACCURACY: -nan
L1I TIMELY PREFETCHES:          0 LATE PREFETCHES: 0 DROPPED PREFETCHES: 0
L1I PREFETCHES SAME FILL-ORIGIN LEVEL: 0 DIFFERENT FILL-ORIGIN LEVEL: 0
L1I AVERAGE MISS LATENCY: -nan cycles
L1I RQ	ACCESS:  184049109	FORWARD:          0	MERGED:   73982122	TO_CACHE:  110066987

BTB TOTAL     ACCESS:   45780289  HIT:   45780287  MISS:          2  HIT %:        100  MISS %: 4.36869e-06   MPKI: 1e-05
BTB BRANCH_DIRECT_JUMP	ACCESS:          0  HIT:          0  MISS:          0
BTB BRANCH_INDIRECT	ACCESS:          0  HIT:          0  MISS:          0
BTB BRANCH_CONDITIONAL	ACCESS:   45780289  HIT:   45780287  MISS:          2
BTB BRANCH_DIRECT_CALL	ACCESS:          0  HIT:          0  MISS:          0
BTB BRANCH_INDIRECT_CALL	ACCESS:          0  HIT:          0  MISS:          0
BTB BRANCH_RETURN	ACCESS:          0  HIT:          0  MISS:          0
BTB BRANCH_OTHER ACCESS:          0  HIT:          0  MISS:          0

L2C TOTAL     ACCESS:    3888790  HIT:    3126841  MISS:     761949  HIT %:    80.4065  MISS %:    19.5935   MPKI: 3.80974
L2C LOAD      ACCESS:       2851  HIT:          0  MISS:       2851  HIT %:          0  MISS %:        100   MPKI: 0.014255
L2C DATA LOAD MPKI: 0.014255
L2C INSTRUCTION LOAD MPKI: 0
L2C RFO       ACCESS:     357659  HIT:          0  MISS:     357659  HIT %:          0  MISS %:        100   MPKI: 1.78829
L2C PREFETCH  ACCESS:    1841139  HIT:    1486333  MISS:     354806  HIT %:     80.729  MISS %:     19.271   MPKI: 1.77403
L2C DATA PREFETCH MPKI: 1.77403
L2C INSTRUCTION PREFETCH MPKI: 0
L2C WRITEBACK ACCESS:     357659  HIT:     312553  MISS:      45106  HIT %:    87.3885  MISS %:    12.6115   MPKI: 0.22553
L2C LOAD TRANSLATION ACCESS:      11177  HIT:      10462  MISS:        715  HIT %:    93.6029  MISS %:    6.39707   MPKI: 0.003575
L2C TRANSLATION FROM L1D PREFETCHER ACCESS:    1318305  HIT:    1317493  MISS:        812  HIT %:    99.9384  MISS %:  0.0615942   MPKI: 0.00406
L2C PREFETCH  REQUESTED:          0  ISSUED:          0  USEFUL:       2441  USELESS:    1518858
L2C USEFUL LOAD PREFETCHES:       2441 PREFETCH ISSUED TO LOWER LEVEL:    1519853  ACCURACY: 0.160608
L2C TIMELY PREFETCHES:       2441 LATE PREFETCHES: 0 DROPPED PREFETCHES: 0
L2C PREFETCHES SAME FILL-ORIGIN LEVEL: 942575 DIFFERENT FILL-ORIGIN LEVEL: 0
L2C AVERAGE MISS LATENCY: 1337.94 cycles
L2C RQ	ACCESS:    2548208	FORWARD:          0	MERGED:          0	TO_CACHE:    2548208
L2C WQ	ACCESS:    1186470	FORWARD:          0	MERGED:          0	TO_CACHE:    1186470
L2C PQ	ACCESS:   11082763	FORWARD:          0	MERGED:       8267	TO_CACHE:   11074496

L2C Instructions Evicting Data 0
L2C Translations Evicting Data 4800
L2C Data Evicting Data 2704666
L2C Instructions Evicting Instructions 0
L2C Translations Evicting Instructions 0
L2C Data Evicting Instructions 0
L2C Instructions Evicting Translations 0
L2C Translations Evicting Translations 0
L2C Data Evicting Translations 4511
L2C Dense regions hint from L2: 0
PSCL5 TOTAL     ACCESS:    1329483  HIT:    1329483  MISS:          0  HIT %:        100  MISS %:          0   MPKI: 0
PSCL5 LOAD TRANSLATION ACCESS:      11178  HIT:      11178  MISS:          0  HIT %:        100  MISS %:          0   MPKI: 0
PSCL5 TRANSLATION FROM L1D PREFETCHER ACCESS:    1318305  HIT:    1318305  MISS:          0  HIT %:        100  MISS %:          0   MPKI: 0
PSCL5 PREFETCH  REQUESTED:          0  ISSUED:          0  USEFUL:          0  USELESS:          0
PSCL5 USEFUL LOAD PREFETCHES:          0 PREFETCH ISSUED TO LOWER LEVEL:          0  ACCURACY: -nan
PSCL5 TIMELY PREFETCHES:          0 LATE PREFETCHES: 0 DROPPED PREFETCHES: 0
PSCL5 PREFETCHES SAME FILL-ORIGIN LEVEL: 0 DIFFERENT FILL-ORIGIN LEVEL: 0

PSCL4 TOTAL     ACCESS:    1329483  HIT:    1329483  MISS:          0  HIT %:        100  MISS %:          0   MPKI: 0
PSCL4 LOAD TRANSLATION ACCESS:      11178  HIT:      11178  MISS:          0  HIT %:        100  MISS %:          0   MPKI: 0
PSCL4 TRANSLATION FROM L1D PREFETCHER ACCESS:    1318305  HIT:    1318305  MISS:          0  HIT %:        100  MISS %:          0   MPKI: 0
PSCL4 PREFETCH  REQUESTED:          0  ISSUED:          0  USEFUL:          0  USELESS:          0
PSCL4 USEFUL LOAD PREFETCHES:          0 PREFETCH ISSUED TO LOWER LEVEL:          0  ACCURACY: -nan
PSCL4 TIMELY PREFETCHES:          0 LATE PREFETCHES: 0 DROPPED PREFETCHES: 0
PSCL4 PREFETCHES SAME FILL-ORIGIN LEVEL: 0 DIFFERENT FILL-ORIGIN LEVEL: 0

PSCL3 TOTAL     ACCESS:    1329483  HIT:    1329483  MISS:          0  HIT %:        100  MISS %:          0   MPKI: 0
PSCL3 LOAD TRANSLATION ACCESS:      11178  HIT:      11178  MISS:          0  HIT %:        100  MISS %:          0   MPKI: 0
PSCL3 TRANSLATION FROM L1D PREFETCHER ACCESS:    1318305  HIT:    1318305  MISS:          0  HIT %:        100  MISS %:          0   MPKI: 0
PSCL3 PREFETCH  REQUESTED:          0  ISSUED:          0  USEFUL:          0  USELESS:          0
PSCL3 USEFUL LOAD PREFETCHES:          0 PREFETCH ISSUED TO LOWER LEVEL:          0  ACCURACY: -nan
PSCL3 TIMELY PREFETCHES:          0 LATE PREFETCHES: 0 DROPPED PREFETCHES: 0
PSCL3 PREFETCHES SAME FILL-ORIGIN LEVEL: 0 DIFFERENT FILL-ORIGIN LEVEL: 0

PSCL2 TOTAL     ACCESS:    1289989  HIT:    1289967  MISS:         22  HIT %:    99.9983  MISS %: 0.00170544   MPKI: 0.00011
PSCL2 LOAD TRANSLATION ACCESS:      11178  HIT:      11156  MISS:         22  HIT %:    99.8032  MISS %:   0.196815   MPKI: 0.00011
PSCL2 TRANSLATION FROM L1D PREFETCHER ACCESS:    1278811  HIT:    1278811  MISS:          0  HIT %:        100  MISS %:          0   MPKI: 0
PSCL2 PREFETCH  REQUESTED:          0  ISSUED:          0  USEFUL:          0  USELESS:          0
PSCL2 USEFUL LOAD PREFETCHES:          0 PREFETCH ISSUED TO LOWER LEVEL:          0  ACCURACY: -nan
PSCL2 TIMELY PREFETCHES:          0 LATE PREFETCHES: 0 DROPPED PREFETCHES: 0
PSCL2 PREFETCHES SAME FILL-ORIGIN LEVEL: 0 DIFFERENT FILL-ORIGIN LEVEL: 0

LLC TOTAL     ACCESS:    1074796  HIT:     315572  MISS:     759224  HIT %:    29.3611  MISS %:    70.6389   MPKI: 3.79612
LLC LOAD      ACCESS:       2851  HIT:          0  MISS:       2851  HIT %:          0  MISS %:        100   MPKI: 0.014255
LLC RFO       ACCESS:     357659  HIT:          0  MISS:     357659  HIT %:          0  MISS %:        100   MPKI: 1.78829
LLC PREFETCH  ACCESS:     354806  HIT:          0  MISS:     354806  HIT %:          0  MISS %:        100   MPKI: 1.77403
LLC WRITEBACK ACCESS:     357953  HIT:     315463  MISS:      42490  HIT %:    88.1297  MISS %:    11.8703   MPKI: 0.21245
LLC LOAD TRANSLATION ACCESS:        715  HIT:          6  MISS:        709  HIT %:   0.839161  MISS %:    99.1608   MPKI: 0.003545
LLC TRANSLATION FROM L1D PREFETCHER ACCESS:        812  HIT:        103  MISS:        709  HIT %:    12.6847  MISS %:    87.3153   MPKI: 0.003545
LLC PREFETCH  REQUESTED:          0  ISSUED:          0  USEFUL:     189213  USELESS:   11057758
LLC USEFUL LOAD PREFETCHES:     189213 PREFETCH ISSUED TO LOWER LEVEL:   11206145  ACCURACY: 1.68848
LLC TIMELY PREFETCHES:     189213 LATE PREFETCHES: 0 DROPPED PREFETCHES: 0
LLC PREFETCHES SAME FILL-ORIGIN LEVEL: 0 DIFFERENT FILL-ORIGIN LEVEL: 0
LLC AVERAGE MISS LATENCY: 7855.67 cycles
LLC RQ	ACCESS:    4128885	FORWARD:          0	MERGED:          0	TO_CACHE:    4128885
LLC WQ	ACCESS:    4732868	FORWARD:          3	MERGED:          0	TO_CACHE:    4732868
LLC PQ	ACCESS:   12570975	FORWARD:          0	MERGED:          0	TO_CACHE:   12570972

LLC Dense regions hint to LLC: 0

RAW hits: 0
Loads Generated: 42774639
Loads sent to L1D: 42774639
Stores Generated: 22890146
Stores sent to L1D: 22890147
Major fault: 0 Minor fault: 14010
Allocated PAGES: 70818

DRAM Statistics
 CHANNEL 0
 RQ ROW_BUFFER_HIT:    2177105  ROW_BUFFER_MISS:   12339324
 DBUS_CONGESTED:        248
 WQ ROW_BUFFER_HIT:     399892  ROW_BUFFER_MISS:    4093342  FULL:          0

 AVG_CONGESTED_CYCLE: 5
 All warmup complete: 5
Channel 0 Bank busy for read cycles: 0
Channel 0 Bank busy for write cycles: 0
Channel 0
Rank 0
0banks busy for read cycles: 412909
0banks busy for write cycles: 989
1banks busy for read cycles: 26342239
1banks busy for write cycles: 720349
2banks busy for read cycles: 55949522
2banks busy for write cycles: 676812
3banks busy for read cycles: 75485381
3banks busy for write cycles: 650115
4banks busy for read cycles: 75982863
4banks busy for write cycles: 639956
5banks busy for read cycles: 67280642
5banks busy for write cycles: 690990
6banks busy for read cycles: 56207066
6banks busy for write cycles: 1382649
7banks busy for read cycles: 47768838
7banks busy for write cycles: 14582575
8banks busy for read cycles: 49467352
8banks busy for write cycles: 104344406

CPU 0 Branch Prediction Accuracy: 94.7163% MPKI: 14.7462 Average ROB Occupancy at Mispredict: 11.6303
Branch types
NOT_BRANCH: 382788139 72.0913%
BRANCH_DIRECT_JUMP: 14 2.63665e-06%
BRANCH_INDIRECT: 0 0%
BRANCH_CONDITIONAL: 148189065 27.9087%
BRANCH_DIRECT_CALL: 10 1.88332e-06%
BRANCH_INDIRECT_CALL: 2 3.76664e-07%
BRANCH_RETURN: 12 2.25998e-06%
BRANCH_OTHER: 0 0%


CPU 1 Branch Prediction Accuracy: 85.9248% MPKI: 30.2881 Average ROB Occupancy at Mispredict: 8.33653
Branch types
NOT_BRANCH: 156086184 78.0431%
BRANCH_DIRECT_JUMP: 5491 0.0027455%
BRANCH_INDIRECT: 3 1.5e-06%
BRANCH_CONDITIONAL: 43907755 21.9539%
BRANCH_DIRECT_CALL: 273 0.0001365%
BRANCH_INDIRECT_CALL: 9 4.5e-06%
BRANCH_RETURN: 282 0.000141%
BRANCH_OTHER: 0 0%


CPU 2 Branch Prediction Accuracy: 99.8637% MPKI: 0.0340483 Average ROB Occupancy at Mispredict: 289.645
Branch types
NOT_BRANCH: 848940572 97.4822%
BRANCH_DIRECT_JUMP: 74131 0.00851232%
BRANCH_INDIRECT: 0 0%
BRANCH_CONDITIONAL: 21852244 2.50925%
BRANCH_DIRECT_CALL: 232 2.66401e-05%
BRANCH_INDIRECT_CALL: 0 0%
BRANCH_RETURN: 232 2.66401e-05%
BRANCH_OTHER: 0 0%


CPU 3 Branch Prediction Accuracy: 99.4252% MPKI: 1.31577 Average ROB Occupancy at Mispredict: 32.1352
Branch types
NOT_BRANCH: 511547909 77.1082%
BRANCH_DIRECT_JUMP: 0 0%
BRANCH_INDIRECT: 0 0%
BRANCH_CONDITIONAL: 151868056 22.8918%
BRANCH_DIRECT_CALL: 0 0%
BRANCH_INDIRECT_CALL: 0 0%
BRANCH_RETURN: 0 0%
BRANCH_OTHER: 0 0%

DRAM PAGES: 1048576
Allocated PAGES: 70818
