
*** ChampSim Multicore Out-of-Order Simulator ***

Warmup Instructions: 50000000
Simulation Instructions: 200000000
Number of CPUs: 4
LLC sets: 8192
LLC ways: 16
Off-chip DRAM Size: 4096 MB Channels: 1 Width: 64-bit Data Rate: 6400 MT/s
CPU 0 runs ./traces/ligra/ligra_Triangle.com-lj.ungraph.gcc_6.3.0_O3.drop_25000M.length_250M.champsimtrace.xz
.xz
CPU 1 runs ./traces/ligra/ligra_Triangle.com-lj.ungraph.gcc_6.3.0_O3.drop_25000M.length_250M.champsimtrace.xz
.xz
CPU 2 runs ./traces/ligra/ligra_Triangle.com-lj.ungraph.gcc_6.3.0_O3.drop_25000M.length_250M.champsimtrace.xz
.xz
CPU 3 runs ./traces/ligra/ligra_Triangle.com-lj.ungraph.gcc_6.3.0_O3.drop_25000M.length_250M.champsimtrace.xz
.xz
BTB has LRU replacement policy
ITLB has LRU replacement policy
DTLB has LRU replacement policy
STLB has LRU replacement policy
L1I has LRU replacement policy
History Sets: 8
History Ways: 16
BERTI Size: 16
BERTI Stride Size: 8
L1D has LRU replacement policy
Initialize SRRIP state for L2C
Initialize DRRIP state for LLC
BTB has LRU replacement policy
ITLB has LRU replacement policy
DTLB has LRU replacement policy
STLB has LRU replacement policy
L1I has LRU replacement policy
History Sets: 8
History Ways: 16
BERTI Size: 16
BERTI Stride Size: 8
L1D has LRU replacement policy
Initialize SRRIP state for L2C
Initialize DRRIP state for LLC
BTB has LRU replacement policy
ITLB has LRU replacement policy
DTLB has LRU replacement policy
STLB has LRU replacement policy
L1I has LRU replacement policy
History Sets: 8
History Ways: 16
BERTI Size: 16
BERTI Stride Size: 8
L1D has LRU replacement policy
Initialize SRRIP state for L2C
Initialize DRRIP state for LLC
BTB has LRU replacement policy
ITLB has LRU replacement policy
DTLB has LRU replacement policy
STLB has LRU replacement policy
L1I has LRU replacement policy
History Sets: 8
History Ways: 16
BERTI Size: 16
BERTI Stride Size: 8
L1D has LRU replacement policy
Initialize SRRIP state for L2C
Initialize DRRIP state for LLC
Heartbeat CPU 0 instructions: 10000003 cycles: 3178102 heartbeat IPC: 3.14653 cumulative IPC: 3.14653 (Simulation time: 0 hr 2 min 44 sec) 
Heartbeat CPU 1 instructions: 10000003 cycles: 3178119 heartbeat IPC: 3.14652 cumulative IPC: 3.14652 (Simulation time: 0 hr 2 min 44 sec) 
Heartbeat CPU 2 instructions: 10000003 cycles: 3178132 heartbeat IPC: 3.1465 cumulative IPC: 3.1465 (Simulation time: 0 hr 2 min 44 sec) 
Heartbeat CPU 3 instructions: 10000003 cycles: 3178154 heartbeat IPC: 3.14648 cumulative IPC: 3.14648 (Simulation time: 0 hr 2 min 44 sec) 
Heartbeat CPU 0 instructions: 20000000 cycles: 6354256 heartbeat IPC: 3.14846 cumulative IPC: 3.1475 (Simulation time: 0 hr 5 min 37 sec) 
Heartbeat CPU 1 instructions: 20000000 cycles: 6354276 heartbeat IPC: 3.14846 cumulative IPC: 3.14749 (Simulation time: 0 hr 5 min 37 sec) 
Heartbeat CPU 2 instructions: 20000000 cycles: 6354288 heartbeat IPC: 3.14846 cumulative IPC: 3.14748 (Simulation time: 0 hr 5 min 37 sec) 
Heartbeat CPU 3 instructions: 20000000 cycles: 6354308 heartbeat IPC: 3.14846 cumulative IPC: 3.14747 (Simulation time: 0 hr 5 min 37 sec) 
Heartbeat CPU 0 instructions: 30000002 cycles: 9538067 heartbeat IPC: 3.14089 cumulative IPC: 3.14529 (Simulation time: 0 hr 8 min 42 sec) 
Heartbeat CPU 1 instructions: 30000002 cycles: 9538084 heartbeat IPC: 3.14089 cumulative IPC: 3.14529 (Simulation time: 0 hr 8 min 42 sec) 
Heartbeat CPU 2 instructions: 30000002 cycles: 9538097 heartbeat IPC: 3.14089 cumulative IPC: 3.14528 (Simulation time: 0 hr 8 min 42 sec) 
Heartbeat CPU 3 instructions: 30000002 cycles: 9538122 heartbeat IPC: 3.14089 cumulative IPC: 3.14527 (Simulation time: 0 hr 8 min 42 sec) 
Heartbeat CPU 0 instructions: 40000002 cycles: 12708082 heartbeat IPC: 3.15456 cumulative IPC: 3.1476 (Simulation time: 0 hr 11 min 46 sec) 
Heartbeat CPU 1 instructions: 40000002 cycles: 12708099 heartbeat IPC: 3.15456 cumulative IPC: 3.1476 (Simulation time: 0 hr 11 min 46 sec) 
Heartbeat CPU 2 instructions: 40000002 cycles: 12708114 heartbeat IPC: 3.15456 cumulative IPC: 3.1476 (Simulation time: 0 hr 11 min 46 sec) 
Heartbeat CPU 3 instructions: 40000002 cycles: 12708134 heartbeat IPC: 3.15456 cumulative IPC: 3.14759 (Simulation time: 0 hr 11 min 46 sec) 
Heartbeat CPU 0 instructions: 50000001 cycles: 15858325 heartbeat IPC: 3.17436 cumulative IPC: 3.15292 (Simulation time: 0 hr 14 min 45 sec) 
Heartbeat CPU 1 instructions: 50000001 cycles: 15858341 heartbeat IPC: 3.17436 cumulative IPC: 3.15292 (Simulation time: 0 hr 14 min 45 sec) 
Heartbeat CPU 2 instructions: 50000003 cycles: 15858357 heartbeat IPC: 3.17436 cumulative IPC: 3.15291 (Simulation time: 0 hr 14 min 45 sec) 
Heartbeat CPU 3 instructions: 50000003 cycles: 15858378 heartbeat IPC: 3.17436 cumulative IPC: 3.15291 (Simulation time: 0 hr 14 min 45 sec) 

Warmup complete CPU 0 instructions: 50000156 cycles: 15858378 (Simulation time: 0 hr 14 min 45 sec) 
Warmup complete CPU 1 instructions: 50000119 cycles: 15858378 (Simulation time: 0 hr 14 min 45 sec) 
Warmup complete CPU 2 instructions: 50000082 cycles: 15858378 (Simulation time: 0 hr 14 min 45 sec) 
Warmup complete CPU 3 instructions: 50000003 cycles: 15858378 (Simulation time: 0 hr 14 min 45 sec) 

Heartbeat CPU 1 instructions: 60000002 cycles: 30895049 heartbeat IPC: 0.665039 cumulative IPC: 0.665033 (Simulation time: 0 hr 18 min 53 sec) 
Heartbeat CPU 2 instructions: 60000002 cycles: 31017611 heartbeat IPC: 0.659663 cumulative IPC: 0.659659 (Simulation time: 0 hr 18 min 56 sec) 
Heartbeat CPU 0 instructions: 60000002 cycles: 31022939 heartbeat IPC: 0.65943 cumulative IPC: 0.659422 (Simulation time: 0 hr 18 min 56 sec) 
Heartbeat CPU 3 instructions: 60000002 cycles: 31065529 heartbeat IPC: 0.657585 cumulative IPC: 0.657585 (Simulation time: 0 hr 18 min 57 sec) 
Heartbeat CPU 1 instructions: 70000001 cycles: 46617585 heartbeat IPC: 0.63603 cumulative IPC: 0.650208 (Simulation time: 0 hr 22 min 50 sec) 
Heartbeat CPU 2 instructions: 70000001 cycles: 46792432 heartbeat IPC: 0.633922 cumulative IPC: 0.646534 (Simulation time: 0 hr 22 min 53 sec) 
Heartbeat CPU 0 instructions: 70000001 cycles: 46911274 heartbeat IPC: 0.629393 cumulative IPC: 0.644057 (Simulation time: 0 hr 22 min 55 sec) 
Heartbeat CPU 3 instructions: 70000001 cycles: 46922299 heartbeat IPC: 0.630645 cumulative IPC: 0.643834 (Simulation time: 0 hr 22 min 55 sec) 
Heartbeat CPU 1 instructions: 80000002 cycles: 62488492 heartbeat IPC: 0.630084 cumulative IPC: 0.643359 (Simulation time: 0 hr 26 min 59 sec) 
Heartbeat CPU 2 instructions: 80000002 cycles: 62647815 heartbeat IPC: 0.630701 cumulative IPC: 0.641169 (Simulation time: 0 hr 27 min 2 sec) 
Heartbeat CPU 3 instructions: 80000002 cycles: 62908661 heartbeat IPC: 0.625533 cumulative IPC: 0.637616 (Simulation time: 0 hr 27 min 7 sec) 
Heartbeat CPU 0 instructions: 80000002 cycles: 63021332 heartbeat IPC: 0.62073 cumulative IPC: 0.636089 (Simulation time: 0 hr 27 min 8 sec) 
Heartbeat CPU 1 instructions: 90000002 cycles: 79314519 heartbeat IPC: 0.594317 cumulative IPC: 0.630355 (Simulation time: 0 hr 31 min 9 sec) 
Heartbeat CPU 2 instructions: 90000002 cycles: 79515063 heartbeat IPC: 0.592865 cumulative IPC: 0.62837 (Simulation time: 0 hr 31 min 12 sec) 
Heartbeat CPU 3 instructions: 90000002 cycles: 79890629 heartbeat IPC: 0.58886 cumulative IPC: 0.624685 (Simulation time: 0 hr 31 min 18 sec) 
Heartbeat CPU 0 instructions: 90000002 cycles: 80206222 heartbeat IPC: 0.581907 cumulative IPC: 0.621619 (Simulation time: 0 hr 31 min 23 sec) 
Heartbeat CPU 1 instructions: 100000000 cycles: 97101195 heartbeat IPC: 0.562218 cumulative IPC: 0.615438 (Simulation time: 0 hr 35 min 13 sec) 
Heartbeat CPU 2 instructions: 100000000 cycles: 97420656 heartbeat IPC: 0.558485 cumulative IPC: 0.613027 (Simulation time: 0 hr 35 min 17 sec) 
Heartbeat CPU 3 instructions: 100000000 cycles: 97916225 heartbeat IPC: 0.554767 cumulative IPC: 0.609326 (Simulation time: 0 hr 35 min 23 sec) 
Heartbeat CPU 0 instructions: 100000000 cycles: 98408873 heartbeat IPC: 0.54937 cumulative IPC: 0.605688 (Simulation time: 0 hr 35 min 29 sec) 
Heartbeat CPU 1 instructions: 110000000 cycles: 115305130 heartbeat IPC: 0.549332 cumulative IPC: 0.603337 (Simulation time: 0 hr 39 min 24 sec) 
Heartbeat CPU 2 instructions: 110000000 cycles: 115927070 heartbeat IPC: 0.540353 cumulative IPC: 0.599587 (Simulation time: 0 hr 39 min 32 sec) 
Heartbeat CPU 3 instructions: 110000000 cycles: 116464242 heartbeat IPC: 0.539141 cumulative IPC: 0.596387 (Simulation time: 0 hr 39 min 39 sec) 
Heartbeat CPU 0 instructions: 110000000 cycles: 117103893 heartbeat IPC: 0.534902 cumulative IPC: 0.592617 (Simulation time: 0 hr 39 min 49 sec) 
Heartbeat CPU 1 instructions: 120000000 cycles: 135117779 heartbeat IPC: 0.504728 cumulative IPC: 0.586955 (Simulation time: 0 hr 43 min 39 sec) 
Heartbeat CPU 2 instructions: 120000000 cycles: 135929147 heartbeat IPC: 0.499948 cumulative IPC: 0.582989 (Simulation time: 0 hr 43 min 48 sec) 
Heartbeat CPU 3 instructions: 120000000 cycles: 136572546 heartbeat IPC: 0.497307 cumulative IPC: 0.579882 (Simulation time: 0 hr 43 min 54 sec) 
Heartbeat CPU 0 instructions: 120000000 cycles: 137401297 heartbeat IPC: 0.492674 cumulative IPC: 0.575927 (Simulation time: 0 hr 44 min 3 sec) 
Heartbeat CPU 1 instructions: 130000000 cycles: 156141436 heartbeat IPC: 0.475655 cumulative IPC: 0.570275 (Simulation time: 0 hr 47 min 44 sec) 
Heartbeat CPU 2 instructions: 130000000 cycles: 157083778 heartbeat IPC: 0.47271 cumulative IPC: 0.56647 (Simulation time: 0 hr 47 min 57 sec) 
Heartbeat CPU 3 instructions: 130000000 cycles: 157843754 heartbeat IPC: 0.470119 cumulative IPC: 0.563438 (Simulation time: 0 hr 48 min 7 sec) 
Heartbeat CPU 0 instructions: 130000000 cycles: 158701367 heartbeat IPC: 0.469482 cumulative IPC: 0.560054 (Simulation time: 0 hr 48 min 17 sec) 
Heartbeat CPU 1 instructions: 140000000 cycles: 178286154 heartbeat IPC: 0.451575 cumulative IPC: 0.554092 (Simulation time: 0 hr 52 min 6 sec) 
Heartbeat CPU 2 instructions: 140000000 cycles: 179194526 heartbeat IPC: 0.452269 cumulative IPC: 0.55101 (Simulation time: 0 hr 52 min 17 sec) 
Heartbeat CPU 3 instructions: 140000000 cycles: 179958458 heartbeat IPC: 0.452188 cumulative IPC: 0.548446 (Simulation time: 0 hr 52 min 26 sec) 
Heartbeat CPU 0 instructions: 140000000 cycles: 180794117 heartbeat IPC: 0.452637 cumulative IPC: 0.545666 (Simulation time: 0 hr 52 min 38 sec) 
Heartbeat CPU 1 instructions: 150000000 cycles: 202731348 heartbeat IPC: 0.409078 cumulative IPC: 0.535122 (Simulation time: 0 hr 56 min 17 sec) 
Heartbeat CPU 2 instructions: 150000000 cycles: 203601987 heartbeat IPC: 0.409711 cumulative IPC: 0.532641 (Simulation time: 0 hr 56 min 24 sec) 
Heartbeat CPU 3 instructions: 150000000 cycles: 204508037 heartbeat IPC: 0.407339 cumulative IPC: 0.530083 (Simulation time: 0 hr 56 min 32 sec) 
Heartbeat CPU 0 instructions: 150000000 cycles: 205361094 heartbeat IPC: 0.40705 cumulative IPC: 0.527696 (Simulation time: 0 hr 56 min 40 sec) 
Heartbeat CPU 1 instructions: 160000000 cycles: 224855529 heartbeat IPC: 0.451994 cumulative IPC: 0.526322 (Simulation time: 1 hr 0 min 19 sec) 
Heartbeat CPU 2 instructions: 160000000 cycles: 225735310 heartbeat IPC: 0.451807 cumulative IPC: 0.524116 (Simulation time: 1 hr 0 min 28 sec) 
Heartbeat CPU 3 instructions: 160000000 cycles: 226636240 heartbeat IPC: 0.451912 cumulative IPC: 0.521876 (Simulation time: 1 hr 0 min 36 sec) 
Heartbeat CPU 0 instructions: 160000000 cycles: 227504745 heartbeat IPC: 0.451597 cumulative IPC: 0.519734 (Simulation time: 1 hr 0 min 45 sec) 
Heartbeat CPU 1 instructions: 170000002 cycles: 251442967 heartbeat IPC: 0.376118 cumulative IPC: 0.509371 (Simulation time: 1 hr 4 min 38 sec) 
Heartbeat CPU 2 instructions: 170000002 cycles: 252359601 heartbeat IPC: 0.375597 cumulative IPC: 0.507397 (Simulation time: 1 hr 4 min 48 sec) 
Heartbeat CPU 3 instructions: 170000002 cycles: 253355835 heartbeat IPC: 0.374257 cumulative IPC: 0.505269 (Simulation time: 1 hr 5 min 0 sec) 
Heartbeat CPU 0 instructions: 170000002 cycles: 254252913 heartbeat IPC: 0.373857 cumulative IPC: 0.503367 (Simulation time: 1 hr 5 min 7 sec) 
Heartbeat CPU 1 instructions: 180000000 cycles: 280322273 heartbeat IPC: 0.346269 cumulative IPC: 0.49156 (Simulation time: 1 hr 9 min 14 sec) 
Heartbeat CPU 2 instructions: 180000000 cycles: 281086760 heartbeat IPC: 0.348103 cumulative IPC: 0.490143 (Simulation time: 1 hr 9 min 19 sec) 
Heartbeat CPU 3 instructions: 180000000 cycles: 282166708 heartbeat IPC: 0.347091 cumulative IPC: 0.488156 (Simulation time: 1 hr 9 min 29 sec) 
Heartbeat CPU 0 instructions: 180000000 cycles: 283101261 heartbeat IPC: 0.34664 cumulative IPC: 0.486448 (Simulation time: 1 hr 9 min 39 sec) 
Heartbeat CPU 1 instructions: 190000001 cycles: 311637111 heartbeat IPC: 0.319337 cumulative IPC: 0.473326 (Simulation time: 1 hr 13 min 41 sec) 
Heartbeat CPU 2 instructions: 190000001 cycles: 312322232 heartbeat IPC: 0.320149 cumulative IPC: 0.472233 (Simulation time: 1 hr 13 min 46 sec) 
Heartbeat CPU 3 instructions: 190000001 cycles: 313464845 heartbeat IPC: 0.319508 cumulative IPC: 0.47042 (Simulation time: 1 hr 13 min 56 sec) 
Heartbeat CPU 0 instructions: 190000001 cycles: 314422464 heartbeat IPC: 0.319273 cumulative IPC: 0.468911 (Simulation time: 1 hr 14 min 4 sec) 
Heartbeat CPU 1 instructions: 200000001 cycles: 343977345 heartbeat IPC: 0.309212 cumulative IPC: 0.457151 (Simulation time: 1 hr 18 min 9 sec) 
Heartbeat CPU 2 instructions: 200000001 cycles: 344757190 heartbeat IPC: 0.308309 cumulative IPC: 0.456067 (Simulation time: 1 hr 18 min 16 sec) 
Heartbeat CPU 3 instructions: 200000001 cycles: 345770467 heartbeat IPC: 0.309544 cumulative IPC: 0.454667 (Simulation time: 1 hr 18 min 25 sec) 
Heartbeat CPU 0 instructions: 200000001 cycles: 346716331 heartbeat IPC: 0.309656 cumulative IPC: 0.453366 (Simulation time: 1 hr 18 min 34 sec) 
Heartbeat CPU 1 instructions: 210000001 cycles: 379664019 heartbeat IPC: 0.280217 cumulative IPC: 0.439795 (Simulation time: 1 hr 22 min 52 sec) 
Heartbeat CPU 2 instructions: 210000001 cycles: 380487768 heartbeat IPC: 0.279872 cumulative IPC: 0.438801 (Simulation time: 1 hr 22 min 59 sec) 
Heartbeat CPU 3 instructions: 210000001 cycles: 381471946 heartbeat IPC: 0.2801 cumulative IPC: 0.437621 (Simulation time: 1 hr 23 min 6 sec) 
Heartbeat CPU 0 instructions: 210000001 cycles: 382438917 heartbeat IPC: 0.279935 cumulative IPC: 0.436466 (Simulation time: 1 hr 23 min 13 sec) 
Heartbeat CPU 1 instructions: 220000000 cycles: 415542679 heartbeat IPC: 0.278717 cumulative IPC: 0.425335 (Simulation time: 1 hr 27 min 19 sec) 
Heartbeat CPU 2 instructions: 220000000 cycles: 416335378 heartbeat IPC: 0.278959 cumulative IPC: 0.424494 (Simulation time: 1 hr 27 min 23 sec) 
Heartbeat CPU 3 instructions: 220000000 cycles: 417322463 heartbeat IPC: 0.278936 cumulative IPC: 0.42345 (Simulation time: 1 hr 27 min 29 sec) 
Heartbeat CPU 0 instructions: 220000000 cycles: 418363315 heartbeat IPC: 0.278362 cumulative IPC: 0.422355 (Simulation time: 1 hr 27 min 37 sec) 
Heartbeat CPU 1 instructions: 230000001 cycles: 451083832 heartbeat IPC: 0.281364 cumulative IPC: 0.413578 (Simulation time: 1 hr 32 min 8 sec) 
Heartbeat CPU 2 instructions: 230000001 cycles: 451993997 heartbeat IPC: 0.280437 cumulative IPC: 0.412715 (Simulation time: 1 hr 32 min 15 sec) 
Heartbeat CPU 3 instructions: 230000001 cycles: 452992389 heartbeat IPC: 0.280348 cumulative IPC: 0.411773 (Simulation time: 1 hr 32 min 24 sec) 
Heartbeat CPU 0 instructions: 230000001 cycles: 454186427 heartbeat IPC: 0.279149 cumulative IPC: 0.410651 (Simulation time: 1 hr 32 min 34 sec) 
Heartbeat CPU 1 instructions: 240000002 cycles: 482610372 heartbeat IPC: 0.317193 cumulative IPC: 0.407068 (Simulation time: 1 hr 37 min 3 sec) 
Heartbeat CPU 2 instructions: 240000002 cycles: 483742757 heartbeat IPC: 0.314973 cumulative IPC: 0.406083 (Simulation time: 1 hr 37 min 20 sec) 
Heartbeat CPU 3 instructions: 240000002 cycles: 484749353 heartbeat IPC: 0.314892 cumulative IPC: 0.405211 (Simulation time: 1 hr 37 min 37 sec) 
Heartbeat CPU 0 instructions: 240000002 cycles: 485922890 heartbeat IPC: 0.315095 cumulative IPC: 0.4042 (Simulation time: 1 hr 37 min 56 sec) 
*** Reached end of trace for Core: 1 Repeating trace: ./traces/ligra/ligra_Triangle.com-lj.ungraph.gcc_6.3.0_O3.drop_25000M.length_250M.champsimtrace.xz
Heartbeat CPU 1 instructions: 250000002 cycles: 510236108 heartbeat IPC: 0.361981 cumulative IPC: 0.404549 (Simulation time: 1 hr 44 min 25 sec) 
Finished CPU 1 instructions: 200000001 cycles: 494381596 cumulative IPC: 0.404546 (Simulation time: 1 hr 44 min 25 sec) 
*** Reached end of trace for Core: 2 Repeating trace: ./traces/ligra/ligra_Triangle.com-lj.ungraph.gcc_6.3.0_O3.drop_25000M.length_250M.champsimtrace.xz
Heartbeat CPU 2 instructions: 250000002 cycles: 511379485 heartbeat IPC: 0.361837 cumulative IPC: 0.403615 (Simulation time: 1 hr 44 min 41 sec) 
Finished CPU 2 instructions: 200000003 cycles: 495524556 cumulative IPC: 0.403613 (Simulation time: 1 hr 44 min 41 sec) 
*** Reached end of trace for Core: 3 Repeating trace: ./traces/ligra/ligra_Triangle.com-lj.ungraph.gcc_6.3.0_O3.drop_25000M.length_250M.champsimtrace.xz
Heartbeat CPU 3 instructions: 250000002 cycles: 512398494 heartbeat IPC: 0.361675 cumulative IPC: 0.402787 (Simulation time: 1 hr 44 min 56 sec) 
Finished CPU 3 instructions: 200000000 cycles: 496540117 cumulative IPC: 0.402787 (Simulation time: 1 hr 44 min 56 sec) 
*** Reached end of trace for Core: 0 Repeating trace: ./traces/ligra/ligra_Triangle.com-lj.ungraph.gcc_6.3.0_O3.drop_25000M.length_250M.champsimtrace.xz
Heartbeat CPU 0 instructions: 250000002 cycles: 513603124 heartbeat IPC: 0.361269 cumulative IPC: 0.401812 (Simulation time: 1 hr 45 min 14 sec) 
Finished CPU 0 instructions: 200000002 cycles: 497749429 cumulative IPC: 0.401809 (Simulation time: 1 hr 45 min 14 sec) 

ChampSim completed all CPUs

Total Simulation Statistics (not including warmup)

CPU 0 cumulative IPC: 0.401809 instructions: 200000002 cycles: 497749429
ITLB TOTAL     ACCESS:   36463770  HIT:   36463763  MISS:          7  HIT %:        100  MISS %: 1.91971e-05   MPKI: 3.5e-05
ITLB LOAD      ACCESS:          0  HIT:          0  MISS:          0  HIT %:       -nan  MISS %:       -nan   MPKI: 0
ITLB RFO       ACCESS:          0  HIT:          0  MISS:          0  HIT %:       -nan  MISS %:       -nan   MPKI: 0
ITLB PREFETCH  ACCESS:          0  HIT:          0  MISS:          0  HIT %:       -nan  MISS %:       -nan   MPKI: 0
ITLB WRITEBACK ACCESS:          0  HIT:          0  MISS:          0  HIT %:       -nan  MISS %:       -nan   MPKI: 0
DTLB TOTAL     ACCESS:   45909483  HIT:   41718236  MISS:    4191247  HIT %:    90.8706  MISS %:    9.12937   MPKI: 20.9562
DTLB LOAD      ACCESS:          0  HIT:          0  MISS:          0  HIT %:       -nan  MISS %:       -nan   MPKI: 0
DTLB RFO       ACCESS:          0  HIT:          0  MISS:          0  HIT %:       -nan  MISS %:       -nan   MPKI: 0
DTLB PREFETCH  ACCESS:          0  HIT:          0  MISS:          0  HIT %:       -nan  MISS %:       -nan   MPKI: 0
DTLB WRITEBACK ACCESS:          0  HIT:          0  MISS:          0  HIT %:       -nan  MISS %:       -nan   MPKI: 0
STLB TOTAL     ACCESS:   16680637  HIT:   16647466  MISS:      33171  HIT %:    99.8011  MISS %:   0.198859   MPKI: 0.165855
STLB LOAD      ACCESS:          0  HIT:          0  MISS:          0  HIT %:       -nan  MISS %:       -nan   MPKI: 0
STLB RFO       ACCESS:          0  HIT:          0  MISS:          0  HIT %:       -nan  MISS %:       -nan   MPKI: 0
STLB PREFETCH  ACCESS:          0  HIT:          0  MISS:          0  HIT %:       -nan  MISS %:       -nan   MPKI: 0
STLB WRITEBACK ACCESS:          0  HIT:          0  MISS:          0  HIT %:       -nan  MISS %:       -nan   MPKI: 0
L1D TOTAL     ACCESS:  112003014  HIT:  105055577  MISS:    6947437  HIT %:    93.7971  MISS %:     6.2029   MPKI: 34.7372
L1D LOAD      ACCESS:   44206587  HIT:   39298436  MISS:    4908151  HIT %:    88.8972  MISS %:    11.1028   MPKI: 24.5408
L1D RFO       ACCESS:    5069696  HIT:    5069388  MISS:        308  HIT %:    99.9939  MISS %: 0.00607531   MPKI: 0.00154
L1D PREFETCH  ACCESS:   62726731  HIT:   60687753  MISS:    2038978  HIT %:    96.7494  MISS %:    3.25057   MPKI: 10.1949
L1D WRITEBACK ACCESS:          0  HIT:          0  MISS:          0  HIT %:       -nan  MISS %:       -nan   MPKI: 0
L1I TOTAL     ACCESS:   38999653  HIT:   38999609  MISS:         44  HIT %:    99.9999  MISS %: 0.000112822   MPKI: 0.00022
L1I LOAD      ACCESS:   38999653  HIT:   38999609  MISS:         44  HIT %:    99.9999  MISS %: 0.000112822   MPKI: 0.00022
L1I RFO       ACCESS:          0  HIT:          0  MISS:          0  HIT %:       -nan  MISS %:       -nan   MPKI: 0
L1I PREFETCH  ACCESS:          0  HIT:          0  MISS:          0  HIT %:       -nan  MISS %:       -nan   MPKI: 0
L1I WRITEBACK ACCESS:          0  HIT:          0  MISS:          0  HIT %:       -nan  MISS %:       -nan   MPKI: 0
L2C TOTAL     ACCESS:   18891128  HIT:   12943764  MISS:    5947364  HIT %:    68.5177  MISS %:    31.4823   MPKI: 29.7368
L2C LOAD      ACCESS:    4903176  HIT:    1110624  MISS:    3792552  HIT %:    22.6511  MISS %:    77.3489   MPKI: 18.9628
L2C RFO       ACCESS:        308  HIT:         24  MISS:        284  HIT %:    7.79221  MISS %:    92.2078   MPKI: 0.00142
L2C PREFETCH  ACCESS:    4575257  HIT:    2425510  MISS:    2149747  HIT %:    53.0136  MISS %:    46.9864   MPKI: 10.7487
L2C WRITEBACK ACCESS:        341  HIT:        291  MISS:         50  HIT %:    85.3372  MISS %:    14.6628   MPKI: 0.00025
PSCL5 TOTAL     ACCESS:    9411995  HIT:    9411995  MISS:          0  HIT %:        100  MISS %:          0   MPKI: 0
PSCL5 LOAD      ACCESS:          0  HIT:          0  MISS:          0  HIT %:       -nan  MISS %:       -nan   MPKI: 0
PSCL5 RFO       ACCESS:          0  HIT:          0  MISS:          0  HIT %:       -nan  MISS %:       -nan   MPKI: 0
PSCL5 PREFETCH  ACCESS:          0  HIT:          0  MISS:          0  HIT %:       -nan  MISS %:       -nan   MPKI: 0
PSCL5 WRITEBACK ACCESS:          0  HIT:          0  MISS:          0  HIT %:       -nan  MISS %:       -nan   MPKI: 0
PSCL4 TOTAL     ACCESS:    9411995  HIT:    9411995  MISS:          0  HIT %:        100  MISS %:          0   MPKI: 0
PSCL4 LOAD      ACCESS:          0  HIT:          0  MISS:          0  HIT %:       -nan  MISS %:       -nan   MPKI: 0
PSCL4 RFO       ACCESS:          0  HIT:          0  MISS:          0  HIT %:       -nan  MISS %:       -nan   MPKI: 0
PSCL4 PREFETCH  ACCESS:          0  HIT:          0  MISS:          0  HIT %:       -nan  MISS %:       -nan   MPKI: 0
PSCL4 WRITEBACK ACCESS:          0  HIT:          0  MISS:          0  HIT %:       -nan  MISS %:       -nan   MPKI: 0
PSCL3 TOTAL     ACCESS:    9411995  HIT:    9411995  MISS:          0  HIT %:        100  MISS %:          0   MPKI: 0
PSCL3 LOAD      ACCESS:          0  HIT:          0  MISS:          0  HIT %:       -nan  MISS %:       -nan   MPKI: 0
PSCL3 RFO       ACCESS:          0  HIT:          0  MISS:          0  HIT %:       -nan  MISS %:       -nan   MPKI: 0
PSCL3 PREFETCH  ACCESS:          0  HIT:          0  MISS:          0  HIT %:       -nan  MISS %:       -nan   MPKI: 0
PSCL3 WRITEBACK ACCESS:          0  HIT:          0  MISS:          0  HIT %:       -nan  MISS %:       -nan   MPKI: 0
PSCL2 TOTAL     ACCESS:    9102094  HIT:    9102014  MISS:         80  HIT %:    99.9991  MISS %: 0.000878919   MPKI: 0.0004
PSCL2 LOAD      ACCESS:          0  HIT:          0  MISS:          0  HIT %:       -nan  MISS %:       -nan   MPKI: 0
PSCL2 RFO       ACCESS:          0  HIT:          0  MISS:          0  HIT %:       -nan  MISS %:       -nan   MPKI: 0
PSCL2 PREFETCH  ACCESS:          0  HIT:          0  MISS:          0  HIT %:       -nan  MISS %:       -nan   MPKI: 0
PSCL2 WRITEBACK ACCESS:          0  HIT:          0  MISS:          0  HIT %:       -nan  MISS %:       -nan   MPKI: 0
LLC TOTAL     ACCESS:    5947649  HIT:    2656768  MISS:    3290881  HIT %:    44.6692  MISS %:    55.3308   MPKI: 16.4544
LLC LOAD      ACCESS:    3791047  HIT:    2601705  MISS:    1189342  HIT %:    68.6276  MISS %:    31.3724   MPKI: 5.94671
LLC RFO       ACCESS:        284  HIT:          0  MISS:        284  HIT %:          0  MISS %:        100   MPKI: 0.00142
LLC PREFETCH  ACCESS:    2151253  HIT:      54358  MISS:    2096895  HIT %:    2.52681  MISS %:    97.4732   MPKI: 10.4845
LLC WRITEBACK ACCESS:        334  HIT:        274  MISS:         60  HIT %:    82.0359  MISS %:    17.9641   MPKI: 0.0003

RAW hits: 2
Loads Generated: 60154035
Loads sent to L1D: 60154033
Stores Generated: 5069701
Stores sent to L1D: 5069701

CPU 1 cumulative IPC: 0.405031 instructions: 201603749 cycles: 497749429
ITLB TOTAL     ACCESS:   36734128  HIT:   36734121  MISS:          7  HIT %:        100  MISS %: 1.90558e-05   MPKI: 3.47216e-05
ITLB LOAD      ACCESS:          0  HIT:          0  MISS:          0  HIT %:       -nan  MISS %:       -nan   MPKI: 0
ITLB RFO       ACCESS:          0  HIT:          0  MISS:          0  HIT %:       -nan  MISS %:       -nan   MPKI: 0
ITLB PREFETCH  ACCESS:          0  HIT:          0  MISS:          0  HIT %:       -nan  MISS %:       -nan   MPKI: 0
ITLB WRITEBACK ACCESS:          0  HIT:          0  MISS:          0  HIT %:       -nan  MISS %:       -nan   MPKI: 0
DTLB TOTAL     ACCESS:   46283441  HIT:   42051651  MISS:    4231790  HIT %:    90.8568  MISS %:    9.14321   MPKI: 20.9906
DTLB LOAD      ACCESS:          0  HIT:          0  MISS:          0  HIT %:       -nan  MISS %:       -nan   MPKI: 0
DTLB RFO       ACCESS:          0  HIT:          0  MISS:          0  HIT %:       -nan  MISS %:       -nan   MPKI: 0
DTLB PREFETCH  ACCESS:          0  HIT:          0  MISS:          0  HIT %:       -nan  MISS %:       -nan   MPKI: 0
DTLB WRITEBACK ACCESS:          0  HIT:          0  MISS:          0  HIT %:       -nan  MISS %:       -nan   MPKI: 0
STLB TOTAL     ACCESS:   17023677  HIT:   16990048  MISS:      33629  HIT %:    99.8025  MISS %:   0.197543   MPKI: 0.166807
STLB LOAD      ACCESS:          0  HIT:          0  MISS:          0  HIT %:       -nan  MISS %:       -nan   MPKI: 0
STLB RFO       ACCESS:          0  HIT:          0  MISS:          0  HIT %:       -nan  MISS %:       -nan   MPKI: 0
STLB PREFETCH  ACCESS:          0  HIT:          0  MISS:          0  HIT %:       -nan  MISS %:       -nan   MPKI: 0
STLB WRITEBACK ACCESS:          0  HIT:          0  MISS:          0  HIT %:       -nan  MISS %:       -nan   MPKI: 0
L1D TOTAL     ACCESS:  113624588  HIT:  106607284  MISS:    7017304  HIT %:    93.8241  MISS %:    6.17587   MPKI: 34.8074
L1D LOAD      ACCESS:   44578601  HIT:   39615170  MISS:    4963431  HIT %:    88.8659  MISS %:    11.1341   MPKI: 24.6197
L1D RFO       ACCESS:    5092533  HIT:    5092224  MISS:        309  HIT %:    99.9939  MISS %: 0.00606771   MPKI: 0.00153271
L1D PREFETCH  ACCESS:   63953454  HIT:   61899890  MISS:    2053564  HIT %:     96.789  MISS %:    3.21103   MPKI: 10.1861
L1D WRITEBACK ACCESS:          0  HIT:          0  MISS:          0  HIT %:       -nan  MISS %:       -nan   MPKI: 0
L1I TOTAL     ACCESS:   39281411  HIT:   39281367  MISS:         44  HIT %:    99.9999  MISS %: 0.000112012   MPKI: 0.00021825
L1I LOAD      ACCESS:   39281411  HIT:   39281367  MISS:         44  HIT %:    99.9999  MISS %: 0.000112012   MPKI: 0.00021825
L1I RFO       ACCESS:          0  HIT:          0  MISS:          0  HIT %:       -nan  MISS %:       -nan   MPKI: 0
L1I PREFETCH  ACCESS:          0  HIT:          0  MISS:          0  HIT %:       -nan  MISS %:       -nan   MPKI: 0
L1I WRITEBACK ACCESS:          0  HIT:          0  MISS:          0  HIT %:       -nan  MISS %:       -nan   MPKI: 0
L2C TOTAL     ACCESS:   18981269  HIT:   12996566  MISS:    5984703  HIT %:    68.4705  MISS %:    31.5295   MPKI: 29.6855
L2C LOAD      ACCESS:    4958471  HIT:    1146621  MISS:    3811850  HIT %:    23.1245  MISS %:    76.8755   MPKI: 18.9076
L2C RFO       ACCESS:        309  HIT:         22  MISS:        287  HIT %:    7.11974  MISS %:    92.8803   MPKI: 0.00142358
L2C PREFETCH  ACCESS:    4691355  HIT:    2523693  MISS:    2167662  HIT %:    53.7945  MISS %:    46.2055   MPKI: 10.7521
L2C WRITEBACK ACCESS:        343  HIT:        285  MISS:         58  HIT %:    83.0904  MISS %:    16.9096   MPKI: 0.000287693
PSCL5 TOTAL     ACCESS:    9330658  HIT:    9330658  MISS:          0  HIT %:        100  MISS %:          0   MPKI: 0
PSCL5 LOAD      ACCESS:          0  HIT:          0  MISS:          0  HIT %:       -nan  MISS %:       -nan   MPKI: 0
PSCL5 RFO       ACCESS:          0  HIT:          0  MISS:          0  HIT %:       -nan  MISS %:       -nan   MPKI: 0
PSCL5 PREFETCH  ACCESS:          0  HIT:          0  MISS:          0  HIT %:       -nan  MISS %:       -nan   MPKI: 0
PSCL5 WRITEBACK ACCESS:          0  HIT:          0  MISS:          0  HIT %:       -nan  MISS %:       -nan   MPKI: 0
PSCL4 TOTAL     ACCESS:    9330658  HIT:    9330658  MISS:          0  HIT %:        100  MISS %:          0   MPKI: 0
PSCL4 LOAD      ACCESS:          0  HIT:          0  MISS:          0  HIT %:       -nan  MISS %:       -nan   MPKI: 0
PSCL4 RFO       ACCESS:          0  HIT:          0  MISS:          0  HIT %:       -nan  MISS %:       -nan   MPKI: 0
PSCL4 PREFETCH  ACCESS:          0  HIT:          0  MISS:          0  HIT %:       -nan  MISS %:       -nan   MPKI: 0
PSCL4 WRITEBACK ACCESS:          0  HIT:          0  MISS:          0  HIT %:       -nan  MISS %:       -nan   MPKI: 0
PSCL3 TOTAL     ACCESS:    9330658  HIT:    9330658  MISS:          0  HIT %:        100  MISS %:          0   MPKI: 0
PSCL3 LOAD      ACCESS:          0  HIT:          0  MISS:          0  HIT %:       -nan  MISS %:       -nan   MPKI: 0
PSCL3 RFO       ACCESS:          0  HIT:          0  MISS:          0  HIT %:       -nan  MISS %:       -nan   MPKI: 0
PSCL3 PREFETCH  ACCESS:          0  HIT:          0  MISS:          0  HIT %:       -nan  MISS %:       -nan   MPKI: 0
PSCL3 WRITEBACK ACCESS:          0  HIT:          0  MISS:          0  HIT %:       -nan  MISS %:       -nan   MPKI: 0
PSCL2 TOTAL     ACCESS:    8995872  HIT:    8995792  MISS:         80  HIT %:    99.9991  MISS %: 0.000889297   MPKI: 0.000396818
PSCL2 LOAD      ACCESS:          0  HIT:          0  MISS:          0  HIT %:       -nan  MISS %:       -nan   MPKI: 0
PSCL2 RFO       ACCESS:          0  HIT:          0  MISS:          0  HIT %:       -nan  MISS %:       -nan   MPKI: 0
PSCL2 PREFETCH  ACCESS:          0  HIT:          0  MISS:          0  HIT %:       -nan  MISS %:       -nan   MPKI: 0
PSCL2 WRITEBACK ACCESS:          0  HIT:          0  MISS:          0  HIT %:       -nan  MISS %:       -nan   MPKI: 0
LLC TOTAL     ACCESS:    5984988  HIT:    2695826  MISS:    3289162  HIT %:    45.0431  MISS %:    54.9569   MPKI: 16.315
LLC LOAD      ACCESS:    3810355  HIT:    2637126  MISS:    1173229  HIT %:    69.2095  MISS %:    30.7905   MPKI: 5.81948
LLC RFO       ACCESS:        287  HIT:          2  MISS:        285  HIT %:   0.696864  MISS %:    99.3031   MPKI: 0.00141366
LLC PREFETCH  ACCESS:    2169157  HIT:      57904  MISS:    2111253  HIT %:    2.66942  MISS %:    97.3306   MPKI: 10.4723
LLC WRITEBACK ACCESS:        343  HIT:        288  MISS:         55  HIT %:     83.965  MISS %:     16.035   MPKI: 0.000272812

RAW hits: 2
Loads Generated: 60689461
Loads sent to L1D: 60689457
Stores Generated: 5092541
Stores sent to L1D: 5092539

CPU 2 cumulative IPC: 0.403703 instructions: 200943066 cycles: 497749429
ITLB TOTAL     ACCESS:   36623063  HIT:   36623056  MISS:          7  HIT %:        100  MISS %: 1.91136e-05   MPKI: 3.48357e-05
ITLB LOAD      ACCESS:          0  HIT:          0  MISS:          0  HIT %:       -nan  MISS %:       -nan   MPKI: 0
ITLB RFO       ACCESS:          0  HIT:          0  MISS:          0  HIT %:       -nan  MISS %:       -nan   MPKI: 0
ITLB PREFETCH  ACCESS:          0  HIT:          0  MISS:          0  HIT %:       -nan  MISS %:       -nan   MPKI: 0
ITLB WRITEBACK ACCESS:          0  HIT:          0  MISS:          0  HIT %:       -nan  MISS %:       -nan   MPKI: 0
DTLB TOTAL     ACCESS:   46124316  HIT:   41910555  MISS:    4213761  HIT %:    90.8643  MISS %:    9.13566   MPKI: 20.9699
DTLB LOAD      ACCESS:          0  HIT:          0  MISS:          0  HIT %:       -nan  MISS %:       -nan   MPKI: 0
DTLB RFO       ACCESS:          0  HIT:          0  MISS:          0  HIT %:       -nan  MISS %:       -nan   MPKI: 0
DTLB PREFETCH  ACCESS:          0  HIT:          0  MISS:          0  HIT %:       -nan  MISS %:       -nan   MPKI: 0
DTLB WRITEBACK ACCESS:          0  HIT:          0  MISS:          0  HIT %:       -nan  MISS %:       -nan   MPKI: 0
STLB TOTAL     ACCESS:   16730998  HIT:   16697458  MISS:      33540  HIT %:    99.7995  MISS %:   0.200466   MPKI: 0.166913
STLB LOAD      ACCESS:          0  HIT:          0  MISS:          0  HIT %:       -nan  MISS %:       -nan   MPKI: 0
STLB RFO       ACCESS:          0  HIT:          0  MISS:          0  HIT %:       -nan  MISS %:       -nan   MPKI: 0
STLB PREFETCH  ACCESS:          0  HIT:          0  MISS:          0  HIT %:       -nan  MISS %:       -nan   MPKI: 0
STLB WRITEBACK ACCESS:          0  HIT:          0  MISS:          0  HIT %:       -nan  MISS %:       -nan   MPKI: 0
L1D TOTAL     ACCESS:  112244652  HIT:  105255680  MISS:    6988972  HIT %:    93.7734  MISS %:    6.22655   MPKI: 34.7809
L1D LOAD      ACCESS:   44421325  HIT:   39481027  MISS:    4940298  HIT %:    88.8785  MISS %:    11.1215   MPKI: 24.5856
L1D RFO       ACCESS:    5082808  HIT:    5082499  MISS:        309  HIT %:    99.9939  MISS %: 0.00607932   MPKI: 0.00153775
L1D PREFETCH  ACCESS:   62740519  HIT:   60692154  MISS:    2048365  HIT %:    96.7352  MISS %:    3.26482   MPKI: 10.1938
L1D WRITEBACK ACCESS:          0  HIT:          0  MISS:          0  HIT %:       -nan  MISS %:       -nan   MPKI: 0
L1I TOTAL     ACCESS:   39165486  HIT:   39165442  MISS:         44  HIT %:    99.9999  MISS %: 0.000112344   MPKI: 0.000218967
L1I LOAD      ACCESS:   39165486  HIT:   39165442  MISS:         44  HIT %:    99.9999  MISS %: 0.000112344   MPKI: 0.000218967
L1I RFO       ACCESS:          0  HIT:          0  MISS:          0  HIT %:       -nan  MISS %:       -nan   MPKI: 0
L1I PREFETCH  ACCESS:          0  HIT:          0  MISS:          0  HIT %:       -nan  MISS %:       -nan   MPKI: 0
L1I WRITEBACK ACCESS:          0  HIT:          0  MISS:          0  HIT %:       -nan  MISS %:       -nan   MPKI: 0
L2C TOTAL     ACCESS:   19102891  HIT:   13131007  MISS:    5971884  HIT %:    68.7383  MISS %:    31.2617   MPKI: 29.7193
L2C LOAD      ACCESS:    4935446  HIT:    1127247  MISS:    3808199  HIT %:    22.8398  MISS %:    77.1602   MPKI: 18.9516
L2C RFO       ACCESS:        309  HIT:         21  MISS:        288  HIT %:    6.79612  MISS %:    93.2039   MPKI: 0.00143324
L2C PREFETCH  ACCESS:    4587861  HIT:    2429258  MISS:    2158603  HIT %:    52.9497  MISS %:    47.0503   MPKI: 10.7424
L2C WRITEBACK ACCESS:        343  HIT:        291  MISS:         52  HIT %:    84.8397  MISS %:    15.1603   MPKI: 0.00025878
PSCL5 TOTAL     ACCESS:    9578904  HIT:    9578904  MISS:          0  HIT %:        100  MISS %:          0   MPKI: 0
PSCL5 LOAD      ACCESS:          0  HIT:          0  MISS:          0  HIT %:       -nan  MISS %:       -nan   MPKI: 0
PSCL5 RFO       ACCESS:          0  HIT:          0  MISS:          0  HIT %:       -nan  MISS %:       -nan   MPKI: 0
PSCL5 PREFETCH  ACCESS:          0  HIT:          0  MISS:          0  HIT %:       -nan  MISS %:       -nan   MPKI: 0
PSCL5 WRITEBACK ACCESS:          0  HIT:          0  MISS:          0  HIT %:       -nan  MISS %:       -nan   MPKI: 0
PSCL4 TOTAL     ACCESS:    9578904  HIT:    9578904  MISS:          0  HIT %:        100  MISS %:          0   MPKI: 0
PSCL4 LOAD      ACCESS:          0  HIT:          0  MISS:          0  HIT %:       -nan  MISS %:       -nan   MPKI: 0
PSCL4 RFO       ACCESS:          0  HIT:          0  MISS:          0  HIT %:       -nan  MISS %:       -nan   MPKI: 0
PSCL4 PREFETCH  ACCESS:          0  HIT:          0  MISS:          0  HIT %:       -nan  MISS %:       -nan   MPKI: 0
PSCL4 WRITEBACK ACCESS:          0  HIT:          0  MISS:          0  HIT %:       -nan  MISS %:       -nan   MPKI: 0
PSCL3 TOTAL     ACCESS:    9578904  HIT:    9578904  MISS:          0  HIT %:        100  MISS %:          0   MPKI: 0
PSCL3 LOAD      ACCESS:          0  HIT:          0  MISS:          0  HIT %:       -nan  MISS %:       -nan   MPKI: 0
PSCL3 RFO       ACCESS:          0  HIT:          0  MISS:          0  HIT %:       -nan  MISS %:       -nan   MPKI: 0
PSCL3 PREFETCH  ACCESS:          0  HIT:          0  MISS:          0  HIT %:       -nan  MISS %:       -nan   MPKI: 0
PSCL3 WRITEBACK ACCESS:          0  HIT:          0  MISS:          0  HIT %:       -nan  MISS %:       -nan   MPKI: 0
PSCL2 TOTAL     ACCESS:    9250256  HIT:    9250176  MISS:         80  HIT %:    99.9991  MISS %: 0.000864841   MPKI: 0.000398123
PSCL2 LOAD      ACCESS:          0  HIT:          0  MISS:          0  HIT %:       -nan  MISS %:       -nan   MPKI: 0
PSCL2 RFO       ACCESS:          0  HIT:          0  MISS:          0  HIT %:       -nan  MISS %:       -nan   MPKI: 0
PSCL2 PREFETCH  ACCESS:          0  HIT:          0  MISS:          0  HIT %:       -nan  MISS %:       -nan   MPKI: 0
PSCL2 WRITEBACK ACCESS:          0  HIT:          0  MISS:          0  HIT %:       -nan  MISS %:       -nan   MPKI: 0
LLC TOTAL     ACCESS:    5972174  HIT:    2682042  MISS:    3290132  HIT %:     44.909  MISS %:     55.091   MPKI: 16.3735
LLC LOAD      ACCESS:    3806809  HIT:    2626491  MISS:    1180318  HIT %:    68.9946  MISS %:    31.0054   MPKI: 5.87389
LLC RFO       ACCESS:        288  HIT:          1  MISS:        287  HIT %:   0.347222  MISS %:    99.6528   MPKI: 0.00142827
LLC PREFETCH  ACCESS:    2159993  HIT:      54868  MISS:    2105125  HIT %:    2.54019  MISS %:    97.4598   MPKI: 10.4762
LLC WRITEBACK ACCESS:        342  HIT:        272  MISS:         70  HIT %:    79.5322  MISS %:    20.4678   MPKI: 0.000348357

RAW hits: 2
Loads Generated: 60469561
Loads sent to L1D: 60469556
Stores Generated: 5082813
Stores sent to L1D: 5082813

CPU 3 cumulative IPC: 0.402707 instructions: 200447286 cycles: 497749429
ITLB TOTAL     ACCESS:   36539280  HIT:   36539273  MISS:          7  HIT %:        100  MISS %: 1.91575e-05   MPKI: 3.49219e-05
ITLB LOAD      ACCESS:          0  HIT:          0  MISS:          0  HIT %:       -nan  MISS %:       -nan   MPKI: 0
ITLB RFO       ACCESS:          0  HIT:          0  MISS:          0  HIT %:       -nan  MISS %:       -nan   MPKI: 0
ITLB PREFETCH  ACCESS:          0  HIT:          0  MISS:          0  HIT %:       -nan  MISS %:       -nan   MPKI: 0
ITLB WRITEBACK ACCESS:          0  HIT:          0  MISS:          0  HIT %:       -nan  MISS %:       -nan   MPKI: 0
DTLB TOTAL     ACCESS:   46009588  HIT:   41807882  MISS:    4201706  HIT %:    90.8678  MISS %:    9.13224   MPKI: 20.9617
DTLB LOAD      ACCESS:          0  HIT:          0  MISS:          0  HIT %:       -nan  MISS %:       -nan   MPKI: 0
DTLB RFO       ACCESS:          0  HIT:          0  MISS:          0  HIT %:       -nan  MISS %:       -nan   MPKI: 0
DTLB PREFETCH  ACCESS:          0  HIT:          0  MISS:          0  HIT %:       -nan  MISS %:       -nan   MPKI: 0
DTLB WRITEBACK ACCESS:          0  HIT:          0  MISS:          0  HIT %:       -nan  MISS %:       -nan   MPKI: 0
STLB TOTAL     ACCESS:   16843629  HIT:   16810154  MISS:      33475  HIT %:    99.8013  MISS %:    0.19874   MPKI: 0.167002
STLB LOAD      ACCESS:          0  HIT:          0  MISS:          0  HIT %:       -nan  MISS %:       -nan   MPKI: 0
STLB RFO       ACCESS:          0  HIT:          0  MISS:          0  HIT %:       -nan  MISS %:       -nan   MPKI: 0
STLB PREFETCH  ACCESS:          0  HIT:          0  MISS:          0  HIT %:       -nan  MISS %:       -nan   MPKI: 0
STLB WRITEBACK ACCESS:          0  HIT:          0  MISS:          0  HIT %:       -nan  MISS %:       -nan   MPKI: 0
L1D TOTAL     ACCESS:  113249269  HIT:  106281359  MISS:    6967910  HIT %:    93.8473  MISS %:    6.15272   MPKI: 34.7618
L1D LOAD      ACCESS:   44306856  HIT:   39383316  MISS:    4923540  HIT %:    88.8876  MISS %:    11.1124   MPKI: 24.5628
L1D RFO       ACCESS:    5075678  HIT:    5075369  MISS:        309  HIT %:    99.9939  MISS %: 0.00608786   MPKI: 0.00154155
L1D PREFETCH  ACCESS:   63866735  HIT:   61822674  MISS:    2044061  HIT %:    96.7995  MISS %:    3.20051   MPKI: 10.1975
L1D WRITEBACK ACCESS:          0  HIT:          0  MISS:          0  HIT %:       -nan  MISS %:       -nan   MPKI: 0
L1I TOTAL     ACCESS:   39078129  HIT:   39078085  MISS:         44  HIT %:    99.9999  MISS %: 0.000112595   MPKI: 0.000219509
L1I LOAD      ACCESS:   39078129  HIT:   39078085  MISS:         44  HIT %:    99.9999  MISS %: 0.000112595   MPKI: 0.000219509
L1I RFO       ACCESS:          0  HIT:          0  MISS:          0  HIT %:       -nan  MISS %:       -nan   MPKI: 0
L1I PREFETCH  ACCESS:          0  HIT:          0  MISS:          0  HIT %:       -nan  MISS %:       -nan   MPKI: 0
L1I WRITEBACK ACCESS:          0  HIT:          0  MISS:          0  HIT %:       -nan  MISS %:       -nan   MPKI: 0
L2C TOTAL     ACCESS:   18767496  HIT:   12795885  MISS:    5971611  HIT %:    68.1811  MISS %:    31.8189   MPKI: 29.7914
L2C LOAD      ACCESS:    4918570  HIT:    1108252  MISS:    3810318  HIT %:     22.532  MISS %:     77.468   MPKI: 19.0091
L2C RFO       ACCESS:        309  HIT:         23  MISS:        286  HIT %:    7.44337  MISS %:    92.5566   MPKI: 0.00142681
L2C PREFETCH  ACCESS:    4641162  HIT:    2485042  MISS:    2156120  HIT %:    53.5435  MISS %:    46.4565   MPKI: 10.7565
L2C WRITEBACK ACCESS:        343  HIT:        288  MISS:         55  HIT %:     83.965  MISS %:     16.035   MPKI: 0.000274386
PSCL5 TOTAL     ACCESS:    9206992  HIT:    9206992  MISS:          0  HIT %:        100  MISS %:          0   MPKI: 0
PSCL5 LOAD      ACCESS:          0  HIT:          0  MISS:          0  HIT %:       -nan  MISS %:       -nan   MPKI: 0
PSCL5 RFO       ACCESS:          0  HIT:          0  MISS:          0  HIT %:       -nan  MISS %:       -nan   MPKI: 0
PSCL5 PREFETCH  ACCESS:          0  HIT:          0  MISS:          0  HIT %:       -nan  MISS %:       -nan   MPKI: 0
PSCL5 WRITEBACK ACCESS:          0  HIT:          0  MISS:          0  HIT %:       -nan  MISS %:       -nan   MPKI: 0
PSCL4 TOTAL     ACCESS:    9206992  HIT:    9206992  MISS:          0  HIT %:        100  MISS %:          0   MPKI: 0
PSCL4 LOAD      ACCESS:          0  HIT:          0  MISS:          0  HIT %:       -nan  MISS %:       -nan   MPKI: 0
PSCL4 RFO       ACCESS:          0  HIT:          0  MISS:          0  HIT %:       -nan  MISS %:       -nan   MPKI: 0
PSCL4 PREFETCH  ACCESS:          0  HIT:          0  MISS:          0  HIT %:       -nan  MISS %:       -nan   MPKI: 0
PSCL4 WRITEBACK ACCESS:          0  HIT:          0  MISS:          0  HIT %:       -nan  MISS %:       -nan   MPKI: 0
PSCL3 TOTAL     ACCESS:    9206992  HIT:    9206992  MISS:          0  HIT %:        100  MISS %:          0   MPKI: 0
PSCL3 LOAD      ACCESS:          0  HIT:          0  MISS:          0  HIT %:       -nan  MISS %:       -nan   MPKI: 0
PSCL3 RFO       ACCESS:          0  HIT:          0  MISS:          0  HIT %:       -nan  MISS %:       -nan   MPKI: 0
PSCL3 PREFETCH  ACCESS:          0  HIT:          0  MISS:          0  HIT %:       -nan  MISS %:       -nan   MPKI: 0
PSCL3 WRITEBACK ACCESS:          0  HIT:          0  MISS:          0  HIT %:       -nan  MISS %:       -nan   MPKI: 0
PSCL2 TOTAL     ACCESS:    8895291  HIT:    8895211  MISS:         80  HIT %:    99.9991  MISS %: 0.000899352   MPKI: 0.000399107
PSCL2 LOAD      ACCESS:          0  HIT:          0  MISS:          0  HIT %:       -nan  MISS %:       -nan   MPKI: 0
PSCL2 RFO       ACCESS:          0  HIT:          0  MISS:          0  HIT %:       -nan  MISS %:       -nan   MPKI: 0
PSCL2 PREFETCH  ACCESS:          0  HIT:          0  MISS:          0  HIT %:       -nan  MISS %:       -nan   MPKI: 0
PSCL2 WRITEBACK ACCESS:          0  HIT:          0  MISS:          0  HIT %:       -nan  MISS %:       -nan   MPKI: 0
LLC TOTAL     ACCESS:    5971896  HIT:    2681375  MISS:    3290521  HIT %:    44.8999  MISS %:    55.1001   MPKI: 16.4159
LLC LOAD      ACCESS:    3808797  HIT:    2625280  MISS:    1183517  HIT %:    68.9268  MISS %:    31.0732   MPKI: 5.90438
LLC RFO       ACCESS:        286  HIT:          1  MISS:        285  HIT %:    0.34965  MISS %:    99.6503   MPKI: 0.00142182
LLC PREFETCH  ACCESS:    2157641  HIT:      55289  MISS:    2102352  HIT %:    2.56247  MISS %:    97.4375   MPKI: 10.4883
LLC WRITEBACK ACCESS:        340  HIT:        277  MISS:         63  HIT %:    81.4706  MISS %:    18.5294   MPKI: 0.000314297

RAW hits: 2
Loads Generated: 60304167
Loads sent to L1D: 60304165
Stores Generated: 5075683
Stores sent to L1D: 5075683

Region of Interest Statistics

CPU 0 cumulative IPC: 0.401809 instructions: 200000002 cycles: 497749429
ITLB TOTAL     ACCESS:   36463770  HIT:   36463763  MISS:          7  HIT %:        100  MISS %: 1.91971e-05   MPKI: 3.5e-05
ITLB LOAD TRANSLATION ACCESS:   36463770  HIT:   36463763  MISS:          7  HIT %:        100  MISS %: 1.91971e-05   MPKI: 3.5e-05
ITLB PREFETCH  REQUESTED:          0  ISSUED:          0  USEFUL:          0  USELESS:          0
ITLB USEFUL LOAD PREFETCHES:          0 PREFETCH ISSUED TO LOWER LEVEL:          0  ACCURACY: -nan
ITLB TIMELY PREFETCHES:          0 LATE PREFETCHES: 0 DROPPED PREFETCHES: 0
ITLB PREFETCHES SAME FILL-ORIGIN LEVEL: 0 DIFFERENT FILL-ORIGIN LEVEL: 0
ITLB AVERAGE MISS LATENCY: 307.286 cycles
ITLB RQ	ACCESS:   38999658	FORWARD:          0	MERGED:    2535887	TO_CACHE:   36463771

DTLB TOTAL     ACCESS:   45909483  HIT:   41718236  MISS:    4191247  HIT %:    90.8706  MISS %:    9.12937   MPKI: 20.9562
DTLB LOAD TRANSLATION ACCESS:   45909483  HIT:   41718236  MISS:    4191247  HIT %:    90.8706  MISS %:    9.12937   MPKI: 20.9562
DTLB PREFETCH  REQUESTED:          0  ISSUED:          0  USEFUL:          0  USELESS:          0
DTLB USEFUL LOAD PREFETCHES:          0 PREFETCH ISSUED TO LOWER LEVEL:          0  ACCURACY: -nan
DTLB TIMELY PREFETCHES:          0 LATE PREFETCHES: 0 DROPPED PREFETCHES: 0
DTLB PREFETCHES SAME FILL-ORIGIN LEVEL: 0 DIFFERENT FILL-ORIGIN LEVEL: 0
DTLB AVERAGE MISS LATENCY: 10.5235 cycles
DTLB RQ	ACCESS:   49483658	FORWARD:          0	MERGED:    3564052	TO_CACHE:   45919606

STLB TOTAL     ACCESS:   16680637  HIT:   16647466  MISS:      33171  HIT %:    99.8011  MISS %:   0.198859   MPKI: 0.165855
STLB LOAD TRANSLATION ACCESS:    4191254  HIT:    4158084  MISS:      33170  HIT %:    99.2086  MISS %:    0.79141   MPKI: 0.16585
STLB TRANSLATION FROM L1D PREFETCHER ACCESS:   12489383  HIT:   12489382  MISS:          1  HIT %:        100  MISS %: 8.0068e-06   MPKI: 5e-06
STLB PREFETCH  REQUESTED:          0  ISSUED:          0  USEFUL:          0  USELESS:          0
STLB USEFUL LOAD PREFETCHES:          0 PREFETCH ISSUED TO LOWER LEVEL:          0  ACCURACY: -nan
STLB TIMELY PREFETCHES:          0 LATE PREFETCHES: 6794 DROPPED PREFETCHES: 9372030
STLB PREFETCHES SAME FILL-ORIGIN LEVEL: 0 DIFFERENT FILL-ORIGIN LEVEL: 0
STLB AVERAGE MISS LATENCY: 125.01 cycles
STLB RQ	ACCESS:   85994631	FORWARD:          0	MERGED:   59773355	TO_CACHE:   26221276

STLB Hit, L1D data hit: 0
STLB Hit, L2C data hit: 0
STLB Hit, LLC data hit: 0
STLB Hit, LLC data miss: 0
STLB STLB hints to L2: 0
L1D TOTAL     ACCESS:  112003014  HIT:  105055577  MISS:    6947437  HIT %:    93.7971  MISS %:     6.2029   MPKI: 34.7372
L1D LOAD      ACCESS:   44206587  HIT:   39298436  MISS:    4908151  HIT %:    88.8972  MISS %:    11.1028   MPKI: 24.5408
L1D RFO       ACCESS:    5069696  HIT:    5069388  MISS:        308  HIT %:    99.9939  MISS %: 0.00607531   MPKI: 0.00154
L1D PREFETCH  ACCESS:   62726731  HIT:   60687753  MISS:    2038978  HIT %:    96.7494  MISS %:    3.25057   MPKI: 10.1949
L1D PREFETCH  REQUESTED:  365736188  ISSUED:  253281760  USEFUL:    2038338  USELESS:        615
L1D USEFUL LOAD PREFETCHES:    2038338 PREFETCH ISSUED TO LOWER LEVEL:    4955688  ACCURACY: 41.1313
L1D TIMELY PREFETCHES:    2038338 LATE PREFETCHES: 5019 DROPPED PREFETCHES: 12363848
L1D PREFETCHES SAME FILL-ORIGIN LEVEL: 2044003 DIFFERENT FILL-ORIGIN LEVEL: 2911685
L1D AVERAGE MISS LATENCY: 112.049 cycles
L1D RQ	ACCESS:   60154033	FORWARD:          0	MERGED:   15740076	TO_CACHE:   44413957
L1D WQ	ACCESS:    5069701	FORWARD:          0	MERGED:          0	TO_CACHE:    5069701
L1D PQ	ACCESS:  171478383	FORWARD:          0	MERGED:   89675006	TO_CACHE:   81803377

L1D UNIQUE REGIONS ACCESSED: 0
L1D REGIONS CONFLICTS: 0
L1D Cross Page Prefetch Requests: 36791126
L1D Same Page Prefetch Requests: 196525782
L1D ROI Sum of L1D PQ occupancy: 2556829953
L1D PREFETCHES PUSHED FROM L2C: 0
L1I TOTAL     ACCESS:   38999653  HIT:   38999609  MISS:         44  HIT %:    99.9999  MISS %: 0.000112822   MPKI: 0.00022
L1I LOAD      ACCESS:   38999653  HIT:   38999609  MISS:         44  HIT %:    99.9999  MISS %: 0.000112822   MPKI: 0.00022
L1I PREFETCH  REQUESTED:          0  ISSUED:          0  USEFUL:          0  USELESS:          0
L1I USEFUL LOAD PREFETCHES:          0 PREFETCH ISSUED TO LOWER LEVEL:          0  ACCURACY: -nan
L1I TIMELY PREFETCHES:          0 LATE PREFETCHES: 0 DROPPED PREFETCHES: 0
L1I PREFETCHES SAME FILL-ORIGIN LEVEL: 0 DIFFERENT FILL-ORIGIN LEVEL: 0
L1I AVERAGE MISS LATENCY: 172.955 cycles
L1I RQ	ACCESS:   56242304	FORWARD:          0	MERGED:   17242646	TO_CACHE:   38999658

BTB TOTAL     ACCESS:   38922635  HIT:   38922581  MISS:         54  HIT %:    99.9999  MISS %: 0.000138737   MPKI: 0.00027
BTB BRANCH_DIRECT_JUMP	ACCESS:    2533686  HIT:    2533674  MISS:         12
BTB BRANCH_INDIRECT	ACCESS:          0  HIT:          0  MISS:          0
BTB BRANCH_CONDITIONAL	ACCESS:   36388942  HIT:   36388907  MISS:         35
BTB BRANCH_DIRECT_CALL	ACCESS:          3  HIT:          0  MISS:          3
BTB BRANCH_INDIRECT_CALL	ACCESS:          0  HIT:          0  MISS:          0
BTB BRANCH_RETURN	ACCESS:          4  HIT:          0  MISS:          4
BTB BRANCH_OTHER ACCESS:          0  HIT:          0  MISS:          0

L2C TOTAL     ACCESS:   18891128  HIT:   12943764  MISS:    5947364  HIT %:    68.5177  MISS %:    31.4823   MPKI: 29.7368
L2C LOAD      ACCESS:    4903176  HIT:    1110624  MISS:    3792552  HIT %:    22.6511  MISS %:    77.3489   MPKI: 18.9628
L2C DATA LOAD MPKI: 18.9625
L2C INSTRUCTION LOAD MPKI: 0.00022
L2C RFO       ACCESS:        308  HIT:         24  MISS:        284  HIT %:    7.79221  MISS %:    92.2078   MPKI: 0.00142
L2C PREFETCH  ACCESS:    4575257  HIT:    2425510  MISS:    2149747  HIT %:    53.0136  MISS %:    46.9864   MPKI: 10.7487
L2C DATA PREFETCH MPKI: 10.7487
L2C INSTRUCTION PREFETCH MPKI: 0
L2C WRITEBACK ACCESS:        341  HIT:        291  MISS:         50  HIT %:    85.3372  MISS %:    14.6628   MPKI: 0.00025
L2C LOAD TRANSLATION ACCESS:      33177  HIT:      32840  MISS:        337  HIT %:    98.9842  MISS %:    1.01576   MPKI: 0.001685
L2C TRANSLATION FROM L1D PREFETCHER ACCESS:    9378869  HIT:    9374475  MISS:       4394  HIT %:    99.9532  MISS %:    0.04685   MPKI: 0.02197
L2C PREFETCH  REQUESTED:          0  ISSUED:          0  USEFUL:      42205  USELESS:    2105999
L2C USEFUL LOAD PREFETCHES:      42205 PREFETCH ISSUED TO LOWER LEVEL:    2151260  ACCURACY: 1.96187
L2C TIMELY PREFETCHES:      42205 LATE PREFETCHES: 1505 DROPPED PREFETCHES: 0
L2C PREFETCHES SAME FILL-ORIGIN LEVEL: 410080 DIFFERENT FILL-ORIGIN LEVEL: 0
L2C AVERAGE MISS LATENCY: 127.478 cycles
L2C RQ	ACCESS:   14315530	FORWARD:          0	MERGED:          0	TO_CACHE:   14315530
L2C WQ	ACCESS:        341	FORWARD:          0	MERGED:          0	TO_CACHE:        341
L2C PQ	ACCESS:    4955678	FORWARD:          0	MERGED:        224	TO_CACHE:    4955454

L2C Instructions Evicting Data 44
L2C Translations Evicting Data 4729
L2C Data Evicting Data 5937799
L2C Instructions Evicting Instructions 0
L2C Translations Evicting Instructions 2
L2C Data Evicting Instructions 42
L2C Instructions Evicting Translations 0
L2C Translations Evicting Translations 0
L2C Data Evicting Translations 4698
L2C Dense regions hint from L2: 0
PSCL5 TOTAL     ACCESS:    9411995  HIT:    9411995  MISS:          0  HIT %:        100  MISS %:          0   MPKI: 0
PSCL5 LOAD TRANSLATION ACCESS:      33170  HIT:      33170  MISS:          0  HIT %:        100  MISS %:          0   MPKI: 0
PSCL5 TRANSLATION FROM L1D PREFETCHER ACCESS:    9378825  HIT:    9378825  MISS:          0  HIT %:        100  MISS %:          0   MPKI: 0
PSCL5 PREFETCH  REQUESTED:          0  ISSUED:          0  USEFUL:          0  USELESS:          0
PSCL5 USEFUL LOAD PREFETCHES:          0 PREFETCH ISSUED TO LOWER LEVEL:          0  ACCURACY: -nan
PSCL5 TIMELY PREFETCHES:          0 LATE PREFETCHES: 0 DROPPED PREFETCHES: 0
PSCL5 PREFETCHES SAME FILL-ORIGIN LEVEL: 0 DIFFERENT FILL-ORIGIN LEVEL: 0

PSCL4 TOTAL     ACCESS:    9411995  HIT:    9411995  MISS:          0  HIT %:        100  MISS %:          0   MPKI: 0
PSCL4 LOAD TRANSLATION ACCESS:      33170  HIT:      33170  MISS:          0  HIT %:        100  MISS %:          0   MPKI: 0
PSCL4 TRANSLATION FROM L1D PREFETCHER ACCESS:    9378825  HIT:    9378825  MISS:          0  HIT %:        100  MISS %:          0   MPKI: 0
PSCL4 PREFETCH  REQUESTED:          0  ISSUED:          0  USEFUL:          0  USELESS:          0
PSCL4 USEFUL LOAD PREFETCHES:          0 PREFETCH ISSUED TO LOWER LEVEL:          0  ACCURACY: -nan
PSCL4 TIMELY PREFETCHES:          0 LATE PREFETCHES: 0 DROPPED PREFETCHES: 0
PSCL4 PREFETCHES SAME FILL-ORIGIN LEVEL: 0 DIFFERENT FILL-ORIGIN LEVEL: 0

PSCL3 TOTAL     ACCESS:    9411995  HIT:    9411995  MISS:          0  HIT %:        100  MISS %:          0   MPKI: 0
PSCL3 LOAD TRANSLATION ACCESS:      33170  HIT:      33170  MISS:          0  HIT %:        100  MISS %:          0   MPKI: 0
PSCL3 TRANSLATION FROM L1D PREFETCHER ACCESS:    9378825  HIT:    9378825  MISS:          0  HIT %:        100  MISS %:          0   MPKI: 0
PSCL3 PREFETCH  REQUESTED:          0  ISSUED:          0  USEFUL:          0  USELESS:          0
PSCL3 USEFUL LOAD PREFETCHES:          0 PREFETCH ISSUED TO LOWER LEVEL:          0  ACCURACY: -nan
PSCL3 TIMELY PREFETCHES:          0 LATE PREFETCHES: 0 DROPPED PREFETCHES: 0
PSCL3 PREFETCHES SAME FILL-ORIGIN LEVEL: 0 DIFFERENT FILL-ORIGIN LEVEL: 0

PSCL2 TOTAL     ACCESS:    9102094  HIT:    9102014  MISS:         80  HIT %:    99.9991  MISS %: 0.000878919   MPKI: 0.0004
PSCL2 LOAD TRANSLATION ACCESS:      33170  HIT:      33090  MISS:         80  HIT %:    99.7588  MISS %:   0.241182   MPKI: 0.0004
PSCL2 TRANSLATION FROM L1D PREFETCHER ACCESS:    9068924  HIT:    9068924  MISS:          0  HIT %:        100  MISS %:          0   MPKI: 0
PSCL2 PREFETCH  REQUESTED:          0  ISSUED:          0  USEFUL:          0  USELESS:          0
PSCL2 USEFUL LOAD PREFETCHES:          0 PREFETCH ISSUED TO LOWER LEVEL:          0  ACCURACY: -nan
PSCL2 TIMELY PREFETCHES:          0 LATE PREFETCHES: 0 DROPPED PREFETCHES: 0
PSCL2 PREFETCHES SAME FILL-ORIGIN LEVEL: 0 DIFFERENT FILL-ORIGIN LEVEL: 0

LLC TOTAL     ACCESS:    5947649  HIT:    2656768  MISS:    3290881  HIT %:    44.6692  MISS %:    55.3308   MPKI: 16.4544
LLC LOAD      ACCESS:    3791047  HIT:    2601705  MISS:    1189342  HIT %:    68.6276  MISS %:    31.3724   MPKI: 5.94671
LLC RFO       ACCESS:        284  HIT:          0  MISS:        284  HIT %:          0  MISS %:        100   MPKI: 0.00142
LLC PREFETCH  ACCESS:    2151253  HIT:      54358  MISS:    2096895  HIT %:    2.52681  MISS %:    97.4732   MPKI: 10.4845
LLC WRITEBACK ACCESS:        334  HIT:        274  MISS:         60  HIT %:    82.0359  MISS %:    17.9641   MPKI: 0.0003
LLC LOAD TRANSLATION ACCESS:        337  HIT:        227  MISS:        110  HIT %:    67.3591  MISS %:    32.6409   MPKI: 0.00055
LLC TRANSLATION FROM L1D PREFETCHER ACCESS:       4394  HIT:        204  MISS:       4190  HIT %:    4.64269  MISS %:    95.3573   MPKI: 0.02095
LLC PREFETCH  REQUESTED:          0  ISSUED:          0  USEFUL:      36175  USELESS:    8345550
LLC USEFUL LOAD PREFETCHES:      36175 PREFETCH ISSUED TO LOWER LEVEL:    8415641  ACCURACY: 0.429854
LLC TIMELY PREFETCHES:      36175 LATE PREFETCHES: 0 DROPPED PREFETCHES: 0
LLC PREFETCHES SAME FILL-ORIGIN LEVEL: 0 DIFFERENT FILL-ORIGIN LEVEL: 0
LLC AVERAGE MISS LATENCY: 703.652 cycles
LLC RQ	ACCESS:   15237305	FORWARD:          0	MERGED:          0	TO_CACHE:   15237305
LLC WQ	ACCESS:       1359	FORWARD:          0	MERGED:          0	TO_CACHE:       1359
LLC PQ	ACCESS:    8638061	FORWARD:          0	MERGED:          0	TO_CACHE:    8638061

LLC Dense regions hint to LLC: 0

RAW hits: 2
Loads Generated: 60154035
Loads sent to L1D: 60154033
Stores Generated: 5069701
Stores sent to L1D: 5069701
Major fault: 0 Minor fault: 39674
Allocated PAGES: 158696

CPU 1 cumulative IPC: 0.404546 instructions: 200000001 cycles: 494381596
ITLB TOTAL     ACCESS:   36463524  HIT:   36463517  MISS:          7  HIT %:        100  MISS %: 1.91973e-05   MPKI: 3.5e-05
ITLB LOAD TRANSLATION ACCESS:   36463524  HIT:   36463517  MISS:          7  HIT %:        100  MISS %: 1.91973e-05   MPKI: 3.5e-05
ITLB PREFETCH  REQUESTED:          0  ISSUED:          0  USEFUL:          0  USELESS:          0
ITLB USEFUL LOAD PREFETCHES:          0 PREFETCH ISSUED TO LOWER LEVEL:          0  ACCURACY: -nan
ITLB TIMELY PREFETCHES:          0 LATE PREFETCHES: 0 DROPPED PREFETCHES: 0
ITLB PREFETCHES SAME FILL-ORIGIN LEVEL: 0 DIFFERENT FILL-ORIGIN LEVEL: 0
ITLB AVERAGE MISS LATENCY: 346.714 cycles
ITLB RQ	ACCESS:   39281418	FORWARD:          0	MERGED:    2547289	TO_CACHE:   36734129

DTLB TOTAL     ACCESS:   45915945  HIT:   41724741  MISS:    4191204  HIT %:     90.872  MISS %:    9.12799   MPKI: 20.956
DTLB LOAD TRANSLATION ACCESS:   45915945  HIT:   41724741  MISS:    4191204  HIT %:     90.872  MISS %:    9.12799   MPKI: 20.956
DTLB PREFETCH  REQUESTED:          0  ISSUED:          0  USEFUL:          0  USELESS:          0
DTLB USEFUL LOAD PREFETCHES:          0 PREFETCH ISSUED TO LOWER LEVEL:          0  ACCURACY: -nan
DTLB TIMELY PREFETCHES:          0 LATE PREFETCHES: 0 DROPPED PREFETCHES: 0
DTLB PREFETCHES SAME FILL-ORIGIN LEVEL: 0 DIFFERENT FILL-ORIGIN LEVEL: 0
DTLB AVERAGE MISS LATENCY: 10.6208 cycles
DTLB RQ	ACCESS:   49880011	FORWARD:          0	MERGED:    3586230	TO_CACHE:   46293781

STLB TOTAL     ACCESS:   16769092  HIT:   16735922  MISS:      33170  HIT %:    99.8022  MISS %:   0.197804   MPKI: 0.16585
STLB LOAD TRANSLATION ACCESS:    4191211  HIT:    4158043  MISS:      33168  HIT %:    99.2086  MISS %:    0.79137   MPKI: 0.16584
STLB TRANSLATION FROM L1D PREFETCHER ACCESS:   12577881  HIT:   12577879  MISS:          2  HIT %:        100  MISS %: 1.59009e-05   MPKI: 1e-05
STLB PREFETCH  REQUESTED:          0  ISSUED:          0  USEFUL:        216  USELESS:          0
STLB USEFUL LOAD PREFETCHES:        216 PREFETCH ISSUED TO LOWER LEVEL:          0  ACCURACY: inf
STLB TIMELY PREFETCHES:        216 LATE PREFETCHES: 6725 DROPPED PREFETCHES: 9290305
STLB PREFETCHES SAME FILL-ORIGIN LEVEL: 0 DIFFERENT FILL-ORIGIN LEVEL: 0
STLB AVERAGE MISS LATENCY: 126.069 cycles
STLB RQ	ACCESS:   87322517	FORWARD:          0	MERGED:   60839518	TO_CACHE:   26482999

STLB Hit, L1D data hit: 0
STLB Hit, L2C data hit: 0
STLB Hit, LLC data hit: 0
STLB Hit, LLC data miss: 0
STLB STLB hints to L2: 0
L1D TOTAL     ACCESS:  112495548  HIT:  105548063  MISS:    6947485  HIT %:    93.8242  MISS %:    6.17579   MPKI: 34.7374
L1D LOAD      ACCESS:   44213309  HIT:   39305202  MISS:    4908107  HIT %:     88.899  MISS %:     11.101   MPKI: 24.5405
L1D RFO       ACCESS:    5069695  HIT:    5069387  MISS:        308  HIT %:    99.9939  MISS %: 0.00607532   MPKI: 0.00154
L1D PREFETCH  ACCESS:   63212544  HIT:   61173474  MISS:    2039070  HIT %:    96.7743  MISS %:    3.22574   MPKI: 10.1953
L1D PREFETCH  REQUESTED:  368657693  ISSUED:  257265162  USEFUL:    2050734  USELESS:       2827
L1D USEFUL LOAD PREFETCHES:    2050734 PREFETCH ISSUED TO LOWER LEVEL:    5109870  ACCURACY: 40.1328
L1D TIMELY PREFETCHES:    2050734 LATE PREFETCHES: 5004 DROPPED PREFETCHES: 12282886
L1D PREFETCHES SAME FILL-ORIGIN LEVEL: 2058570 DIFFERENT FILL-ORIGIN LEVEL: 3051300
L1D AVERAGE MISS LATENCY: 112.069 cycles
L1D RQ	ACCESS:   60689457	FORWARD:          0	MERGED:   15901985	TO_CACHE:   44787472
L1D WQ	ACCESS:    5092539	FORWARD:          0	MERGED:          0	TO_CACHE:    5092539
L1D PQ	ACCESS:  174174442	FORWARD:          0	MERGED:   91083722	TO_CACHE:   83090720

L1D UNIQUE REGIONS ACCESSED: 0
L1D REGIONS CONFLICTS: 0
L1D Cross Page Prefetch Requests: 37896508
L1D Same Page Prefetch Requests: 196997086
L1D ROI Sum of L1D PQ occupancy: 2558573015
L1D PREFETCHES PUSHED FROM L2C: 0
L1I TOTAL     ACCESS:   38999388  HIT:   38999344  MISS:         44  HIT %:    99.9999  MISS %: 0.000112822   MPKI: 0.00022
L1I LOAD      ACCESS:   38999388  HIT:   38999344  MISS:         44  HIT %:    99.9999  MISS %: 0.000112822   MPKI: 0.00022
L1I PREFETCH  REQUESTED:          0  ISSUED:          0  USEFUL:          0  USELESS:          0
L1I USEFUL LOAD PREFETCHES:          0 PREFETCH ISSUED TO LOWER LEVEL:          0  ACCURACY: -nan
L1I TIMELY PREFETCHES:          0 LATE PREFETCHES: 0 DROPPED PREFETCHES: 0
L1I PREFETCHES SAME FILL-ORIGIN LEVEL: 0 DIFFERENT FILL-ORIGIN LEVEL: 0
L1I AVERAGE MISS LATENCY: 253.455 cycles
L1I RQ	ACCESS:   56648456	FORWARD:          0	MERGED:   17367038	TO_CACHE:   39281418

BTB TOTAL     ACCESS:   38922636  HIT:   38922581  MISS:         55  HIT %:    99.9999  MISS %: 0.000141306   MPKI: 0.000275
BTB BRANCH_DIRECT_JUMP	ACCESS:    2533686  HIT:    2533674  MISS:         12
BTB BRANCH_INDIRECT	ACCESS:          0  HIT:          0  MISS:          0
BTB BRANCH_CONDITIONAL	ACCESS:   36388943  HIT:   36388907  MISS:         36
BTB BRANCH_DIRECT_CALL	ACCESS:          3  HIT:          0  MISS:          3
BTB BRANCH_INDIRECT_CALL	ACCESS:          0  HIT:          0  MISS:          0
BTB BRANCH_RETURN	ACCESS:          4  HIT:          0  MISS:          4
BTB BRANCH_OTHER ACCESS:          0  HIT:          0  MISS:          0

L2C TOTAL     ACCESS:   18833244  HIT:   12895573  MISS:    5937671  HIT %:    68.4724  MISS %:    31.5276   MPKI: 29.6884
L2C LOAD      ACCESS:    4903154  HIT:    1118693  MISS:    3784461  HIT %:    22.8158  MISS %:    77.1842   MPKI: 18.9223
L2C DATA LOAD MPKI: 18.9221
L2C INSTRUCTION LOAD MPKI: 0.00022
L2C RFO       ACCESS:        308  HIT:         22  MISS:        286  HIT %:    7.14286  MISS %:    92.8571   MPKI: 0.00143
L2C PREFETCH  ACCESS:    4599108  HIT:    2451040  MISS:    2148068  HIT %:    53.2938  MISS %:    46.7062   MPKI: 10.7403
L2C DATA PREFETCH MPKI: 10.7403
L2C INSTRUCTION PREFETCH MPKI: 0
L2C WRITEBACK ACCESS:        341  HIT:        283  MISS:         58  HIT %:    82.9912  MISS %:    17.0088   MPKI: 0.00029
L2C LOAD TRANSLATION ACCESS:      33176  HIT:      32797  MISS:        379  HIT %:    98.8576  MISS %:    1.14239   MPKI: 0.001895
L2C TRANSLATION FROM L1D PREFETCHER ACCESS:    9297157  HIT:    9292738  MISS:       4419  HIT %:    99.9525  MISS %:  0.0475307   MPKI: 0.022095
L2C PREFETCH  REQUESTED:          0  ISSUED:          0  USEFUL:      43077  USELESS:    2128827
L2C USEFUL LOAD PREFETCHES:      43077 PREFETCH ISSUED TO LOWER LEVEL:    2169160  ACCURACY: 1.98588
L2C TIMELY PREFETCHES:      43077 LATE PREFETCHES: 1495 DROPPED PREFETCHES: 0
L2C PREFETCHES SAME FILL-ORIGIN LEVEL: 415571 DIFFERENT FILL-ORIGIN LEVEL: 0
L2C AVERAGE MISS LATENCY: 127.778 cycles
L2C RQ	ACCESS:   14289571	FORWARD:          0	MERGED:          0	TO_CACHE:   14289571
L2C WQ	ACCESS:        343	FORWARD:          0	MERGED:          0	TO_CACHE:        343
L2C PQ	ACCESS:    5108844	FORWARD:          0	MERGED:        297	TO_CACHE:    5108547

L2C Instructions Evicting Data 44
L2C Translations Evicting Data 4844
L2C Data Evicting Data 5974871
L2C Instructions Evicting Instructions 0
L2C Translations Evicting Instructions 0
L2C Data Evicting Instructions 44
L2C Instructions Evicting Translations 0
L2C Translations Evicting Translations 2
L2C Data Evicting Translations 4840
L2C Dense regions hint from L2: 0
PSCL5 TOTAL     ACCESS:    9330201  HIT:    9330201  MISS:          0  HIT %:        100  MISS %:          0   MPKI: 0
PSCL5 LOAD TRANSLATION ACCESS:      33170  HIT:      33170  MISS:          0  HIT %:        100  MISS %:          0   MPKI: 0
PSCL5 TRANSLATION FROM L1D PREFETCHER ACCESS:    9297031  HIT:    9297031  MISS:          0  HIT %:        100  MISS %:          0   MPKI: 0
PSCL5 PREFETCH  REQUESTED:          0  ISSUED:          0  USEFUL:          0  USELESS:          0
PSCL5 USEFUL LOAD PREFETCHES:          0 PREFETCH ISSUED TO LOWER LEVEL:          0  ACCURACY: -nan
PSCL5 TIMELY PREFETCHES:          0 LATE PREFETCHES: 0 DROPPED PREFETCHES: 0
PSCL5 PREFETCHES SAME FILL-ORIGIN LEVEL: 0 DIFFERENT FILL-ORIGIN LEVEL: 0

PSCL4 TOTAL     ACCESS:    9330201  HIT:    9330201  MISS:          0  HIT %:        100  MISS %:          0   MPKI: 0
PSCL4 LOAD TRANSLATION ACCESS:      33170  HIT:      33170  MISS:          0  HIT %:        100  MISS %:          0   MPKI: 0
PSCL4 TRANSLATION FROM L1D PREFETCHER ACCESS:    9297031  HIT:    9297031  MISS:          0  HIT %:        100  MISS %:          0   MPKI: 0
PSCL4 PREFETCH  REQUESTED:          0  ISSUED:          0  USEFUL:          0  USELESS:          0
PSCL4 USEFUL LOAD PREFETCHES:          0 PREFETCH ISSUED TO LOWER LEVEL:          0  ACCURACY: -nan
PSCL4 TIMELY PREFETCHES:          0 LATE PREFETCHES: 0 DROPPED PREFETCHES: 0
PSCL4 PREFETCHES SAME FILL-ORIGIN LEVEL: 0 DIFFERENT FILL-ORIGIN LEVEL: 0

PSCL3 TOTAL     ACCESS:    9330201  HIT:    9330201  MISS:          0  HIT %:        100  MISS %:          0   MPKI: 0
PSCL3 LOAD TRANSLATION ACCESS:      33170  HIT:      33170  MISS:          0  HIT %:        100  MISS %:          0   MPKI: 0
PSCL3 TRANSLATION FROM L1D PREFETCHER ACCESS:    9297031  HIT:    9297031  MISS:          0  HIT %:        100  MISS %:          0   MPKI: 0
PSCL3 PREFETCH  REQUESTED:          0  ISSUED:          0  USEFUL:          0  USELESS:          0
PSCL3 USEFUL LOAD PREFETCHES:          0 PREFETCH ISSUED TO LOWER LEVEL:          0  ACCURACY: -nan
PSCL3 TIMELY PREFETCHES:          0 LATE PREFETCHES: 0 DROPPED PREFETCHES: 0
PSCL3 PREFETCHES SAME FILL-ORIGIN LEVEL: 0 DIFFERENT FILL-ORIGIN LEVEL: 0

PSCL2 TOTAL     ACCESS:    8995415  HIT:    8995335  MISS:         80  HIT %:    99.9991  MISS %: 0.000889342   MPKI: 0.0004
PSCL2 LOAD TRANSLATION ACCESS:      33170  HIT:      33090  MISS:         80  HIT %:    99.7588  MISS %:   0.241182   MPKI: 0.0004
PSCL2 TRANSLATION FROM L1D PREFETCHER ACCESS:    8962245  HIT:    8962245  MISS:          0  HIT %:        100  MISS %:          0   MPKI: 0
PSCL2 PREFETCH  REQUESTED:          0  ISSUED:          0  USEFUL:          0  USELESS:          0
PSCL2 USEFUL LOAD PREFETCHES:          0 PREFETCH ISSUED TO LOWER LEVEL:          0  ACCURACY: -nan
PSCL2 TIMELY PREFETCHES:          0 LATE PREFETCHES: 0 DROPPED PREFETCHES: 0
PSCL2 PREFETCHES SAME FILL-ORIGIN LEVEL: 0 DIFFERENT FILL-ORIGIN LEVEL: 0

LLC TOTAL     ACCESS:    5937947  HIT:    2675715  MISS:    3262232  HIT %:    45.0613  MISS %:    54.9387   MPKI: 16.3112
LLC LOAD      ACCESS:    3782966  HIT:    2620464  MISS:    1162502  HIT %:    69.2701  MISS %:    30.7299   MPKI: 5.81251
LLC RFO       ACCESS:        286  HIT:          2  MISS:        284  HIT %:   0.699301  MISS %:    99.3007   MPKI: 0.00142
LLC PREFETCH  ACCESS:    2149565  HIT:      54468  MISS:    2095097  HIT %:    2.53391  MISS %:    97.4661   MPKI: 10.4755
LLC WRITEBACK ACCESS:        332  HIT:        277  MISS:         55  HIT %:    83.4337  MISS %:    16.5663   MPKI: 0.000275
LLC LOAD TRANSLATION ACCESS:        379  HIT:        272  MISS:        107  HIT %:    71.7678  MISS %:    28.2322   MPKI: 0.000535
LLC TRANSLATION FROM L1D PREFETCHER ACCESS:       4419  HIT:        232  MISS:       4187  HIT %:    5.25006  MISS %:    94.7499   MPKI: 0.020935
LLC PREFETCH  REQUESTED:          0  ISSUED:          0  USEFUL:      36175  USELESS:    8345550
LLC USEFUL LOAD PREFETCHES:      36175 PREFETCH ISSUED TO LOWER LEVEL:    8415641  ACCURACY: 0.429854
LLC TIMELY PREFETCHES:      36175 LATE PREFETCHES: 0 DROPPED PREFETCHES: 0
LLC PREFETCHES SAME FILL-ORIGIN LEVEL: 0 DIFFERENT FILL-ORIGIN LEVEL: 0
LLC AVERAGE MISS LATENCY: 709.831 cycles
LLC RQ	ACCESS:   15237305	FORWARD:          0	MERGED:          0	TO_CACHE:   15237305
LLC WQ	ACCESS:       1359	FORWARD:          0	MERGED:          0	TO_CACHE:       1359
LLC PQ	ACCESS:    8638061	FORWARD:          0	MERGED:          0	TO_CACHE:    8638061

LLC Dense regions hint to LLC: 0

RAW hits: 2
Loads Generated: 60154041
Loads sent to L1D: 60154039
Stores Generated: 5069701
Stores sent to L1D: 5069701
Major fault: 0 Minor fault: 39674
Allocated PAGES: 158696

CPU 2 cumulative IPC: 0.403613 instructions: 200000003 cycles: 495524556
ITLB TOTAL     ACCESS:   36463954  HIT:   36463947  MISS:          7  HIT %:        100  MISS %: 1.9197e-05   MPKI: 3.5e-05
ITLB LOAD TRANSLATION ACCESS:   36463954  HIT:   36463947  MISS:          7  HIT %:        100  MISS %: 1.9197e-05   MPKI: 3.5e-05
ITLB PREFETCH  REQUESTED:          0  ISSUED:          0  USEFUL:          0  USELESS:          0
ITLB USEFUL LOAD PREFETCHES:          0 PREFETCH ISSUED TO LOWER LEVEL:          0  ACCURACY: -nan
ITLB TIMELY PREFETCHES:          0 LATE PREFETCHES: 0 DROPPED PREFETCHES: 0
ITLB PREFETCHES SAME FILL-ORIGIN LEVEL: 0 DIFFERENT FILL-ORIGIN LEVEL: 0
ITLB AVERAGE MISS LATENCY: 360.429 cycles
ITLB RQ	ACCESS:   39165491	FORWARD:          0	MERGED:    2542428	TO_CACHE:   36623063

DTLB TOTAL     ACCESS:   45909357  HIT:   41718173  MISS:    4191184  HIT %:    90.8707  MISS %:    9.12926   MPKI: 20.9559
DTLB LOAD TRANSLATION ACCESS:   45909357  HIT:   41718173  MISS:    4191184  HIT %:    90.8707  MISS %:    9.12926   MPKI: 20.9559
DTLB PREFETCH  REQUESTED:          0  ISSUED:          0  USEFUL:          0  USELESS:          0
DTLB USEFUL LOAD PREFETCHES:          0 PREFETCH ISSUED TO LOWER LEVEL:          0  ACCURACY: -nan
DTLB TIMELY PREFETCHES:          0 LATE PREFETCHES: 0 DROPPED PREFETCHES: 0
DTLB PREFETCHES SAME FILL-ORIGIN LEVEL: 0 DIFFERENT FILL-ORIGIN LEVEL: 0
DTLB AVERAGE MISS LATENCY: 10.597 cycles
DTLB RQ	ACCESS:   49711754	FORWARD:          0	MERGED:    3577146	TO_CACHE:   46134608

STLB TOTAL     ACCESS:   16623664  HIT:   16590498  MISS:      33166  HIT %:    99.8005  MISS %:   0.199511   MPKI: 0.16583
STLB LOAD TRANSLATION ACCESS:    4191191  HIT:    4158025  MISS:      33166  HIT %:    99.2087  MISS %:   0.791326   MPKI: 0.16583
STLB TRANSLATION FROM L1D PREFETCHER ACCESS:   12432473  HIT:   12432473  MISS:          0  HIT %:        100  MISS %:          0   MPKI: 0
STLB PREFETCH  REQUESTED:          0  ISSUED:          0  USEFUL:        126  USELESS:          0
STLB USEFUL LOAD PREFETCHES:        126 PREFETCH ISSUED TO LOWER LEVEL:          0  ACCURACY: inf
STLB TIMELY PREFETCHES:        126 LATE PREFETCHES: 6800 DROPPED PREFETCHES: 9538564
STLB PREFETCHES SAME FILL-ORIGIN LEVEL: 0 DIFFERENT FILL-ORIGIN LEVEL: 0
STLB AVERAGE MISS LATENCY: 126.512 cycles
STLB RQ	ACCESS:   86084723	FORWARD:          0	MERGED:   59646405	TO_CACHE:   26438318

STLB Hit, L1D data hit: 0
STLB Hit, L2C data hit: 0
STLB Hit, LLC data hit: 0
STLB Hit, LLC data miss: 0
STLB STLB hints to L2: 0
L1D TOTAL     ACCESS:  111556955  HIT:  104609526  MISS:    6947429  HIT %:    93.7723  MISS %:     6.2277   MPKI: 34.7371
L1D LOAD      ACCESS:   44207299  HIT:   39299126  MISS:    4908173  HIT %:    88.8974  MISS %:    11.1026   MPKI: 24.5409
L1D RFO       ACCESS:    5069696  HIT:    5069388  MISS:        308  HIT %:    99.9939  MISS %: 0.00607531   MPKI: 0.00154
L1D PREFETCH  ACCESS:   62279960  HIT:   60241012  MISS:    2038948  HIT %:    96.7262  MISS %:    3.27384   MPKI: 10.1947
L1D PREFETCH  REQUESTED:  367338602  ISSUED:  253689916  USEFUL:    2045514  USELESS:       2841
L1D USEFUL LOAD PREFETCHES:    2045514 PREFETCH ISSUED TO LOWER LEVEL:    4969974  ACCURACY: 41.1574
L1D TIMELY PREFETCHES:    2045514 LATE PREFETCHES: 4896 DROPPED PREFETCHES: 12493816
L1D PREFETCHES SAME FILL-ORIGIN LEVEL: 2053264 DIFFERENT FILL-ORIGIN LEVEL: 2916710
L1D AVERAGE MISS LATENCY: 112.119 cycles
L1D RQ	ACCESS:   60469556	FORWARD:          0	MERGED:   15840615	TO_CACHE:   44628941
L1D WQ	ACCESS:    5082813	FORWARD:          0	MERGED:          0	TO_CACHE:    5082813
L1D PQ	ACCESS:  171818961	FORWARD:          0	MERGED:   89948006	TO_CACHE:   81870955

L1D UNIQUE REGIONS ACCESSED: 0
L1D REGIONS CONFLICTS: 0
L1D Cross Page Prefetch Requests: 37621989
L1D Same Page Prefetch Requests: 195556184
L1D ROI Sum of L1D PQ occupancy: 2574414156
L1D PREFETCHES PUSHED FROM L2C: 0
L1I TOTAL     ACCESS:   38999822  HIT:   38999778  MISS:         44  HIT %:    99.9999  MISS %: 0.000112821   MPKI: 0.00022
L1I LOAD      ACCESS:   38999822  HIT:   38999778  MISS:         44  HIT %:    99.9999  MISS %: 0.000112821   MPKI: 0.00022
L1I PREFETCH  REQUESTED:          0  ISSUED:          0  USEFUL:          0  USELESS:          0
L1I USEFUL LOAD PREFETCHES:          0 PREFETCH ISSUED TO LOWER LEVEL:          0  ACCURACY: -nan
L1I TIMELY PREFETCHES:          0 LATE PREFETCHES: 0 DROPPED PREFETCHES: 0
L1I PREFETCHES SAME FILL-ORIGIN LEVEL: 0 DIFFERENT FILL-ORIGIN LEVEL: 0
L1I AVERAGE MISS LATENCY: 185.25 cycles
L1I RQ	ACCESS:   56481173	FORWARD:          0	MERGED:   17315682	TO_CACHE:   39165491

BTB TOTAL     ACCESS:   38922640  HIT:   38922584  MISS:         56  HIT %:    99.9999  MISS %: 0.000143875   MPKI: 0.00028
BTB BRANCH_DIRECT_JUMP	ACCESS:    2533686  HIT:    2533674  MISS:         12
BTB BRANCH_INDIRECT	ACCESS:          0  HIT:          0  MISS:          0
BTB BRANCH_CONDITIONAL	ACCESS:   36388947  HIT:   36388910  MISS:         37
BTB BRANCH_DIRECT_CALL	ACCESS:          3  HIT:          0  MISS:          3
BTB BRANCH_INDIRECT_CALL	ACCESS:          0  HIT:          0  MISS:          0
BTB BRANCH_RETURN	ACCESS:          4  HIT:          0  MISS:          4
BTB BRANCH_OTHER ACCESS:          0  HIT:          0  MISS:          0

L2C TOTAL     ACCESS:   19037164  HIT:   13091875  MISS:    5945289  HIT %:    68.7701  MISS %:    31.2299   MPKI: 29.7264
L2C LOAD      ACCESS:    4903328  HIT:    1111030  MISS:    3792298  HIT %:    22.6587  MISS %:    77.3413   MPKI: 18.9615
L2C DATA LOAD MPKI: 18.9613
L2C INSTRUCTION LOAD MPKI: 0.00022
L2C RFO       ACCESS:        308  HIT:         21  MISS:        287  HIT %:    6.81818  MISS %:    93.1818   MPKI: 0.001435
L2C PREFETCH  ACCESS:    4554639  HIT:    2406685  MISS:    2147954  HIT %:    52.8403  MISS %:    47.1597   MPKI: 10.7398
L2C DATA PREFETCH MPKI: 10.7398
L2C INSTRUCTION PREFETCH MPKI: 0
L2C WRITEBACK ACCESS:        341  HIT:        289  MISS:         52  HIT %:    84.7507  MISS %:    15.2493   MPKI: 0.00026
L2C LOAD TRANSLATION ACCESS:      33173  HIT:      32828  MISS:        345  HIT %:      98.96  MISS %:       1.04   MPKI: 0.001725
L2C TRANSLATION FROM L1D PREFETCHER ACCESS:    9545375  HIT:    9541022  MISS:       4353  HIT %:    99.9544  MISS %:  0.0456032   MPKI: 0.021765
L2C PREFETCH  REQUESTED:          0  ISSUED:          0  USEFUL:      42617  USELESS:    2119760
L2C USEFUL LOAD PREFETCHES:      42617 PREFETCH ISSUED TO LOWER LEVEL:    2159996  ACCURACY: 1.97301
L2C TIMELY PREFETCHES:      42617 LATE PREFETCHES: 1390 DROPPED PREFETCHES: 0
L2C PREFETCHES SAME FILL-ORIGIN LEVEL: 410139 DIFFERENT FILL-ORIGIN LEVEL: 0
L2C AVERAGE MISS LATENCY: 127.541 cycles
L2C RQ	ACCESS:   14514689	FORWARD:          0	MERGED:          0	TO_CACHE:   14514689
L2C WQ	ACCESS:        343	FORWARD:          0	MERGED:          0	TO_CACHE:        343
L2C PQ	ACCESS:    4968869	FORWARD:          0	MERGED:        203	TO_CACHE:    4968666

L2C Instructions Evicting Data 44
L2C Translations Evicting Data 4738
L2C Data Evicting Data 5962262
L2C Instructions Evicting Instructions 0
L2C Translations Evicting Instructions 0
L2C Data Evicting Instructions 44
L2C Instructions Evicting Translations 0
L2C Translations Evicting Translations 4
L2C Data Evicting Translations 4740
L2C Dense regions hint from L2: 0
PSCL5 TOTAL     ACCESS:    9578521  HIT:    9578521  MISS:          0  HIT %:        100  MISS %:          0   MPKI: 0
PSCL5 LOAD TRANSLATION ACCESS:      33167  HIT:      33167  MISS:          0  HIT %:        100  MISS %:          0   MPKI: 0
PSCL5 TRANSLATION FROM L1D PREFETCHER ACCESS:    9545354  HIT:    9545354  MISS:          0  HIT %:        100  MISS %:          0   MPKI: 0
PSCL5 PREFETCH  REQUESTED:          0  ISSUED:          0  USEFUL:          0  USELESS:          0
PSCL5 USEFUL LOAD PREFETCHES:          0 PREFETCH ISSUED TO LOWER LEVEL:          0  ACCURACY: -nan
PSCL5 TIMELY PREFETCHES:          0 LATE PREFETCHES: 0 DROPPED PREFETCHES: 0
PSCL5 PREFETCHES SAME FILL-ORIGIN LEVEL: 0 DIFFERENT FILL-ORIGIN LEVEL: 0

PSCL4 TOTAL     ACCESS:    9578521  HIT:    9578521  MISS:          0  HIT %:        100  MISS %:          0   MPKI: 0
PSCL4 LOAD TRANSLATION ACCESS:      33167  HIT:      33167  MISS:          0  HIT %:        100  MISS %:          0   MPKI: 0
PSCL4 TRANSLATION FROM L1D PREFETCHER ACCESS:    9545354  HIT:    9545354  MISS:          0  HIT %:        100  MISS %:          0   MPKI: 0
PSCL4 PREFETCH  REQUESTED:          0  ISSUED:          0  USEFUL:          0  USELESS:          0
PSCL4 USEFUL LOAD PREFETCHES:          0 PREFETCH ISSUED TO LOWER LEVEL:          0  ACCURACY: -nan
PSCL4 TIMELY PREFETCHES:          0 LATE PREFETCHES: 0 DROPPED PREFETCHES: 0
PSCL4 PREFETCHES SAME FILL-ORIGIN LEVEL: 0 DIFFERENT FILL-ORIGIN LEVEL: 0

PSCL3 TOTAL     ACCESS:    9578521  HIT:    9578521  MISS:          0  HIT %:        100  MISS %:          0   MPKI: 0
PSCL3 LOAD TRANSLATION ACCESS:      33167  HIT:      33167  MISS:          0  HIT %:        100  MISS %:          0   MPKI: 0
PSCL3 TRANSLATION FROM L1D PREFETCHER ACCESS:    9545354  HIT:    9545354  MISS:          0  HIT %:        100  MISS %:          0   MPKI: 0
PSCL3 PREFETCH  REQUESTED:          0  ISSUED:          0  USEFUL:          0  USELESS:          0
PSCL3 USEFUL LOAD PREFETCHES:          0 PREFETCH ISSUED TO LOWER LEVEL:          0  ACCURACY: -nan
PSCL3 TIMELY PREFETCHES:          0 LATE PREFETCHES: 0 DROPPED PREFETCHES: 0
PSCL3 PREFETCHES SAME FILL-ORIGIN LEVEL: 0 DIFFERENT FILL-ORIGIN LEVEL: 0

PSCL2 TOTAL     ACCESS:    9249873  HIT:    9249793  MISS:         80  HIT %:    99.9991  MISS %: 0.000864877   MPKI: 0.0004
PSCL2 LOAD TRANSLATION ACCESS:      33167  HIT:      33087  MISS:         80  HIT %:    99.7588  MISS %:   0.241204   MPKI: 0.0004
PSCL2 TRANSLATION FROM L1D PREFETCHER ACCESS:    9216706  HIT:    9216706  MISS:          0  HIT %:        100  MISS %:          0   MPKI: 0
PSCL2 PREFETCH  REQUESTED:          0  ISSUED:          0  USEFUL:          0  USELESS:          0
PSCL2 USEFUL LOAD PREFETCHES:          0 PREFETCH ISSUED TO LOWER LEVEL:          0  ACCURACY: -nan
PSCL2 TIMELY PREFETCHES:          0 LATE PREFETCHES: 0 DROPPED PREFETCHES: 0
PSCL2 PREFETCHES SAME FILL-ORIGIN LEVEL: 0 DIFFERENT FILL-ORIGIN LEVEL: 0

LLC TOTAL     ACCESS:    5945571  HIT:    2674379  MISS:    3271192  HIT %:     44.981  MISS %:     55.019   MPKI: 16.356
LLC LOAD      ACCESS:    3790911  HIT:    2619282  MISS:    1171629  HIT %:    69.0937  MISS %:    30.9063   MPKI: 5.85814
LLC RFO       ACCESS:        287  HIT:          1  MISS:        286  HIT %:   0.348432  MISS %:    99.6516   MPKI: 0.00143
LLC PREFETCH  ACCESS:    2149341  HIT:      54425  MISS:    2094916  HIT %:    2.53217  MISS %:    97.4678   MPKI: 10.4746
LLC WRITEBACK ACCESS:        334  HIT:        264  MISS:         70  HIT %:    79.0419  MISS %:    20.9581   MPKI: 0.00035
LLC LOAD TRANSLATION ACCESS:        345  HIT:        231  MISS:        114  HIT %:    66.9565  MISS %:    33.0435   MPKI: 0.00057
LLC TRANSLATION FROM L1D PREFETCHER ACCESS:       4353  HIT:        176  MISS:       4177  HIT %:    4.04319  MISS %:    95.9568   MPKI: 0.020885
LLC PREFETCH  REQUESTED:          0  ISSUED:          0  USEFUL:      36175  USELESS:    8345550
LLC USEFUL LOAD PREFETCHES:      36175 PREFETCH ISSUED TO LOWER LEVEL:    8415641  ACCURACY: 0.429854
LLC TIMELY PREFETCHES:      36175 LATE PREFETCHES: 0 DROPPED PREFETCHES: 0
LLC PREFETCHES SAME FILL-ORIGIN LEVEL: 0 DIFFERENT FILL-ORIGIN LEVEL: 0
LLC AVERAGE MISS LATENCY: 707.887 cycles
LLC RQ	ACCESS:   15237305	FORWARD:          0	MERGED:          0	TO_CACHE:   15237305
LLC WQ	ACCESS:       1359	FORWARD:          0	MERGED:          0	TO_CACHE:       1359
LLC PQ	ACCESS:    8638061	FORWARD:          0	MERGED:          0	TO_CACHE:    8638061

LLC Dense regions hint to LLC: 0

RAW hits: 2
Loads Generated: 60154053
Loads sent to L1D: 60154052
Stores Generated: 5069701
Stores sent to L1D: 5069701
Major fault: 0 Minor fault: 39674
Allocated PAGES: 158696

CPU 3 cumulative IPC: 0.402787 instructions: 200000000 cycles: 496540117
ITLB TOTAL     ACCESS:   36463800  HIT:   36463793  MISS:          7  HIT %:        100  MISS %: 1.91971e-05   MPKI: 3.5e-05
ITLB LOAD TRANSLATION ACCESS:   36463800  HIT:   36463793  MISS:          7  HIT %:        100  MISS %: 1.91971e-05   MPKI: 3.5e-05
ITLB PREFETCH  REQUESTED:          0  ISSUED:          0  USEFUL:          0  USELESS:          0
ITLB USEFUL LOAD PREFETCHES:          0 PREFETCH ISSUED TO LOWER LEVEL:          0  ACCURACY: -nan
ITLB TIMELY PREFETCHES:          0 LATE PREFETCHES: 0 DROPPED PREFETCHES: 0
ITLB PREFETCHES SAME FILL-ORIGIN LEVEL: 0 DIFFERENT FILL-ORIGIN LEVEL: 0
ITLB AVERAGE MISS LATENCY: 342.714 cycles
ITLB RQ	ACCESS:   39078134	FORWARD:          0	MERGED:    2538853	TO_CACHE:   36539281

DTLB TOTAL     ACCESS:   45908930  HIT:   41717723  MISS:    4191207  HIT %:    90.8706  MISS %:    9.12939   MPKI: 20.956
DTLB LOAD TRANSLATION ACCESS:   45908930  HIT:   41717723  MISS:    4191207  HIT %:    90.8706  MISS %:    9.12939   MPKI: 20.956
DTLB PREFETCH  REQUESTED:          0  ISSUED:          0  USEFUL:          0  USELESS:          0
DTLB USEFUL LOAD PREFETCHES:          0 PREFETCH ISSUED TO LOWER LEVEL:          0  ACCURACY: -nan
DTLB TIMELY PREFETCHES:          0 LATE PREFETCHES: 0 DROPPED PREFETCHES: 0
DTLB PREFETCHES SAME FILL-ORIGIN LEVEL: 0 DIFFERENT FILL-ORIGIN LEVEL: 0
DTLB AVERAGE MISS LATENCY: 10.564 cycles
DTLB RQ	ACCESS:   49590275	FORWARD:          0	MERGED:    3570526	TO_CACHE:   46019749

STLB TOTAL     ACCESS:   16791910  HIT:   16758758  MISS:      33152  HIT %:    99.8026  MISS %:   0.197428   MPKI: 0.16576
STLB LOAD TRANSLATION ACCESS:    4191214  HIT:    4158062  MISS:      33152  HIT %:     99.209  MISS %:   0.790988   MPKI: 0.16576
STLB TRANSLATION FROM L1D PREFETCHER ACCESS:   12600696  HIT:   12600696  MISS:          0  HIT %:        100  MISS %:          0   MPKI: 0
STLB PREFETCH  REQUESTED:          0  ISSUED:          0  USEFUL:         72  USELESS:          0
STLB USEFUL LOAD PREFETCHES:         72 PREFETCH ISSUED TO LOWER LEVEL:          0  ACCURACY: inf
STLB TIMELY PREFETCHES:         72 LATE PREFETCHES: 6685 DROPPED PREFETCHES: 9166834
STLB PREFETCHES SAME FILL-ORIGIN LEVEL: 0 DIFFERENT FILL-ORIGIN LEVEL: 0
STLB AVERAGE MISS LATENCY: 126.481 cycles
STLB RQ	ACCESS:   87040041	FORWARD:          0	MERGED:   60865149	TO_CACHE:   26174892

STLB Hit, L1D data hit: 0
STLB Hit, L2C data hit: 0
STLB Hit, LLC data hit: 0
STLB Hit, LLC data miss: 0
STLB STLB hints to L2: 0
L1D TOTAL     ACCESS:  112925722  HIT:  105978278  MISS:    6947444  HIT %:    93.8478  MISS %:    6.15222   MPKI: 34.7372
L1D LOAD      ACCESS:   44206332  HIT:   39297750  MISS:    4908582  HIT %:    88.8962  MISS %:    11.1038   MPKI: 24.5429
L1D RFO       ACCESS:    5069698  HIT:    5069390  MISS:        308  HIT %:    99.9939  MISS %: 0.00607531   MPKI: 0.00154
L1D PREFETCH  ACCESS:   63649692  HIT:   61611138  MISS:    2038554  HIT %:    96.7972  MISS %:    3.20277   MPKI: 10.1928
L1D PREFETCH  REQUESTED:  367018745  ISSUED:  256222382  USEFUL:    2041261  USELESS:       2779
L1D USEFUL LOAD PREFETCHES:    2041261 PREFETCH ISSUED TO LOWER LEVEL:    5031059  ACCURACY: 40.5732
L1D TIMELY PREFETCHES:    2041261 LATE PREFETCHES: 5014 DROPPED PREFETCHES: 12167927
L1D PREFETCHES SAME FILL-ORIGIN LEVEL: 2049300 DIFFERENT FILL-ORIGIN LEVEL: 2981759
L1D AVERAGE MISS LATENCY: 112.21 cycles
L1D RQ	ACCESS:   60304165	FORWARD:          0	MERGED:   15789573	TO_CACHE:   44514592
L1D WQ	ACCESS:    5075683	FORWARD:          0	MERGED:          0	TO_CACHE:    5075683
L1D PQ	ACCESS:  173384054	FORWARD:          0	MERGED:   90545726	TO_CACHE:   82838328

L1D UNIQUE REGIONS ACCESSED: 0
L1D REGIONS CONFLICTS: 0
L1D Cross Page Prefetch Requests: 36491698
L1D Same Page Prefetch Requests: 198810766
L1D ROI Sum of L1D PQ occupancy: 2530678233
L1D PREFETCHES PUSHED FROM L2C: 0
L1I TOTAL     ACCESS:   38999659  HIT:   38999615  MISS:         44  HIT %:    99.9999  MISS %: 0.000112821   MPKI: 0.00022
L1I LOAD      ACCESS:   38999659  HIT:   38999615  MISS:         44  HIT %:    99.9999  MISS %: 0.000112821   MPKI: 0.00022
L1I PREFETCH  REQUESTED:          0  ISSUED:          0  USEFUL:          0  USELESS:          0
L1I USEFUL LOAD PREFETCHES:          0 PREFETCH ISSUED TO LOWER LEVEL:          0  ACCURACY: -nan
L1I TIMELY PREFETCHES:          0 LATE PREFETCHES: 0 DROPPED PREFETCHES: 0
L1I PREFETCHES SAME FILL-ORIGIN LEVEL: 0 DIFFERENT FILL-ORIGIN LEVEL: 0
L1I AVERAGE MISS LATENCY: 198.614 cycles
L1I RQ	ACCESS:   56355470	FORWARD:          0	MERGED:   17277336	TO_CACHE:   39078134

BTB TOTAL     ACCESS:   38922646  HIT:   38922589  MISS:         57  HIT %:    99.9999  MISS %: 0.000146444   MPKI: 0.000285
BTB BRANCH_DIRECT_JUMP	ACCESS:    2533686  HIT:    2533674  MISS:         12
BTB BRANCH_INDIRECT	ACCESS:          0  HIT:          0  MISS:          0
BTB BRANCH_CONDITIONAL	ACCESS:   36388953  HIT:   36388915  MISS:         38
BTB BRANCH_DIRECT_CALL	ACCESS:          3  HIT:          0  MISS:          3
BTB BRANCH_INDIRECT_CALL	ACCESS:          0  HIT:          0  MISS:          0
BTB BRANCH_RETURN	ACCESS:          4  HIT:          0  MISS:          4
BTB BRANCH_OTHER ACCESS:          0  HIT:          0  MISS:          0

L2C TOTAL     ACCESS:   18732124  HIT:   12775541  MISS:    5956583  HIT %:    68.2012  MISS %:    31.7988   MPKI: 29.7829
L2C LOAD      ACCESS:    4903617  HIT:    1101699  MISS:    3801918  HIT %:    22.4671  MISS %:    77.5329   MPKI: 19.0096
L2C DATA LOAD MPKI: 19.0094
L2C INSTRUCTION LOAD MPKI: 0.00022
L2C RFO       ACCESS:        308  HIT:         23  MISS:        285  HIT %:    7.46753  MISS %:    92.5325   MPKI: 0.001425
L2C PREFETCH  ACCESS:    4621071  HIT:    2471529  MISS:    2149542  HIT %:    53.4839  MISS %:    46.5161   MPKI: 10.7477
L2C DATA PREFETCH MPKI: 10.7477
L2C INSTRUCTION PREFETCH MPKI: 0
L2C WRITEBACK ACCESS:        341  HIT:        286  MISS:         55  HIT %:     83.871  MISS %:     16.129   MPKI: 0.000275
L2C LOAD TRANSLATION ACCESS:      33157  HIT:      32772  MISS:        385  HIT %:    98.8389  MISS %:    1.16114   MPKI: 0.001925
L2C TRANSLATION FROM L1D PREFETCHER ACCESS:    9173630  HIT:    9169232  MISS:       4398  HIT %:    99.9521  MISS %:  0.0479418   MPKI: 0.02199
L2C PREFETCH  REQUESTED:          0  ISSUED:          0  USEFUL:      43007  USELESS:    2116014
L2C USEFUL LOAD PREFETCHES:      43007 PREFETCH ISSUED TO LOWER LEVEL:    2157645  ACCURACY: 1.99324
L2C TIMELY PREFETCHES:      43007 LATE PREFETCHES: 1521 DROPPED PREFETCHES: 0
L2C PREFETCHES SAME FILL-ORIGIN LEVEL: 409838 DIFFERENT FILL-ORIGIN LEVEL: 0
L2C AVERAGE MISS LATENCY: 127.435 cycles
L2C RQ	ACCESS:   14125992	FORWARD:          0	MERGED:          0	TO_CACHE:   14125992
L2C WQ	ACCESS:        343	FORWARD:          0	MERGED:          0	TO_CACHE:        343
L2C PQ	ACCESS:    5030207	FORWARD:          0	MERGED:        244	TO_CACHE:    5029963

L2C Instructions Evicting Data 43
L2C Translations Evicting Data 4828
L2C Data Evicting Data 5961808
L2C Instructions Evicting Instructions 0
L2C Translations Evicting Instructions 0
L2C Data Evicting Instructions 44
L2C Instructions Evicting Translations 1
L2C Translations Evicting Translations 4
L2C Data Evicting Translations 4828
L2C Dense regions hint from L2: 0
PSCL5 TOTAL     ACCESS:    9206670  HIT:    9206670  MISS:          0  HIT %:        100  MISS %:          0   MPKI: 0
PSCL5 LOAD TRANSLATION ACCESS:      33153  HIT:      33153  MISS:          0  HIT %:        100  MISS %:          0   MPKI: 0
PSCL5 TRANSLATION FROM L1D PREFETCHER ACCESS:    9173517  HIT:    9173517  MISS:          0  HIT %:        100  MISS %:          0   MPKI: 0
PSCL5 PREFETCH  REQUESTED:          0  ISSUED:          0  USEFUL:          0  USELESS:          0
PSCL5 USEFUL LOAD PREFETCHES:          0 PREFETCH ISSUED TO LOWER LEVEL:          0  ACCURACY: -nan
PSCL5 TIMELY PREFETCHES:          0 LATE PREFETCHES: 0 DROPPED PREFETCHES: 0
PSCL5 PREFETCHES SAME FILL-ORIGIN LEVEL: 0 DIFFERENT FILL-ORIGIN LEVEL: 0

PSCL4 TOTAL     ACCESS:    9206670  HIT:    9206670  MISS:          0  HIT %:        100  MISS %:          0   MPKI: 0
PSCL4 LOAD TRANSLATION ACCESS:      33153  HIT:      33153  MISS:          0  HIT %:        100  MISS %:          0   MPKI: 0
PSCL4 TRANSLATION FROM L1D PREFETCHER ACCESS:    9173517  HIT:    9173517  MISS:          0  HIT %:        100  MISS %:          0   MPKI: 0
PSCL4 PREFETCH  REQUESTED:          0  ISSUED:          0  USEFUL:          0  USELESS:          0
PSCL4 USEFUL LOAD PREFETCHES:          0 PREFETCH ISSUED TO LOWER LEVEL:          0  ACCURACY: -nan
PSCL4 TIMELY PREFETCHES:          0 LATE PREFETCHES: 0 DROPPED PREFETCHES: 0
PSCL4 PREFETCHES SAME FILL-ORIGIN LEVEL: 0 DIFFERENT FILL-ORIGIN LEVEL: 0

PSCL3 TOTAL     ACCESS:    9206670  HIT:    9206670  MISS:          0  HIT %:        100  MISS %:          0   MPKI: 0
PSCL3 LOAD TRANSLATION ACCESS:      33153  HIT:      33153  MISS:          0  HIT %:        100  MISS %:          0   MPKI: 0
PSCL3 TRANSLATION FROM L1D PREFETCHER ACCESS:    9173517  HIT:    9173517  MISS:          0  HIT %:        100  MISS %:          0   MPKI: 0
PSCL3 PREFETCH  REQUESTED:          0  ISSUED:          0  USEFUL:          0  USELESS:          0
PSCL3 USEFUL LOAD PREFETCHES:          0 PREFETCH ISSUED TO LOWER LEVEL:          0  ACCURACY: -nan
PSCL3 TIMELY PREFETCHES:          0 LATE PREFETCHES: 0 DROPPED PREFETCHES: 0
PSCL3 PREFETCHES SAME FILL-ORIGIN LEVEL: 0 DIFFERENT FILL-ORIGIN LEVEL: 0

PSCL2 TOTAL     ACCESS:    8894968  HIT:    8894891  MISS:         77  HIT %:    99.9991  MISS %: 0.000865658   MPKI: 0.000385
PSCL2 LOAD TRANSLATION ACCESS:      33152  HIT:      33075  MISS:         77  HIT %:    99.7677  MISS %:   0.232264   MPKI: 0.000385
PSCL2 TRANSLATION FROM L1D PREFETCHER ACCESS:    8861816  HIT:    8861816  MISS:          0  HIT %:        100  MISS %:          0   MPKI: 0
PSCL2 PREFETCH  REQUESTED:          0  ISSUED:          0  USEFUL:          0  USELESS:          0
PSCL2 USEFUL LOAD PREFETCHES:          0 PREFETCH ISSUED TO LOWER LEVEL:          0  ACCURACY: -nan
PSCL2 TIMELY PREFETCHES:          0 LATE PREFETCHES: 0 DROPPED PREFETCHES: 0
PSCL2 PREFETCHES SAME FILL-ORIGIN LEVEL: 0 DIFFERENT FILL-ORIGIN LEVEL: 0

LLC TOTAL     ACCESS:    5956859  HIT:    2678684  MISS:    3278175  HIT %:    44.9681  MISS %:    55.0319   MPKI: 16.3909
LLC LOAD      ACCESS:    3800398  HIT:    2622838  MISS:    1177560  HIT %:    69.0148  MISS %:    30.9852   MPKI: 5.8878
LLC RFO       ACCESS:        285  HIT:          1  MISS:        284  HIT %:   0.350877  MISS %:    99.6491   MPKI: 0.00142
LLC PREFETCH  ACCESS:    2151062  HIT:      55053  MISS:    2096009  HIT %:    2.55934  MISS %:    97.4407   MPKI: 10.48
LLC WRITEBACK ACCESS:        331  HIT:        268  MISS:         63  HIT %:    80.9668  MISS %:    19.0332   MPKI: 0.000315
LLC LOAD TRANSLATION ACCESS:        385  HIT:        286  MISS:         99  HIT %:    74.2857  MISS %:    25.7143   MPKI: 0.000495
LLC TRANSLATION FROM L1D PREFETCHER ACCESS:       4398  HIT:        238  MISS:       4160  HIT %:    5.41155  MISS %:    94.5884   MPKI: 0.0208
LLC PREFETCH  REQUESTED:          0  ISSUED:          0  USEFUL:      36175  USELESS:    8345550
LLC USEFUL LOAD PREFETCHES:      36175 PREFETCH ISSUED TO LOWER LEVEL:    8415641  ACCURACY: 0.429854
LLC TIMELY PREFETCHES:      36175 LATE PREFETCHES: 0 DROPPED PREFETCHES: 0
LLC PREFETCHES SAME FILL-ORIGIN LEVEL: 0 DIFFERENT FILL-ORIGIN LEVEL: 0
LLC AVERAGE MISS LATENCY: 706.379 cycles
LLC RQ	ACCESS:   15237305	FORWARD:          0	MERGED:          0	TO_CACHE:   15237305
LLC WQ	ACCESS:       1359	FORWARD:          0	MERGED:          0	TO_CACHE:       1359
LLC PQ	ACCESS:    8638061	FORWARD:          0	MERGED:          0	TO_CACHE:    8638061

LLC Dense regions hint to LLC: 0

RAW hits: 2
Loads Generated: 60154043
Loads sent to L1D: 60154038
Stores Generated: 5069703
Stores sent to L1D: 5069703
Major fault: 0 Minor fault: 39674
Allocated PAGES: 158696

DRAM Statistics
 CHANNEL 0
 RQ ROW_BUFFER_HIT:    4454977  ROW_BUFFER_MISS:    8705474
 DBUS_CONGESTED:      12464
 WQ ROW_BUFFER_HIT:        181  ROW_BUFFER_MISS:        992  FULL:          0

 AVG_CONGESTED_CYCLE: 6
 All warmup complete: 5
Channel 0 Bank busy for read cycles: 0
Channel 0 Bank busy for write cycles: 0
Channel 0
Rank 0
0banks busy for read cycles: 11057390
0banks busy for write cycles: 154
1banks busy for read cycles: 61126898
1banks busy for write cycles: 563470
2banks busy for read cycles: 120339585
2banks busy for write cycles: 299745
3banks busy for read cycles: 129512099
3banks busy for write cycles: 53134
4banks busy for read cycles: 91744115
4banks busy for write cycles: 56661
5banks busy for read cycles: 47168616
5banks busy for write cycles: 33631
6banks busy for read cycles: 19708919
6banks busy for write cycles: 27511
7banks busy for read cycles: 8526735
7banks busy for write cycles: 37335
8banks busy for read cycles: 7201373
8banks busy for write cycles: 292059

CPU 0 Branch Prediction Accuracy: 95.4347% MPKI: 11.8914 Average ROB Occupancy at Mispredict: 35.3186
Branch types
NOT_BRANCH: 147905561 73.9528%
BRANCH_DIRECT_JUMP: 2533686 1.26684%
BRANCH_INDIRECT: 0 0%
BRANCH_CONDITIONAL: 49560745 24.7804%
BRANCH_DIRECT_CALL: 3 1.5e-06%
BRANCH_INDIRECT_CALL: 0 0%
BRANCH_RETURN: 4 2e-06%
BRANCH_OTHER: 0 0%


CPU 1 Branch Prediction Accuracy: 95.4502% MPKI: 11.8538 Average ROB Occupancy at Mispredict: 35.3951
Branch types
NOT_BRANCH: 149079200 73.9466%
BRANCH_DIRECT_JUMP: 2545106 1.26243%
BRANCH_INDIRECT: 0 0%
BRANCH_CONDITIONAL: 49979446 24.7909%
BRANCH_DIRECT_CALL: 3 1.48807e-06%
BRANCH_INDIRECT_CALL: 0 0%
BRANCH_RETURN: 4 1.98409e-06%
BRANCH_OTHER: 0 0%


CPU 2 Branch Prediction Accuracy: 95.4441% MPKI: 11.8686 Average ROB Occupancy at Mispredict: 35.3774
Branch types
NOT_BRANCH: 148595621 73.9491%
BRANCH_DIRECT_JUMP: 2540242 1.26416%
BRANCH_INDIRECT: 0 0%
BRANCH_CONDITIONAL: 49807224 24.7867%
BRANCH_DIRECT_CALL: 3 1.49296e-06%
BRANCH_INDIRECT_CALL: 0 0%
BRANCH_RETURN: 4 1.99061e-06%
BRANCH_OTHER: 0 0%


CPU 3 Branch Prediction Accuracy: 95.4394% MPKI: 11.88 Average ROB Occupancy at Mispredict: 35.3567
Branch types
NOT_BRANCH: 148232893 73.9511%
BRANCH_DIRECT_JUMP: 2536676 1.26551%
BRANCH_INDIRECT: 0 0%
BRANCH_CONDITIONAL: 49677887 24.7835%
BRANCH_DIRECT_CALL: 3 1.49665e-06%
BRANCH_INDIRECT_CALL: 0 0%
BRANCH_RETURN: 4 1.99554e-06%
BRANCH_OTHER: 0 0%

DRAM PAGES: 1048576
Allocated PAGES: 158696
