
*** ChampSim Multicore Out-of-Order Simulator ***

Warmup Instructions: 50000000
Simulation Instructions: 200000000
Number of CPUs: 4
LLC sets: 8192
LLC ways: 16
Off-chip DRAM Size: 4096 MB Channels: 1 Width: 64-bit Data Rate: 6400 MT/s
CPU 0 runs ./traces/spec/605.mcf_s-1152B.champsimtrace.xz
.xz
CPU 1 runs ./traces/spec/605.mcf_s-1152B.champsimtrace.xz
.xz
CPU 2 runs ./traces/spec/605.mcf_s-1152B.champsimtrace.xz
.xz
CPU 3 runs ./traces/spec/605.mcf_s-1152B.champsimtrace.xz
.xz
BTB has LRU replacement policy
ITLB has LRU replacement policy
DTLB has LRU replacement policy
STLB has LRU replacement policy
L1I has LRU replacement policy
History Sets: 8
History Ways: 16
BERTI Size: 16
BERTI Stride Size: 8
L1D has LRU replacement policy
Initialize SRRIP state for L2C
Initialize DRRIP state for LLC
BTB has LRU replacement policy
ITLB has LRU replacement policy
DTLB has LRU replacement policy
STLB has LRU replacement policy
L1I has LRU replacement policy
History Sets: 8
History Ways: 16
BERTI Size: 16
BERTI Stride Size: 8
L1D has LRU replacement policy
Initialize SRRIP state for L2C
Initialize DRRIP state for LLC
BTB has LRU replacement policy
ITLB has LRU replacement policy
DTLB has LRU replacement policy
STLB has LRU replacement policy
L1I has LRU replacement policy
History Sets: 8
History Ways: 16
BERTI Size: 16
BERTI Stride Size: 8
L1D has LRU replacement policy
Initialize SRRIP state for L2C
Initialize DRRIP state for LLC
BTB has LRU replacement policy
ITLB has LRU replacement policy
DTLB has LRU replacement policy
STLB has LRU replacement policy
L1I has LRU replacement policy
History Sets: 8
History Ways: 16
BERTI Size: 16
BERTI Stride Size: 8
L1D has LRU replacement policy
Initialize SRRIP state for L2C
Initialize DRRIP state for LLC
Heartbeat CPU 0 instructions: 10000001 cycles: 3394509 heartbeat IPC: 2.94593 cumulative IPC: 2.94593 (Simulation time: 0 hr 4 min 12 sec) 
Heartbeat CPU 2 instructions: 10000001 cycles: 3395823 heartbeat IPC: 2.94479 cumulative IPC: 2.94479 (Simulation time: 0 hr 4 min 12 sec) 
Heartbeat CPU 1 instructions: 10000001 cycles: 3396402 heartbeat IPC: 2.94429 cumulative IPC: 2.94429 (Simulation time: 0 hr 4 min 12 sec) 
Heartbeat CPU 3 instructions: 10000001 cycles: 3397280 heartbeat IPC: 2.94353 cumulative IPC: 2.94353 (Simulation time: 0 hr 4 min 12 sec) 
Heartbeat CPU 0 instructions: 20000000 cycles: 6766726 heartbeat IPC: 2.96541 cumulative IPC: 2.95564 (Simulation time: 0 hr 8 min 46 sec) 
Heartbeat CPU 2 instructions: 20000000 cycles: 6767564 heartbeat IPC: 2.96583 cumulative IPC: 2.95527 (Simulation time: 0 hr 8 min 46 sec) 
Heartbeat CPU 1 instructions: 20000000 cycles: 6768537 heartbeat IPC: 2.96548 cumulative IPC: 2.95485 (Simulation time: 0 hr 8 min 46 sec) 
Heartbeat CPU 3 instructions: 20000000 cycles: 6770330 heartbeat IPC: 2.96468 cumulative IPC: 2.95407 (Simulation time: 0 hr 8 min 46 sec) 
Heartbeat CPU 0 instructions: 30000001 cycles: 10138262 heartbeat IPC: 2.96601 cumulative IPC: 2.95909 (Simulation time: 0 hr 13 min 37 sec) 
Heartbeat CPU 2 instructions: 30000001 cycles: 10139071 heartbeat IPC: 2.96603 cumulative IPC: 2.95885 (Simulation time: 0 hr 13 min 37 sec) 
Heartbeat CPU 1 instructions: 30000001 cycles: 10139389 heartbeat IPC: 2.96661 cumulative IPC: 2.95876 (Simulation time: 0 hr 13 min 37 sec) 
Heartbeat CPU 3 instructions: 30000001 cycles: 10141932 heartbeat IPC: 2.96595 cumulative IPC: 2.95802 (Simulation time: 0 hr 13 min 37 sec) 
Heartbeat CPU 0 instructions: 40000001 cycles: 13509678 heartbeat IPC: 2.96611 cumulative IPC: 2.96084 (Simulation time: 0 hr 18 min 37 sec) 
Heartbeat CPU 1 instructions: 40000001 cycles: 13511319 heartbeat IPC: 2.96566 cumulative IPC: 2.96048 (Simulation time: 0 hr 18 min 37 sec) 
Heartbeat CPU 2 instructions: 40000001 cycles: 13512356 heartbeat IPC: 2.96447 cumulative IPC: 2.96025 (Simulation time: 0 hr 18 min 37 sec) 
Heartbeat CPU 3 instructions: 40000001 cycles: 13513620 heartbeat IPC: 2.96587 cumulative IPC: 2.95998 (Simulation time: 0 hr 18 min 37 sec) 
Heartbeat CPU 0 instructions: 50000001 cycles: 16886039 heartbeat IPC: 2.96177 cumulative IPC: 2.96103 (Simulation time: 0 hr 23 min 30 sec) 
Heartbeat CPU 1 instructions: 50000001 cycles: 16888507 heartbeat IPC: 2.96104 cumulative IPC: 2.96059 (Simulation time: 0 hr 23 min 30 sec) 
Heartbeat CPU 2 instructions: 50000001 cycles: 16889773 heartbeat IPC: 2.96084 cumulative IPC: 2.96037 (Simulation time: 0 hr 23 min 30 sec) 
Heartbeat CPU 3 instructions: 50000001 cycles: 16890675 heartbeat IPC: 2.96116 cumulative IPC: 2.96021 (Simulation time: 0 hr 23 min 30 sec) 

Warmup complete CPU 0 instructions: 50008725 cycles: 16890675 (Simulation time: 0 hr 23 min 30 sec) 
Warmup complete CPU 1 instructions: 50004224 cycles: 16890675 (Simulation time: 0 hr 23 min 30 sec) 
Warmup complete CPU 2 instructions: 50002085 cycles: 16890675 (Simulation time: 0 hr 23 min 30 sec) 
Warmup complete CPU 3 instructions: 50000001 cycles: 16890675 (Simulation time: 0 hr 23 min 30 sec) 

Heartbeat CPU 1 instructions: 60000001 cycles: 47461444 heartbeat IPC: 0.327087 cumulative IPC: 0.326972 (Simulation time: 0 hr 28 min 32 sec) 
Heartbeat CPU 0 instructions: 60000001 cycles: 47534714 heartbeat IPC: 0.326278 cumulative IPC: 0.326043 (Simulation time: 0 hr 28 min 32 sec) 
Heartbeat CPU 3 instructions: 60000001 cycles: 47544774 heartbeat IPC: 0.326221 cumulative IPC: 0.326221 (Simulation time: 0 hr 28 min 32 sec) 
Heartbeat CPU 2 instructions: 60000001 cycles: 47546185 heartbeat IPC: 0.326196 cumulative IPC: 0.326138 (Simulation time: 0 hr 28 min 32 sec) 
Heartbeat CPU 1 instructions: 70000000 cycles: 77188450 heartbeat IPC: 0.336394 cumulative IPC: 0.331617 (Simulation time: 0 hr 33 min 46 sec) 
Heartbeat CPU 2 instructions: 70000001 cycles: 78019706 heartbeat IPC: 0.328154 cumulative IPC: 0.327143 (Simulation time: 0 hr 33 min 55 sec) 
Heartbeat CPU 0 instructions: 70000000 cycles: 78053701 heartbeat IPC: 0.327665 cumulative IPC: 0.326852 (Simulation time: 0 hr 33 min 56 sec) 
Heartbeat CPU 3 instructions: 70000000 cycles: 78087023 heartbeat IPC: 0.327415 cumulative IPC: 0.326817 (Simulation time: 0 hr 33 min 56 sec) 
Heartbeat CPU 1 instructions: 80000001 cycles: 107216875 heartbeat IPC: 0.333018 cumulative IPC: 0.332083 (Simulation time: 0 hr 39 min 24 sec) 
Heartbeat CPU 2 instructions: 80000001 cycles: 107422594 heartbeat IPC: 0.340103 cumulative IPC: 0.331352 (Simulation time: 0 hr 39 min 27 sec) 
Heartbeat CPU 0 instructions: 80000001 cycles: 108089891 heartbeat IPC: 0.332932 cumulative IPC: 0.328855 (Simulation time: 0 hr 39 min 33 sec) 
Heartbeat CPU 3 instructions: 80000001 cycles: 108161920 heartbeat IPC: 0.332503 cumulative IPC: 0.328691 (Simulation time: 0 hr 39 min 34 sec) 
Heartbeat CPU 1 instructions: 90000003 cycles: 137439400 heartbeat IPC: 0.330879 cumulative IPC: 0.331781 (Simulation time: 0 hr 45 min 2 sec) 
Heartbeat CPU 2 instructions: 90000003 cycles: 137587385 heartbeat IPC: 0.331512 cumulative IPC: 0.331392 (Simulation time: 0 hr 45 min 4 sec) 
Heartbeat CPU 0 instructions: 90000003 cycles: 137643151 heartbeat IPC: 0.338372 cumulative IPC: 0.331184 (Simulation time: 0 hr 45 min 5 sec) 
Heartbeat CPU 3 instructions: 90000003 cycles: 138526388 heartbeat IPC: 0.329332 cumulative IPC: 0.328851 (Simulation time: 0 hr 45 min 14 sec) 
Heartbeat CPU 1 instructions: 100000001 cycles: 167426097 heartbeat IPC: 0.333481 cumulative IPC: 0.33212 (Simulation time: 0 hr 50 min 30 sec) 
Heartbeat CPU 2 instructions: 100000001 cycles: 168240634 heartbeat IPC: 0.32623 cumulative IPC: 0.330346 (Simulation time: 0 hr 50 min 38 sec) 
Heartbeat CPU 0 instructions: 100000001 cycles: 168319104 heartbeat IPC: 0.325988 cumulative IPC: 0.330131 (Simulation time: 0 hr 50 min 39 sec) 
Heartbeat CPU 3 instructions: 100000001 cycles: 169232073 heartbeat IPC: 0.325673 cumulative IPC: 0.32821 (Simulation time: 0 hr 50 min 50 sec) 
Heartbeat CPU 1 instructions: 110000000 cycles: 198027926 heartbeat IPC: 0.326778 cumulative IPC: 0.331217 (Simulation time: 0 hr 56 min 10 sec) 
Heartbeat CPU 2 instructions: 110000000 cycles: 198161270 heartbeat IPC: 0.334217 cumulative IPC: 0.330985 (Simulation time: 0 hr 56 min 12 sec) 
Heartbeat CPU 0 instructions: 110000000 cycles: 198918295 heartbeat IPC: 0.326806 cumulative IPC: 0.329572 (Simulation time: 0 hr 56 min 19 sec) 
Heartbeat CPU 3 instructions: 110000000 cycles: 199840869 heartbeat IPC: 0.326703 cumulative IPC: 0.327958 (Simulation time: 0 hr 56 min 29 sec) 
Heartbeat CPU 1 instructions: 120000002 cycles: 228391893 heartbeat IPC: 0.329338 cumulative IPC: 0.330947 (Simulation time: 1 hr 1 min 39 sec) 
Heartbeat CPU 2 instructions: 120000002 cycles: 229239444 heartbeat IPC: 0.321769 cumulative IPC: 0.329637 (Simulation time: 1 hr 1 min 48 sec) 
Heartbeat CPU 0 instructions: 120000002 cycles: 230088614 heartbeat IPC: 0.320818 cumulative IPC: 0.328292 (Simulation time: 1 hr 1 min 57 sec) 
Heartbeat CPU 3 instructions: 120000002 cycles: 230976611 heartbeat IPC: 0.321174 cumulative IPC: 0.326972 (Simulation time: 1 hr 2 min 8 sec) 
Heartbeat CPU 1 instructions: 130000002 cycles: 259146765 heartbeat IPC: 0.325152 cumulative IPC: 0.330212 (Simulation time: 1 hr 7 min 25 sec) 
Heartbeat CPU 2 instructions: 130000002 cycles: 260538648 heartbeat IPC: 0.319497 cumulative IPC: 0.328334 (Simulation time: 1 hr 7 min 41 sec) 
Heartbeat CPU 0 instructions: 130000002 cycles: 261333583 heartbeat IPC: 0.320052 cumulative IPC: 0.327239 (Simulation time: 1 hr 7 min 49 sec) 
Heartbeat CPU 3 instructions: 130000002 cycles: 262181741 heartbeat IPC: 0.32046 cumulative IPC: 0.326143 (Simulation time: 1 hr 7 min 59 sec) 
Heartbeat CPU 1 instructions: 140000000 cycles: 290775350 heartbeat IPC: 0.31617 cumulative IPC: 0.32859 (Simulation time: 1 hr 13 min 4 sec) 
Heartbeat CPU 2 instructions: 140000000 cycles: 291564222 heartbeat IPC: 0.322315 cumulative IPC: 0.327654 (Simulation time: 1 hr 13 min 13 sec) 
Heartbeat CPU 0 instructions: 140000000 cycles: 292915763 heartbeat IPC: 0.316634 cumulative IPC: 0.326026 (Simulation time: 1 hr 13 min 29 sec) 
Heartbeat CPU 3 instructions: 140000000 cycles: 293725261 heartbeat IPC: 0.317022 cumulative IPC: 0.325104 (Simulation time: 1 hr 13 min 38 sec) 
Heartbeat CPU 1 instructions: 150000001 cycles: 321300108 heartbeat IPC: 0.327603 cumulative IPC: 0.328491 (Simulation time: 1 hr 18 min 59 sec) 
Heartbeat CPU 2 instructions: 150000001 cycles: 322196958 heartbeat IPC: 0.326448 cumulative IPC: 0.327533 (Simulation time: 1 hr 19 min 10 sec) 
Heartbeat CPU 0 instructions: 150000001 cycles: 323650610 heartbeat IPC: 0.325364 cumulative IPC: 0.325959 (Simulation time: 1 hr 19 min 27 sec) 
Heartbeat CPU 3 instructions: 150000001 cycles: 324914312 heartbeat IPC: 0.320625 cumulative IPC: 0.32465 (Simulation time: 1 hr 19 min 42 sec) 
Heartbeat CPU 1 instructions: 160000000 cycles: 352033837 heartbeat IPC: 0.325375 cumulative IPC: 0.328205 (Simulation time: 1 hr 25 min 5 sec) 
Heartbeat CPU 2 instructions: 160000000 cycles: 352822561 heartbeat IPC: 0.326524 cumulative IPC: 0.327441 (Simulation time: 1 hr 25 min 14 sec) 
Heartbeat CPU 0 instructions: 160000000 cycles: 354620877 heartbeat IPC: 0.32289 cumulative IPC: 0.325678 (Simulation time: 1 hr 25 min 36 sec) 
Heartbeat CPU 3 instructions: 160000000 cycles: 356260447 heartbeat IPC: 0.319019 cumulative IPC: 0.32413 (Simulation time: 1 hr 25 min 55 sec) 
Heartbeat CPU 1 instructions: 170000001 cycles: 384055366 heartbeat IPC: 0.31229 cumulative IPC: 0.326817 (Simulation time: 1 hr 30 min 55 sec) 
Heartbeat CPU 2 instructions: 170000001 cycles: 384770508 heartbeat IPC: 0.313009 cumulative IPC: 0.326188 (Simulation time: 1 hr 31 min 4 sec) 
Heartbeat CPU 0 instructions: 170000001 cycles: 386940814 heartbeat IPC: 0.309407 cumulative IPC: 0.324257 (Simulation time: 1 hr 31 min 30 sec) 
Heartbeat CPU 3 instructions: 170000001 cycles: 388477822 heartbeat IPC: 0.310392 cumulative IPC: 0.322939 (Simulation time: 1 hr 31 min 48 sec) 
Heartbeat CPU 1 instructions: 180000000 cycles: 416825455 heartbeat IPC: 0.305156 cumulative IPC: 0.325042 (Simulation time: 1 hr 37 min 17 sec) 
Heartbeat CPU 2 instructions: 180000000 cycles: 417336097 heartbeat IPC: 0.307073 cumulative IPC: 0.324633 (Simulation time: 1 hr 37 min 23 sec) 
Heartbeat CPU 0 instructions: 180000000 cycles: 418959724 heartbeat IPC: 0.312315 cumulative IPC: 0.323306 (Simulation time: 1 hr 37 min 42 sec) 
Heartbeat CPU 3 instructions: 180000003 cycles: 420954787 heartbeat IPC: 0.307911 cumulative IPC: 0.321731 (Simulation time: 1 hr 38 min 4 sec) 
Heartbeat CPU 1 instructions: 190000000 cycles: 449889828 heartbeat IPC: 0.30244 cumulative IPC: 0.323317 (Simulation time: 1 hr 43 min 35 sec) 
Heartbeat CPU 2 instructions: 190000000 cycles: 450782150 heartbeat IPC: 0.298989 cumulative IPC: 0.322657 (Simulation time: 1 hr 43 min 46 sec) 
Heartbeat CPU 0 instructions: 190000000 cycles: 452504069 heartbeat IPC: 0.298113 cumulative IPC: 0.321366 (Simulation time: 1 hr 44 min 6 sec) 
Heartbeat CPU 3 instructions: 190000002 cycles: 454058501 heartbeat IPC: 0.302081 cumulative IPC: 0.320243 (Simulation time: 1 hr 44 min 25 sec) 
Heartbeat CPU 1 instructions: 200000001 cycles: 483436313 heartbeat IPC: 0.298094 cumulative IPC: 0.321503 (Simulation time: 1 hr 49 min 51 sec) 
Heartbeat CPU 2 instructions: 200000001 cycles: 484550033 heartbeat IPC: 0.296139 cumulative IPC: 0.320742 (Simulation time: 1 hr 50 min 4 sec) 
Heartbeat CPU 0 instructions: 200000001 cycles: 486076464 heartbeat IPC: 0.297864 cumulative IPC: 0.319684 (Simulation time: 1 hr 50 min 20 sec) 
Heartbeat CPU 3 instructions: 200000001 cycles: 488088139 heartbeat IPC: 0.293861 cumulative IPC: 0.318338 (Simulation time: 1 hr 50 min 43 sec) 
Heartbeat CPU 1 instructions: 210000002 cycles: 516579605 heartbeat IPC: 0.30172 cumulative IPC: 0.320191 (Simulation time: 1 hr 55 min 58 sec) 
Heartbeat CPU 2 instructions: 210000002 cycles: 517351970 heartbeat IPC: 0.30486 cumulative IPC: 0.319701 (Simulation time: 1 hr 56 min 7 sec) 
Heartbeat CPU 0 instructions: 210000002 cycles: 518759098 heartbeat IPC: 0.305973 cumulative IPC: 0.318791 (Simulation time: 1 hr 56 min 22 sec) 
Heartbeat CPU 3 instructions: 210000002 cycles: 521278387 heartbeat IPC: 0.301293 cumulative IPC: 0.317216 (Simulation time: 1 hr 56 min 50 sec) 
Heartbeat CPU 1 instructions: 220000000 cycles: 548907126 heartbeat IPC: 0.309334 cumulative IPC: 0.319531 (Simulation time: 2 hr 1 min 55 sec) 
Heartbeat CPU 2 instructions: 220000000 cycles: 549465335 heartbeat IPC: 0.311397 cumulative IPC: 0.3192 (Simulation time: 2 hr 2 min 1 sec) 
Heartbeat CPU 0 instructions: 220000000 cycles: 551206298 heartbeat IPC: 0.308193 cumulative IPC: 0.318148 (Simulation time: 2 hr 2 min 21 sec) 
Heartbeat CPU 3 instructions: 220000000 cycles: 552881803 heartbeat IPC: 0.316421 cumulative IPC: 0.317169 (Simulation time: 2 hr 2 min 39 sec) 
Heartbeat CPU 1 instructions: 230000002 cycles: 581825618 heartbeat IPC: 0.303781 cumulative IPC: 0.318613 (Simulation time: 2 hr 8 min 5 sec) 
Heartbeat CPU 2 instructions: 230000002 cycles: 582375456 heartbeat IPC: 0.303858 cumulative IPC: 0.318307 (Simulation time: 2 hr 8 min 11 sec) 
Heartbeat CPU 0 instructions: 230000002 cycles: 583576092 heartbeat IPC: 0.30893 cumulative IPC: 0.317621 (Simulation time: 2 hr 8 min 25 sec) 
Heartbeat CPU 3 instructions: 230000002 cycles: 585315954 heartbeat IPC: 0.308317 cumulative IPC: 0.316664 (Simulation time: 2 hr 8 min 44 sec) 
Heartbeat CPU 1 instructions: 240000000 cycles: 620311995 heartbeat IPC: 0.259832 cumulative IPC: 0.314864 (Simulation time: 2 hr 14 min 0 sec) 
Heartbeat CPU 2 instructions: 240000001 cycles: 620618775 heartbeat IPC: 0.261484 cumulative IPC: 0.314708 (Simulation time: 2 hr 14 min 4 sec) 
Heartbeat CPU 0 instructions: 240000000 cycles: 621599806 heartbeat IPC: 0.262994 cumulative IPC: 0.314186 (Simulation time: 2 hr 14 min 14 sec) 
Heartbeat CPU 3 instructions: 240000001 cycles: 623569474 heartbeat IPC: 0.261414 cumulative IPC: 0.313181 (Simulation time: 2 hr 14 min 35 sec) 
Heartbeat CPU 1 instructions: 250000001 cycles: 654826155 heartbeat IPC: 0.289736 cumulative IPC: 0.313505 (Simulation time: 2 hr 19 min 51 sec) 
Finished CPU 1 instructions: 200000002 cycles: 637943431 cumulative IPC: 0.313507 (Simulation time: 2 hr 19 min 51 sec) 
Heartbeat CPU 2 instructions: 250000001 cycles: 654858473 heartbeat IPC: 0.292059 cumulative IPC: 0.313492 (Simulation time: 2 hr 19 min 52 sec) 
Finished CPU 2 instructions: 200000001 cycles: 637971330 cumulative IPC: 0.313494 (Simulation time: 2 hr 19 min 52 sec) 
Heartbeat CPU 0 instructions: 250000001 cycles: 655654597 heartbeat IPC: 0.293644 cumulative IPC: 0.313091 (Simulation time: 2 hr 20 min 1 sec) 
Finished CPU 0 instructions: 200000002 cycles: 638782655 cumulative IPC: 0.313096 (Simulation time: 2 hr 20 min 1 sec) 
Heartbeat CPU 3 instructions: 250000001 cycles: 658458163 heartbeat IPC: 0.286626 cumulative IPC: 0.311736 (Simulation time: 2 hr 20 min 31 sec) 
Finished CPU 3 instructions: 200000000 cycles: 641567488 cumulative IPC: 0.311736 (Simulation time: 2 hr 20 min 31 sec) 

ChampSim completed all CPUs

Total Simulation Statistics (not including warmup)

CPU 0 cumulative IPC: 0.313114 instructions: 200884031 cycles: 641567488
ITLB TOTAL     ACCESS:   34969969  HIT:   34969969  MISS:          0  HIT %:        100  MISS %:          0   MPKI: 0
ITLB LOAD      ACCESS:          0  HIT:          0  MISS:          0  HIT %:       -nan  MISS %:       -nan   MPKI: 0
ITLB RFO       ACCESS:          0  HIT:          0  MISS:          0  HIT %:       -nan  MISS %:       -nan   MPKI: 0
ITLB PREFETCH  ACCESS:          0  HIT:          0  MISS:          0  HIT %:       -nan  MISS %:       -nan   MPKI: 0
ITLB WRITEBACK ACCESS:          0  HIT:          0  MISS:          0  HIT %:       -nan  MISS %:       -nan   MPKI: 0
DTLB TOTAL     ACCESS:   54463522  HIT:   47124043  MISS:    7339479  HIT %:     86.524  MISS %:     13.476   MPKI: 36.5359
DTLB LOAD      ACCESS:          0  HIT:          0  MISS:          0  HIT %:       -nan  MISS %:       -nan   MPKI: 0
DTLB RFO       ACCESS:          0  HIT:          0  MISS:          0  HIT %:       -nan  MISS %:       -nan   MPKI: 0
DTLB PREFETCH  ACCESS:          0  HIT:          0  MISS:          0  HIT %:       -nan  MISS %:       -nan   MPKI: 0
DTLB WRITEBACK ACCESS:          0  HIT:          0  MISS:          0  HIT %:       -nan  MISS %:       -nan   MPKI: 0
STLB TOTAL     ACCESS:   27691405  HIT:   27589717  MISS:     101688  HIT %:    99.6328  MISS %:   0.367219   MPKI: 0.506203
STLB LOAD      ACCESS:          0  HIT:          0  MISS:          0  HIT %:       -nan  MISS %:       -nan   MPKI: 0
STLB RFO       ACCESS:          0  HIT:          0  MISS:          0  HIT %:       -nan  MISS %:       -nan   MPKI: 0
STLB PREFETCH  ACCESS:          0  HIT:          0  MISS:          0  HIT %:       -nan  MISS %:       -nan   MPKI: 0
STLB WRITEBACK ACCESS:          0  HIT:          0  MISS:          0  HIT %:       -nan  MISS %:       -nan   MPKI: 0
L1D TOTAL     ACCESS:  148559522  HIT:  134469128  MISS:   14090394  HIT %:    90.5153  MISS %:    9.48468   MPKI: 70.1419
L1D LOAD      ACCESS:   50035254  HIT:   40021077  MISS:   10014177  HIT %:    79.9858  MISS %:    20.0142   MPKI: 49.8505
L1D RFO       ACCESS:   16739269  HIT:   16130365  MISS:     608904  HIT %:    96.3624  MISS %:    3.63758   MPKI: 3.03112
L1D PREFETCH  ACCESS:   81784999  HIT:   78317686  MISS:    3467313  HIT %:    95.7605  MISS %:    4.23955   MPKI: 17.2603
L1D WRITEBACK ACCESS:          0  HIT:          0  MISS:          0  HIT %:       -nan  MISS %:       -nan   MPKI: 0
L1I TOTAL     ACCESS:   36476666  HIT:   36476664  MISS:          2  HIT %:        100  MISS %: 5.48296e-06   MPKI: 9.95599e-06
L1I LOAD      ACCESS:   36476666  HIT:   36476664  MISS:          2  HIT %:        100  MISS %: 5.48296e-06   MPKI: 9.95599e-06
L1I RFO       ACCESS:          0  HIT:          0  MISS:          0  HIT %:       -nan  MISS %:       -nan   MPKI: 0
L1I PREFETCH  ACCESS:          0  HIT:          0  MISS:          0  HIT %:       -nan  MISS %:       -nan   MPKI: 0
L1I WRITEBACK ACCESS:          0  HIT:          0  MISS:          0  HIT %:       -nan  MISS %:       -nan   MPKI: 0
L2C TOTAL     ACCESS:   25366125  HIT:   14149445  MISS:   11216680  HIT %:    55.7809  MISS %:    44.2191   MPKI: 55.8366
L2C LOAD      ACCESS:    9647678  HIT:    3154571  MISS:    6493107  HIT %:    32.6977  MISS %:    67.3023   MPKI: 32.3227
L2C RFO       ACCESS:     608902  HIT:     334972  MISS:     273930  HIT %:    55.0125  MISS %:    44.9875   MPKI: 1.36362
L2C PREFETCH  ACCESS:   13242879  HIT:    8851293  MISS:    4391586  HIT %:    66.8381  MISS %:    33.1619   MPKI: 21.8613
L2C WRITEBACK ACCESS:     936343  HIT:     913777  MISS:      22566  HIT %:      97.59  MISS %:    2.41001   MPKI: 0.112333
PSCL5 TOTAL     ACCESS:     921260  HIT:     921260  MISS:          0  HIT %:        100  MISS %:          0   MPKI: 0
PSCL5 LOAD      ACCESS:          0  HIT:          0  MISS:          0  HIT %:       -nan  MISS %:       -nan   MPKI: 0
PSCL5 RFO       ACCESS:          0  HIT:          0  MISS:          0  HIT %:       -nan  MISS %:       -nan   MPKI: 0
PSCL5 PREFETCH  ACCESS:          0  HIT:          0  MISS:          0  HIT %:       -nan  MISS %:       -nan   MPKI: 0
PSCL5 WRITEBACK ACCESS:          0  HIT:          0  MISS:          0  HIT %:       -nan  MISS %:       -nan   MPKI: 0
PSCL4 TOTAL     ACCESS:     921260  HIT:     921260  MISS:          0  HIT %:        100  MISS %:          0   MPKI: 0
PSCL4 LOAD      ACCESS:          0  HIT:          0  MISS:          0  HIT %:       -nan  MISS %:       -nan   MPKI: 0
PSCL4 RFO       ACCESS:          0  HIT:          0  MISS:          0  HIT %:       -nan  MISS %:       -nan   MPKI: 0
PSCL4 PREFETCH  ACCESS:          0  HIT:          0  MISS:          0  HIT %:       -nan  MISS %:       -nan   MPKI: 0
PSCL4 WRITEBACK ACCESS:          0  HIT:          0  MISS:          0  HIT %:       -nan  MISS %:       -nan   MPKI: 0
PSCL3 TOTAL     ACCESS:     921260  HIT:     921260  MISS:          0  HIT %:        100  MISS %:          0   MPKI: 0
PSCL3 LOAD      ACCESS:          0  HIT:          0  MISS:          0  HIT %:       -nan  MISS %:       -nan   MPKI: 0
PSCL3 RFO       ACCESS:          0  HIT:          0  MISS:          0  HIT %:       -nan  MISS %:       -nan   MPKI: 0
PSCL3 PREFETCH  ACCESS:          0  HIT:          0  MISS:          0  HIT %:       -nan  MISS %:       -nan   MPKI: 0
PSCL3 WRITEBACK ACCESS:          0  HIT:          0  MISS:          0  HIT %:       -nan  MISS %:       -nan   MPKI: 0
PSCL2 TOTAL     ACCESS:     911869  HIT:     910834  MISS:       1035  HIT %:    99.8865  MISS %:   0.113503   MPKI: 0.00515223
PSCL2 LOAD      ACCESS:          0  HIT:          0  MISS:          0  HIT %:       -nan  MISS %:       -nan   MPKI: 0
PSCL2 RFO       ACCESS:          0  HIT:          0  MISS:          0  HIT %:       -nan  MISS %:       -nan   MPKI: 0
PSCL2 PREFETCH  ACCESS:          0  HIT:          0  MISS:          0  HIT %:       -nan  MISS %:       -nan   MPKI: 0
PSCL2 WRITEBACK ACCESS:          0  HIT:          0  MISS:          0  HIT %:       -nan  MISS %:       -nan   MPKI: 0
LLC TOTAL     ACCESS:   11732371  HIT:    6384000  MISS:    5348371  HIT %:    54.4136  MISS %:    45.5864   MPKI: 26.6242
LLC LOAD      ACCESS:    6407488  HIT:    5321693  MISS:    1085795  HIT %:    83.0543  MISS %:    16.9457   MPKI: 5.40508
LLC RFO       ACCESS:     273665  HIT:     269339  MISS:       4326  HIT %:    98.4192  MISS %:    1.58076   MPKI: 0.0215348
LLC PREFETCH  ACCESS:    4477461  HIT:     236542  MISS:    4240919  HIT %:    5.28295  MISS %:    94.7171   MPKI: 21.1113
LLC WRITEBACK ACCESS:     538266  HIT:     534629  MISS:       3637  HIT %:    99.3243  MISS %:   0.675688   MPKI: 0.018105

RAW hits: 2662236
Loads Generated: 70963170
Loads sent to L1D: 68300934
Stores Generated: 17883240
Stores sent to L1D: 17883240

CPU 1 cumulative IPC: 0.31353 instructions: 201150750 cycles: 641567488
ITLB TOTAL     ACCESS:   35016730  HIT:   35016730  MISS:          0  HIT %:        100  MISS %:          0   MPKI: 0
ITLB LOAD      ACCESS:          0  HIT:          0  MISS:          0  HIT %:       -nan  MISS %:       -nan   MPKI: 0
ITLB RFO       ACCESS:          0  HIT:          0  MISS:          0  HIT %:       -nan  MISS %:       -nan   MPKI: 0
ITLB PREFETCH  ACCESS:          0  HIT:          0  MISS:          0  HIT %:       -nan  MISS %:       -nan   MPKI: 0
ITLB WRITEBACK ACCESS:          0  HIT:          0  MISS:          0  HIT %:       -nan  MISS %:       -nan   MPKI: 0
DTLB TOTAL     ACCESS:   54533739  HIT:   47182449  MISS:    7351290  HIT %:    86.5197  MISS %:    13.4803   MPKI: 36.5462
DTLB LOAD      ACCESS:          0  HIT:          0  MISS:          0  HIT %:       -nan  MISS %:       -nan   MPKI: 0
DTLB RFO       ACCESS:          0  HIT:          0  MISS:          0  HIT %:       -nan  MISS %:       -nan   MPKI: 0
DTLB PREFETCH  ACCESS:          0  HIT:          0  MISS:          0  HIT %:       -nan  MISS %:       -nan   MPKI: 0
DTLB WRITEBACK ACCESS:          0  HIT:          0  MISS:          0  HIT %:       -nan  MISS %:       -nan   MPKI: 0
STLB TOTAL     ACCESS:   27663442  HIT:   27561434  MISS:     102008  HIT %:    99.6313  MISS %:   0.368747   MPKI: 0.507122
STLB LOAD      ACCESS:          0  HIT:          0  MISS:          0  HIT %:       -nan  MISS %:       -nan   MPKI: 0
STLB RFO       ACCESS:          0  HIT:          0  MISS:          0  HIT %:       -nan  MISS %:       -nan   MPKI: 0
STLB PREFETCH  ACCESS:          0  HIT:          0  MISS:          0  HIT %:       -nan  MISS %:       -nan   MPKI: 0
STLB WRITEBACK ACCESS:          0  HIT:          0  MISS:          0  HIT %:       -nan  MISS %:       -nan   MPKI: 0
L1D TOTAL     ACCESS:  148444037  HIT:  134329893  MISS:   14114144  HIT %:    90.4919  MISS %:    9.50806   MPKI: 70.167
L1D LOAD      ACCESS:   50100557  HIT:   40068481  MISS:   10032076  HIT %:    79.9761  MISS %:    20.0239   MPKI: 49.8734
L1D RFO       ACCESS:   16766758  HIT:   16156883  MISS:     609875  HIT %:    96.3626  MISS %:    3.63741   MPKI: 3.03193
L1D PREFETCH  ACCESS:   81576722  HIT:   78104529  MISS:    3472193  HIT %:    95.7436  MISS %:    4.25635   MPKI: 17.2616
L1D WRITEBACK ACCESS:          0  HIT:          0  MISS:          0  HIT %:       -nan  MISS %:       -nan   MPKI: 0
L1I TOTAL     ACCESS:   36525211  HIT:   36525209  MISS:          2  HIT %:        100  MISS %: 5.47567e-06   MPKI: 9.94279e-06
L1I LOAD      ACCESS:   36525211  HIT:   36525209  MISS:          2  HIT %:        100  MISS %: 5.47567e-06   MPKI: 9.94279e-06
L1I RFO       ACCESS:          0  HIT:          0  MISS:          0  HIT %:       -nan  MISS %:       -nan   MPKI: 0
L1I PREFETCH  ACCESS:          0  HIT:          0  MISS:          0  HIT %:       -nan  MISS %:       -nan   MPKI: 0
L1I WRITEBACK ACCESS:          0  HIT:          0  MISS:          0  HIT %:       -nan  MISS %:       -nan   MPKI: 0
L2C TOTAL     ACCESS:   25242303  HIT:   14023245  MISS:   11219058  HIT %:    55.5545  MISS %:    44.4455   MPKI: 55.7744
L2C LOAD      ACCESS:    9663671  HIT:    3168871  MISS:    6494800  HIT %:    32.7916  MISS %:    67.2084   MPKI: 32.2882
L2C RFO       ACCESS:     609872  HIT:     342248  MISS:     267624  HIT %:     56.118  MISS %:     43.882   MPKI: 1.33046
L2C PREFETCH  ACCESS:   13093709  HIT:    8695664  MISS:    4398045  HIT %:     66.411  MISS %:     33.589   MPKI: 21.8644
L2C WRITEBACK ACCESS:     937646  HIT:     916227  MISS:      21419  HIT %:    97.7157  MISS %:    2.28434   MPKI: 0.106482
PSCL5 TOTAL     ACCESS:     926665  HIT:     926665  MISS:          0  HIT %:        100  MISS %:          0   MPKI: 0
PSCL5 LOAD      ACCESS:          0  HIT:          0  MISS:          0  HIT %:       -nan  MISS %:       -nan   MPKI: 0
PSCL5 RFO       ACCESS:          0  HIT:          0  MISS:          0  HIT %:       -nan  MISS %:       -nan   MPKI: 0
PSCL5 PREFETCH  ACCESS:          0  HIT:          0  MISS:          0  HIT %:       -nan  MISS %:       -nan   MPKI: 0
PSCL5 WRITEBACK ACCESS:          0  HIT:          0  MISS:          0  HIT %:       -nan  MISS %:       -nan   MPKI: 0
PSCL4 TOTAL     ACCESS:     926665  HIT:     926665  MISS:          0  HIT %:        100  MISS %:          0   MPKI: 0
PSCL4 LOAD      ACCESS:          0  HIT:          0  MISS:          0  HIT %:       -nan  MISS %:       -nan   MPKI: 0
PSCL4 RFO       ACCESS:          0  HIT:          0  MISS:          0  HIT %:       -nan  MISS %:       -nan   MPKI: 0
PSCL4 PREFETCH  ACCESS:          0  HIT:          0  MISS:          0  HIT %:       -nan  MISS %:       -nan   MPKI: 0
PSCL4 WRITEBACK ACCESS:          0  HIT:          0  MISS:          0  HIT %:       -nan  MISS %:       -nan   MPKI: 0
PSCL3 TOTAL     ACCESS:     926665  HIT:     926665  MISS:          0  HIT %:        100  MISS %:          0   MPKI: 0
PSCL3 LOAD      ACCESS:          0  HIT:          0  MISS:          0  HIT %:       -nan  MISS %:       -nan   MPKI: 0
PSCL3 RFO       ACCESS:          0  HIT:          0  MISS:          0  HIT %:       -nan  MISS %:       -nan   MPKI: 0
PSCL3 PREFETCH  ACCESS:          0  HIT:          0  MISS:          0  HIT %:       -nan  MISS %:       -nan   MPKI: 0
PSCL3 WRITEBACK ACCESS:          0  HIT:          0  MISS:          0  HIT %:       -nan  MISS %:       -nan   MPKI: 0
PSCL2 TOTAL     ACCESS:     915529  HIT:     914496  MISS:       1033  HIT %:    99.8872  MISS %:   0.112831   MPKI: 0.00513545
PSCL2 LOAD      ACCESS:          0  HIT:          0  MISS:          0  HIT %:       -nan  MISS %:       -nan   MPKI: 0
PSCL2 RFO       ACCESS:          0  HIT:          0  MISS:          0  HIT %:       -nan  MISS %:       -nan   MPKI: 0
PSCL2 PREFETCH  ACCESS:          0  HIT:          0  MISS:          0  HIT %:       -nan  MISS %:       -nan   MPKI: 0
PSCL2 WRITEBACK ACCESS:          0  HIT:          0  MISS:          0  HIT %:       -nan  MISS %:       -nan   MPKI: 0
LLC TOTAL     ACCESS:   11725128  HIT:    6364480  MISS:    5360648  HIT %:    54.2807  MISS %:    45.7193   MPKI: 26.6499
LLC LOAD      ACCESS:    6409134  HIT:    5319049  MISS:    1090085  HIT %:    82.9917  MISS %:    17.0083   MPKI: 5.41924
LLC RFO       ACCESS:     267427  HIT:     263104  MISS:       4323  HIT %:    98.3835  MISS %:    1.61652   MPKI: 0.0214913
LLC PREFETCH  ACCESS:    4483892  HIT:     235485  MISS:    4248407  HIT %:     5.2518  MISS %:    94.7482   MPKI: 21.1205
LLC WRITEBACK ACCESS:     527505  HIT:     523820  MISS:       3685  HIT %:    99.3014  MISS %:   0.698572   MPKI: 0.0183196

RAW hits: 2665870
Loads Generated: 71057482
Loads sent to L1D: 68391613
Stores Generated: 17905409
Stores sent to L1D: 17905409

CPU 2 cumulative IPC: 0.31351 instructions: 201137518 cycles: 641567488
ITLB TOTAL     ACCESS:   35013417  HIT:   35013417  MISS:          0  HIT %:        100  MISS %:          0   MPKI: 0
ITLB LOAD      ACCESS:          0  HIT:          0  MISS:          0  HIT %:       -nan  MISS %:       -nan   MPKI: 0
ITLB RFO       ACCESS:          0  HIT:          0  MISS:          0  HIT %:       -nan  MISS %:       -nan   MPKI: 0
ITLB PREFETCH  ACCESS:          0  HIT:          0  MISS:          0  HIT %:       -nan  MISS %:       -nan   MPKI: 0
ITLB WRITEBACK ACCESS:          0  HIT:          0  MISS:          0  HIT %:       -nan  MISS %:       -nan   MPKI: 0
DTLB TOTAL     ACCESS:   54531148  HIT:   47181196  MISS:    7349952  HIT %:    86.5216  MISS %:    13.4784   MPKI: 36.5419
DTLB LOAD      ACCESS:          0  HIT:          0  MISS:          0  HIT %:       -nan  MISS %:       -nan   MPKI: 0
DTLB RFO       ACCESS:          0  HIT:          0  MISS:          0  HIT %:       -nan  MISS %:       -nan   MPKI: 0
DTLB PREFETCH  ACCESS:          0  HIT:          0  MISS:          0  HIT %:       -nan  MISS %:       -nan   MPKI: 0
DTLB WRITEBACK ACCESS:          0  HIT:          0  MISS:          0  HIT %:       -nan  MISS %:       -nan   MPKI: 0
STLB TOTAL     ACCESS:   27733493  HIT:   27631800  MISS:     101693  HIT %:    99.6333  MISS %:   0.366679   MPKI: 0.505589
STLB LOAD      ACCESS:          0  HIT:          0  MISS:          0  HIT %:       -nan  MISS %:       -nan   MPKI: 0
STLB RFO       ACCESS:          0  HIT:          0  MISS:          0  HIT %:       -nan  MISS %:       -nan   MPKI: 0
STLB PREFETCH  ACCESS:          0  HIT:          0  MISS:          0  HIT %:       -nan  MISS %:       -nan   MPKI: 0
STLB WRITEBACK ACCESS:          0  HIT:          0  MISS:          0  HIT %:       -nan  MISS %:       -nan   MPKI: 0
L1D TOTAL     ACCESS:  148681432  HIT:  134571521  MISS:   14109911  HIT %:      90.51  MISS %:    9.49003   MPKI: 70.1506
L1D LOAD      ACCESS:   50096492  HIT:   40066072  MISS:   10030420  HIT %:    79.9778  MISS %:    20.0222   MPKI: 49.8685
L1D RFO       ACCESS:   16758692  HIT:   16148913  MISS:     609779  HIT %:    96.3614  MISS %:    3.63858   MPKI: 3.03165
L1D PREFETCH  ACCESS:   81826248  HIT:   78356536  MISS:    3469712  HIT %:    95.7597  MISS %:    4.24034   MPKI: 17.2504
L1D WRITEBACK ACCESS:          0  HIT:          0  MISS:          0  HIT %:       -nan  MISS %:       -nan   MPKI: 0
L1I TOTAL     ACCESS:   36521835  HIT:   36521833  MISS:          2  HIT %:        100  MISS %: 5.47618e-06   MPKI: 9.94345e-06
L1I LOAD      ACCESS:   36521835  HIT:   36521833  MISS:          2  HIT %:        100  MISS %: 5.47618e-06   MPKI: 9.94345e-06
L1I RFO       ACCESS:          0  HIT:          0  MISS:          0  HIT %:       -nan  MISS %:       -nan   MPKI: 0
L1I PREFETCH  ACCESS:          0  HIT:          0  MISS:          0  HIT %:       -nan  MISS %:       -nan   MPKI: 0
L1I WRITEBACK ACCESS:          0  HIT:          0  MISS:          0  HIT %:       -nan  MISS %:       -nan   MPKI: 0
L2C TOTAL     ACCESS:   25374530  HIT:   14140307  MISS:   11234223  HIT %:    55.7264  MISS %:    44.2736   MPKI: 55.8534
L2C LOAD      ACCESS:    9664071  HIT:    3163961  MISS:    6500110  HIT %:    32.7394  MISS %:    67.2606   MPKI: 32.3167
L2C RFO       ACCESS:     609777  HIT:     336835  MISS:     272942  HIT %:     55.239  MISS %:     44.761   MPKI: 1.35699
L2C PREFETCH  ACCESS:   13231771  HIT:    8830591  MISS:    4401180  HIT %:    66.7378  MISS %:    33.2622   MPKI: 21.8814
L2C WRITEBACK ACCESS:     937537  HIT:     913446  MISS:      24091  HIT %:    97.4304  MISS %:    2.56961   MPKI: 0.119774
PSCL5 TOTAL     ACCESS:     921144  HIT:     921144  MISS:          0  HIT %:        100  MISS %:          0   MPKI: 0
PSCL5 LOAD      ACCESS:          0  HIT:          0  MISS:          0  HIT %:       -nan  MISS %:       -nan   MPKI: 0
PSCL5 RFO       ACCESS:          0  HIT:          0  MISS:          0  HIT %:       -nan  MISS %:       -nan   MPKI: 0
PSCL5 PREFETCH  ACCESS:          0  HIT:          0  MISS:          0  HIT %:       -nan  MISS %:       -nan   MPKI: 0
PSCL5 WRITEBACK ACCESS:          0  HIT:          0  MISS:          0  HIT %:       -nan  MISS %:       -nan   MPKI: 0
PSCL4 TOTAL     ACCESS:     921144  HIT:     921144  MISS:          0  HIT %:        100  MISS %:          0   MPKI: 0
PSCL4 LOAD      ACCESS:          0  HIT:          0  MISS:          0  HIT %:       -nan  MISS %:       -nan   MPKI: 0
PSCL4 RFO       ACCESS:          0  HIT:          0  MISS:          0  HIT %:       -nan  MISS %:       -nan   MPKI: 0
PSCL4 PREFETCH  ACCESS:          0  HIT:          0  MISS:          0  HIT %:       -nan  MISS %:       -nan   MPKI: 0
PSCL4 WRITEBACK ACCESS:          0  HIT:          0  MISS:          0  HIT %:       -nan  MISS %:       -nan   MPKI: 0
PSCL3 TOTAL     ACCESS:     921144  HIT:     921144  MISS:          0  HIT %:        100  MISS %:          0   MPKI: 0
PSCL3 LOAD      ACCESS:          0  HIT:          0  MISS:          0  HIT %:       -nan  MISS %:       -nan   MPKI: 0
PSCL3 RFO       ACCESS:          0  HIT:          0  MISS:          0  HIT %:       -nan  MISS %:       -nan   MPKI: 0
PSCL3 PREFETCH  ACCESS:          0  HIT:          0  MISS:          0  HIT %:       -nan  MISS %:       -nan   MPKI: 0
PSCL3 WRITEBACK ACCESS:          0  HIT:          0  MISS:          0  HIT %:       -nan  MISS %:       -nan   MPKI: 0
PSCL2 TOTAL     ACCESS:     910594  HIT:     909563  MISS:       1031  HIT %:    99.8868  MISS %:   0.113223   MPKI: 0.00512585
PSCL2 LOAD      ACCESS:          0  HIT:          0  MISS:          0  HIT %:       -nan  MISS %:       -nan   MPKI: 0
PSCL2 RFO       ACCESS:          0  HIT:          0  MISS:          0  HIT %:       -nan  MISS %:       -nan   MPKI: 0
PSCL2 PREFETCH  ACCESS:          0  HIT:          0  MISS:          0  HIT %:       -nan  MISS %:       -nan   MPKI: 0
PSCL2 WRITEBACK ACCESS:          0  HIT:          0  MISS:          0  HIT %:       -nan  MISS %:       -nan   MPKI: 0
LLC TOTAL     ACCESS:   11745432  HIT:    6384023  MISS:    5361409  HIT %:    54.3532  MISS %:    45.6468   MPKI: 26.6554
LLC LOAD      ACCESS:    6413809  HIT:    5323464  MISS:    1090345  HIT %:         83  MISS %:         17   MPKI: 5.42089
LLC RFO       ACCESS:     272676  HIT:     268300  MISS:       4376  HIT %:    98.3952  MISS %:    1.60484   MPKI: 0.0217563
LLC PREFETCH  ACCESS:    4487738  HIT:     239040  MISS:    4248698  HIT %:    5.32651  MISS %:    94.6735   MPKI: 21.1233
LLC WRITEBACK ACCESS:     535309  HIT:     531291  MISS:       4018  HIT %:    99.2494  MISS %:   0.750595   MPKI: 0.0199764

RAW hits: 2665585
Loads Generated: 71052382
Loads sent to L1D: 68386796
Stores Generated: 17905316
Stores sent to L1D: 17905316

CPU 3 cumulative IPC: 0.311736 instructions: 200000000 cycles: 641567488
ITLB TOTAL     ACCESS:   34818602  HIT:   34818602  MISS:          0  HIT %:        100  MISS %:          0   MPKI: 0
ITLB LOAD      ACCESS:          0  HIT:          0  MISS:          0  HIT %:       -nan  MISS %:       -nan   MPKI: 0
ITLB RFO       ACCESS:          0  HIT:          0  MISS:          0  HIT %:       -nan  MISS %:       -nan   MPKI: 0
ITLB PREFETCH  ACCESS:          0  HIT:          0  MISS:          0  HIT %:       -nan  MISS %:       -nan   MPKI: 0
ITLB WRITEBACK ACCESS:          0  HIT:          0  MISS:          0  HIT %:       -nan  MISS %:       -nan   MPKI: 0
DTLB TOTAL     ACCESS:   54227196  HIT:   46920114  MISS:    7307082  HIT %:    86.5251  MISS %:    13.4749   MPKI: 36.5354
DTLB LOAD      ACCESS:          0  HIT:          0  MISS:          0  HIT %:       -nan  MISS %:       -nan   MPKI: 0
DTLB RFO       ACCESS:          0  HIT:          0  MISS:          0  HIT %:       -nan  MISS %:       -nan   MPKI: 0
DTLB PREFETCH  ACCESS:          0  HIT:          0  MISS:          0  HIT %:       -nan  MISS %:       -nan   MPKI: 0
DTLB WRITEBACK ACCESS:          0  HIT:          0  MISS:          0  HIT %:       -nan  MISS %:       -nan   MPKI: 0
STLB TOTAL     ACCESS:   27564383  HIT:   27462881  MISS:     101502  HIT %:    99.6318  MISS %:   0.368236   MPKI: 0.50751
STLB LOAD      ACCESS:          0  HIT:          0  MISS:          0  HIT %:       -nan  MISS %:       -nan   MPKI: 0
STLB RFO       ACCESS:          0  HIT:          0  MISS:          0  HIT %:       -nan  MISS %:       -nan   MPKI: 0
STLB PREFETCH  ACCESS:          0  HIT:          0  MISS:          0  HIT %:       -nan  MISS %:       -nan   MPKI: 0
STLB WRITEBACK ACCESS:          0  HIT:          0  MISS:          0  HIT %:       -nan  MISS %:       -nan   MPKI: 0
L1D TOTAL     ACCESS:  147802599  HIT:  133773984  MISS:   14028615  HIT %:    90.5085  MISS %:    9.49145   MPKI: 70.1431
L1D LOAD      ACCESS:   49816667  HIT:   39840290  MISS:    9976377  HIT %:    79.9738  MISS %:    20.0262   MPKI: 49.8819
L1D RFO       ACCESS:   16657509  HIT:   16051354  MISS:     606155  HIT %:    96.3611  MISS %:    3.63893   MPKI: 3.03078
L1D PREFETCH  ACCESS:   81328423  HIT:   77882340  MISS:    3446083  HIT %:    95.7628  MISS %:    4.23724   MPKI: 17.2304
L1D WRITEBACK ACCESS:          0  HIT:          0  MISS:          0  HIT %:       -nan  MISS %:       -nan   MPKI: 0
L1I TOTAL     ACCESS:   36318654  HIT:   36318652  MISS:          2  HIT %:        100  MISS %: 5.50681e-06   MPKI: 1e-05
L1I LOAD      ACCESS:   36318654  HIT:   36318652  MISS:          2  HIT %:        100  MISS %: 5.50681e-06   MPKI: 1e-05
L1I RFO       ACCESS:          0  HIT:          0  MISS:          0  HIT %:       -nan  MISS %:       -nan   MPKI: 0
L1I PREFETCH  ACCESS:          0  HIT:          0  MISS:          0  HIT %:       -nan  MISS %:       -nan   MPKI: 0
L1I WRITEBACK ACCESS:          0  HIT:          0  MISS:          0  HIT %:       -nan  MISS %:       -nan   MPKI: 0
L2C TOTAL     ACCESS:   25191748  HIT:   13983500  MISS:   11208248  HIT %:    55.5083  MISS %:    44.4917   MPKI: 56.0412
L2C LOAD      ACCESS:    9606173  HIT:    3128878  MISS:    6477295  HIT %:    32.5715  MISS %:    67.4285   MPKI: 32.3865
L2C RFO       ACCESS:     606155  HIT:     316314  MISS:     289841  HIT %:    52.1837  MISS %:    47.8163   MPKI: 1.44921
L2C PREFETCH  ACCESS:   13122848  HIT:    8742348  MISS:    4380500  HIT %:    66.6193  MISS %:    33.3807   MPKI: 21.9025
L2C WRITEBACK ACCESS:     932245  HIT:     906998  MISS:      25247  HIT %:    97.2918  MISS %:    2.70819   MPKI: 0.126235
PSCL5 TOTAL     ACCESS:     915465  HIT:     915465  MISS:          0  HIT %:        100  MISS %:          0   MPKI: 0
PSCL5 LOAD      ACCESS:          0  HIT:          0  MISS:          0  HIT %:       -nan  MISS %:       -nan   MPKI: 0
PSCL5 RFO       ACCESS:          0  HIT:          0  MISS:          0  HIT %:       -nan  MISS %:       -nan   MPKI: 0
PSCL5 PREFETCH  ACCESS:          0  HIT:          0  MISS:          0  HIT %:       -nan  MISS %:       -nan   MPKI: 0
PSCL5 WRITEBACK ACCESS:          0  HIT:          0  MISS:          0  HIT %:       -nan  MISS %:       -nan   MPKI: 0
PSCL4 TOTAL     ACCESS:     915465  HIT:     915465  MISS:          0  HIT %:        100  MISS %:          0   MPKI: 0
PSCL4 LOAD      ACCESS:          0  HIT:          0  MISS:          0  HIT %:       -nan  MISS %:       -nan   MPKI: 0
PSCL4 RFO       ACCESS:          0  HIT:          0  MISS:          0  HIT %:       -nan  MISS %:       -nan   MPKI: 0
PSCL4 PREFETCH  ACCESS:          0  HIT:          0  MISS:          0  HIT %:       -nan  MISS %:       -nan   MPKI: 0
PSCL4 WRITEBACK ACCESS:          0  HIT:          0  MISS:          0  HIT %:       -nan  MISS %:       -nan   MPKI: 0
PSCL3 TOTAL     ACCESS:     915465  HIT:     915465  MISS:          0  HIT %:        100  MISS %:          0   MPKI: 0
PSCL3 LOAD      ACCESS:          0  HIT:          0  MISS:          0  HIT %:       -nan  MISS %:       -nan   MPKI: 0
PSCL3 RFO       ACCESS:          0  HIT:          0  MISS:          0  HIT %:       -nan  MISS %:       -nan   MPKI: 0
PSCL3 PREFETCH  ACCESS:          0  HIT:          0  MISS:          0  HIT %:       -nan  MISS %:       -nan   MPKI: 0
PSCL3 WRITEBACK ACCESS:          0  HIT:          0  MISS:          0  HIT %:       -nan  MISS %:       -nan   MPKI: 0
PSCL2 TOTAL     ACCESS:     906257  HIT:     905227  MISS:       1030  HIT %:    99.8863  MISS %:   0.113654   MPKI: 0.00515
PSCL2 LOAD      ACCESS:          0  HIT:          0  MISS:          0  HIT %:       -nan  MISS %:       -nan   MPKI: 0
PSCL2 RFO       ACCESS:          0  HIT:          0  MISS:          0  HIT %:       -nan  MISS %:       -nan   MPKI: 0
PSCL2 PREFETCH  ACCESS:          0  HIT:          0  MISS:          0  HIT %:       -nan  MISS %:       -nan   MPKI: 0
PSCL2 WRITEBACK ACCESS:          0  HIT:          0  MISS:          0  HIT %:       -nan  MISS %:       -nan   MPKI: 0
LLC TOTAL     ACCESS:   11740833  HIT:    6397897  MISS:    5342936  HIT %:    54.4927  MISS %:    45.5073   MPKI: 26.7147
LLC LOAD      ACCESS:    6391784  HIT:    5297551  MISS:    1094233  HIT %:    82.8806  MISS %:    17.1194   MPKI: 5.47117
LLC RFO       ACCESS:     289534  HIT:     284983  MISS:       4551  HIT %:    98.4282  MISS %:    1.57184   MPKI: 0.022755
LLC PREFETCH  ACCESS:    4466302  HIT:     240548  MISS:    4225754  HIT %:    5.38584  MISS %:    94.6142   MPKI: 21.1288
LLC WRITEBACK ACCESS:     557848  HIT:     553714  MISS:       4134  HIT %:    99.2589  MISS %:   0.741062   MPKI: 0.02067

RAW hits: 2650310
Loads Generated: 70652983
Loads sent to L1D: 68002671
Stores Generated: 17802933
Stores sent to L1D: 17802933

Region of Interest Statistics

CPU 0 cumulative IPC: 0.313096 instructions: 200000002 cycles: 638782655
ITLB TOTAL     ACCESS:   34816980  HIT:   34816980  MISS:          0  HIT %:        100  MISS %:          0   MPKI: 0
ITLB LOAD TRANSLATION ACCESS:   34816980  HIT:   34816980  MISS:          0  HIT %:        100  MISS %:          0   MPKI: 0
ITLB PREFETCH  REQUESTED:          0  ISSUED:          0  USEFUL:          0  USELESS:          0
ITLB USEFUL LOAD PREFETCHES:          0 PREFETCH ISSUED TO LOWER LEVEL:          0  ACCURACY: -nan
ITLB TIMELY PREFETCHES:          0 LATE PREFETCHES: 0 DROPPED PREFETCHES: 0
ITLB PREFETCHES SAME FILL-ORIGIN LEVEL: 0 DIFFERENT FILL-ORIGIN LEVEL: 0
ITLB AVERAGE MISS LATENCY: -nan cycles
ITLB RQ	ACCESS:   36476666	FORWARD:          0	MERGED:    1506697	TO_CACHE:   34969969

DTLB TOTAL     ACCESS:   54225496  HIT:   46918175  MISS:    7307321  HIT %:    86.5242  MISS %:    13.4758   MPKI: 36.5366
DTLB LOAD TRANSLATION ACCESS:   54225496  HIT:   46918175  MISS:    7307321  HIT %:    86.5242  MISS %:    13.4758   MPKI: 36.5366
DTLB PREFETCH  REQUESTED:          0  ISSUED:          0  USEFUL:          0  USELESS:          0
DTLB USEFUL LOAD PREFETCHES:          0 PREFETCH ISSUED TO LOWER LEVEL:          0  ACCURACY: -nan
DTLB TIMELY PREFETCHES:          0 LATE PREFETCHES: 0 DROPPED PREFETCHES: 0
DTLB PREFETCHES SAME FILL-ORIGIN LEVEL: 0 DIFFERENT FILL-ORIGIN LEVEL: 0
DTLB AVERAGE MISS LATENCY: 10.8865 cycles
DTLB RQ	ACCESS:   67946613	FORWARD:          0	MERGED:   13233190	TO_CACHE:   54713423

STLB TOTAL     ACCESS:   27570246  HIT:   27469016  MISS:     101230  HIT %:    99.6328  MISS %:   0.367171   MPKI: 0.50615
STLB LOAD TRANSLATION ACCESS:    7307321  HIT:    7207288  MISS:     100033  HIT %:    98.6311  MISS %:    1.36894   MPKI: 0.500165
STLB TRANSLATION FROM L1D PREFETCHER ACCESS:   20262925  HIT:   20261728  MISS:       1197  HIT %:    99.9941  MISS %: 0.00590734   MPKI: 0.005985
STLB PREFETCH  REQUESTED:          0  ISSUED:          0  USEFUL:        791  USELESS:        409
STLB USEFUL LOAD PREFETCHES:        791 PREFETCH ISSUED TO LOWER LEVEL:          0  ACCURACY: inf
STLB TIMELY PREFETCHES:        791 LATE PREFETCHES: 24286 DROPPED PREFETCHES: 795293
STLB PREFETCHES SAME FILL-ORIGIN LEVEL: 0 DIFFERENT FILL-ORIGIN LEVEL: 0
STLB AVERAGE MISS LATENCY: 95.8272 cycles
STLB RQ	ACCESS:  106717553	FORWARD:          0	MERGED:   77927832	TO_CACHE:   28789721

STLB Hit, L1D data hit: 0
STLB Hit, L2C data hit: 0
STLB Hit, LLC data hit: 0
STLB Hit, LLC data miss: 0
STLB STLB hints to L2: 0
L1D TOTAL     ACCESS:  147839206  HIT:  133810049  MISS:   14029157  HIT %:    90.5105  MISS %:    9.48947   MPKI: 70.1458
L1D LOAD      ACCESS:   49816855  HIT:   39845986  MISS:    9970869  HIT %:    79.9849  MISS %:    20.0151   MPKI: 49.8543
L1D RFO       ACCESS:   16663887  HIT:   16057719  MISS:     606168  HIT %:    96.3624  MISS %:    3.63761   MPKI: 3.03084
L1D PREFETCH  ACCESS:   81358464  HIT:   77906344  MISS:    3452120  HIT %:    95.7569  MISS %:     4.2431   MPKI: 17.2606
L1D PREFETCH  REQUESTED:  271433422  ISSUED:  251382320  USEFUL:    3404270  USELESS:      63040
L1D USEFUL LOAD PREFETCHES:    3404270 PREFETCH ISSUED TO LOWER LEVEL:   14013775  ACCURACY: 24.2923
L1D TIMELY PREFETCHES:    3404270 LATE PREFETCHES: 366468 DROPPED PREFETCHES: 3551327
L1D PREFETCHES SAME FILL-ORIGIN LEVEL: 3834347 DIFFERENT FILL-ORIGIN LEVEL: 10179428
L1D AVERAGE MISS LATENCY: 86.872 cycles
L1D RQ	ACCESS:   68300934	FORWARD:          0	MERGED:   16516028	TO_CACHE:   50163531
L1D WQ	ACCESS:   17883240	FORWARD:    1738843	MERGED:     100158	TO_CACHE:   17783082
L1D PQ	ACCESS:  152004246	FORWARD:          0	MERGED:   52508704	TO_CACHE:   99378074

L1D UNIQUE REGIONS ACCESSED: 0
L1D REGIONS CONFLICTS: 0
L1D Cross Page Prefetch Requests: 16492481
L1D Same Page Prefetch Requests: 172349909
L1D ROI Sum of L1D PQ occupancy: 1445566092
L1D PREFETCHES PUSHED FROM L2C: 0
L1I TOTAL     ACCESS:   36316920  HIT:   36316918  MISS:          2  HIT %:        100  MISS %: 5.50707e-06   MPKI: 1e-05
L1I LOAD      ACCESS:   36316920  HIT:   36316918  MISS:          2  HIT %:        100  MISS %: 5.50707e-06   MPKI: 1e-05
L1I PREFETCH  REQUESTED:          0  ISSUED:          0  USEFUL:          0  USELESS:          0
L1I USEFUL LOAD PREFETCHES:          0 PREFETCH ISSUED TO LOWER LEVEL:          0  ACCURACY: -nan
L1I TIMELY PREFETCHES:          0 LATE PREFETCHES: 0 DROPPED PREFETCHES: 0
L1I PREFETCHES SAME FILL-ORIGIN LEVEL: 0 DIFFERENT FILL-ORIGIN LEVEL: 0
L1I AVERAGE MISS LATENCY: 212 cycles
L1I RQ	ACCESS:   55593508	FORWARD:          0	MERGED:   19116842	TO_CACHE:   36476666

BTB TOTAL     ACCESS:   49743906  HIT:   48131350  MISS:    1612556  HIT %:    96.7583  MISS %:    3.24172   MPKI: 8.06278
BTB BRANCH_DIRECT_JUMP	ACCESS:    5836899  HIT:    5836877  MISS:         22
BTB BRANCH_INDIRECT	ACCESS:          0  HIT:          0  MISS:          0
BTB BRANCH_CONDITIONAL	ACCESS:   36112639  HIT:   36112587  MISS:         52
BTB BRANCH_DIRECT_CALL	ACCESS:    3646988  HIT:    3646978  MISS:         10
BTB BRANCH_INDIRECT_CALL	ACCESS:     250194  HIT:     250194  MISS:          0
BTB BRANCH_RETURN	ACCESS:    3897186  HIT:    2284714  MISS:    1612472
BTB BRANCH_OTHER ACCESS:          0  HIT:          0  MISS:          0

L2C TOTAL     ACCESS:   25260546  HIT:   14091661  MISS:   11168885  HIT %:    55.7853  MISS %:    44.2147   MPKI: 55.8444
L2C LOAD      ACCESS:    9606134  HIT:    3140700  MISS:    6465434  HIT %:    32.6947  MISS %:    67.3053   MPKI: 32.3272
L2C DATA LOAD MPKI: 32.3272
L2C INSTRUCTION LOAD MPKI: 1e-05
L2C RFO       ACCESS:     606166  HIT:     333541  MISS:     272625  HIT %:    55.0247  MISS %:    44.9753   MPKI: 1.36312
L2C PREFETCH  ACCESS:   13189597  HIT:    8816589  MISS:    4373008  HIT %:     66.845  MISS %:     33.155   MPKI: 21.865
L2C DATA PREFETCH MPKI: 21.865
L2C INSTRUCTION PREFETCH MPKI: 0
L2C WRITEBACK ACCESS:     932257  HIT:     909771  MISS:      22486  HIT %:     97.588  MISS %:      2.412   MPKI: 0.11243
L2C LOAD TRANSLATION ACCESS:     100629  HIT:      75368  MISS:      25261  HIT %:    74.8969  MISS %:    25.1031   MPKI: 0.126305
L2C TRANSLATION FROM L1D PREFETCHER ACCESS:     825763  HIT:     815692  MISS:      10071  HIT %:    98.7804  MISS %:     1.2196   MPKI: 0.050355
L2C PREFETCH  REQUESTED:          0  ISSUED:          0  USEFUL:     515100  USELESS:    3886328
L2C USEFUL LOAD PREFETCHES:     515100 PREFETCH ISSUED TO LOWER LEVEL:    4477465  ACCURACY: 11.5043
L2C TIMELY PREFETCHES:     515100 LATE PREFETCHES: 85875 DROPPED PREFETCHES: 0
L2C PREFETCHES SAME FILL-ORIGIN LEVEL: 1368734 DIFFERENT FILL-ORIGIN LEVEL: 0
L2C AVERAGE MISS LATENCY: 118.282 cycles
L2C RQ	ACCESS:   11186940	FORWARD:          0	MERGED:          0	TO_CACHE:   11186905
L2C WQ	ACCESS:     936343	FORWARD:         44	MERGED:          0	TO_CACHE:     936343
L2C PQ	ACCESS:   14009414	FORWARD:          0	MERGED:      38909	TO_CACHE:   13970496

L2C Instructions Evicting Data 2
L2C Translations Evicting Data 35396
L2C Data Evicting Data 11123326
L2C Instructions Evicting Instructions 0
L2C Translations Evicting Instructions 0
L2C Data Evicting Instructions 2
L2C Instructions Evicting Translations 0
L2C Translations Evicting Translations 95
L2C Data Evicting Translations 35293
L2C Dense regions hint from L2: 0
PSCL5 TOTAL     ACCESS:     917332  HIT:     917332  MISS:          0  HIT %:        100  MISS %:          0   MPKI: 0
PSCL5 LOAD TRANSLATION ACCESS:     100026  HIT:     100026  MISS:          0  HIT %:        100  MISS %:          0   MPKI: 0
PSCL5 TRANSLATION FROM L1D PREFETCHER ACCESS:     817306  HIT:     817306  MISS:          0  HIT %:        100  MISS %:          0   MPKI: 0
PSCL5 PREFETCH  REQUESTED:          0  ISSUED:          0  USEFUL:          0  USELESS:          0
PSCL5 USEFUL LOAD PREFETCHES:          0 PREFETCH ISSUED TO LOWER LEVEL:          0  ACCURACY: -nan
PSCL5 TIMELY PREFETCHES:          0 LATE PREFETCHES: 0 DROPPED PREFETCHES: 0
PSCL5 PREFETCHES SAME FILL-ORIGIN LEVEL: 0 DIFFERENT FILL-ORIGIN LEVEL: 0

PSCL4 TOTAL     ACCESS:     917332  HIT:     917332  MISS:          0  HIT %:        100  MISS %:          0   MPKI: 0
PSCL4 LOAD TRANSLATION ACCESS:     100026  HIT:     100026  MISS:          0  HIT %:        100  MISS %:          0   MPKI: 0
PSCL4 TRANSLATION FROM L1D PREFETCHER ACCESS:     817306  HIT:     817306  MISS:          0  HIT %:        100  MISS %:          0   MPKI: 0
PSCL4 PREFETCH  REQUESTED:          0  ISSUED:          0  USEFUL:          0  USELESS:          0
PSCL4 USEFUL LOAD PREFETCHES:          0 PREFETCH ISSUED TO LOWER LEVEL:          0  ACCURACY: -nan
PSCL4 TIMELY PREFETCHES:          0 LATE PREFETCHES: 0 DROPPED PREFETCHES: 0
PSCL4 PREFETCHES SAME FILL-ORIGIN LEVEL: 0 DIFFERENT FILL-ORIGIN LEVEL: 0

PSCL3 TOTAL     ACCESS:     917332  HIT:     917332  MISS:          0  HIT %:        100  MISS %:          0   MPKI: 0
PSCL3 LOAD TRANSLATION ACCESS:     100026  HIT:     100026  MISS:          0  HIT %:        100  MISS %:          0   MPKI: 0
PSCL3 TRANSLATION FROM L1D PREFETCHER ACCESS:     817306  HIT:     817306  MISS:          0  HIT %:        100  MISS %:          0   MPKI: 0
PSCL3 PREFETCH  REQUESTED:          0  ISSUED:          0  USEFUL:          0  USELESS:          0
PSCL3 USEFUL LOAD PREFETCHES:          0 PREFETCH ISSUED TO LOWER LEVEL:          0  ACCURACY: -nan
PSCL3 TIMELY PREFETCHES:          0 LATE PREFETCHES: 0 DROPPED PREFETCHES: 0
PSCL3 PREFETCHES SAME FILL-ORIGIN LEVEL: 0 DIFFERENT FILL-ORIGIN LEVEL: 0

PSCL2 TOTAL     ACCESS:     907951  HIT:     906921  MISS:       1030  HIT %:    99.8866  MISS %:   0.113442   MPKI: 0.00515
PSCL2 LOAD TRANSLATION ACCESS:     100069  HIT:      99039  MISS:       1030  HIT %:    98.9707  MISS %:    1.02929   MPKI: 0.00515
PSCL2 TRANSLATION FROM L1D PREFETCHER ACCESS:     807882  HIT:     807882  MISS:          0  HIT %:        100  MISS %:          0   MPKI: 0
PSCL2 PREFETCH  REQUESTED:          0  ISSUED:          0  USEFUL:          0  USELESS:          0
PSCL2 USEFUL LOAD PREFETCHES:          0 PREFETCH ISSUED TO LOWER LEVEL:          0  ACCURACY: -nan
PSCL2 TIMELY PREFETCHES:          0 LATE PREFETCHES: 0 DROPPED PREFETCHES: 0
PSCL2 PREFETCHES SAME FILL-ORIGIN LEVEL: 0 DIFFERENT FILL-ORIGIN LEVEL: 0

LLC TOTAL     ACCESS:   11682332  HIT:    6356748  MISS:    5325584  HIT %:    54.4133  MISS %:    45.5867   MPKI: 26.6279
LLC LOAD      ACCESS:    6380110  HIT:    5298836  MISS:    1081274  HIT %:    83.0524  MISS %:    16.9476   MPKI: 5.40637
LLC RFO       ACCESS:     272363  HIT:     268054  MISS:       4309  HIT %:    98.4179  MISS %:    1.58208   MPKI: 0.021545
LLC PREFETCH  ACCESS:    4458585  HIT:     235855  MISS:    4222730  HIT %:    5.28991  MISS %:    94.7101   MPKI: 21.1136
LLC WRITEBACK ACCESS:     535942  HIT:     532313  MISS:       3629  HIT %:    99.3229  MISS %:   0.677126   MPKI: 0.018145
LLC LOAD TRANSLATION ACCESS:      25261  HIT:      20838  MISS:       4423  HIT %:    82.4908  MISS %:    17.5092   MPKI: 0.022115
LLC TRANSLATION FROM L1D PREFETCHER ACCESS:      10071  HIT:        852  MISS:       9219  HIT %:    8.45993  MISS %:    91.5401   MPKI: 0.046095
LLC PREFETCH  REQUESTED:          0  ISSUED:          0  USEFUL:     633356  USELESS:   16361222
LLC USEFUL LOAD PREFETCHES:     633356 PREFETCH ISSUED TO LOWER LEVEL:   16974862  ACCURACY: 3.73114
LLC TIMELY PREFETCHES:     633356 LATE PREFETCHES: 0 DROPPED PREFETCHES: 0
LLC PREFETCHES SAME FILL-ORIGIN LEVEL: 0 DIFFERENT FILL-ORIGIN LEVEL: 0
LLC AVERAGE MISS LATENCY: 743.582 cycles
LLC RQ	ACCESS:   26869495	FORWARD:          0	MERGED:          0	TO_CACHE:   26869446
LLC WQ	ACCESS:    2158928	FORWARD:         51	MERGED:          0	TO_CACHE:    2158928
LLC PQ	ACCESS:   17915403	FORWARD:          0	MERGED:          0	TO_CACHE:   17915401

LLC Dense regions hint to LLC: 0

RAW hits: 2650544
Loads Generated: 70653676
Loads sent to L1D: 68003132
Stores Generated: 17802785
Stores sent to L1D: 17802768
Major fault: 0 Minor fault: 80934
Allocated PAGES: 323640

CPU 1 cumulative IPC: 0.313507 instructions: 200000002 cycles: 637943431
ITLB TOTAL     ACCESS:   34818273  HIT:   34818273  MISS:          0  HIT %:        100  MISS %:          0   MPKI: 0
ITLB LOAD TRANSLATION ACCESS:   34818273  HIT:   34818273  MISS:          0  HIT %:        100  MISS %:          0   MPKI: 0
ITLB PREFETCH  REQUESTED:          0  ISSUED:          0  USEFUL:          0  USELESS:          0
ITLB USEFUL LOAD PREFETCHES:          0 PREFETCH ISSUED TO LOWER LEVEL:          0  ACCURACY: -nan
ITLB TIMELY PREFETCHES:          0 LATE PREFETCHES: 0 DROPPED PREFETCHES: 0
ITLB PREFETCHES SAME FILL-ORIGIN LEVEL: 0 DIFFERENT FILL-ORIGIN LEVEL: 0
ITLB AVERAGE MISS LATENCY: -nan cycles
ITLB RQ	ACCESS:   36525211	FORWARD:          0	MERGED:    1508481	TO_CACHE:   35016730

DTLB TOTAL     ACCESS:   54226216  HIT:   46918936  MISS:    7307280  HIT %:    86.5245  MISS %:    13.4755   MPKI: 36.5364
DTLB LOAD TRANSLATION ACCESS:   54226216  HIT:   46918936  MISS:    7307280  HIT %:    86.5245  MISS %:    13.4755   MPKI: 36.5364
DTLB PREFETCH  REQUESTED:          0  ISSUED:          0  USEFUL:          0  USELESS:          0
DTLB USEFUL LOAD PREFETCHES:          0 PREFETCH ISSUED TO LOWER LEVEL:          0  ACCURACY: -nan
DTLB TIMELY PREFETCHES:          0 LATE PREFETCHES: 0 DROPPED PREFETCHES: 0
DTLB PREFETCHES SAME FILL-ORIGIN LEVEL: 0 DIFFERENT FILL-ORIGIN LEVEL: 0
DTLB AVERAGE MISS LATENCY: 10.9265 cycles
DTLB RQ	ACCESS:   68034221	FORWARD:          0	MERGED:   13250208	TO_CACHE:   54784013

STLB TOTAL     ACCESS:   27502915  HIT:   27401531  MISS:     101384  HIT %:    99.6314  MISS %:    0.36863   MPKI: 0.50692
STLB LOAD TRANSLATION ACCESS:    7307280  HIT:    7207227  MISS:     100053  HIT %:    98.6308  MISS %:    1.36922   MPKI: 0.500265
STLB TRANSLATION FROM L1D PREFETCHER ACCESS:   20195635  HIT:   20194304  MISS:       1331  HIT %:    99.9934  MISS %: 0.00659053   MPKI: 0.006655
STLB PREFETCH  REQUESTED:          0  ISSUED:          0  USEFUL:        850  USELESS:        487
STLB USEFUL LOAD PREFETCHES:        850 PREFETCH ISSUED TO LOWER LEVEL:          0  ACCURACY: inf
STLB TIMELY PREFETCHES:        850 LATE PREFETCHES: 24366 DROPPED PREFETCHES: 800304
STLB PREFETCHES SAME FILL-ORIGIN LEVEL: 0 DIFFERENT FILL-ORIGIN LEVEL: 0
STLB AVERAGE MISS LATENCY: 98.1535 cycles
STLB RQ	ACCESS:  106371446	FORWARD:          0	MERGED:   77603593	TO_CACHE:   28767853

STLB Hit, L1D data hit: 0
STLB Hit, L2C data hit: 0
STLB Hit, LLC data hit: 0
STLB Hit, LLC data miss: 0
STLB STLB hints to L2: 0
L1D TOTAL     ACCESS:  147556899  HIT:  133526175  MISS:   14030724  HIT %:    90.4913  MISS %:    9.50869   MPKI: 70.1536
L1D LOAD      ACCESS:   49817982  HIT:   39844742  MISS:    9973240  HIT %:    79.9806  MISS %:    20.0194   MPKI: 49.8662
L1D RFO       ACCESS:   16670996  HIT:   16064871  MISS:     606125  HIT %:    96.3642  MISS %:    3.63581   MPKI: 3.03062
L1D PREFETCH  ACCESS:   81067921  HIT:   77616562  MISS:    3451359  HIT %:    95.7426  MISS %:    4.25737   MPKI: 17.2568
L1D PREFETCH  REQUESTED:  270465046  ISSUED:  250392952  USEFUL:    3407713  USELESS:      64470
L1D USEFUL LOAD PREFETCHES:    3407713 PREFETCH ISSUED TO LOWER LEVEL:   13861555  ACCURACY: 24.5839
L1D TIMELY PREFETCHES:    3407713 LATE PREFETCHES: 368365 DROPPED PREFETCHES: 3560875
L1D PREFETCHES SAME FILL-ORIGIN LEVEL: 3841183 DIFFERENT FILL-ORIGIN LEVEL: 10020372
L1D AVERAGE MISS LATENCY: 86.7131 cycles
L1D RQ	ACCESS:   68391613	FORWARD:          0	MERGED:   16539599	TO_CACHE:   50228792
L1D WQ	ACCESS:   17905409	FORWARD:    1742556	MERGED:      99980	TO_CACHE:   17805429
L1D PQ	ACCESS:  151372795	FORWARD:          0	MERGED:   52233304	TO_CACHE:   99020157

L1D UNIQUE REGIONS ACCESSED: 0
L1D REGIONS CONFLICTS: 0
L1D Cross Page Prefetch Requests: 16440565
L1D Same Page Prefetch Requests: 171703138
L1D ROI Sum of L1D PQ occupancy: 1441547994
L1D PREFETCHES PUSHED FROM L2C: 0
L1I TOTAL     ACCESS:   36318203  HIT:   36318201  MISS:          2  HIT %:        100  MISS %: 5.50688e-06   MPKI: 1e-05
L1I LOAD      ACCESS:   36318203  HIT:   36318201  MISS:          2  HIT %:        100  MISS %: 5.50688e-06   MPKI: 1e-05
L1I PREFETCH  REQUESTED:          0  ISSUED:          0  USEFUL:          0  USELESS:          0
L1I USEFUL LOAD PREFETCHES:          0 PREFETCH ISSUED TO LOWER LEVEL:          0  ACCURACY: -nan
L1I TIMELY PREFETCHES:          0 LATE PREFETCHES: 0 DROPPED PREFETCHES: 0
L1I PREFETCHES SAME FILL-ORIGIN LEVEL: 0 DIFFERENT FILL-ORIGIN LEVEL: 0
L1I AVERAGE MISS LATENCY: 212 cycles
L1I RQ	ACCESS:   55665899	FORWARD:          0	MERGED:   19140688	TO_CACHE:   36525211

BTB TOTAL     ACCESS:   49744126  HIT:   48131511  MISS:    1612615  HIT %:    96.7582  MISS %:    3.24182   MPKI: 8.06307
BTB BRANCH_DIRECT_JUMP	ACCESS:    5836944  HIT:    5836921  MISS:         23
BTB BRANCH_INDIRECT	ACCESS:          0  HIT:          0  MISS:          0
BTB BRANCH_CONDITIONAL	ACCESS:   36112625  HIT:   36112571  MISS:         54
BTB BRANCH_DIRECT_CALL	ACCESS:    3647072  HIT:    3647059  MISS:         13
BTB BRANCH_INDIRECT_CALL	ACCESS:     250204  HIT:     250198  MISS:          6
BTB BRANCH_RETURN	ACCESS:    3897281  HIT:    2284762  MISS:    1612519
BTB BRANCH_OTHER ACCESS:          0  HIT:          0  MISS:          0

L2C TOTAL     ACCESS:   25097164  HIT:   13943774  MISS:   11153390  HIT %:    55.5592  MISS %:    44.4408   MPKI: 55.7669
L2C LOAD      ACCESS:    9606906  HIT:    3150166  MISS:    6456740  HIT %:    32.7906  MISS %:    67.2094   MPKI: 32.2837
L2C DATA LOAD MPKI: 32.2837
L2C INSTRUCTION LOAD MPKI: 1e-05
L2C RFO       ACCESS:     606123  HIT:     339962  MISS:     266161  HIT %:     56.088  MISS %:     43.912   MPKI: 1.3308
L2C PREFETCH  ACCESS:   13019831  HIT:    8647611  MISS:    4372220  HIT %:    66.4188  MISS %:    33.5812   MPKI: 21.8611
L2C DATA PREFETCH MPKI: 21.8611
L2C INSTRUCTION PREFETCH MPKI: 0
L2C WRITEBACK ACCESS:     932216  HIT:     910896  MISS:      21320  HIT %:     97.713  MISS %:    2.28702   MPKI: 0.1066
L2C LOAD TRANSLATION ACCESS:     100638  HIT:      73943  MISS:      26695  HIT %:    73.4742  MISS %:    26.5258   MPKI: 0.133475
L2C TRANSLATION FROM L1D PREFETCHER ACCESS:     831450  HIT:     821196  MISS:      10254  HIT %:    98.7667  MISS %:    1.23327   MPKI: 0.05127
L2C PREFETCH  REQUESTED:          0  ISSUED:          0  USEFUL:     514126  USELESS:    3894054
L2C USEFUL LOAD PREFETCHES:     514126 PREFETCH ISSUED TO LOWER LEVEL:    4483894  ACCURACY: 11.4661
L2C TIMELY PREFETCHES:     514126 LATE PREFETCHES: 85848 DROPPED PREFETCHES: 0
L2C PREFETCHES SAME FILL-ORIGIN LEVEL: 1373558 DIFFERENT FILL-ORIGIN LEVEL: 0
L2C AVERAGE MISS LATENCY: 118.393 cycles
L2C RQ	ACCESS:   11210993	FORWARD:          0	MERGED:          0	TO_CACHE:   11210949
L2C WQ	ACCESS:     937646	FORWARD:         50	MERGED:          0	TO_CACHE:     937646
L2C PQ	ACCESS:   13859170	FORWARD:          0	MERGED:      38567	TO_CACHE:   13820597

L2C Instructions Evicting Data 2
L2C Translations Evicting Data 37078
L2C Data Evicting Data 11123479
L2C Instructions Evicting Instructions 0
L2C Translations Evicting Instructions 0
L2C Data Evicting Instructions 2
L2C Instructions Evicting Translations 0
L2C Translations Evicting Translations 92
L2C Data Evicting Translations 36986
L2C Dense regions hint from L2: 0
PSCL5 TOTAL     ACCESS:     921350  HIT:     921350  MISS:          0  HIT %:        100  MISS %:          0   MPKI: 0
PSCL5 LOAD TRANSLATION ACCESS:     100040  HIT:     100040  MISS:          0  HIT %:        100  MISS %:          0   MPKI: 0
PSCL5 TRANSLATION FROM L1D PREFETCHER ACCESS:     821310  HIT:     821310  MISS:          0  HIT %:        100  MISS %:          0   MPKI: 0
PSCL5 PREFETCH  REQUESTED:          0  ISSUED:          0  USEFUL:          0  USELESS:          0
PSCL5 USEFUL LOAD PREFETCHES:          0 PREFETCH ISSUED TO LOWER LEVEL:          0  ACCURACY: -nan
PSCL5 TIMELY PREFETCHES:          0 LATE PREFETCHES: 0 DROPPED PREFETCHES: 0
PSCL5 PREFETCHES SAME FILL-ORIGIN LEVEL: 0 DIFFERENT FILL-ORIGIN LEVEL: 0

PSCL4 TOTAL     ACCESS:     921350  HIT:     921350  MISS:          0  HIT %:        100  MISS %:          0   MPKI: 0
PSCL4 LOAD TRANSLATION ACCESS:     100040  HIT:     100040  MISS:          0  HIT %:        100  MISS %:          0   MPKI: 0
PSCL4 TRANSLATION FROM L1D PREFETCHER ACCESS:     821310  HIT:     821310  MISS:          0  HIT %:        100  MISS %:          0   MPKI: 0
PSCL4 PREFETCH  REQUESTED:          0  ISSUED:          0  USEFUL:          0  USELESS:          0
PSCL4 USEFUL LOAD PREFETCHES:          0 PREFETCH ISSUED TO LOWER LEVEL:          0  ACCURACY: -nan
PSCL4 TIMELY PREFETCHES:          0 LATE PREFETCHES: 0 DROPPED PREFETCHES: 0
PSCL4 PREFETCHES SAME FILL-ORIGIN LEVEL: 0 DIFFERENT FILL-ORIGIN LEVEL: 0

PSCL3 TOTAL     ACCESS:     921350  HIT:     921350  MISS:          0  HIT %:        100  MISS %:          0   MPKI: 0
PSCL3 LOAD TRANSLATION ACCESS:     100040  HIT:     100040  MISS:          0  HIT %:        100  MISS %:          0   MPKI: 0
PSCL3 TRANSLATION FROM L1D PREFETCHER ACCESS:     821310  HIT:     821310  MISS:          0  HIT %:        100  MISS %:          0   MPKI: 0
PSCL3 PREFETCH  REQUESTED:          0  ISSUED:          0  USEFUL:          0  USELESS:          0
PSCL3 USEFUL LOAD PREFETCHES:          0 PREFETCH ISSUED TO LOWER LEVEL:          0  ACCURACY: -nan
PSCL3 TIMELY PREFETCHES:          0 LATE PREFETCHES: 0 DROPPED PREFETCHES: 0
PSCL3 PREFETCHES SAME FILL-ORIGIN LEVEL: 0 DIFFERENT FILL-ORIGIN LEVEL: 0

PSCL2 TOTAL     ACCESS:     910223  HIT:     909194  MISS:       1029  HIT %:     99.887  MISS %:   0.113049   MPKI: 0.005145
PSCL2 LOAD TRANSLATION ACCESS:     100087  HIT:      99058  MISS:       1029  HIT %:    98.9719  MISS %:    1.02811   MPKI: 0.005145
PSCL2 TRANSLATION FROM L1D PREFETCHER ACCESS:     810136  HIT:     810136  MISS:          0  HIT %:        100  MISS %:          0   MPKI: 0
PSCL2 PREFETCH  REQUESTED:          0  ISSUED:          0  USEFUL:          0  USELESS:          0
PSCL2 USEFUL LOAD PREFETCHES:          0 PREFETCH ISSUED TO LOWER LEVEL:          0  ACCURACY: -nan
PSCL2 TIMELY PREFETCHES:          0 LATE PREFETCHES: 0 DROPPED PREFETCHES: 0
PSCL2 PREFETCHES SAME FILL-ORIGIN LEVEL: 0 DIFFERENT FILL-ORIGIN LEVEL: 0

LLC TOTAL     ACCESS:   11656864  HIT:    6327476  MISS:    5329388  HIT %:    54.2811  MISS %:    45.7189   MPKI: 26.6469
LLC LOAD      ACCESS:    6371492  HIT:    5287512  MISS:    1083980  HIT %:     82.987  MISS %:     17.013   MPKI: 5.4199
LLC RFO       ACCESS:     265966  HIT:     261665  MISS:       4301  HIT %:    98.3829  MISS %:    1.61712   MPKI: 0.021505
LLC PREFETCH  ACCESS:    4457647  HIT:     234282  MISS:    4223365  HIT %:    5.25573  MISS %:    94.7443   MPKI: 21.1168
LLC WRITEBACK ACCESS:     524810  HIT:     521140  MISS:       3670  HIT %:    99.3007  MISS %:   0.699301   MPKI: 0.01835
LLC LOAD TRANSLATION ACCESS:      26695  HIT:      21879  MISS:       4816  HIT %:    81.9592  MISS %:    18.0408   MPKI: 0.02408
LLC TRANSLATION FROM L1D PREFETCHER ACCESS:      10254  HIT:        998  MISS:       9256  HIT %:    9.73279  MISS %:    90.2672   MPKI: 0.04628
LLC PREFETCH  REQUESTED:          0  ISSUED:          0  USEFUL:     633356  USELESS:   16361222
LLC USEFUL LOAD PREFETCHES:     633356 PREFETCH ISSUED TO LOWER LEVEL:   16974862  ACCURACY: 3.73114
LLC TIMELY PREFETCHES:     633356 LATE PREFETCHES: 0 DROPPED PREFETCHES: 0
LLC PREFETCHES SAME FILL-ORIGIN LEVEL: 0 DIFFERENT FILL-ORIGIN LEVEL: 0
LLC AVERAGE MISS LATENCY: 743.051 cycles
LLC RQ	ACCESS:   26869495	FORWARD:          0	MERGED:          0	TO_CACHE:   26869446
LLC WQ	ACCESS:    2158928	FORWARD:         51	MERGED:          0	TO_CACHE:    2158928
LLC PQ	ACCESS:   17915403	FORWARD:          0	MERGED:          0	TO_CACHE:   17915401

LLC Dense regions hint to LLC: 0

RAW hits: 2650305
Loads Generated: 70653372
Loads sent to L1D: 68003064
Stores Generated: 17802766
Stores sent to L1D: 17802766
Major fault: 0 Minor fault: 81043
Allocated PAGES: 323640

CPU 2 cumulative IPC: 0.313494 instructions: 200000001 cycles: 637971330
ITLB TOTAL     ACCESS:   34816861  HIT:   34816861  MISS:          0  HIT %:        100  MISS %:          0   MPKI: 0
ITLB LOAD TRANSLATION ACCESS:   34816861  HIT:   34816861  MISS:          0  HIT %:        100  MISS %:          0   MPKI: 0
ITLB PREFETCH  REQUESTED:          0  ISSUED:          0  USEFUL:          0  USELESS:          0
ITLB USEFUL LOAD PREFETCHES:          0 PREFETCH ISSUED TO LOWER LEVEL:          0  ACCURACY: -nan
ITLB TIMELY PREFETCHES:          0 LATE PREFETCHES: 0 DROPPED PREFETCHES: 0
ITLB PREFETCHES SAME FILL-ORIGIN LEVEL: 0 DIFFERENT FILL-ORIGIN LEVEL: 0
ITLB AVERAGE MISS LATENCY: -nan cycles
ITLB RQ	ACCESS:   36521836	FORWARD:          0	MERGED:    1508418	TO_CACHE:   35013418

DTLB TOTAL     ACCESS:   54225950  HIT:   46918573  MISS:    7307377  HIT %:    86.5242  MISS %:    13.4758   MPKI: 36.5369
DTLB LOAD TRANSLATION ACCESS:   54225950  HIT:   46918573  MISS:    7307377  HIT %:    86.5242  MISS %:    13.4758   MPKI: 36.5369
DTLB PREFETCH  REQUESTED:          0  ISSUED:          0  USEFUL:          0  USELESS:          0
DTLB USEFUL LOAD PREFETCHES:          0 PREFETCH ISSUED TO LOWER LEVEL:          0  ACCURACY: -nan
DTLB TIMELY PREFETCHES:          0 LATE PREFETCHES: 0 DROPPED PREFETCHES: 0
DTLB PREFETCHES SAME FILL-ORIGIN LEVEL: 0 DIFFERENT FILL-ORIGIN LEVEL: 0
DTLB AVERAGE MISS LATENCY: 10.9188 cycles
DTLB RQ	ACCESS:   68030811	FORWARD:          0	MERGED:   13249702	TO_CACHE:   54781109

STLB TOTAL     ACCESS:   27575681  HIT:   27474588  MISS:     101093  HIT %:    99.6334  MISS %:   0.366602   MPKI: 0.505465
STLB LOAD TRANSLATION ACCESS:    7307377  HIT:    7207429  MISS:      99948  HIT %:    98.6322  MISS %:    1.36777   MPKI: 0.49974
STLB TRANSLATION FROM L1D PREFETCHER ACCESS:   20268304  HIT:   20267159  MISS:       1145  HIT %:    99.9944  MISS %: 0.00564921   MPKI: 0.005725
STLB PREFETCH  REQUESTED:          0  ISSUED:          0  USEFUL:        772  USELESS:        379
STLB USEFUL LOAD PREFETCHES:        772 PREFETCH ISSUED TO LOWER LEVEL:          0  ACCURACY: inf
STLB TIMELY PREFETCHES:        772 LATE PREFETCHES: 24363 DROPPED PREFETCHES: 795090
STLB PREFETCHES SAME FILL-ORIGIN LEVEL: 0 DIFFERENT FILL-ORIGIN LEVEL: 0
STLB AVERAGE MISS LATENCY: 97.1195 cycles
STLB RQ	ACCESS:  106750785	FORWARD:          0	MERGED:   77919020	TO_CACHE:   28831765

STLB Hit, L1D data hit: 0
STLB Hit, L2C data hit: 0
STLB Hit, LLC data hit: 0
STLB Hit, LLC data miss: 0
STLB STLB hints to L2: 0
L1D TOTAL     ACCESS:  147836205  HIT:  133806969  MISS:   14029236  HIT %:    90.5103  MISS %:    9.48972   MPKI: 70.1462
L1D LOAD      ACCESS:   49816553  HIT:   39843180  MISS:    9973373  HIT %:    79.9798  MISS %:    20.0202   MPKI: 49.8669
L1D RFO       ACCESS:   16662921  HIT:   16056752  MISS:     606169  HIT %:    96.3622  MISS %:    3.63783   MPKI: 3.03084
L1D PREFETCH  ACCESS:   81356731  HIT:   77907037  MISS:    3449694  HIT %:    95.7598  MISS %:    4.24021   MPKI: 17.2485
L1D PREFETCH  REQUESTED:  271558351  ISSUED:  251348750  USEFUL:    3406289  USELESS:      63415
L1D USEFUL LOAD PREFETCHES:    3406289 PREFETCH ISSUED TO LOWER LEVEL:   14008217  ACCURACY: 24.3164
L1D TIMELY PREFETCHES:    3406289 LATE PREFETCHES: 366319 DROPPED PREFETCHES: 3551466
L1D PREFETCHES SAME FILL-ORIGIN LEVEL: 3837381 DIFFERENT FILL-ORIGIN LEVEL: 10170836
L1D AVERAGE MISS LATENCY: 86.7134 cycles
L1D RQ	ACCESS:   68386796	FORWARD:          0	MERGED:   16537983	TO_CACHE:   50225582
L1D WQ	ACCESS:   17905316	FORWARD:    1740973	MERGED:     100087	TO_CACHE:   17805229
L1D PQ	ACCESS:  151947917	FORWARD:          0	MERGED:   52429342	TO_CACHE:   99400833

L1D UNIQUE REGIONS ACCESSED: 0
L1D REGIONS CONFLICTS: 0
L1D Cross Page Prefetch Requests: 16489906
L1D Same Page Prefetch Requests: 172281215
L1D ROI Sum of L1D PQ occupancy: 1446444882
L1D PREFETCHES PUSHED FROM L2C: 0
L1I TOTAL     ACCESS:   36316706  HIT:   36316704  MISS:          2  HIT %:        100  MISS %: 5.50711e-06   MPKI: 1e-05
L1I LOAD      ACCESS:   36316706  HIT:   36316704  MISS:          2  HIT %:        100  MISS %: 5.50711e-06   MPKI: 1e-05
L1I PREFETCH  REQUESTED:          0  ISSUED:          0  USEFUL:          0  USELESS:          0
L1I USEFUL LOAD PREFETCHES:          0 PREFETCH ISSUED TO LOWER LEVEL:          0  ACCURACY: -nan
L1I TIMELY PREFETCHES:          0 LATE PREFETCHES: 0 DROPPED PREFETCHES: 0
L1I PREFETCHES SAME FILL-ORIGIN LEVEL: 0 DIFFERENT FILL-ORIGIN LEVEL: 0
L1I AVERAGE MISS LATENCY: 212 cycles
L1I RQ	ACCESS:   55662181	FORWARD:          0	MERGED:   19140345	TO_CACHE:   36521836

BTB TOTAL     ACCESS:   49744144  HIT:   48131527  MISS:    1612617  HIT %:    96.7582  MISS %:    3.24182   MPKI: 8.06308
BTB BRANCH_DIRECT_JUMP	ACCESS:    5836941  HIT:    5836916  MISS:         25
BTB BRANCH_INDIRECT	ACCESS:          0  HIT:          0  MISS:          0
BTB BRANCH_CONDITIONAL	ACCESS:   36112633  HIT:   36112575  MISS:         58
BTB BRANCH_DIRECT_CALL	ACCESS:    3647079  HIT:    3647065  MISS:         14
BTB BRANCH_INDIRECT_CALL	ACCESS:     250204  HIT:     250198  MISS:          6
BTB BRANCH_RETURN	ACCESS:    3897287  HIT:    2284773  MISS:    1612514
BTB BRANCH_OTHER ACCESS:          0  HIT:          0  MISS:          0

L2C TOTAL     ACCESS:   25237828  HIT:   14066913  MISS:   11170915  HIT %:    55.7374  MISS %:    44.2626   MPKI: 55.8546
L2C LOAD      ACCESS:    9609296  HIT:    3145926  MISS:    6463370  HIT %:    32.7384  MISS %:    67.2616   MPKI: 32.3168
L2C DATA LOAD MPKI: 32.3168
L2C INSTRUCTION LOAD MPKI: 1e-05
L2C RFO       ACCESS:     606167  HIT:     334817  MISS:     271350  HIT %:    55.2351  MISS %:    44.7649   MPKI: 1.35675
L2C PREFETCH  ACCESS:   13163840  HIT:    8787367  MISS:    4376473  HIT %:    66.7538  MISS %:    33.2462   MPKI: 21.8824
L2C DATA PREFETCH MPKI: 21.8824
L2C INSTRUCTION PREFETCH MPKI: 0
L2C WRITEBACK ACCESS:     932238  HIT:     908222  MISS:      24016  HIT %:    97.4238  MISS %:    2.57617   MPKI: 0.12008
L2C LOAD TRANSLATION ACCESS:     100548  HIT:      74881  MISS:      25667  HIT %:    74.4729  MISS %:    25.5271   MPKI: 0.128335
L2C TRANSLATION FROM L1D PREFETCHER ACCESS:     825739  HIT:     815700  MISS:      10039  HIT %:    98.7842  MISS %:    1.21576   MPKI: 0.050195
L2C PREFETCH  REQUESTED:          0  ISSUED:          0  USEFUL:     519170  USELESS:    3891870
L2C USEFUL LOAD PREFETCHES:     519170 PREFETCH ISSUED TO LOWER LEVEL:    4487741  ACCURACY: 11.5686
L2C TIMELY PREFETCHES:     519170 LATE PREFETCHES: 86558 DROPPED PREFETCHES: 0
L2C PREFETCHES SAME FILL-ORIGIN LEVEL: 1377093 DIFFERENT FILL-ORIGIN LEVEL: 0
L2C AVERAGE MISS LATENCY: 118.127 cycles
L2C RQ	ACCESS:   11205259	FORWARD:          0	MERGED:          0	TO_CACHE:   11205225
L2C WQ	ACCESS:     937537	FORWARD:         39	MERGED:          0	TO_CACHE:     937537
L2C PQ	ACCESS:   14002123	FORWARD:          0	MERGED:      39201	TO_CACHE:   13962917

L2C Instructions Evicting Data 2
L2C Translations Evicting Data 35773
L2C Data Evicting Data 11138622
L2C Instructions Evicting Instructions 0
L2C Translations Evicting Instructions 0
L2C Data Evicting Instructions 2
L2C Instructions Evicting Translations 0
L2C Translations Evicting Translations 127
L2C Data Evicting Translations 35606
L2C Dense regions hint from L2: 0
PSCL5 TOTAL     ACCESS:     916061  HIT:     916061  MISS:          0  HIT %:        100  MISS %:          0   MPKI: 0
PSCL5 LOAD TRANSLATION ACCESS:      99946  HIT:      99946  MISS:          0  HIT %:        100  MISS %:          0   MPKI: 0
PSCL5 TRANSLATION FROM L1D PREFETCHER ACCESS:     816115  HIT:     816115  MISS:          0  HIT %:        100  MISS %:          0   MPKI: 0
PSCL5 PREFETCH  REQUESTED:          0  ISSUED:          0  USEFUL:          0  USELESS:          0
PSCL5 USEFUL LOAD PREFETCHES:          0 PREFETCH ISSUED TO LOWER LEVEL:          0  ACCURACY: -nan
PSCL5 TIMELY PREFETCHES:          0 LATE PREFETCHES: 0 DROPPED PREFETCHES: 0
PSCL5 PREFETCHES SAME FILL-ORIGIN LEVEL: 0 DIFFERENT FILL-ORIGIN LEVEL: 0

PSCL4 TOTAL     ACCESS:     916061  HIT:     916061  MISS:          0  HIT %:        100  MISS %:          0   MPKI: 0
PSCL4 LOAD TRANSLATION ACCESS:      99946  HIT:      99946  MISS:          0  HIT %:        100  MISS %:          0   MPKI: 0
PSCL4 TRANSLATION FROM L1D PREFETCHER ACCESS:     816115  HIT:     816115  MISS:          0  HIT %:        100  MISS %:          0   MPKI: 0
PSCL4 PREFETCH  REQUESTED:          0  ISSUED:          0  USEFUL:          0  USELESS:          0
PSCL4 USEFUL LOAD PREFETCHES:          0 PREFETCH ISSUED TO LOWER LEVEL:          0  ACCURACY: -nan
PSCL4 TIMELY PREFETCHES:          0 LATE PREFETCHES: 0 DROPPED PREFETCHES: 0
PSCL4 PREFETCHES SAME FILL-ORIGIN LEVEL: 0 DIFFERENT FILL-ORIGIN LEVEL: 0

PSCL3 TOTAL     ACCESS:     916061  HIT:     916061  MISS:          0  HIT %:        100  MISS %:          0   MPKI: 0
PSCL3 LOAD TRANSLATION ACCESS:      99946  HIT:      99946  MISS:          0  HIT %:        100  MISS %:          0   MPKI: 0
PSCL3 TRANSLATION FROM L1D PREFETCHER ACCESS:     816115  HIT:     816115  MISS:          0  HIT %:        100  MISS %:          0   MPKI: 0
PSCL3 PREFETCH  REQUESTED:          0  ISSUED:          0  USEFUL:          0  USELESS:          0
PSCL3 USEFUL LOAD PREFETCHES:          0 PREFETCH ISSUED TO LOWER LEVEL:          0  ACCURACY: -nan
PSCL3 TIMELY PREFETCHES:          0 LATE PREFETCHES: 0 DROPPED PREFETCHES: 0
PSCL3 PREFETCHES SAME FILL-ORIGIN LEVEL: 0 DIFFERENT FILL-ORIGIN LEVEL: 0

PSCL2 TOTAL     ACCESS:     905521  HIT:     904496  MISS:       1025  HIT %:    99.8868  MISS %:   0.113195   MPKI: 0.005125
PSCL2 LOAD TRANSLATION ACCESS:      99985  HIT:      98960  MISS:       1025  HIT %:    98.9748  MISS %:    1.02515   MPKI: 0.005125
PSCL2 TRANSLATION FROM L1D PREFETCHER ACCESS:     805536  HIT:     805536  MISS:          0  HIT %:        100  MISS %:          0   MPKI: 0
PSCL2 PREFETCH  REQUESTED:          0  ISSUED:          0  USEFUL:          0  USELESS:          0
PSCL2 USEFUL LOAD PREFETCHES:          0 PREFETCH ISSUED TO LOWER LEVEL:          0  ACCURACY: -nan
PSCL2 TIMELY PREFETCHES:          0 LATE PREFETCHES: 0 DROPPED PREFETCHES: 0
PSCL2 PREFETCHES SAME FILL-ORIGIN LEVEL: 0 DIFFERENT FILL-ORIGIN LEVEL: 0

LLC TOTAL     ACCESS:   11679361  HIT:    6347990  MISS:    5331371  HIT %:    54.3522  MISS %:    45.6478   MPKI: 26.6569
LLC LOAD      ACCESS:    6377532  HIT:    5293020  MISS:    1084512  HIT %:    82.9948  MISS %:    17.0052   MPKI: 5.42256
LLC RFO       ACCESS:     271085  HIT:     266734  MISS:       4351  HIT %:     98.395  MISS %:    1.60503   MPKI: 0.021755
LLC PREFETCH  ACCESS:    4462566  HIT:     237965  MISS:    4224601  HIT %:    5.33247  MISS %:    94.6675   MPKI: 21.123
LLC WRITEBACK ACCESS:     532472  HIT:     528468  MISS:       4004  HIT %:     99.248  MISS %:   0.751964   MPKI: 0.02002
LLC LOAD TRANSLATION ACCESS:      25667  HIT:      20942  MISS:       4725  HIT %:    81.5911  MISS %:    18.4089   MPKI: 0.023625
LLC TRANSLATION FROM L1D PREFETCHER ACCESS:      10039  HIT:        861  MISS:       9178  HIT %:    8.57655  MISS %:    91.4234   MPKI: 0.04589
LLC PREFETCH  REQUESTED:          0  ISSUED:          0  USEFUL:     633356  USELESS:   16361222
LLC USEFUL LOAD PREFETCHES:     633356 PREFETCH ISSUED TO LOWER LEVEL:   16974862  ACCURACY: 3.73114
LLC TIMELY PREFETCHES:     633356 LATE PREFETCHES: 0 DROPPED PREFETCHES: 0
LLC PREFETCHES SAME FILL-ORIGIN LEVEL: 0 DIFFERENT FILL-ORIGIN LEVEL: 0
LLC AVERAGE MISS LATENCY: 742.775 cycles
LLC RQ	ACCESS:   26869495	FORWARD:          0	MERGED:          0	TO_CACHE:   26869446
LLC WQ	ACCESS:    2158928	FORWARD:         51	MERGED:          0	TO_CACHE:    2158928
LLC PQ	ACCESS:   17915403	FORWARD:          0	MERGED:          0	TO_CACHE:   17915401

LLC Dense regions hint to LLC: 0

RAW hits: 2650149
Loads Generated: 70653303
Loads sent to L1D: 68003152
Stores Generated: 17802794
Stores sent to L1D: 17802794
Major fault: 0 Minor fault: 81028
Allocated PAGES: 323640

CPU 3 cumulative IPC: 0.311736 instructions: 200000000 cycles: 641567488
ITLB TOTAL     ACCESS:   34818602  HIT:   34818602  MISS:          0  HIT %:        100  MISS %:          0   MPKI: 0
ITLB LOAD TRANSLATION ACCESS:   34818602  HIT:   34818602  MISS:          0  HIT %:        100  MISS %:          0   MPKI: 0
ITLB PREFETCH  REQUESTED:          0  ISSUED:          0  USEFUL:          0  USELESS:          0
ITLB USEFUL LOAD PREFETCHES:          0 PREFETCH ISSUED TO LOWER LEVEL:          0  ACCURACY: -nan
ITLB TIMELY PREFETCHES:          0 LATE PREFETCHES: 0 DROPPED PREFETCHES: 0
ITLB PREFETCHES SAME FILL-ORIGIN LEVEL: 0 DIFFERENT FILL-ORIGIN LEVEL: 0
ITLB AVERAGE MISS LATENCY: -nan cycles
ITLB RQ	ACCESS:   36318654	FORWARD:          0	MERGED:    1500052	TO_CACHE:   34818602

DTLB TOTAL     ACCESS:   54227196  HIT:   46920114  MISS:    7307082  HIT %:    86.5251  MISS %:    13.4749   MPKI: 36.5354
DTLB LOAD TRANSLATION ACCESS:   54227196  HIT:   46920114  MISS:    7307082  HIT %:    86.5251  MISS %:    13.4749   MPKI: 36.5354
DTLB PREFETCH  REQUESTED:          0  ISSUED:          0  USEFUL:          0  USELESS:          0
DTLB USEFUL LOAD PREFETCHES:          0 PREFETCH ISSUED TO LOWER LEVEL:          0  ACCURACY: -nan
DTLB TIMELY PREFETCHES:          0 LATE PREFETCHES: 0 DROPPED PREFETCHES: 0
DTLB PREFETCHES SAME FILL-ORIGIN LEVEL: 0 DIFFERENT FILL-ORIGIN LEVEL: 0
DTLB AVERAGE MISS LATENCY: 10.8672 cycles
DTLB RQ	ACCESS:   67648973	FORWARD:          0	MERGED:   13173070	TO_CACHE:   54475903

STLB TOTAL     ACCESS:   27564383  HIT:   27462881  MISS:     101502  HIT %:    99.6318  MISS %:   0.368236   MPKI: 0.50751
STLB LOAD TRANSLATION ACCESS:    7307082  HIT:    7206910  MISS:     100172  HIT %:    98.6291  MISS %:    1.37089   MPKI: 0.50086
STLB TRANSLATION FROM L1D PREFETCHER ACCESS:   20257301  HIT:   20255971  MISS:       1330  HIT %:    99.9934  MISS %: 0.00656553   MPKI: 0.00665
STLB PREFETCH  REQUESTED:          0  ISSUED:          0  USEFUL:        848  USELESS:        483
STLB USEFUL LOAD PREFETCHES:        848 PREFETCH ISSUED TO LOWER LEVEL:          0  ACCURACY: inf
STLB TIMELY PREFETCHES:        848 LATE PREFETCHES: 24261 DROPPED PREFETCHES: 789707
STLB PREFETCHES SAME FILL-ORIGIN LEVEL: 0 DIFFERENT FILL-ORIGIN LEVEL: 0
STLB AVERAGE MISS LATENCY: 97.7477 cycles
STLB RQ	ACCESS:  106104439	FORWARD:          0	MERGED:   77449127	TO_CACHE:   28655312

STLB Hit, L1D data hit: 0
STLB Hit, L2C data hit: 0
STLB Hit, LLC data hit: 0
STLB Hit, LLC data miss: 0
STLB STLB hints to L2: 0
L1D TOTAL     ACCESS:  147802599  HIT:  133773984  MISS:   14028615  HIT %:    90.5085  MISS %:    9.49145   MPKI: 70.1431
L1D LOAD      ACCESS:   49816667  HIT:   39840290  MISS:    9976377  HIT %:    79.9738  MISS %:    20.0262   MPKI: 49.8819
L1D RFO       ACCESS:   16657509  HIT:   16051354  MISS:     606155  HIT %:    96.3611  MISS %:    3.63893   MPKI: 3.03078
L1D PREFETCH  ACCESS:   81328423  HIT:   77882340  MISS:    3446083  HIT %:    95.7628  MISS %:    4.23724   MPKI: 17.2304
L1D PREFETCH  REQUESTED:  269999493  ISSUED:  249984160  USEFUL:    3383656  USELESS:      62422
L1D USEFUL LOAD PREFETCHES:    3383656 PREFETCH ISSUED TO LOWER LEVEL:   13892077  ACCURACY: 24.3567
L1D TIMELY PREFETCHES:    3383656 LATE PREFETCHES: 370167 DROPPED PREFETCHES: 3527157
L1D PREFETCHES SAME FILL-ORIGIN LEVEL: 3817005 DIFFERENT FILL-ORIGIN LEVEL: 10075072
L1D AVERAGE MISS LATENCY: 87.134 cycles
L1D RQ	ACCESS:   68002671	FORWARD:          0	MERGED:   16442480	TO_CACHE:   49945669
L1D WQ	ACCESS:   17802933	FORWARD:    1732183	MERGED:      99629	TO_CACHE:   17703304
L1D PQ	ACCESS:  151186803	FORWARD:          0	MERGED:   52271785	TO_CACHE:   98797357

L1D UNIQUE REGIONS ACCESSED: 0
L1D REGIONS CONFLICTS: 0
L1D Cross Page Prefetch Requests: 16366031
L1D Same Page Prefetch Requests: 171575678
L1D ROI Sum of L1D PQ occupancy: 1438469221
L1D PREFETCHES PUSHED FROM L2C: 0
L1I TOTAL     ACCESS:   36318654  HIT:   36318652  MISS:          2  HIT %:        100  MISS %: 5.50681e-06   MPKI: 1e-05
L1I LOAD      ACCESS:   36318654  HIT:   36318652  MISS:          2  HIT %:        100  MISS %: 5.50681e-06   MPKI: 1e-05
L1I PREFETCH  REQUESTED:          0  ISSUED:          0  USEFUL:          0  USELESS:          0
L1I USEFUL LOAD PREFETCHES:          0 PREFETCH ISSUED TO LOWER LEVEL:          0  ACCURACY: -nan
L1I TIMELY PREFETCHES:          0 LATE PREFETCHES: 0 DROPPED PREFETCHES: 0
L1I PREFETCHES SAME FILL-ORIGIN LEVEL: 0 DIFFERENT FILL-ORIGIN LEVEL: 0
L1I AVERAGE MISS LATENCY: 408.5 cycles
L1I RQ	ACCESS:   55355076	FORWARD:          0	MERGED:   19036422	TO_CACHE:   36318654

BTB TOTAL     ACCESS:   49743916  HIT:   48131262  MISS:    1612654  HIT %:    96.7581  MISS %:    3.24191   MPKI: 8.06327
BTB BRANCH_DIRECT_JUMP	ACCESS:    5836928  HIT:    5836891  MISS:         37
BTB BRANCH_INDIRECT	ACCESS:          0  HIT:          0  MISS:          0
BTB BRANCH_CONDITIONAL	ACCESS:   36112465  HIT:   36112386  MISS:         79
BTB BRANCH_DIRECT_CALL	ACCESS:    3647058  HIT:    3647040  MISS:         18
BTB BRANCH_INDIRECT_CALL	ACCESS:     250202  HIT:     250194  MISS:          8
BTB BRANCH_RETURN	ACCESS:    3897263  HIT:    2284751  MISS:    1612512
BTB BRANCH_OTHER ACCESS:          0  HIT:          0  MISS:          0

L2C TOTAL     ACCESS:   25191748  HIT:   13983500  MISS:   11208248  HIT %:    55.5083  MISS %:    44.4917   MPKI: 56.0412
L2C LOAD      ACCESS:    9606173  HIT:    3128878  MISS:    6477295  HIT %:    32.5715  MISS %:    67.4285   MPKI: 32.3865
L2C DATA LOAD MPKI: 32.3865
L2C INSTRUCTION LOAD MPKI: 1e-05
L2C RFO       ACCESS:     606155  HIT:     316314  MISS:     289841  HIT %:    52.1837  MISS %:    47.8163   MPKI: 1.44921
L2C PREFETCH  ACCESS:   13122848  HIT:    8742348  MISS:    4380500  HIT %:    66.6193  MISS %:    33.3807   MPKI: 21.9025
L2C DATA PREFETCH MPKI: 21.9025
L2C INSTRUCTION PREFETCH MPKI: 0
L2C WRITEBACK ACCESS:     932245  HIT:     906998  MISS:      25247  HIT %:    97.2918  MISS %:    2.70819   MPKI: 0.126235
L2C LOAD TRANSLATION ACCESS:     100765  HIT:      75599  MISS:      25166  HIT %:    75.0251  MISS %:    24.9749   MPKI: 0.12583
L2C TRANSLATION FROM L1D PREFETCHER ACCESS:     823562  HIT:     813363  MISS:      10199  HIT %:    98.7616  MISS %:     1.2384   MPKI: 0.050995
L2C PREFETCH  REQUESTED:          0  ISSUED:          0  USEFUL:     516276  USELESS:    3874577
L2C USEFUL LOAD PREFETCHES:     516276 PREFETCH ISSUED TO LOWER LEVEL:    4466303  ACCURACY: 11.5594
L2C TIMELY PREFETCHES:     516276 LATE PREFETCHES: 85803 DROPPED PREFETCHES: 0
L2C PREFETCHES SAME FILL-ORIGIN LEVEL: 1373302 DIFFERENT FILL-ORIGIN LEVEL: 0
L2C AVERAGE MISS LATENCY: 118.572 cycles
L2C RQ	ACCESS:   11136694	FORWARD:          0	MERGED:          0	TO_CACHE:   11136655
L2C WQ	ACCESS:     932245	FORWARD:         45	MERGED:          0	TO_CACHE:     932245
L2C PQ	ACCESS:   13889370	FORWARD:          0	MERGED:      38501	TO_CACHE:   13850863

L2C Instructions Evicting Data 2
L2C Translations Evicting Data 35235
L2C Data Evicting Data 11112455
L2C Instructions Evicting Instructions 0
L2C Translations Evicting Instructions 0
L2C Data Evicting Instructions 2
L2C Instructions Evicting Translations 0
L2C Translations Evicting Translations 130
L2C Data Evicting Translations 35177
L2C Dense regions hint from L2: 0
PSCL5 TOTAL     ACCESS:     915465  HIT:     915465  MISS:          0  HIT %:        100  MISS %:          0   MPKI: 0
PSCL5 LOAD TRANSLATION ACCESS:     100167  HIT:     100167  MISS:          0  HIT %:        100  MISS %:          0   MPKI: 0
PSCL5 TRANSLATION FROM L1D PREFETCHER ACCESS:     815298  HIT:     815298  MISS:          0  HIT %:        100  MISS %:          0   MPKI: 0
PSCL5 PREFETCH  REQUESTED:          0  ISSUED:          0  USEFUL:          0  USELESS:          0
PSCL5 USEFUL LOAD PREFETCHES:          0 PREFETCH ISSUED TO LOWER LEVEL:          0  ACCURACY: -nan
PSCL5 TIMELY PREFETCHES:          0 LATE PREFETCHES: 0 DROPPED PREFETCHES: 0
PSCL5 PREFETCHES SAME FILL-ORIGIN LEVEL: 0 DIFFERENT FILL-ORIGIN LEVEL: 0

PSCL4 TOTAL     ACCESS:     915465  HIT:     915465  MISS:          0  HIT %:        100  MISS %:          0   MPKI: 0
PSCL4 LOAD TRANSLATION ACCESS:     100167  HIT:     100167  MISS:          0  HIT %:        100  MISS %:          0   MPKI: 0
PSCL4 TRANSLATION FROM L1D PREFETCHER ACCESS:     815298  HIT:     815298  MISS:          0  HIT %:        100  MISS %:          0   MPKI: 0
PSCL4 PREFETCH  REQUESTED:          0  ISSUED:          0  USEFUL:          0  USELESS:          0
PSCL4 USEFUL LOAD PREFETCHES:          0 PREFETCH ISSUED TO LOWER LEVEL:          0  ACCURACY: -nan
PSCL4 TIMELY PREFETCHES:          0 LATE PREFETCHES: 0 DROPPED PREFETCHES: 0
PSCL4 PREFETCHES SAME FILL-ORIGIN LEVEL: 0 DIFFERENT FILL-ORIGIN LEVEL: 0

PSCL3 TOTAL     ACCESS:     915465  HIT:     915465  MISS:          0  HIT %:        100  MISS %:          0   MPKI: 0
PSCL3 LOAD TRANSLATION ACCESS:     100167  HIT:     100167  MISS:          0  HIT %:        100  MISS %:          0   MPKI: 0
PSCL3 TRANSLATION FROM L1D PREFETCHER ACCESS:     815298  HIT:     815298  MISS:          0  HIT %:        100  MISS %:          0   MPKI: 0
PSCL3 PREFETCH  REQUESTED:          0  ISSUED:          0  USEFUL:          0  USELESS:          0
PSCL3 USEFUL LOAD PREFETCHES:          0 PREFETCH ISSUED TO LOWER LEVEL:          0  ACCURACY: -nan
PSCL3 TIMELY PREFETCHES:          0 LATE PREFETCHES: 0 DROPPED PREFETCHES: 0
PSCL3 PREFETCHES SAME FILL-ORIGIN LEVEL: 0 DIFFERENT FILL-ORIGIN LEVEL: 0

PSCL2 TOTAL     ACCESS:     906257  HIT:     905227  MISS:       1030  HIT %:    99.8863  MISS %:   0.113654   MPKI: 0.00515
PSCL2 LOAD TRANSLATION ACCESS:     100215  HIT:      99185  MISS:       1030  HIT %:    98.9722  MISS %:    1.02779   MPKI: 0.00515
PSCL2 TRANSLATION FROM L1D PREFETCHER ACCESS:     806042  HIT:     806042  MISS:          0  HIT %:        100  MISS %:          0   MPKI: 0
PSCL2 PREFETCH  REQUESTED:          0  ISSUED:          0  USEFUL:          0  USELESS:          0
PSCL2 USEFUL LOAD PREFETCHES:          0 PREFETCH ISSUED TO LOWER LEVEL:          0  ACCURACY: -nan
PSCL2 TIMELY PREFETCHES:          0 LATE PREFETCHES: 0 DROPPED PREFETCHES: 0
PSCL2 PREFETCHES SAME FILL-ORIGIN LEVEL: 0 DIFFERENT FILL-ORIGIN LEVEL: 0

LLC TOTAL     ACCESS:   11740833  HIT:    6397897  MISS:    5342936  HIT %:    54.4927  MISS %:    45.5073   MPKI: 26.7147
LLC LOAD      ACCESS:    6391784  HIT:    5297551  MISS:    1094233  HIT %:    82.8806  MISS %:    17.1194   MPKI: 5.47117
LLC RFO       ACCESS:     289534  HIT:     284983  MISS:       4551  HIT %:    98.4282  MISS %:    1.57184   MPKI: 0.022755
LLC PREFETCH  ACCESS:    4466302  HIT:     240548  MISS:    4225754  HIT %:    5.38584  MISS %:    94.6142   MPKI: 21.1288
LLC WRITEBACK ACCESS:     557848  HIT:     553714  MISS:       4134  HIT %:    99.2589  MISS %:   0.741062   MPKI: 0.02067
LLC LOAD TRANSLATION ACCESS:      25166  HIT:      20166  MISS:       5000  HIT %:    80.1319  MISS %:    19.8681   MPKI: 0.025
LLC TRANSLATION FROM L1D PREFETCHER ACCESS:      10199  HIT:        935  MISS:       9264  HIT %:    9.16757  MISS %:    90.8324   MPKI: 0.04632
LLC PREFETCH  REQUESTED:          0  ISSUED:          0  USEFUL:     633356  USELESS:   16361222
LLC USEFUL LOAD PREFETCHES:     633356 PREFETCH ISSUED TO LOWER LEVEL:   16974862  ACCURACY: 3.73114
LLC TIMELY PREFETCHES:     633356 LATE PREFETCHES: 0 DROPPED PREFETCHES: 0
LLC PREFETCHES SAME FILL-ORIGIN LEVEL: 0 DIFFERENT FILL-ORIGIN LEVEL: 0
LLC AVERAGE MISS LATENCY: 741.167 cycles
LLC RQ	ACCESS:   26869495	FORWARD:          0	MERGED:          0	TO_CACHE:   26869446
LLC WQ	ACCESS:    2158928	FORWARD:         51	MERGED:          0	TO_CACHE:    2158928
LLC PQ	ACCESS:   17915403	FORWARD:          0	MERGED:          0	TO_CACHE:   17915401

LLC Dense regions hint to LLC: 0

RAW hits: 2650310
Loads Generated: 70652983
Loads sent to L1D: 68002671
Stores Generated: 17802933
Stores sent to L1D: 17802933
Major fault: 0 Minor fault: 80635
Allocated PAGES: 323640

DRAM Statistics
 CHANNEL 0
 RQ ROW_BUFFER_HIT:   12936340  ROW_BUFFER_MISS:    8457387
 DBUS_CONGESTED:       9823
 WQ ROW_BUFFER_HIT:      29689  ROW_BUFFER_MISS:     199264  FULL:          0

 AVG_CONGESTED_CYCLE: 4
 All warmup complete: 5
Channel 0 Bank busy for read cycles: 0
Channel 0 Bank busy for write cycles: 0
Channel 0
Rank 0
0banks busy for read cycles: 144629040
0banks busy for write cycles: 16847
1banks busy for read cycles: 75789297
1banks busy for write cycles: 4444236
2banks busy for read cycles: 73241025
2banks busy for write cycles: 1713383
3banks busy for read cycles: 70647461
3banks busy for write cycles: 1127700
4banks busy for read cycles: 64860691
4banks busy for write cycles: 929569
5banks busy for read cycles: 58119715
5banks busy for write cycles: 837701
6banks busy for read cycles: 50170623
6banks busy for write cycles: 907956
7banks busy for read cycles: 40846175
7banks busy for write cycles: 1639411
8banks busy for read cycles: 43321248
8banks busy for write cycles: 8325411

CPU 0 Branch Prediction Accuracy: 94.5899% MPKI: 13.9805 Average ROB Occupancy at Mispredict: 30.3946
Branch types
NOT_BRANCH: 148970048 74.1572%
BRANCH_DIRECT_JUMP: 5862821 2.91851%
BRANCH_INDIRECT: 0 0%
BRANCH_CONDITIONAL: 38222649 19.0272%
BRANCH_DIRECT_CALL: 3662974 1.82343%
BRANCH_INDIRECT_CALL: 251290 0.125092%
BRANCH_RETURN: 3914268 1.94852%
BRANCH_OTHER: 0 0%


CPU 1 Branch Prediction Accuracy: 94.5903% MPKI: 13.9801 Average ROB Occupancy at Mispredict: 30.4004
Branch types
NOT_BRANCH: 149166857 74.1567%
BRANCH_DIRECT_JUMP: 5870940 2.91868%
BRANCH_INDIRECT: 0 0%
BRANCH_CONDITIONAL: 38275124 19.0281%
BRANCH_DIRECT_CALL: 3667333 1.82318%
BRANCH_INDIRECT_CALL: 251570 0.125065%
BRANCH_RETURN: 3918910 1.94825%
BRANCH_OTHER: 0 0%


CPU 2 Branch Prediction Accuracy: 94.5903% MPKI: 13.9801 Average ROB Occupancy at Mispredict: 30.3983
Branch types
NOT_BRANCH: 149157688 74.1571%
BRANCH_DIRECT_JUMP: 5870446 2.91862%
BRANCH_INDIRECT: 0 0%
BRANCH_CONDITIONAL: 38271600 19.0276%
BRANCH_DIRECT_CALL: 3667391 1.82333%
BRANCH_INDIRECT_CALL: 251576 0.125077%
BRANCH_RETURN: 3918973 1.9484%
BRANCH_OTHER: 0 0%


CPU 3 Branch Prediction Accuracy: 94.5902% MPKI: 13.9808 Average ROB Occupancy at Mispredict: 30.4035
Branch types
NOT_BRANCH: 148312417 74.1562%
BRANCH_DIRECT_JUMP: 5836928 2.91846%
BRANCH_INDIRECT: 0 0%
BRANCH_CONDITIONAL: 38055866 19.0279%
BRANCH_DIRECT_CALL: 3647058 1.82353%
BRANCH_INDIRECT_CALL: 250202 0.125101%
BRANCH_RETURN: 3897263 1.94863%
BRANCH_OTHER: 0 0%

DRAM PAGES: 1048576
Allocated PAGES: 323640
