
*** ChampSim Multicore Out-of-Order Simulator ***

Warmup Instructions: 50000000
Simulation Instructions: 200000000
Number of CPUs: 4
LLC sets: 8192
LLC ways: 16
Off-chip DRAM Size: 4096 MB Channels: 1 Width: 64-bit Data Rate: 6400 MT/s
CPU 0 runs ./traces/spec/649.fotonik3d_s-1176B.champsimtrace.xz
.xz
CPU 1 runs ./traces/spec/649.fotonik3d_s-1176B.champsimtrace.xz
.xz
CPU 2 runs ./traces/spec/649.fotonik3d_s-1176B.champsimtrace.xz
.xz
CPU 3 runs ./traces/spec/649.fotonik3d_s-1176B.champsimtrace.xz
.xz
BTB has LRU replacement policy
ITLB has LRU replacement policy
DTLB has LRU replacement policy
STLB has LRU replacement policy
L1I has LRU replacement policy
History Sets: 8
History Ways: 16
BERTI Size: 16
BERTI Stride Size: 8
L1D has LRU replacement policy
Initialize SRRIP state for L2C
Initialize DRRIP state for LLC
BTB has LRU replacement policy
ITLB has LRU replacement policy
DTLB has LRU replacement policy
STLB has LRU replacement policy
L1I has LRU replacement policy
History Sets: 8
History Ways: 16
BERTI Size: 16
BERTI Stride Size: 8
L1D has LRU replacement policy
Initialize SRRIP state for L2C
Initialize DRRIP state for LLC
BTB has LRU replacement policy
ITLB has LRU replacement policy
DTLB has LRU replacement policy
STLB has LRU replacement policy
L1I has LRU replacement policy
History Sets: 8
History Ways: 16
BERTI Size: 16
BERTI Stride Size: 8
L1D has LRU replacement policy
Initialize SRRIP state for L2C
Initialize DRRIP state for LLC
BTB has LRU replacement policy
ITLB has LRU replacement policy
DTLB has LRU replacement policy
STLB has LRU replacement policy
L1I has LRU replacement policy
History Sets: 8
History Ways: 16
BERTI Size: 16
BERTI Stride Size: 8
L1D has LRU replacement policy
Initialize SRRIP state for L2C
Initialize DRRIP state for LLC
Heartbeat CPU 0 instructions: 10000000 cycles: 2903267 heartbeat IPC: 3.4444 cumulative IPC: 3.4444 (Simulation time: 0 hr 3 min 3 sec) 
Heartbeat CPU 2 instructions: 10000000 cycles: 2903279 heartbeat IPC: 3.44438 cumulative IPC: 3.44438 (Simulation time: 0 hr 3 min 3 sec) 
Heartbeat CPU 1 instructions: 10000000 cycles: 2903306 heartbeat IPC: 3.44435 cumulative IPC: 3.44435 (Simulation time: 0 hr 3 min 3 sec) 
Heartbeat CPU 3 instructions: 10000000 cycles: 2903314 heartbeat IPC: 3.44434 cumulative IPC: 3.44434 (Simulation time: 0 hr 3 min 3 sec) 
Heartbeat CPU 3 instructions: 20000002 cycles: 5806374 heartbeat IPC: 3.44464 cumulative IPC: 3.44449 (Simulation time: 0 hr 6 min 5 sec) 
Heartbeat CPU 2 instructions: 20000002 cycles: 5806555 heartbeat IPC: 3.44439 cumulative IPC: 3.44438 (Simulation time: 0 hr 6 min 5 sec) 
Heartbeat CPU 0 instructions: 20000002 cycles: 5806623 heartbeat IPC: 3.44429 cumulative IPC: 3.44434 (Simulation time: 0 hr 6 min 5 sec) 
Heartbeat CPU 1 instructions: 20000002 cycles: 5806676 heartbeat IPC: 3.44427 cumulative IPC: 3.44431 (Simulation time: 0 hr 6 min 5 sec) 
Heartbeat CPU 3 instructions: 30000001 cycles: 8709629 heartbeat IPC: 3.44441 cumulative IPC: 3.44446 (Simulation time: 0 hr 9 min 12 sec) 
Heartbeat CPU 2 instructions: 30000001 cycles: 8709852 heartbeat IPC: 3.44436 cumulative IPC: 3.44438 (Simulation time: 0 hr 9 min 12 sec) 
Heartbeat CPU 1 instructions: 30000001 cycles: 8709929 heartbeat IPC: 3.44441 cumulative IPC: 3.44434 (Simulation time: 0 hr 9 min 12 sec) 
Heartbeat CPU 0 instructions: 30000001 cycles: 8709955 heartbeat IPC: 3.44432 cumulative IPC: 3.44433 (Simulation time: 0 hr 9 min 12 sec) 
Heartbeat CPU 3 instructions: 40000003 cycles: 11612935 heartbeat IPC: 3.44435 cumulative IPC: 3.44444 (Simulation time: 0 hr 12 min 22 sec) 
Heartbeat CPU 1 instructions: 40000003 cycles: 11613292 heartbeat IPC: 3.44428 cumulative IPC: 3.44433 (Simulation time: 0 hr 12 min 22 sec) 
Heartbeat CPU 0 instructions: 40000003 cycles: 11613327 heartbeat IPC: 3.44427 cumulative IPC: 3.44432 (Simulation time: 0 hr 12 min 22 sec) 
Heartbeat CPU 2 instructions: 40000003 cycles: 11613339 heartbeat IPC: 3.44414 cumulative IPC: 3.44432 (Simulation time: 0 hr 12 min 22 sec) 
Heartbeat CPU 3 instructions: 50000001 cycles: 14515989 heartbeat IPC: 3.44465 cumulative IPC: 3.44448 (Simulation time: 0 hr 15 min 39 sec) 
Heartbeat CPU 1 instructions: 50000001 cycles: 14516479 heartbeat IPC: 3.44449 cumulative IPC: 3.44436 (Simulation time: 0 hr 15 min 39 sec) 
Heartbeat CPU 2 instructions: 50000001 cycles: 14516498 heartbeat IPC: 3.44452 cumulative IPC: 3.44436 (Simulation time: 0 hr 15 min 39 sec) 
Heartbeat CPU 0 instructions: 50000001 cycles: 14516543 heartbeat IPC: 3.44446 cumulative IPC: 3.44435 (Simulation time: 0 hr 15 min 39 sec) 

Warmup complete CPU 0 instructions: 50000001 cycles: 14516543 (Simulation time: 0 hr 15 min 39 sec) 
Warmup complete CPU 1 instructions: 50000223 cycles: 14516542 (Simulation time: 0 hr 15 min 39 sec) 
Warmup complete CPU 2 instructions: 50000177 cycles: 14516542 (Simulation time: 0 hr 15 min 39 sec) 
Warmup complete CPU 3 instructions: 50001932 cycles: 14516542 (Simulation time: 0 hr 15 min 39 sec) 

Heartbeat CPU 1 instructions: 60000003 cycles: 26787287 heartbeat IPC: 0.814942 cumulative IPC: 0.814929 (Simulation time: 0 hr 19 min 27 sec) 
Heartbeat CPU 2 instructions: 60000000 cycles: 26793428 heartbeat IPC: 0.814536 cumulative IPC: 0.814524 (Simulation time: 0 hr 19 min 28 sec) 
Heartbeat CPU 3 instructions: 60000003 cycles: 26802594 heartbeat IPC: 0.813895 cumulative IPC: 0.813774 (Simulation time: 0 hr 19 min 28 sec) 
Heartbeat CPU 0 instructions: 60000003 cycles: 27018410 heartbeat IPC: 0.799881 cumulative IPC: 0.799881 (Simulation time: 0 hr 19 min 32 sec) 
Heartbeat CPU 1 instructions: 70000001 cycles: 39072821 heartbeat IPC: 0.813965 cumulative IPC: 0.814447 (Simulation time: 0 hr 23 min 24 sec) 
Heartbeat CPU 3 instructions: 70000001 cycles: 39078667 heartbeat IPC: 0.814593 cumulative IPC: 0.814183 (Simulation time: 0 hr 23 min 24 sec) 
Heartbeat CPU 2 instructions: 70000001 cycles: 39126445 heartbeat IPC: 0.810832 cumulative IPC: 0.812674 (Simulation time: 0 hr 23 min 25 sec) 
Heartbeat CPU 0 instructions: 70000001 cycles: 39420954 heartbeat IPC: 0.806286 cumulative IPC: 0.803071 (Simulation time: 0 hr 23 min 30 sec) 
Heartbeat CPU 1 instructions: 80000000 cycles: 51369423 heartbeat IPC: 0.813233 cumulative IPC: 0.814042 (Simulation time: 0 hr 27 min 29 sec) 
Heartbeat CPU 2 instructions: 80000000 cycles: 51438415 heartbeat IPC: 0.812218 cumulative IPC: 0.812522 (Simulation time: 0 hr 27 min 30 sec) 
Heartbeat CPU 3 instructions: 80000000 cycles: 51450732 heartbeat IPC: 0.808272 cumulative IPC: 0.812203 (Simulation time: 0 hr 27 min 30 sec) 
Heartbeat CPU 0 instructions: 80000000 cycles: 51706966 heartbeat IPC: 0.813934 cumulative IPC: 0.806659 (Simulation time: 0 hr 27 min 35 sec) 
Heartbeat CPU 1 instructions: 90000001 cycles: 63594383 heartbeat IPC: 0.817999 cumulative IPC: 0.815027 (Simulation time: 0 hr 31 min 29 sec) 
Heartbeat CPU 3 instructions: 90000001 cycles: 63820687 heartbeat IPC: 0.80841 cumulative IPC: 0.811252 (Simulation time: 0 hr 31 min 33 sec) 
Heartbeat CPU 2 instructions: 90000002 cycles: 63850862 heartbeat IPC: 0.805643 cumulative IPC: 0.810791 (Simulation time: 0 hr 31 min 33 sec) 
Heartbeat CPU 0 instructions: 90000001 cycles: 64032436 heartbeat IPC: 0.811328 cumulative IPC: 0.807821 (Simulation time: 0 hr 31 min 37 sec) 
Heartbeat CPU 1 instructions: 100000000 cycles: 75831446 heartbeat IPC: 0.817189 cumulative IPC: 0.815459 (Simulation time: 0 hr 35 min 30 sec) 
Heartbeat CPU 3 instructions: 100000000 cycles: 76211733 heartbeat IPC: 0.807034 cumulative IPC: 0.810405 (Simulation time: 0 hr 35 min 38 sec) 
Heartbeat CPU 0 instructions: 100000000 cycles: 76212209 heartbeat IPC: 0.821033 cumulative IPC: 0.81043 (Simulation time: 0 hr 35 min 38 sec) 
Heartbeat CPU 2 instructions: 100000000 cycles: 76251786 heartbeat IPC: 0.806391 cumulative IPC: 0.809907 (Simulation time: 0 hr 35 min 39 sec) 
Heartbeat CPU 1 instructions: 110000000 cycles: 88033195 heartbeat IPC: 0.819555 cumulative IPC: 0.816139 (Simulation time: 0 hr 39 min 27 sec) 
Heartbeat CPU 3 instructions: 110000000 cycles: 88421044 heartbeat IPC: 0.819047 cumulative IPC: 0.811832 (Simulation time: 0 hr 39 min 35 sec) 
Heartbeat CPU 0 instructions: 110000000 cycles: 88585197 heartbeat IPC: 0.808212 cumulative IPC: 0.810059 (Simulation time: 0 hr 39 min 39 sec) 
Heartbeat CPU 2 instructions: 110000000 cycles: 88656033 heartbeat IPC: 0.806175 cumulative IPC: 0.809283 (Simulation time: 0 hr 39 min 40 sec) 
Heartbeat CPU 1 instructions: 120000001 cycles: 100209833 heartbeat IPC: 0.821245 cumulative IPC: 0.816864 (Simulation time: 0 hr 43 min 2 sec) 
Heartbeat CPU 3 instructions: 120000001 cycles: 100647097 heartbeat IPC: 0.817926 cumulative IPC: 0.812697 (Simulation time: 0 hr 43 min 9 sec) 
Heartbeat CPU 0 instructions: 120000001 cycles: 100796847 heartbeat IPC: 0.81889 cumulative IPC: 0.811309 (Simulation time: 0 hr 43 min 11 sec) 
Heartbeat CPU 2 instructions: 120000001 cycles: 101384973 heartbeat IPC: 0.785611 cumulative IPC: 0.805814 (Simulation time: 0 hr 43 min 21 sec) 
Heartbeat CPU 1 instructions: 130000003 cycles: 112297519 heartbeat IPC: 0.827288 cumulative IPC: 0.818153 (Simulation time: 0 hr 46 min 32 sec) 
Heartbeat CPU 3 instructions: 130000002 cycles: 112876270 heartbeat IPC: 0.817717 cumulative IPC: 0.813321 (Simulation time: 0 hr 46 min 42 sec) 
Heartbeat CPU 0 instructions: 130000003 cycles: 112960092 heartbeat IPC: 0.822149 cumulative IPC: 0.812648 (Simulation time: 0 hr 46 min 43 sec) 
Heartbeat CPU 2 instructions: 130000002 cycles: 114155950 heartbeat IPC: 0.783026 cumulative IPC: 0.802893 (Simulation time: 0 hr 47 min 3 sec) 
Heartbeat CPU 1 instructions: 140000002 cycles: 124459869 heartbeat IPC: 0.822209 cumulative IPC: 0.818602 (Simulation time: 0 hr 49 min 55 sec) 
Heartbeat CPU 3 instructions: 140000002 cycles: 125095973 heartbeat IPC: 0.81835 cumulative IPC: 0.813877 (Simulation time: 0 hr 50 min 6 sec) 
Heartbeat CPU 0 instructions: 140000002 cycles: 125209919 heartbeat IPC: 0.816338 cumulative IPC: 0.813057 (Simulation time: 0 hr 50 min 8 sec) 
Heartbeat CPU 2 instructions: 140000002 cycles: 126866642 heartbeat IPC: 0.786739 cumulative IPC: 0.801066 (Simulation time: 0 hr 50 min 42 sec) 
Heartbeat CPU 1 instructions: 150000001 cycles: 136710297 heartbeat IPC: 0.816298 cumulative IPC: 0.818371 (Simulation time: 0 hr 53 min 33 sec) 
Heartbeat CPU 3 instructions: 150000003 cycles: 137350261 heartbeat IPC: 0.816041 cumulative IPC: 0.814093 (Simulation time: 0 hr 53 min 43 sec) 
Heartbeat CPU 0 instructions: 150000003 cycles: 137439496 heartbeat IPC: 0.81769 cumulative IPC: 0.813518 (Simulation time: 0 hr 53 min 45 sec) 
Heartbeat CPU 2 instructions: 150000003 cycles: 139600990 heartbeat IPC: 0.785278 cumulative IPC: 0.799459 (Simulation time: 0 hr 54 min 21 sec) 
Heartbeat CPU 1 instructions: 160000000 cycles: 149011631 heartbeat IPC: 0.81292 cumulative IPC: 0.817872 (Simulation time: 0 hr 56 min 59 sec) 
Heartbeat CPU 0 instructions: 160000000 cycles: 149582710 heartbeat IPC: 0.823505 cumulative IPC: 0.814416 (Simulation time: 0 hr 57 min 8 sec) 
Heartbeat CPU 3 instructions: 160000003 cycles: 149673582 heartbeat IPC: 0.81147 cumulative IPC: 0.813854 (Simulation time: 0 hr 57 min 10 sec) 
Heartbeat CPU 2 instructions: 160000000 cycles: 152088159 heartbeat IPC: 0.800822 cumulative IPC: 0.799582 (Simulation time: 0 hr 57 min 49 sec) 
Heartbeat CPU 1 instructions: 170000000 cycles: 161313074 heartbeat IPC: 0.812913 cumulative IPC: 0.817456 (Simulation time: 1 hr 0 min 27 sec) 
Heartbeat CPU 3 instructions: 170000000 cycles: 161832229 heartbeat IPC: 0.82246 cumulative IPC: 0.814564 (Simulation time: 1 hr 0 min 36 sec) 
Heartbeat CPU 0 instructions: 170000000 cycles: 161888773 heartbeat IPC: 0.812608 cumulative IPC: 0.814265 (Simulation time: 1 hr 0 min 37 sec) 
Heartbeat CPU 2 instructions: 170000000 cycles: 164860992 heartbeat IPC: 0.782912 cumulative IPC: 0.798166 (Simulation time: 1 hr 1 min 31 sec) 
Heartbeat CPU 1 instructions: 180000003 cycles: 173688881 heartbeat IPC: 0.808028 cumulative IPC: 0.816723 (Simulation time: 1 hr 4 min 4 sec) 
Heartbeat CPU 0 instructions: 180000003 cycles: 174087343 heartbeat IPC: 0.819768 cumulative IPC: 0.814685 (Simulation time: 1 hr 4 min 12 sec) 
Heartbeat CPU 3 instructions: 180000003 cycles: 174111630 heartbeat IPC: 0.814372 cumulative IPC: 0.814549 (Simulation time: 1 hr 4 min 12 sec) 
Heartbeat CPU 2 instructions: 180000003 cycles: 177256567 heartbeat IPC: 0.80674 cumulative IPC: 0.798819 (Simulation time: 1 hr 4 min 59 sec) 
Heartbeat CPU 1 instructions: 190000000 cycles: 185888335 heartbeat IPC: 0.819709 cumulative IPC: 0.816936 (Simulation time: 1 hr 7 min 33 sec) 
Heartbeat CPU 0 instructions: 190000000 cycles: 186282997 heartbeat IPC: 0.819964 cumulative IPC: 0.81506 (Simulation time: 1 hr 7 min 40 sec) 
Heartbeat CPU 3 instructions: 190000000 cycles: 186540042 heartbeat IPC: 0.804608 cumulative IPC: 0.813831 (Simulation time: 1 hr 7 min 44 sec) 
Heartbeat CPU 2 instructions: 190000002 cycles: 189815379 heartbeat IPC: 0.796254 cumulative IPC: 0.798635 (Simulation time: 1 hr 8 min 40 sec) 
Heartbeat CPU 1 instructions: 200000003 cycles: 198011417 heartbeat IPC: 0.824873 cumulative IPC: 0.81746 (Simulation time: 1 hr 11 min 2 sec) 
Heartbeat CPU 0 instructions: 200000003 cycles: 198337674 heartbeat IPC: 0.829554 cumulative IPC: 0.816011 (Simulation time: 1 hr 11 min 7 sec) 
Heartbeat CPU 3 instructions: 200000001 cycles: 199009514 heartbeat IPC: 0.801959 cumulative IPC: 0.813029 (Simulation time: 1 hr 11 min 18 sec) 
Heartbeat CPU 2 instructions: 200000001 cycles: 202441154 heartbeat IPC: 0.792031 cumulative IPC: 0.798191 (Simulation time: 1 hr 12 min 15 sec) 
Heartbeat CPU 1 instructions: 210000003 cycles: 210255716 heartbeat IPC: 0.816707 cumulative IPC: 0.817413 (Simulation time: 1 hr 14 min 32 sec) 
Heartbeat CPU 0 instructions: 210000002 cycles: 210543534 heartbeat IPC: 0.819279 cumulative IPC: 0.816214 (Simulation time: 1 hr 14 min 39 sec) 
Heartbeat CPU 3 instructions: 210000003 cycles: 211692554 heartbeat IPC: 0.788455 cumulative IPC: 0.811448 (Simulation time: 1 hr 14 min 59 sec) 
Heartbeat CPU 2 instructions: 210000000 cycles: 214778307 heartbeat IPC: 0.81056 cumulative IPC: 0.798953 (Simulation time: 1 hr 15 min 58 sec) 
Heartbeat CPU 1 instructions: 220000000 cycles: 222487312 heartbeat IPC: 0.817555 cumulative IPC: 0.817421 (Simulation time: 1 hr 18 min 22 sec) 
Heartbeat CPU 0 instructions: 220000000 cycles: 222720025 heartbeat IPC: 0.821254 cumulative IPC: 0.816509 (Simulation time: 1 hr 18 min 26 sec) 
Heartbeat CPU 3 instructions: 220000000 cycles: 224224350 heartbeat IPC: 0.79797 cumulative IPC: 0.810643 (Simulation time: 1 hr 18 min 54 sec) 
Heartbeat CPU 2 instructions: 220000000 cycles: 227220547 heartbeat IPC: 0.803714 cumulative IPC: 0.799232 (Simulation time: 1 hr 19 min 54 sec) 
Heartbeat CPU 1 instructions: 230000002 cycles: 234702017 heartbeat IPC: 0.818686 cumulative IPC: 0.817492 (Simulation time: 1 hr 22 min 20 sec) 
Heartbeat CPU 0 instructions: 230000002 cycles: 234905771 heartbeat IPC: 0.820631 cumulative IPC: 0.816737 (Simulation time: 1 hr 22 min 23 sec) 
Heartbeat CPU 3 instructions: 230000002 cycles: 236805985 heartbeat IPC: 0.794809 cumulative IPC: 0.809746 (Simulation time: 1 hr 22 min 58 sec) 
Heartbeat CPU 2 instructions: 230000002 cycles: 239769526 heartbeat IPC: 0.796878 cumulative IPC: 0.799101 (Simulation time: 1 hr 23 min 54 sec) 
Heartbeat CPU 1 instructions: 240000003 cycles: 247016406 heartbeat IPC: 0.812058 cumulative IPC: 0.817204 (Simulation time: 1 hr 26 min 24 sec) 
Heartbeat CPU 0 instructions: 240000003 cycles: 247110730 heartbeat IPC: 0.819339 cumulative IPC: 0.816873 (Simulation time: 1 hr 26 min 26 sec) 
Heartbeat CPU 3 instructions: 240000003 cycles: 249355955 heartbeat IPC: 0.796815 cumulative IPC: 0.809055 (Simulation time: 1 hr 27 min 14 sec) 
Heartbeat CPU 2 instructions: 240000003 cycles: 252070212 heartbeat IPC: 0.812963 cumulative IPC: 0.799819 (Simulation time: 1 hr 28 min 10 sec) 
Heartbeat CPU 1 instructions: 250000002 cycles: 259208708 heartbeat IPC: 0.82019 cumulative IPC: 0.817353 (Simulation time: 1 hr 30 min 33 sec) 
Finished CPU 1 instructions: 200000002 cycles: 244692599 cumulative IPC: 0.817352 (Simulation time: 1 hr 30 min 33 sec) 
Heartbeat CPU 0 instructions: 250000002 cycles: 259704961 heartbeat IPC: 0.794014 cumulative IPC: 0.815699 (Simulation time: 1 hr 30 min 43 sec) 
Finished CPU 0 instructions: 200000001 cycles: 245188418 cumulative IPC: 0.815699 (Simulation time: 1 hr 30 min 43 sec) 
Heartbeat CPU 3 instructions: 250000000 cycles: 261829190 heartbeat IPC: 0.801716 cumulative IPC: 0.808685 (Simulation time: 1 hr 31 min 27 sec) 
Finished CPU 3 instructions: 200000000 cycles: 247314019 cumulative IPC: 0.808689 (Simulation time: 1 hr 31 min 27 sec) 
Heartbeat CPU 2 instructions: 250000000 cycles: 264376209 heartbeat IPC: 0.812612 cumulative IPC: 0.800449 (Simulation time: 1 hr 32 min 21 sec) 
Finished CPU 2 instructions: 200000001 cycles: 249859735 cumulative IPC: 0.800449 (Simulation time: 1 hr 32 min 21 sec) 

ChampSim completed all CPUs

Total Simulation Statistics (not including warmup)

CPU 0 cumulative IPC: 0.815353 instructions: 203723807 cycles: 249859734
ITLB TOTAL     ACCESS:   29224228  HIT:   29224228  MISS:          0  HIT %:        100  MISS %:          0   MPKI: 0
ITLB LOAD      ACCESS:          0  HIT:          0  MISS:          0  HIT %:       -nan  MISS %:       -nan   MPKI: 0
ITLB RFO       ACCESS:          0  HIT:          0  MISS:          0  HIT %:       -nan  MISS %:       -nan   MPKI: 0
ITLB PREFETCH  ACCESS:          0  HIT:          0  MISS:          0  HIT %:       -nan  MISS %:       -nan   MPKI: 0
ITLB WRITEBACK ACCESS:          0  HIT:          0  MISS:          0  HIT %:       -nan  MISS %:       -nan   MPKI: 0
DTLB TOTAL     ACCESS:   26542063  HIT:   26494192  MISS:      47871  HIT %:    99.8196  MISS %:   0.180359   MPKI: 0.23498
DTLB LOAD      ACCESS:          0  HIT:          0  MISS:          0  HIT %:       -nan  MISS %:       -nan   MPKI: 0
DTLB RFO       ACCESS:          0  HIT:          0  MISS:          0  HIT %:       -nan  MISS %:       -nan   MPKI: 0
DTLB PREFETCH  ACCESS:          0  HIT:          0  MISS:          0  HIT %:       -nan  MISS %:       -nan   MPKI: 0
DTLB WRITEBACK ACCESS:          0  HIT:          0  MISS:          0  HIT %:       -nan  MISS %:       -nan   MPKI: 0
STLB TOTAL     ACCESS:   12989060  HIT:   12961105  MISS:      27955  HIT %:    99.7848  MISS %:    0.21522   MPKI: 0.13722
STLB LOAD      ACCESS:          0  HIT:          0  MISS:          0  HIT %:       -nan  MISS %:       -nan   MPKI: 0
STLB RFO       ACCESS:          0  HIT:          0  MISS:          0  HIT %:       -nan  MISS %:       -nan   MPKI: 0
STLB PREFETCH  ACCESS:          0  HIT:          0  MISS:          0  HIT %:       -nan  MISS %:       -nan   MPKI: 0
STLB WRITEBACK ACCESS:          0  HIT:          0  MISS:          0  HIT %:       -nan  MISS %:       -nan   MPKI: 0
L1D TOTAL     ACCESS:   92061414  HIT:   89357028  MISS:    2704386  HIT %:    97.0624  MISS %:    2.93759   MPKI: 13.2748
L1D LOAD      ACCESS:   26946831  HIT:   26570047  MISS:     376784  HIT %:    98.6018  MISS %:    1.39825   MPKI: 1.84948
L1D RFO       ACCESS:   14296800  HIT:   14293681  MISS:       3119  HIT %:    99.9782  MISS %:  0.0218161   MPKI: 0.0153099
L1D PREFETCH  ACCESS:   50817783  HIT:   48493300  MISS:    2324483  HIT %:    95.4258  MISS %:    4.57415   MPKI: 11.41
L1D WRITEBACK ACCESS:          0  HIT:          0  MISS:          0  HIT %:       -nan  MISS %:       -nan   MPKI: 0
L1I TOTAL     ACCESS:   36378081  HIT:   36378081  MISS:          0  HIT %:        100  MISS %:          0   MPKI: 0
L1I LOAD      ACCESS:   36378081  HIT:   36378081  MISS:          0  HIT %:        100  MISS %:          0   MPKI: 0
L1I RFO       ACCESS:          0  HIT:          0  MISS:          0  HIT %:       -nan  MISS %:       -nan   MPKI: 0
L1I PREFETCH  ACCESS:          0  HIT:          0  MISS:          0  HIT %:       -nan  MISS %:       -nan   MPKI: 0
L1I WRITEBACK ACCESS:          0  HIT:          0  MISS:          0  HIT %:       -nan  MISS %:       -nan   MPKI: 0
L2C TOTAL     ACCESS:   18913524  HIT:   16493255  MISS:    2420269  HIT %:    87.2035  MISS %:    12.7965   MPKI: 11.8801
L2C LOAD      ACCESS:     113385  HIT:      48307  MISS:      65078  HIT %:    42.6044  MISS %:    57.3956   MPKI: 0.319442
L2C RFO       ACCESS:       3119  HIT:       1917  MISS:       1202  HIT %:     61.462  MISS %:     38.538   MPKI: 0.00590014
L2C PREFETCH  ACCESS:   16052967  HIT:   13831859  MISS:    2221108  HIT %:    86.1639  MISS %:    13.8361   MPKI: 10.9025
L2C WRITEBACK ACCESS:    1789682  HIT:    1661856  MISS:     127826  HIT %:    92.8576  MISS %:    7.14239   MPKI: 0.627448
PSCL5 TOTAL     ACCESS:     816135  HIT:     816135  MISS:          0  HIT %:        100  MISS %:          0   MPKI: 0
PSCL5 LOAD      ACCESS:          0  HIT:          0  MISS:          0  HIT %:       -nan  MISS %:       -nan   MPKI: 0
PSCL5 RFO       ACCESS:          0  HIT:          0  MISS:          0  HIT %:       -nan  MISS %:       -nan   MPKI: 0
PSCL5 PREFETCH  ACCESS:          0  HIT:          0  MISS:          0  HIT %:       -nan  MISS %:       -nan   MPKI: 0
PSCL5 WRITEBACK ACCESS:          0  HIT:          0  MISS:          0  HIT %:       -nan  MISS %:       -nan   MPKI: 0
PSCL4 TOTAL     ACCESS:     816135  HIT:     816135  MISS:          0  HIT %:        100  MISS %:          0   MPKI: 0
PSCL4 LOAD      ACCESS:          0  HIT:          0  MISS:          0  HIT %:       -nan  MISS %:       -nan   MPKI: 0
PSCL4 RFO       ACCESS:          0  HIT:          0  MISS:          0  HIT %:       -nan  MISS %:       -nan   MPKI: 0
PSCL4 PREFETCH  ACCESS:          0  HIT:          0  MISS:          0  HIT %:       -nan  MISS %:       -nan   MPKI: 0
PSCL4 WRITEBACK ACCESS:          0  HIT:          0  MISS:          0  HIT %:       -nan  MISS %:       -nan   MPKI: 0
PSCL3 TOTAL     ACCESS:     805899  HIT:     805897  MISS:          2  HIT %:    99.9998  MISS %: 0.00024817   MPKI: 9.81721e-06
PSCL3 LOAD      ACCESS:          0  HIT:          0  MISS:          0  HIT %:       -nan  MISS %:       -nan   MPKI: 0
PSCL3 RFO       ACCESS:          0  HIT:          0  MISS:          0  HIT %:       -nan  MISS %:       -nan   MPKI: 0
PSCL3 PREFETCH  ACCESS:          0  HIT:          0  MISS:          0  HIT %:       -nan  MISS %:       -nan   MPKI: 0
PSCL3 WRITEBACK ACCESS:          0  HIT:          0  MISS:          0  HIT %:       -nan  MISS %:       -nan   MPKI: 0
PSCL2 TOTAL     ACCESS:     687122  HIT:     687029  MISS:         93  HIT %:    99.9865  MISS %:  0.0135347   MPKI: 0.0004565
PSCL2 LOAD      ACCESS:          0  HIT:          0  MISS:          0  HIT %:       -nan  MISS %:       -nan   MPKI: 0
PSCL2 RFO       ACCESS:          0  HIT:          0  MISS:          0  HIT %:       -nan  MISS %:       -nan   MPKI: 0
PSCL2 PREFETCH  ACCESS:          0  HIT:          0  MISS:          0  HIT %:       -nan  MISS %:       -nan   MPKI: 0
PSCL2 WRITEBACK ACCESS:          0  HIT:          0  MISS:          0  HIT %:       -nan  MISS %:       -nan   MPKI: 0
LLC TOTAL     ACCESS:    4079695  HIT:    2246277  MISS:    1833418  HIT %:    55.0599  MISS %:    44.9401   MPKI: 8.99953
LLC LOAD      ACCESS:      48998  HIT:       5185  MISS:      43813  HIT %:    10.5821  MISS %:    89.4179   MPKI: 0.215061
LLC RFO       ACCESS:       1175  HIT:       1173  MISS:          2  HIT %:    99.8298  MISS %:   0.170213   MPKI: 9.81721e-06
LLC PREFETCH  ACCESS:    2237215  HIT:     493430  MISS:    1743785  HIT %:    22.0555  MISS %:    77.9445   MPKI: 8.55955
LLC WRITEBACK ACCESS:    1787252  HIT:    1745057  MISS:      42195  HIT %:    97.6391  MISS %:    2.36089   MPKI: 0.207119

RAW hits: 3522
Loads Generated: 71475615
Loads sent to L1D: 71472093
Stores Generated: 14302518
Stores sent to L1D: 14302526

CPU 1 cumulative IPC: 0.817603 instructions: 204285961 cycles: 249859735
ITLB TOTAL     ACCESS:   29300470  HIT:   29300470  MISS:          0  HIT %:        100  MISS %:          0   MPKI: 0
ITLB LOAD      ACCESS:          0  HIT:          0  MISS:          0  HIT %:       -nan  MISS %:       -nan   MPKI: 0
ITLB RFO       ACCESS:          0  HIT:          0  MISS:          0  HIT %:       -nan  MISS %:       -nan   MPKI: 0
ITLB PREFETCH  ACCESS:          0  HIT:          0  MISS:          0  HIT %:       -nan  MISS %:       -nan   MPKI: 0
ITLB WRITEBACK ACCESS:          0  HIT:          0  MISS:          0  HIT %:       -nan  MISS %:       -nan   MPKI: 0
DTLB TOTAL     ACCESS:   26621913  HIT:   26573909  MISS:      48004  HIT %:    99.8197  MISS %:   0.180318   MPKI: 0.234984
DTLB LOAD      ACCESS:          0  HIT:          0  MISS:          0  HIT %:       -nan  MISS %:       -nan   MPKI: 0
DTLB RFO       ACCESS:          0  HIT:          0  MISS:          0  HIT %:       -nan  MISS %:       -nan   MPKI: 0
DTLB PREFETCH  ACCESS:          0  HIT:          0  MISS:          0  HIT %:       -nan  MISS %:       -nan   MPKI: 0
DTLB WRITEBACK ACCESS:          0  HIT:          0  MISS:          0  HIT %:       -nan  MISS %:       -nan   MPKI: 0
STLB TOTAL     ACCESS:   13268892  HIT:   13240860  MISS:      28032  HIT %:    99.7887  MISS %:   0.211261   MPKI: 0.137219
STLB LOAD      ACCESS:          0  HIT:          0  MISS:          0  HIT %:       -nan  MISS %:       -nan   MPKI: 0
STLB RFO       ACCESS:          0  HIT:          0  MISS:          0  HIT %:       -nan  MISS %:       -nan   MPKI: 0
STLB PREFETCH  ACCESS:          0  HIT:          0  MISS:          0  HIT %:       -nan  MISS %:       -nan   MPKI: 0
STLB WRITEBACK ACCESS:          0  HIT:          0  MISS:          0  HIT %:       -nan  MISS %:       -nan   MPKI: 0
L1D TOTAL     ACCESS:   90411120  HIT:   87699406  MISS:    2711714  HIT %:    97.0007  MISS %:    2.99931   MPKI: 13.2741
L1D LOAD      ACCESS:   27033249  HIT:   26658340  MISS:     374909  HIT %:    98.6132  MISS %:    1.38684   MPKI: 1.83522
L1D RFO       ACCESS:   14336399  HIT:   14333274  MISS:       3125  HIT %:    99.9782  MISS %:  0.0217977   MPKI: 0.0152972
L1D PREFETCH  ACCESS:   49041472  HIT:   46707792  MISS:    2333680  HIT %:    95.2414  MISS %:    4.75858   MPKI: 11.4236
L1D WRITEBACK ACCESS:          0  HIT:          0  MISS:          0  HIT %:       -nan  MISS %:       -nan   MPKI: 0
L1I TOTAL     ACCESS:   36473949  HIT:   36473949  MISS:          0  HIT %:        100  MISS %:          0   MPKI: 0
L1I LOAD      ACCESS:   36473949  HIT:   36473949  MISS:          0  HIT %:        100  MISS %:          0   MPKI: 0
L1I RFO       ACCESS:          0  HIT:          0  MISS:          0  HIT %:       -nan  MISS %:       -nan   MPKI: 0
L1I PREFETCH  ACCESS:          0  HIT:          0  MISS:          0  HIT %:       -nan  MISS %:       -nan   MPKI: 0
L1I WRITEBACK ACCESS:          0  HIT:          0  MISS:          0  HIT %:       -nan  MISS %:       -nan   MPKI: 0
L2C TOTAL     ACCESS:   20969429  HIT:   18556345  MISS:    2413084  HIT %:    88.4924  MISS %:    11.5076   MPKI: 11.8123
L2C LOAD      ACCESS:     111830  HIT:      47295  MISS:      64535  HIT %:    42.2919  MISS %:    57.7081   MPKI: 0.315905
L2C RFO       ACCESS:       3125  HIT:       2288  MISS:        837  HIT %:     73.216  MISS %:     26.784   MPKI: 0.0040972
L2C PREFETCH  ACCESS:   18199228  HIT:   15981572  MISS:    2217656  HIT %:    87.8146  MISS %:    12.1854   MPKI: 10.8556
L2C WRITEBACK ACCESS:    1794620  HIT:    1669792  MISS:     124828  HIT %:    93.0443  MISS %:    6.95568   MPKI: 0.611045
PSCL5 TOTAL     ACCESS:     778961  HIT:     778961  MISS:          0  HIT %:        100  MISS %:          0   MPKI: 0
PSCL5 LOAD      ACCESS:          0  HIT:          0  MISS:          0  HIT %:       -nan  MISS %:       -nan   MPKI: 0
PSCL5 RFO       ACCESS:          0  HIT:          0  MISS:          0  HIT %:       -nan  MISS %:       -nan   MPKI: 0
PSCL5 PREFETCH  ACCESS:          0  HIT:          0  MISS:          0  HIT %:       -nan  MISS %:       -nan   MPKI: 0
PSCL5 WRITEBACK ACCESS:          0  HIT:          0  MISS:          0  HIT %:       -nan  MISS %:       -nan   MPKI: 0
PSCL4 TOTAL     ACCESS:     778961  HIT:     778961  MISS:          0  HIT %:        100  MISS %:          0   MPKI: 0
PSCL4 LOAD      ACCESS:          0  HIT:          0  MISS:          0  HIT %:       -nan  MISS %:       -nan   MPKI: 0
PSCL4 RFO       ACCESS:          0  HIT:          0  MISS:          0  HIT %:       -nan  MISS %:       -nan   MPKI: 0
PSCL4 PREFETCH  ACCESS:          0  HIT:          0  MISS:          0  HIT %:       -nan  MISS %:       -nan   MPKI: 0
PSCL4 WRITEBACK ACCESS:          0  HIT:          0  MISS:          0  HIT %:       -nan  MISS %:       -nan   MPKI: 0
PSCL3 TOTAL     ACCESS:     777089  HIT:     777087  MISS:          2  HIT %:    99.9997  MISS %: 0.000257371   MPKI: 9.7902e-06
PSCL3 LOAD      ACCESS:          0  HIT:          0  MISS:          0  HIT %:       -nan  MISS %:       -nan   MPKI: 0
PSCL3 RFO       ACCESS:          0  HIT:          0  MISS:          0  HIT %:       -nan  MISS %:       -nan   MPKI: 0
PSCL3 PREFETCH  ACCESS:          0  HIT:          0  MISS:          0  HIT %:       -nan  MISS %:       -nan   MPKI: 0
PSCL3 WRITEBACK ACCESS:          0  HIT:          0  MISS:          0  HIT %:       -nan  MISS %:       -nan   MPKI: 0
PSCL2 TOTAL     ACCESS:     698051  HIT:     697958  MISS:         93  HIT %:    99.9867  MISS %:  0.0133228   MPKI: 0.000455244
PSCL2 LOAD      ACCESS:          0  HIT:          0  MISS:          0  HIT %:       -nan  MISS %:       -nan   MPKI: 0
PSCL2 RFO       ACCESS:          0  HIT:          0  MISS:          0  HIT %:       -nan  MISS %:       -nan   MPKI: 0
PSCL2 PREFETCH  ACCESS:          0  HIT:          0  MISS:          0  HIT %:       -nan  MISS %:       -nan   MPKI: 0
PSCL2 WRITEBACK ACCESS:          0  HIT:          0  MISS:          0  HIT %:       -nan  MISS %:       -nan   MPKI: 0
LLC TOTAL     ACCESS:    4080321  HIT:    2242183  MISS:    1838138  HIT %:    54.9511  MISS %:    45.0489   MPKI: 8.99787
LLC LOAD      ACCESS:      48360  HIT:       5158  MISS:      43202  HIT %:    10.6658  MISS %:    89.3342   MPKI: 0.211478
LLC RFO       ACCESS:        814  HIT:        814  MISS:          0  HIT %:        100  MISS %:          0   MPKI: 0
LLC PREFETCH  ACCESS:    2233854  HIT:     484601  MISS:    1749253  HIT %:    21.6935  MISS %:    78.3065   MPKI: 8.56277
LLC WRITEBACK ACCESS:    1792065  HIT:    1750009  MISS:      42056  HIT %:    97.6532  MISS %:    2.34679   MPKI: 0.205868

RAW hits: 3532
Loads Generated: 71672824
Loads sent to L1D: 71669303
Stores Generated: 14341990
Stores sent to L1D: 14341988

CPU 2 cumulative IPC: 0.800449 instructions: 200000001 cycles: 249859735
ITLB TOTAL     ACCESS:   28714256  HIT:   28714256  MISS:          0  HIT %:        100  MISS %:          0   MPKI: 0
ITLB LOAD      ACCESS:          0  HIT:          0  MISS:          0  HIT %:       -nan  MISS %:       -nan   MPKI: 0
ITLB RFO       ACCESS:          0  HIT:          0  MISS:          0  HIT %:       -nan  MISS %:       -nan   MPKI: 0
ITLB PREFETCH  ACCESS:          0  HIT:          0  MISS:          0  HIT %:       -nan  MISS %:       -nan   MPKI: 0
ITLB WRITEBACK ACCESS:          0  HIT:          0  MISS:          0  HIT %:       -nan  MISS %:       -nan   MPKI: 0
DTLB TOTAL     ACCESS:   26034536  HIT:   25987553  MISS:      46983  HIT %:    99.8195  MISS %:   0.180464   MPKI: 0.234915
DTLB LOAD      ACCESS:          0  HIT:          0  MISS:          0  HIT %:       -nan  MISS %:       -nan   MPKI: 0
DTLB RFO       ACCESS:          0  HIT:          0  MISS:          0  HIT %:       -nan  MISS %:       -nan   MPKI: 0
DTLB PREFETCH  ACCESS:          0  HIT:          0  MISS:          0  HIT %:       -nan  MISS %:       -nan   MPKI: 0
DTLB WRITEBACK ACCESS:          0  HIT:          0  MISS:          0  HIT %:       -nan  MISS %:       -nan   MPKI: 0
STLB TOTAL     ACCESS:   11415678  HIT:   11388233  MISS:      27445  HIT %:    99.7596  MISS %:   0.240415   MPKI: 0.137225
STLB LOAD      ACCESS:          0  HIT:          0  MISS:          0  HIT %:       -nan  MISS %:       -nan   MPKI: 0
STLB RFO       ACCESS:          0  HIT:          0  MISS:          0  HIT %:       -nan  MISS %:       -nan   MPKI: 0
STLB PREFETCH  ACCESS:          0  HIT:          0  MISS:          0  HIT %:       -nan  MISS %:       -nan   MPKI: 0
STLB WRITEBACK ACCESS:          0  HIT:          0  MISS:          0  HIT %:       -nan  MISS %:       -nan   MPKI: 0
L1D TOTAL     ACCESS:   75769602  HIT:   73114136  MISS:    2655466  HIT %:    96.4953  MISS %:    3.50466   MPKI: 13.2773
L1D LOAD      ACCESS:   26402422  HIT:   26016900  MISS:     385522  HIT %:    98.5398  MISS %:    1.46018   MPKI: 1.92761
L1D RFO       ACCESS:   14035526  HIT:   14032466  MISS:       3060  HIT %:    99.9782  MISS %:  0.0218018   MPKI: 0.0153
L1D PREFETCH  ACCESS:   35331654  HIT:   33064770  MISS:    2266884  HIT %:     93.584  MISS %:    6.41601   MPKI: 11.3344
L1D WRITEBACK ACCESS:          0  HIT:          0  MISS:          0  HIT %:       -nan  MISS %:       -nan   MPKI: 0
L1I TOTAL     ACCESS:   35737340  HIT:   35737340  MISS:          0  HIT %:        100  MISS %:          0   MPKI: 0
L1I LOAD      ACCESS:   35737340  HIT:   35737340  MISS:          0  HIT %:        100  MISS %:          0   MPKI: 0
L1I RFO       ACCESS:          0  HIT:          0  MISS:          0  HIT %:       -nan  MISS %:       -nan   MPKI: 0
L1I PREFETCH  ACCESS:          0  HIT:          0  MISS:          0  HIT %:       -nan  MISS %:       -nan   MPKI: 0
L1I WRITEBACK ACCESS:          0  HIT:          0  MISS:          0  HIT %:       -nan  MISS %:       -nan   MPKI: 0
L2C TOTAL     ACCESS:   26134874  HIT:   23751707  MISS:    2383167  HIT %:    90.8813  MISS %:    9.11872   MPKI: 11.9158
L2C LOAD      ACCESS:     118431  HIT:      51010  MISS:      67421  HIT %:    43.0715  MISS %:    56.9285   MPKI: 0.337105
L2C RFO       ACCESS:       3060  HIT:       2119  MISS:        941  HIT %:    69.2484  MISS %:    30.7516   MPKI: 0.004705
L2C PREFETCH  ACCESS:   22562198  HIT:   20383407  MISS:    2178791  HIT %:    90.3432  MISS %:    9.65682   MPKI: 10.894
L2C WRITEBACK ACCESS:    1756970  HIT:    1626257  MISS:     130713  HIT %:    92.5603  MISS %:    7.43968   MPKI: 0.653565
PSCL5 TOTAL     ACCESS:    1166036  HIT:    1166036  MISS:          0  HIT %:        100  MISS %:          0   MPKI: 0
PSCL5 LOAD      ACCESS:          0  HIT:          0  MISS:          0  HIT %:       -nan  MISS %:       -nan   MPKI: 0
PSCL5 RFO       ACCESS:          0  HIT:          0  MISS:          0  HIT %:       -nan  MISS %:       -nan   MPKI: 0
PSCL5 PREFETCH  ACCESS:          0  HIT:          0  MISS:          0  HIT %:       -nan  MISS %:       -nan   MPKI: 0
PSCL5 WRITEBACK ACCESS:          0  HIT:          0  MISS:          0  HIT %:       -nan  MISS %:       -nan   MPKI: 0
PSCL4 TOTAL     ACCESS:    1166036  HIT:    1166036  MISS:          0  HIT %:        100  MISS %:          0   MPKI: 0
PSCL4 LOAD      ACCESS:          0  HIT:          0  MISS:          0  HIT %:       -nan  MISS %:       -nan   MPKI: 0
PSCL4 RFO       ACCESS:          0  HIT:          0  MISS:          0  HIT %:       -nan  MISS %:       -nan   MPKI: 0
PSCL4 PREFETCH  ACCESS:          0  HIT:          0  MISS:          0  HIT %:       -nan  MISS %:       -nan   MPKI: 0
PSCL4 WRITEBACK ACCESS:          0  HIT:          0  MISS:          0  HIT %:       -nan  MISS %:       -nan   MPKI: 0
PSCL3 TOTAL     ACCESS:    1164096  HIT:    1164094  MISS:          2  HIT %:    99.9998  MISS %: 0.000171807   MPKI: 1e-05
PSCL3 LOAD      ACCESS:          0  HIT:          0  MISS:          0  HIT %:       -nan  MISS %:       -nan   MPKI: 0
PSCL3 RFO       ACCESS:          0  HIT:          0  MISS:          0  HIT %:       -nan  MISS %:       -nan   MPKI: 0
PSCL3 PREFETCH  ACCESS:          0  HIT:          0  MISS:          0  HIT %:       -nan  MISS %:       -nan   MPKI: 0
PSCL3 WRITEBACK ACCESS:          0  HIT:          0  MISS:          0  HIT %:       -nan  MISS %:       -nan   MPKI: 0
PSCL2 TOTAL     ACCESS:     638872  HIT:     638780  MISS:         92  HIT %:    99.9856  MISS %:  0.0144004   MPKI: 0.00046
PSCL2 LOAD      ACCESS:          0  HIT:          0  MISS:          0  HIT %:       -nan  MISS %:       -nan   MPKI: 0
PSCL2 RFO       ACCESS:          0  HIT:          0  MISS:          0  HIT %:       -nan  MISS %:       -nan   MPKI: 0
PSCL2 PREFETCH  ACCESS:          0  HIT:          0  MISS:          0  HIT %:       -nan  MISS %:       -nan   MPKI: 0
PSCL2 WRITEBACK ACCESS:          0  HIT:          0  MISS:          0  HIT %:       -nan  MISS %:       -nan   MPKI: 0
LLC TOTAL     ACCESS:    4006854  HIT:    2202211  MISS:    1804643  HIT %:    54.9611  MISS %:    45.0389   MPKI: 9.02321
LLC LOAD      ACCESS:      51330  HIT:       5179  MISS:      46151  HIT %:    10.0896  MISS %:    89.9104   MPKI: 0.230755
LLC RFO       ACCESS:        919  HIT:        918  MISS:          1  HIT %:    99.8912  MISS %:   0.108814   MPKI: 5e-06
LLC PREFETCH  ACCESS:    2194903  HIT:     486167  MISS:    1708736  HIT %:    22.1498  MISS %:    77.8502   MPKI: 8.54368
LLC WRITEBACK ACCESS:    1754401  HIT:    1708213  MISS:      46188  HIT %:    97.3673  MISS %:    2.63269   MPKI: 0.23094

RAW hits: 3460
Loads Generated: 70169149
Loads sent to L1D: 70165687
Stores Generated: 14041096
Stores sent to L1D: 14041098

CPU 3 cumulative IPC: 0.808651 instructions: 202049428 cycles: 249859735
ITLB TOTAL     ACCESS:   28994152  HIT:   28994152  MISS:          0  HIT %:        100  MISS %:          0   MPKI: 0
ITLB LOAD      ACCESS:          0  HIT:          0  MISS:          0  HIT %:       -nan  MISS %:       -nan   MPKI: 0
ITLB RFO       ACCESS:          0  HIT:          0  MISS:          0  HIT %:       -nan  MISS %:       -nan   MPKI: 0
ITLB PREFETCH  ACCESS:          0  HIT:          0  MISS:          0  HIT %:       -nan  MISS %:       -nan   MPKI: 0
ITLB WRITEBACK ACCESS:          0  HIT:          0  MISS:          0  HIT %:       -nan  MISS %:       -nan   MPKI: 0
DTLB TOTAL     ACCESS:   26314595  HIT:   26267127  MISS:      47468  HIT %:    99.8196  MISS %:   0.180387   MPKI: 0.234933
DTLB LOAD      ACCESS:          0  HIT:          0  MISS:          0  HIT %:       -nan  MISS %:       -nan   MPKI: 0
DTLB RFO       ACCESS:          0  HIT:          0  MISS:          0  HIT %:       -nan  MISS %:       -nan   MPKI: 0
DTLB PREFETCH  ACCESS:          0  HIT:          0  MISS:          0  HIT %:       -nan  MISS %:       -nan   MPKI: 0
DTLB WRITEBACK ACCESS:          0  HIT:          0  MISS:          0  HIT %:       -nan  MISS %:       -nan   MPKI: 0
STLB TOTAL     ACCESS:   12295043  HIT:   12267318  MISS:      27725  HIT %:    99.7745  MISS %:   0.225497   MPKI: 0.137219
STLB LOAD      ACCESS:          0  HIT:          0  MISS:          0  HIT %:       -nan  MISS %:       -nan   MPKI: 0
STLB RFO       ACCESS:          0  HIT:          0  MISS:          0  HIT %:       -nan  MISS %:       -nan   MPKI: 0
STLB PREFETCH  ACCESS:          0  HIT:          0  MISS:          0  HIT %:       -nan  MISS %:       -nan   MPKI: 0
STLB WRITEBACK ACCESS:          0  HIT:          0  MISS:          0  HIT %:       -nan  MISS %:       -nan   MPKI: 0
L1D TOTAL     ACCESS:   84392083  HIT:   81709791  MISS:    2682292  HIT %:    96.8216  MISS %:    3.17837   MPKI: 13.2754
L1D LOAD      ACCESS:   26705093  HIT:   26324873  MISS:     380220  HIT %:    98.5762  MISS %:    1.42377   MPKI: 1.88182
L1D RFO       ACCESS:   14178946  HIT:   14175860  MISS:       3086  HIT %:    99.9782  MISS %:  0.0217647   MPKI: 0.0152735
L1D PREFETCH  ACCESS:   43508044  HIT:   41209058  MISS:    2298986  HIT %:     94.716  MISS %:    5.28405   MPKI: 11.3783
L1D WRITEBACK ACCESS:          0  HIT:          0  MISS:          0  HIT %:       -nan  MISS %:       -nan   MPKI: 0
L1I TOTAL     ACCESS:   36089392  HIT:   36089392  MISS:          0  HIT %:        100  MISS %:          0   MPKI: 0
L1I LOAD      ACCESS:   36089392  HIT:   36089392  MISS:          0  HIT %:        100  MISS %:          0   MPKI: 0
L1I RFO       ACCESS:          0  HIT:          0  MISS:          0  HIT %:       -nan  MISS %:       -nan   MPKI: 0
L1I PREFETCH  ACCESS:          0  HIT:          0  MISS:          0  HIT %:       -nan  MISS %:       -nan   MPKI: 0
L1I WRITEBACK ACCESS:          0  HIT:          0  MISS:          0  HIT %:       -nan  MISS %:       -nan   MPKI: 0
L2C TOTAL     ACCESS:   23688679  HIT:   21263882  MISS:    2424797  HIT %:    89.7639  MISS %:    10.2361   MPKI: 12.001
L2C LOAD      ACCESS:     115500  HIT:      49238  MISS:      66262  HIT %:    42.6303  MISS %:    57.3697   MPKI: 0.327949
L2C RFO       ACCESS:       3085  HIT:       1765  MISS:       1320  HIT %:    57.2123  MISS %:    42.7877   MPKI: 0.00653305
L2C PREFETCH  ACCESS:   20555810  HIT:   18334316  MISS:    2221494  HIT %:    89.1929  MISS %:    10.8071   MPKI: 10.9948
L2C WRITEBACK ACCESS:    1774968  HIT:    1644524  MISS:     130444  HIT %:    92.6509  MISS %:    7.34909   MPKI: 0.645604
PSCL5 TOTAL     ACCESS:     978203  HIT:     978203  MISS:          0  HIT %:        100  MISS %:          0   MPKI: 0
PSCL5 LOAD      ACCESS:          0  HIT:          0  MISS:          0  HIT %:       -nan  MISS %:       -nan   MPKI: 0
PSCL5 RFO       ACCESS:          0  HIT:          0  MISS:          0  HIT %:       -nan  MISS %:       -nan   MPKI: 0
PSCL5 PREFETCH  ACCESS:          0  HIT:          0  MISS:          0  HIT %:       -nan  MISS %:       -nan   MPKI: 0
PSCL5 WRITEBACK ACCESS:          0  HIT:          0  MISS:          0  HIT %:       -nan  MISS %:       -nan   MPKI: 0
PSCL4 TOTAL     ACCESS:     978203  HIT:     978203  MISS:          0  HIT %:        100  MISS %:          0   MPKI: 0
PSCL4 LOAD      ACCESS:          0  HIT:          0  MISS:          0  HIT %:       -nan  MISS %:       -nan   MPKI: 0
PSCL4 RFO       ACCESS:          0  HIT:          0  MISS:          0  HIT %:       -nan  MISS %:       -nan   MPKI: 0
PSCL4 PREFETCH  ACCESS:          0  HIT:          0  MISS:          0  HIT %:       -nan  MISS %:       -nan   MPKI: 0
PSCL4 WRITEBACK ACCESS:          0  HIT:          0  MISS:          0  HIT %:       -nan  MISS %:       -nan   MPKI: 0
PSCL3 TOTAL     ACCESS:     976229  HIT:     976227  MISS:          2  HIT %:    99.9998  MISS %: 0.00020487   MPKI: 9.89857e-06
PSCL3 LOAD      ACCESS:          0  HIT:          0  MISS:          0  HIT %:       -nan  MISS %:       -nan   MPKI: 0
PSCL3 RFO       ACCESS:          0  HIT:          0  MISS:          0  HIT %:       -nan  MISS %:       -nan   MPKI: 0
PSCL3 PREFETCH  ACCESS:          0  HIT:          0  MISS:          0  HIT %:       -nan  MISS %:       -nan   MPKI: 0
PSCL3 WRITEBACK ACCESS:          0  HIT:          0  MISS:          0  HIT %:       -nan  MISS %:       -nan   MPKI: 0
PSCL2 TOTAL     ACCESS:     718100  HIT:     718007  MISS:         93  HIT %:     99.987  MISS %:  0.0129508   MPKI: 0.000460283
PSCL2 LOAD      ACCESS:          0  HIT:          0  MISS:          0  HIT %:       -nan  MISS %:       -nan   MPKI: 0
PSCL2 RFO       ACCESS:          0  HIT:          0  MISS:          0  HIT %:       -nan  MISS %:       -nan   MPKI: 0
PSCL2 PREFETCH  ACCESS:          0  HIT:          0  MISS:          0  HIT %:       -nan  MISS %:       -nan   MPKI: 0
PSCL2 WRITEBACK ACCESS:          0  HIT:          0  MISS:          0  HIT %:       -nan  MISS %:       -nan   MPKI: 0
LLC TOTAL     ACCESS:    4066943  HIT:    2243765  MISS:    1823178  HIT %:    55.1708  MISS %:    44.8292   MPKI: 9.02343
LLC LOAD      ACCESS:      50384  HIT:       5198  MISS:      45186  HIT %:    10.3168  MISS %:    89.6832   MPKI: 0.223638
LLC RFO       ACCESS:       1287  HIT:       1285  MISS:          2  HIT %:    99.8446  MISS %:     0.1554   MPKI: 9.89857e-06
LLC PREFETCH  ACCESS:    2237405  HIT:     509665  MISS:    1727740  HIT %:    22.7793  MISS %:    77.2207   MPKI: 8.55108
LLC WRITEBACK ACCESS:    1772590  HIT:    1725928  MISS:      46662  HIT %:    97.3676  MISS %:    2.63242   MPKI: 0.230943

RAW hits: 3491
Loads Generated: 70888164
Loads sent to L1D: 70884673
Stores Generated: 14184968
Stores sent to L1D: 14184970

Region of Interest Statistics

CPU 0 cumulative IPC: 0.815699 instructions: 200000001 cycles: 245188418
ITLB TOTAL     ACCESS:   28689297  HIT:   28689297  MISS:          0  HIT %:        100  MISS %:          0   MPKI: 0
ITLB LOAD TRANSLATION ACCESS:   28689297  HIT:   28689297  MISS:          0  HIT %:        100  MISS %:          0   MPKI: 0
ITLB PREFETCH  REQUESTED:          0  ISSUED:          0  USEFUL:          0  USELESS:          0
ITLB USEFUL LOAD PREFETCHES:          0 PREFETCH ISSUED TO LOWER LEVEL:          0  ACCURACY: -nan
ITLB TIMELY PREFETCHES:          0 LATE PREFETCHES: 0 DROPPED PREFETCHES: 0
ITLB PREFETCHES SAME FILL-ORIGIN LEVEL: 0 DIFFERENT FILL-ORIGIN LEVEL: 0
ITLB AVERAGE MISS LATENCY: -nan cycles
ITLB RQ	ACCESS:   36378080	FORWARD:          0	MERGED:    7153853	TO_CACHE:   29224227

DTLB TOTAL     ACCESS:   26058423  HIT:   26011443  MISS:      46980  HIT %:    99.8197  MISS %:   0.180287   MPKI: 0.2349
DTLB LOAD TRANSLATION ACCESS:   26058423  HIT:   26011443  MISS:      46980  HIT %:    99.8197  MISS %:   0.180287   MPKI: 0.2349
DTLB PREFETCH  REQUESTED:          0  ISSUED:          0  USEFUL:          0  USELESS:          0
DTLB USEFUL LOAD PREFETCHES:          0 PREFETCH ISSUED TO LOWER LEVEL:          0  ACCURACY: -nan
DTLB TIMELY PREFETCHES:          0 LATE PREFETCHES: 0 DROPPED PREFETCHES: 0
DTLB PREFETCHES SAME FILL-ORIGIN LEVEL: 0 DIFFERENT FILL-ORIGIN LEVEL: 0
DTLB AVERAGE MISS LATENCY: 79.9934 cycles
DTLB RQ	ACCESS:   41727178	FORWARD:          0	MERGED:   15182444	TO_CACHE:   26544734

STLB TOTAL     ACCESS:   12798295  HIT:   12770850  MISS:      27445  HIT %:    99.7856  MISS %:   0.214443   MPKI: 0.137225
STLB LOAD TRANSLATION ACCESS:      46980  HIT:      19535  MISS:      27445  HIT %:    41.5815  MISS %:    58.4185   MPKI: 0.137225
STLB TRANSLATION FROM L1D PREFETCHER ACCESS:   12751315  HIT:   12751315  MISS:          0  HIT %:        100  MISS %:          0   MPKI: 0
STLB PREFETCH  REQUESTED:          0  ISSUED:          0  USEFUL:          0  USELESS:          0
STLB USEFUL LOAD PREFETCHES:          0 PREFETCH ISSUED TO LOWER LEVEL:          0  ACCURACY: -nan
STLB TIMELY PREFETCHES:          0 LATE PREFETCHES: 6704 DROPPED PREFETCHES: 781476
STLB PREFETCHES SAME FILL-ORIGIN LEVEL: 0 DIFFERENT FILL-ORIGIN LEVEL: 0
STLB AVERAGE MISS LATENCY: 122.116 cycles
STLB RQ	ACCESS:   75781673	FORWARD:          0	MERGED:   61872511	TO_CACHE:   13909162

STLB Hit, L1D data hit: 0
STLB Hit, L2C data hit: 0
STLB Hit, LLC data hit: 0
STLB Hit, LLC data miss: 0
STLB STLB hints to L2: 0
L1D TOTAL     ACCESS:   90669183  HIT:   88014178  MISS:    2655005  HIT %:    97.0718  MISS %:    2.92823   MPKI: 13.275
L1D LOAD      ACCESS:   26456790  HIT:   26087384  MISS:     369406  HIT %:    98.6037  MISS %:    1.39626   MPKI: 1.84703
L1D RFO       ACCESS:   14035488  HIT:   14032425  MISS:       3063  HIT %:    99.9782  MISS %:  0.0218233   MPKI: 0.015315
L1D PREFETCH  ACCESS:   50176905  HIT:   47894369  MISS:    2282536  HIT %:     95.451  MISS %:    4.54898   MPKI: 11.4127
L1D PREFETCH  REQUESTED:  311789680  ISSUED:  212336523  USEFUL:    2313660  USELESS:      10849
L1D USEFUL LOAD PREFETCHES:    2313660 PREFETCH ISSUED TO LOWER LEVEL:   18047756  ACCURACY: 12.8197
L1D TIMELY PREFETCHES:    2313660 LATE PREFETCHES: 263399 DROPPED PREFETCHES: 2092860
L1D PREFETCHES SAME FILL-ORIGIN LEVEL: 2588099 DIFFERENT FILL-ORIGIN LEVEL: 15459657
L1D AVERAGE MISS LATENCY: 221.954 cycles
L1D RQ	ACCESS:   71472093	FORWARD:          0	MERGED:   44047147	TO_CACHE:   27424652
L1D WQ	ACCESS:   14302526	FORWARD:        294	MERGED:          0	TO_CACHE:   14302526
L1D PQ	ACCESS:  136602721	FORWARD:          0	MERGED:   60868919	TO_CACHE:   75733802

L1D UNIQUE REGIONS ACCESSED: 0
L1D REGIONS CONFLICTS: 0
L1D Cross Page Prefetch Requests: 7978025
L1D Same Page Prefetch Requests: 162924835
L1D ROI Sum of L1D PQ occupancy: 1216760665
L1D PREFETCHES PUSHED FROM L2C: 0
L1I TOTAL     ACCESS:   35712376  HIT:   35712376  MISS:          0  HIT %:        100  MISS %:          0   MPKI: 0
L1I LOAD      ACCESS:   35712376  HIT:   35712376  MISS:          0  HIT %:        100  MISS %:          0   MPKI: 0
L1I PREFETCH  REQUESTED:          0  ISSUED:          0  USEFUL:          0  USELESS:          0
L1I USEFUL LOAD PREFETCHES:          0 PREFETCH ISSUED TO LOWER LEVEL:          0  ACCURACY: -nan
L1I TIMELY PREFETCHES:          0 LATE PREFETCHES: 0 DROPPED PREFETCHES: 0
L1I PREFETCHES SAME FILL-ORIGIN LEVEL: 0 DIFFERENT FILL-ORIGIN LEVEL: 0
L1I AVERAGE MISS LATENCY: -nan cycles
L1I RQ	ACCESS:   46975480	FORWARD:          0	MERGED:   10597400	TO_CACHE:   36378080

BTB TOTAL     ACCESS:    3509179  HIT:    3509170  MISS:          9  HIT %:    99.9997  MISS %: 0.00025647   MPKI: 4.5e-05
BTB BRANCH_DIRECT_JUMP	ACCESS:        876  HIT:        874  MISS:          2
BTB BRANCH_INDIRECT	ACCESS:          0  HIT:          0  MISS:          0
BTB BRANCH_CONDITIONAL	ACCESS:    3506551  HIT:    3506548  MISS:          3
BTB BRANCH_DIRECT_CALL	ACCESS:        876  HIT:        874  MISS:          2
BTB BRANCH_INDIRECT_CALL	ACCESS:          0  HIT:          0  MISS:          0
BTB BRANCH_RETURN	ACCESS:        876  HIT:        874  MISS:          2
BTB BRANCH_OTHER ACCESS:          0  HIT:          0  MISS:          0

L2C TOTAL     ACCESS:   18488339  HIT:   16112880  MISS:    2375459  HIT %:    87.1516  MISS %:    12.8484   MPKI: 11.8773
L2C LOAD      ACCESS:     111085  HIT:      47325  MISS:      63760  HIT %:    42.6025  MISS %:    57.3975   MPKI: 0.3188
L2C DATA LOAD MPKI: 0.3188
L2C INSTRUCTION LOAD MPKI: 0
L2C RFO       ACCESS:       3063  HIT:       1891  MISS:       1172  HIT %:    61.7369  MISS %:    38.2631   MPKI: 0.00586
L2C PREFETCH  ACCESS:   15706666  HIT:   13526807  MISS:    2179859  HIT %:    86.1214  MISS %:    13.8786   MPKI: 10.8993
L2C DATA PREFETCH MPKI: 10.8993
L2C INSTRUCTION PREFETCH MPKI: 0
L2C WRITEBACK ACCESS:    1756973  HIT:    1631269  MISS:     125704  HIT %:    92.8454  MISS %:    7.15458   MPKI: 0.62852
L2C LOAD TRANSLATION ACCESS:      27449  HIT:      27394  MISS:         55  HIT %:    99.7996  MISS %:   0.200372   MPKI: 0.000275
L2C TRANSLATION FROM L1D PREFETCHER ACCESS:     883103  HIT:     878194  MISS:       4909  HIT %:    99.4441  MISS %:   0.555881   MPKI: 0.024545
L2C PREFETCH  REQUESTED:          0  ISSUED:          0  USEFUL:      47519  USELESS:    2178436
L2C USEFUL LOAD PREFETCHES:      47519 PREFETCH ISSUED TO LOWER LEVEL:    2237227  ACCURACY: 2.12401
L2C TIMELY PREFETCHES:      47519 LATE PREFETCHES: 16107 DROPPED PREFETCHES: 0
L2C PREFETCHES SAME FILL-ORIGIN LEVEL: 1466586 DIFFERENT FILL-ORIGIN LEVEL: 0
L2C AVERAGE MISS LATENCY: 654.343 cycles
L2C RQ	ACCESS:    1070877	FORWARD:          0	MERGED:          0	TO_CACHE:    1070877
L2C WQ	ACCESS:    1789682	FORWARD:          0	MERGED:          0	TO_CACHE:    1789682
L2C PQ	ACCESS:   18047536	FORWARD:          0	MERGED:     208685	TO_CACHE:   17838851

L2C Instructions Evicting Data 0
L2C Translations Evicting Data 5049
L2C Data Evicting Data 2282586
L2C Instructions Evicting Instructions 0
L2C Translations Evicting Instructions 0
L2C Data Evicting Instructions 0
L2C Instructions Evicting Translations 0
L2C Translations Evicting Translations 6
L2C Data Evicting Translations 4802
L2C Dense regions hint from L2: 0
PSCL5 TOTAL     ACCESS:     788537  HIT:     788537  MISS:          0  HIT %:        100  MISS %:          0   MPKI: 0
PSCL5 LOAD TRANSLATION ACCESS:      27445  HIT:      27445  MISS:          0  HIT %:        100  MISS %:          0   MPKI: 0
PSCL5 TRANSLATION FROM L1D PREFETCHER ACCESS:     761092  HIT:     761092  MISS:          0  HIT %:        100  MISS %:          0   MPKI: 0
PSCL5 PREFETCH  REQUESTED:          0  ISSUED:          0  USEFUL:          0  USELESS:          0
PSCL5 USEFUL LOAD PREFETCHES:          0 PREFETCH ISSUED TO LOWER LEVEL:          0  ACCURACY: -nan
PSCL5 TIMELY PREFETCHES:          0 LATE PREFETCHES: 0 DROPPED PREFETCHES: 0
PSCL5 PREFETCHES SAME FILL-ORIGIN LEVEL: 0 DIFFERENT FILL-ORIGIN LEVEL: 0

PSCL4 TOTAL     ACCESS:     788537  HIT:     788537  MISS:          0  HIT %:        100  MISS %:          0   MPKI: 0
PSCL4 LOAD TRANSLATION ACCESS:      27445  HIT:      27445  MISS:          0  HIT %:        100  MISS %:          0   MPKI: 0
PSCL4 TRANSLATION FROM L1D PREFETCHER ACCESS:     761092  HIT:     761092  MISS:          0  HIT %:        100  MISS %:          0   MPKI: 0
PSCL4 PREFETCH  REQUESTED:          0  ISSUED:          0  USEFUL:          0  USELESS:          0
PSCL4 USEFUL LOAD PREFETCHES:          0 PREFETCH ISSUED TO LOWER LEVEL:          0  ACCURACY: -nan
PSCL4 TIMELY PREFETCHES:          0 LATE PREFETCHES: 0 DROPPED PREFETCHES: 0
PSCL4 PREFETCHES SAME FILL-ORIGIN LEVEL: 0 DIFFERENT FILL-ORIGIN LEVEL: 0

PSCL3 TOTAL     ACCESS:     778353  HIT:     778351  MISS:          2  HIT %:    99.9997  MISS %: 0.000256953   MPKI: 1e-05
PSCL3 LOAD TRANSLATION ACCESS:      27445  HIT:      27443  MISS:          2  HIT %:    99.9927  MISS %:  0.0072873   MPKI: 1e-05
PSCL3 TRANSLATION FROM L1D PREFETCHER ACCESS:     750908  HIT:     750908  MISS:          0  HIT %:        100  MISS %:          0   MPKI: 0
PSCL3 PREFETCH  REQUESTED:          0  ISSUED:          0  USEFUL:          0  USELESS:          0
PSCL3 USEFUL LOAD PREFETCHES:          0 PREFETCH ISSUED TO LOWER LEVEL:          0  ACCURACY: -nan
PSCL3 TIMELY PREFETCHES:          0 LATE PREFETCHES: 0 DROPPED PREFETCHES: 0
PSCL3 PREFETCHES SAME FILL-ORIGIN LEVEL: 0 DIFFERENT FILL-ORIGIN LEVEL: 0

PSCL2 TOTAL     ACCESS:     675729  HIT:     675637  MISS:         92  HIT %:    99.9864  MISS %:  0.0136149   MPKI: 0.00046
PSCL2 LOAD TRANSLATION ACCESS:      27445  HIT:      27353  MISS:         92  HIT %:    99.6648  MISS %:   0.335216   MPKI: 0.00046
PSCL2 TRANSLATION FROM L1D PREFETCHER ACCESS:     648284  HIT:     648284  MISS:          0  HIT %:        100  MISS %:          0   MPKI: 0
PSCL2 PREFETCH  REQUESTED:          0  ISSUED:          0  USEFUL:          0  USELESS:          0
PSCL2 USEFUL LOAD PREFETCHES:          0 PREFETCH ISSUED TO LOWER LEVEL:          0  ACCURACY: -nan
PSCL2 TIMELY PREFETCHES:          0 LATE PREFETCHES: 0 DROPPED PREFETCHES: 0
PSCL2 PREFETCHES SAME FILL-ORIGIN LEVEL: 0 DIFFERENT FILL-ORIGIN LEVEL: 0

LLC TOTAL     ACCESS:    4004047  HIT:    2204251  MISS:    1799796  HIT %:    55.0506  MISS %:    44.9494   MPKI: 8.99898
LLC LOAD      ACCESS:      47987  HIT:       5097  MISS:      42890  HIT %:    10.6216  MISS %:    89.3784   MPKI: 0.21445
LLC RFO       ACCESS:       1145  HIT:       1143  MISS:          2  HIT %:    99.8253  MISS %:   0.174672   MPKI: 1e-05
LLC PREFETCH  ACCESS:    2195659  HIT:     483636  MISS:    1712023  HIT %:    22.0269  MISS %:    77.9731   MPKI: 8.56011
LLC WRITEBACK ACCESS:    1754292  HIT:    1712969  MISS:      41323  HIT %:    97.6445  MISS %:    2.35554   MPKI: 0.206615
LLC LOAD TRANSLATION ACCESS:         55  HIT:          6  MISS:         49  HIT %:    10.9091  MISS %:    89.0909   MPKI: 0.000245
LLC TRANSLATION FROM L1D PREFETCHER ACCESS:       4909  HIT:       1400  MISS:       3509  HIT %:     28.519  MISS %:     71.481   MPKI: 0.017545
LLC PREFETCH  REQUESTED:          0  ISSUED:          0  USEFUL:       5342  USELESS:    6936476
LLC USEFUL LOAD PREFETCHES:       5342 PREFETCH ISSUED TO LOWER LEVEL:    7146083  ACCURACY: 0.0747542
LLC TIMELY PREFETCHES:       5342 LATE PREFETCHES: 0 DROPPED PREFETCHES: 0
LLC PREFETCHES SAME FILL-ORIGIN LEVEL: 0 DIFFERENT FILL-ORIGIN LEVEL: 0
LLC AVERAGE MISS LATENCY: 3293.28 cycles
LLC RQ	ACCESS:     224130	FORWARD:          0	MERGED:          0	TO_CACHE:     224130
LLC WQ	ACCESS:    7106309	FORWARD:          1	MERGED:          0	TO_CACHE:    7106309
LLC PQ	ACCESS:    8903404	FORWARD:          0	MERGED:          0	TO_CACHE:    8903403

LLC Dense regions hint to LLC: 0

RAW hits: 3460
Loads Generated: 70169114
Loads sent to L1D: 70165654
Stores Generated: 14041092
Stores sent to L1D: 14041098
Major fault: 0 Minor fault: 35009
Allocated PAGES: 139372

CPU 1 cumulative IPC: 0.817352 instructions: 200000002 cycles: 244692599
ITLB TOTAL     ACCESS:   28686045  HIT:   28686045  MISS:          0  HIT %:        100  MISS %:          0   MPKI: 0
ITLB LOAD TRANSLATION ACCESS:   28686045  HIT:   28686045  MISS:          0  HIT %:        100  MISS %:          0   MPKI: 0
ITLB PREFETCH  REQUESTED:          0  ISSUED:          0  USEFUL:          0  USELESS:          0
ITLB USEFUL LOAD PREFETCHES:          0 PREFETCH ISSUED TO LOWER LEVEL:          0  ACCURACY: -nan
ITLB TIMELY PREFETCHES:          0 LATE PREFETCHES: 0 DROPPED PREFETCHES: 0
ITLB PREFETCHES SAME FILL-ORIGIN LEVEL: 0 DIFFERENT FILL-ORIGIN LEVEL: 0
ITLB AVERAGE MISS LATENCY: -nan cycles
ITLB RQ	ACCESS:   36473950	FORWARD:          0	MERGED:    7173480	TO_CACHE:   29300470

DTLB TOTAL     ACCESS:   26063632  HIT:   26016649  MISS:      46983  HIT %:    99.8197  MISS %:   0.180263   MPKI: 0.234915
DTLB LOAD TRANSLATION ACCESS:   26063632  HIT:   26016649  MISS:      46983  HIT %:    99.8197  MISS %:   0.180263   MPKI: 0.234915
DTLB PREFETCH  REQUESTED:          0  ISSUED:          0  USEFUL:          0  USELESS:          0
DTLB USEFUL LOAD PREFETCHES:          0 PREFETCH ISSUED TO LOWER LEVEL:          0  ACCURACY: -nan
DTLB TIMELY PREFETCHES:          0 LATE PREFETCHES: 0 DROPPED PREFETCHES: 0
DTLB PREFETCHES SAME FILL-ORIGIN LEVEL: 0 DIFFERENT FILL-ORIGIN LEVEL: 0
DTLB AVERAGE MISS LATENCY: 79.6794 cycles
DTLB RQ	ACCESS:   41852075	FORWARD:          0	MERGED:   15227596	TO_CACHE:   26624479

STLB TOTAL     ACCESS:   13007709  HIT:   12980264  MISS:      27445  HIT %:     99.789  MISS %:    0.21099   MPKI: 0.137225
STLB LOAD TRANSLATION ACCESS:      46983  HIT:      19538  MISS:      27445  HIT %:    41.5853  MISS %:    58.4147   MPKI: 0.137225
STLB TRANSLATION FROM L1D PREFETCHER ACCESS:   12960726  HIT:   12960726  MISS:          0  HIT %:        100  MISS %:          0   MPKI: 0
STLB PREFETCH  REQUESTED:          0  ISSUED:          0  USEFUL:          0  USELESS:          0
STLB USEFUL LOAD PREFETCHES:          0 PREFETCH ISSUED TO LOWER LEVEL:          0  ACCURACY: -nan
STLB TIMELY PREFETCHES:          0 LATE PREFETCHES: 6835 DROPPED PREFETCHES: 744094
STLB PREFETCHES SAME FILL-ORIGIN LEVEL: 0 DIFFERENT FILL-ORIGIN LEVEL: 0
STLB AVERAGE MISS LATENCY: 120.985 cycles
STLB RQ	ACCESS:   76277199	FORWARD:          0	MERGED:   62141627	TO_CACHE:   14135572

STLB Hit, L1D data hit: 0
STLB Hit, L2C data hit: 0
STLB Hit, LLC data hit: 0
STLB Hit, LLC data miss: 0
STLB STLB hints to L2: 0
L1D TOTAL     ACCESS:   88571802  HIT:   85916935  MISS:    2654867  HIT %:    97.0026  MISS %:    2.99742   MPKI: 13.2743
L1D LOAD      ACCESS:   26466375  HIT:   26099219  MISS:     367156  HIT %:    98.6127  MISS %:    1.38725   MPKI: 1.83578
L1D RFO       ACCESS:   14035621  HIT:   14032559  MISS:       3062  HIT %:    99.9782  MISS %:  0.0218159   MPKI: 0.01531
L1D PREFETCH  ACCESS:   48069806  HIT:   45785157  MISS:    2284649  HIT %:    95.2472  MISS %:    4.75277   MPKI: 11.4232
L1D PREFETCH  REQUESTED:  306360571  ISSUED:  214228640  USEFUL:    2323036  USELESS:      10668
L1D USEFUL LOAD PREFETCHES:    2323036 PREFETCH ISSUED TO LOWER LEVEL:   20286635  ACCURACY: 11.4511
L1D TIMELY PREFETCHES:    2323036 LATE PREFETCHES: 263079 DROPPED PREFETCHES: 1976924
L1D PREFETCHES SAME FILL-ORIGIN LEVEL: 2596769 DIFFERENT FILL-ORIGIN LEVEL: 17689866
L1D AVERAGE MISS LATENCY: 222.017 cycles
L1D RQ	ACCESS:   71669303	FORWARD:          0	MERGED:   44158937	TO_CACHE:   27510087
L1D WQ	ACCESS:   14341988	FORWARD:        279	MERGED:          0	TO_CACHE:   14341988
L1D PQ	ACCESS:  137999445	FORWARD:          0	MERGED:   61770250	TO_CACHE:   76229195

L1D UNIQUE REGIONS ACCESSED: 0
L1D REGIONS CONFLICTS: 0
L1D Cross Page Prefetch Requests: 7984767
L1D Same Page Prefetch Requests: 164602223
L1D ROI Sum of L1D PQ occupancy: 1205798329
L1D PREFETCHES PUSHED FROM L2C: 0
L1I TOTAL     ACCESS:   35709042  HIT:   35709042  MISS:          0  HIT %:        100  MISS %:          0   MPKI: 0
L1I LOAD      ACCESS:   35709042  HIT:   35709042  MISS:          0  HIT %:        100  MISS %:          0   MPKI: 0
L1I PREFETCH  REQUESTED:          0  ISSUED:          0  USEFUL:          0  USELESS:          0
L1I USEFUL LOAD PREFETCHES:          0 PREFETCH ISSUED TO LOWER LEVEL:          0  ACCURACY: -nan
L1I TIMELY PREFETCHES:          0 LATE PREFETCHES: 0 DROPPED PREFETCHES: 0
L1I PREFETCHES SAME FILL-ORIGIN LEVEL: 0 DIFFERENT FILL-ORIGIN LEVEL: 0
L1I AVERAGE MISS LATENCY: -nan cycles
L1I RQ	ACCESS:   47101408	FORWARD:          0	MERGED:   10627458	TO_CACHE:   36473950

BTB TOTAL     ACCESS:    3509178  HIT:    3509170  MISS:          8  HIT %:    99.9998  MISS %: 0.000227974   MPKI: 4e-05
BTB BRANCH_DIRECT_JUMP	ACCESS:        876  HIT:        874  MISS:          2
BTB BRANCH_INDIRECT	ACCESS:          0  HIT:          0  MISS:          0
BTB BRANCH_CONDITIONAL	ACCESS:    3506550  HIT:    3506548  MISS:          2
BTB BRANCH_DIRECT_CALL	ACCESS:        876  HIT:        874  MISS:          2
BTB BRANCH_INDIRECT_CALL	ACCESS:          0  HIT:          0  MISS:          0
BTB BRANCH_RETURN	ACCESS:        876  HIT:        874  MISS:          2
BTB BRANCH_OTHER ACCESS:          0  HIT:          0  MISS:          0

L2C TOTAL     ACCESS:   20505762  HIT:   18143816  MISS:    2361946  HIT %:    88.4815  MISS %:    11.5185   MPKI: 11.8097
L2C LOAD      ACCESS:     109570  HIT:      46395  MISS:      63175  HIT %:    42.3428  MISS %:    57.6572   MPKI: 0.315875
L2C DATA LOAD MPKI: 0.315875
L2C INSTRUCTION LOAD MPKI: 0
L2C RFO       ACCESS:       3062  HIT:       2238  MISS:        824  HIT %:    73.0895  MISS %:    26.9105   MPKI: 0.00412
L2C PREFETCH  ACCESS:   17795105  HIT:   15624323  MISS:    2170782  HIT %:    87.8012  MISS %:    12.1988   MPKI: 10.8539
L2C DATA PREFETCH MPKI: 10.8539
L2C INSTRUCTION PREFETCH MPKI: 0
L2C WRITEBACK ACCESS:    1756976  HIT:    1634934  MISS:     122042  HIT %:    93.0539  MISS %:    6.94614   MPKI: 0.61021
L2C LOAD TRANSLATION ACCESS:      27449  HIT:      27396  MISS:         53  HIT %:    99.8069  MISS %:   0.193085   MPKI: 0.000265
L2C TRANSLATION FROM L1D PREFETCHER ACCESS:     813600  HIT:     808530  MISS:       5070  HIT %:    99.3768  MISS %:   0.623156   MPKI: 0.02535
L2C PREFETCH  REQUESTED:          0  ISSUED:          0  USEFUL:      46422  USELESS:    2176190
L2C USEFUL LOAD PREFETCHES:      46422 PREFETCH ISSUED TO LOWER LEVEL:    2233862  ACCURACY: 2.07811
L2C TIMELY PREFETCHES:      46422 LATE PREFETCHES: 16198 DROPPED PREFETCHES: 0
L2C PREFETCHES SAME FILL-ORIGIN LEVEL: 1488063 DIFFERENT FILL-ORIGIN LEVEL: 0
L2C AVERAGE MISS LATENCY: 660.319 cycles
L2C RQ	ACCESS:     975581	FORWARD:          0	MERGED:          0	TO_CACHE:     975581
L2C WQ	ACCESS:    1794620	FORWARD:          0	MERGED:          0	TO_CACHE:    1794620
L2C PQ	ACCESS:   20284036	FORWARD:          0	MERGED:     285826	TO_CACHE:   19998210

L2C Instructions Evicting Data 0
L2C Translations Evicting Data 5214
L2C Data Evicting Data 2278085
L2C Instructions Evicting Instructions 0
L2C Translations Evicting Instructions 0
L2C Data Evicting Instructions 0
L2C Instructions Evicting Translations 0
L2C Translations Evicting Translations 14
L2C Data Evicting Translations 4943
L2C Dense regions hint from L2: 0
PSCL5 TOTAL     ACCESS:     761845  HIT:     761845  MISS:          0  HIT %:        100  MISS %:          0   MPKI: 0
PSCL5 LOAD TRANSLATION ACCESS:      27445  HIT:      27445  MISS:          0  HIT %:        100  MISS %:          0   MPKI: 0
PSCL5 TRANSLATION FROM L1D PREFETCHER ACCESS:     734400  HIT:     734400  MISS:          0  HIT %:        100  MISS %:          0   MPKI: 0
PSCL5 PREFETCH  REQUESTED:          0  ISSUED:          0  USEFUL:          0  USELESS:          0
PSCL5 USEFUL LOAD PREFETCHES:          0 PREFETCH ISSUED TO LOWER LEVEL:          0  ACCURACY: -nan
PSCL5 TIMELY PREFETCHES:          0 LATE PREFETCHES: 0 DROPPED PREFETCHES: 0
PSCL5 PREFETCHES SAME FILL-ORIGIN LEVEL: 0 DIFFERENT FILL-ORIGIN LEVEL: 0

PSCL4 TOTAL     ACCESS:     761845  HIT:     761845  MISS:          0  HIT %:        100  MISS %:          0   MPKI: 0
PSCL4 LOAD TRANSLATION ACCESS:      27445  HIT:      27445  MISS:          0  HIT %:        100  MISS %:          0   MPKI: 0
PSCL4 TRANSLATION FROM L1D PREFETCHER ACCESS:     734400  HIT:     734400  MISS:          0  HIT %:        100  MISS %:          0   MPKI: 0
PSCL4 PREFETCH  REQUESTED:          0  ISSUED:          0  USEFUL:          0  USELESS:          0
PSCL4 USEFUL LOAD PREFETCHES:          0 PREFETCH ISSUED TO LOWER LEVEL:          0  ACCURACY: -nan
PSCL4 TIMELY PREFETCHES:          0 LATE PREFETCHES: 0 DROPPED PREFETCHES: 0
PSCL4 PREFETCHES SAME FILL-ORIGIN LEVEL: 0 DIFFERENT FILL-ORIGIN LEVEL: 0

PSCL3 TOTAL     ACCESS:     760029  HIT:     760027  MISS:          2  HIT %:    99.9997  MISS %: 0.000263148   MPKI: 1e-05
PSCL3 LOAD TRANSLATION ACCESS:      27445  HIT:      27443  MISS:          2  HIT %:    99.9927  MISS %:  0.0072873   MPKI: 1e-05
PSCL3 TRANSLATION FROM L1D PREFETCHER ACCESS:     732584  HIT:     732584  MISS:          0  HIT %:        100  MISS %:          0   MPKI: 0
PSCL3 PREFETCH  REQUESTED:          0  ISSUED:          0  USEFUL:          0  USELESS:          0
PSCL3 USEFUL LOAD PREFETCHES:          0 PREFETCH ISSUED TO LOWER LEVEL:          0  ACCURACY: -nan
PSCL3 TIMELY PREFETCHES:          0 LATE PREFETCHES: 0 DROPPED PREFETCHES: 0
PSCL3 PREFETCHES SAME FILL-ORIGIN LEVEL: 0 DIFFERENT FILL-ORIGIN LEVEL: 0

PSCL2 TOTAL     ACCESS:     683352  HIT:     683260  MISS:         92  HIT %:    99.9865  MISS %:   0.013463   MPKI: 0.00046
PSCL2 LOAD TRANSLATION ACCESS:      27445  HIT:      27353  MISS:         92  HIT %:    99.6648  MISS %:   0.335216   MPKI: 0.00046
PSCL2 TRANSLATION FROM L1D PREFETCHER ACCESS:     655907  HIT:     655907  MISS:          0  HIT %:        100  MISS %:          0   MPKI: 0
PSCL2 PREFETCH  REQUESTED:          0  ISSUED:          0  USEFUL:          0  USELESS:          0
PSCL2 USEFUL LOAD PREFETCHES:          0 PREFETCH ISSUED TO LOWER LEVEL:          0  ACCURACY: -nan
PSCL2 TIMELY PREFETCHES:          0 LATE PREFETCHES: 0 DROPPED PREFETCHES: 0
PSCL2 PREFETCHES SAME FILL-ORIGIN LEVEL: 0 DIFFERENT FILL-ORIGIN LEVEL: 0

LLC TOTAL     ACCESS:    3994324  HIT:    2194758  MISS:    1799566  HIT %:    54.9469  MISS %:    45.0531   MPKI: 8.99783
LLC LOAD      ACCESS:      47335  HIT:       5036  MISS:      42299  HIT %:    10.6391  MISS %:    89.3609   MPKI: 0.211495
LLC RFO       ACCESS:        801  HIT:        801  MISS:          0  HIT %:        100  MISS %:          0   MPKI: 0
LLC PREFETCH  ACCESS:    2186645  HIT:     474071  MISS:    1712574  HIT %:    21.6803  MISS %:    78.3197   MPKI: 8.56287
LLC WRITEBACK ACCESS:    1754420  HIT:    1713280  MISS:      41140  HIT %:    97.6551  MISS %:    2.34493   MPKI: 0.2057
LLC LOAD TRANSLATION ACCESS:         53  HIT:          5  MISS:         48  HIT %:    9.43396  MISS %:     90.566   MPKI: 0.00024
LLC TRANSLATION FROM L1D PREFETCHER ACCESS:       5070  HIT:       1565  MISS:       3505  HIT %:    30.8679  MISS %:    69.1321   MPKI: 0.017525
LLC PREFETCH  REQUESTED:          0  ISSUED:          0  USEFUL:       5342  USELESS:    6936476
LLC USEFUL LOAD PREFETCHES:       5342 PREFETCH ISSUED TO LOWER LEVEL:    7146083  ACCURACY: 0.0747542
LLC TIMELY PREFETCHES:       5342 LATE PREFETCHES: 0 DROPPED PREFETCHES: 0
LLC PREFETCHES SAME FILL-ORIGIN LEVEL: 0 DIFFERENT FILL-ORIGIN LEVEL: 0
LLC AVERAGE MISS LATENCY: 3293.7 cycles
LLC RQ	ACCESS:     224130	FORWARD:          0	MERGED:          0	TO_CACHE:     224130
LLC WQ	ACCESS:    7106309	FORWARD:          1	MERGED:          0	TO_CACHE:    7106309
LLC PQ	ACCESS:    8903404	FORWARD:          0	MERGED:          0	TO_CACHE:    8903403

LLC Dense regions hint to LLC: 0

RAW hits: 3460
Loads Generated: 70169109
Loads sent to L1D: 70165660
Stores Generated: 14041096
Stores sent to L1D: 14041096
Major fault: 0 Minor fault: 35086
Allocated PAGES: 139372

CPU 2 cumulative IPC: 0.800449 instructions: 200000001 cycles: 249859735
ITLB TOTAL     ACCESS:   28714256  HIT:   28714256  MISS:          0  HIT %:        100  MISS %:          0   MPKI: 0
ITLB LOAD TRANSLATION ACCESS:   28714256  HIT:   28714256  MISS:          0  HIT %:        100  MISS %:          0   MPKI: 0
ITLB PREFETCH  REQUESTED:          0  ISSUED:          0  USEFUL:          0  USELESS:          0
ITLB USEFUL LOAD PREFETCHES:          0 PREFETCH ISSUED TO LOWER LEVEL:          0  ACCURACY: -nan
ITLB TIMELY PREFETCHES:          0 LATE PREFETCHES: 0 DROPPED PREFETCHES: 0
ITLB PREFETCHES SAME FILL-ORIGIN LEVEL: 0 DIFFERENT FILL-ORIGIN LEVEL: 0
ITLB AVERAGE MISS LATENCY: -nan cycles
ITLB RQ	ACCESS:   35737342	FORWARD:          0	MERGED:    7023085	TO_CACHE:   28714257

DTLB TOTAL     ACCESS:   26034536  HIT:   25987553  MISS:      46983  HIT %:    99.8195  MISS %:   0.180464   MPKI: 0.234915
DTLB LOAD TRANSLATION ACCESS:   26034536  HIT:   25987553  MISS:      46983  HIT %:    99.8195  MISS %:   0.180464   MPKI: 0.234915
DTLB PREFETCH  REQUESTED:          0  ISSUED:          0  USEFUL:          0  USELESS:          0
DTLB USEFUL LOAD PREFETCHES:          0 PREFETCH ISSUED TO LOWER LEVEL:          0  ACCURACY: -nan
DTLB TIMELY PREFETCHES:          0 LATE PREFETCHES: 0 DROPPED PREFETCHES: 0
DTLB PREFETCHES SAME FILL-ORIGIN LEVEL: 0 DIFFERENT FILL-ORIGIN LEVEL: 0
DTLB AVERAGE MISS LATENCY: 78.7194 cycles
DTLB RQ	ACCESS:   40929737	FORWARD:          0	MERGED:   14892324	TO_CACHE:   26037413

STLB TOTAL     ACCESS:   11415678  HIT:   11388233  MISS:      27445  HIT %:    99.7596  MISS %:   0.240415   MPKI: 0.137225
STLB LOAD TRANSLATION ACCESS:      46983  HIT:      19538  MISS:      27445  HIT %:    41.5853  MISS %:    58.4147   MPKI: 0.137225
STLB TRANSLATION FROM L1D PREFETCHER ACCESS:   11368695  HIT:   11368695  MISS:          0  HIT %:        100  MISS %:          0   MPKI: 0
STLB PREFETCH  REQUESTED:          0  ISSUED:          0  USEFUL:          0  USELESS:          0
STLB USEFUL LOAD PREFETCHES:          0 PREFETCH ISSUED TO LOWER LEVEL:          0  ACCURACY: -nan
STLB TIMELY PREFETCHES:          0 LATE PREFETCHES: 7164 DROPPED PREFETCHES: 1131427
STLB PREFETCHES SAME FILL-ORIGIN LEVEL: 0 DIFFERENT FILL-ORIGIN LEVEL: 0
STLB AVERAGE MISS LATENCY: 120.167 cycles
STLB RQ	ACCESS:   66503145	FORWARD:          0	MERGED:   53802404	TO_CACHE:   12700741

STLB Hit, L1D data hit: 0
STLB Hit, L2C data hit: 0
STLB Hit, LLC data hit: 0
STLB Hit, LLC data miss: 0
STLB STLB hints to L2: 0
L1D TOTAL     ACCESS:   75769602  HIT:   73114136  MISS:    2655466  HIT %:    96.4953  MISS %:    3.50466   MPKI: 13.2773
L1D LOAD      ACCESS:   26402422  HIT:   26016900  MISS:     385522  HIT %:    98.5398  MISS %:    1.46018   MPKI: 1.92761
L1D RFO       ACCESS:   14035526  HIT:   14032466  MISS:       3060  HIT %:    99.9782  MISS %:  0.0218018   MPKI: 0.0153
L1D PREFETCH  ACCESS:   35331654  HIT:   33064770  MISS:    2266884  HIT %:     93.584  MISS %:    6.41601   MPKI: 11.3344
L1D PREFETCH  REQUESTED:  282013775  ISSUED:  182094263  USEFUL:    2256765  USELESS:      10140
L1D USEFUL LOAD PREFETCHES:    2256765 PREFETCH ISSUED TO LOWER LEVEL:   24558047  ACCURACY: 9.18951
L1D TIMELY PREFETCHES:    2256765 LATE PREFETCHES: 267092 DROPPED PREFETCHES: 2601315
L1D PREFETCHES SAME FILL-ORIGIN LEVEL: 2534538 DIFFERENT FILL-ORIGIN LEVEL: 22023509
L1D AVERAGE MISS LATENCY: 219.449 cycles
L1D RQ	ACCESS:   70165687	FORWARD:          0	MERGED:   43276731	TO_CACHE:   26888639
L1D WQ	ACCESS:   14041098	FORWARD:        317	MERGED:          0	TO_CACHE:   14041098
L1D PQ	ACCESS:  115638101	FORWARD:          0	MERGED:   49181939	TO_CACHE:   66456162

L1D UNIQUE REGIONS ACCESSED: 0
L1D REGIONS CONFLICTS: 0
L1D Cross Page Prefetch Requests: 8528600
L1D Same Page Prefetch Requests: 139894641
L1D ROI Sum of L1D PQ occupancy: 1227137863
L1D PREFETCHES PUSHED FROM L2C: 0
L1I TOTAL     ACCESS:   35737340  HIT:   35737340  MISS:          0  HIT %:        100  MISS %:          0   MPKI: 0
L1I LOAD      ACCESS:   35737340  HIT:   35737340  MISS:          0  HIT %:        100  MISS %:          0   MPKI: 0
L1I PREFETCH  REQUESTED:          0  ISSUED:          0  USEFUL:          0  USELESS:          0
L1I USEFUL LOAD PREFETCHES:          0 PREFETCH ISSUED TO LOWER LEVEL:          0  ACCURACY: -nan
L1I TIMELY PREFETCHES:          0 LATE PREFETCHES: 0 DROPPED PREFETCHES: 0
L1I PREFETCHES SAME FILL-ORIGIN LEVEL: 0 DIFFERENT FILL-ORIGIN LEVEL: 0
L1I AVERAGE MISS LATENCY: -nan cycles
L1I RQ	ACCESS:   46134374	FORWARD:          0	MERGED:   10397032	TO_CACHE:   35737342

BTB TOTAL     ACCESS:    3509178  HIT:    3509170  MISS:          8  HIT %:    99.9998  MISS %: 0.000227974   MPKI: 4e-05
BTB BRANCH_DIRECT_JUMP	ACCESS:        876  HIT:        874  MISS:          2
BTB BRANCH_INDIRECT	ACCESS:          0  HIT:          0  MISS:          0
BTB BRANCH_CONDITIONAL	ACCESS:    3506550  HIT:    3506548  MISS:          2
BTB BRANCH_DIRECT_CALL	ACCESS:        876  HIT:        874  MISS:          2
BTB BRANCH_INDIRECT_CALL	ACCESS:          0  HIT:          0  MISS:          0
BTB BRANCH_RETURN	ACCESS:        876  HIT:        874  MISS:          2
BTB BRANCH_OTHER ACCESS:          0  HIT:          0  MISS:          0

L2C TOTAL     ACCESS:   26134874  HIT:   23751707  MISS:    2383167  HIT %:    90.8813  MISS %:    9.11872   MPKI: 11.9158
L2C LOAD      ACCESS:     118431  HIT:      51010  MISS:      67421  HIT %:    43.0715  MISS %:    56.9285   MPKI: 0.337105
L2C DATA LOAD MPKI: 0.337105
L2C INSTRUCTION LOAD MPKI: 0
L2C RFO       ACCESS:       3060  HIT:       2119  MISS:        941  HIT %:    69.2484  MISS %:    30.7516   MPKI: 0.004705
L2C PREFETCH  ACCESS:   22562198  HIT:   20383407  MISS:    2178791  HIT %:    90.3432  MISS %:    9.65682   MPKI: 10.894
L2C DATA PREFETCH MPKI: 10.894
L2C INSTRUCTION PREFETCH MPKI: 0
L2C WRITEBACK ACCESS:    1756970  HIT:    1626257  MISS:     130713  HIT %:    92.5603  MISS %:    7.43968   MPKI: 0.653565
L2C LOAD TRANSLATION ACCESS:      27449  HIT:      27391  MISS:         58  HIT %:    99.7887  MISS %:   0.211301   MPKI: 0.00029
L2C TRANSLATION FROM L1D PREFETCHER ACCESS:    1666766  HIT:    1661523  MISS:       5243  HIT %:    99.6854  MISS %:   0.314561   MPKI: 0.026215
L2C PREFETCH  REQUESTED:          0  ISSUED:          0  USEFUL:      49833  USELESS:    2134087
L2C USEFUL LOAD PREFETCHES:      49833 PREFETCH ISSUED TO LOWER LEVEL:    2194907  ACCURACY: 2.27039
L2C TIMELY PREFETCHES:      49833 LATE PREFETCHES: 16113 DROPPED PREFETCHES: 0
L2C PREFETCHES SAME FILL-ORIGIN LEVEL: 1385837 DIFFERENT FILL-ORIGIN LEVEL: 0
L2C AVERAGE MISS LATENCY: 638.765 cycles
L2C RQ	ACCESS:    1815706	FORWARD:          0	MERGED:          0	TO_CACHE:    1815706
L2C WQ	ACCESS:    1756970	FORWARD:          0	MERGED:          0	TO_CACHE:    1756970
L2C PQ	ACCESS:   24555575	FORWARD:          0	MERGED:     385929	TO_CACHE:   24169646

L2C Instructions Evicting Data 0
L2C Translations Evicting Data 5295
L2C Data Evicting Data 2242080
L2C Instructions Evicting Instructions 0
L2C Translations Evicting Instructions 0
L2C Data Evicting Instructions 0
L2C Instructions Evicting Translations 0
L2C Translations Evicting Translations 6
L2C Data Evicting Translations 5073
L2C Dense regions hint from L2: 0
PSCL5 TOTAL     ACCESS:    1166036  HIT:    1166036  MISS:          0  HIT %:        100  MISS %:          0   MPKI: 0
PSCL5 LOAD TRANSLATION ACCESS:      27445  HIT:      27445  MISS:          0  HIT %:        100  MISS %:          0   MPKI: 0
PSCL5 TRANSLATION FROM L1D PREFETCHER ACCESS:    1138591  HIT:    1138591  MISS:          0  HIT %:        100  MISS %:          0   MPKI: 0
PSCL5 PREFETCH  REQUESTED:          0  ISSUED:          0  USEFUL:          0  USELESS:          0
PSCL5 USEFUL LOAD PREFETCHES:          0 PREFETCH ISSUED TO LOWER LEVEL:          0  ACCURACY: -nan
PSCL5 TIMELY PREFETCHES:          0 LATE PREFETCHES: 0 DROPPED PREFETCHES: 0
PSCL5 PREFETCHES SAME FILL-ORIGIN LEVEL: 0 DIFFERENT FILL-ORIGIN LEVEL: 0

PSCL4 TOTAL     ACCESS:    1166036  HIT:    1166036  MISS:          0  HIT %:        100  MISS %:          0   MPKI: 0
PSCL4 LOAD TRANSLATION ACCESS:      27445  HIT:      27445  MISS:          0  HIT %:        100  MISS %:          0   MPKI: 0
PSCL4 TRANSLATION FROM L1D PREFETCHER ACCESS:    1138591  HIT:    1138591  MISS:          0  HIT %:        100  MISS %:          0   MPKI: 0
PSCL4 PREFETCH  REQUESTED:          0  ISSUED:          0  USEFUL:          0  USELESS:          0
PSCL4 USEFUL LOAD PREFETCHES:          0 PREFETCH ISSUED TO LOWER LEVEL:          0  ACCURACY: -nan
PSCL4 TIMELY PREFETCHES:          0 LATE PREFETCHES: 0 DROPPED PREFETCHES: 0
PSCL4 PREFETCHES SAME FILL-ORIGIN LEVEL: 0 DIFFERENT FILL-ORIGIN LEVEL: 0

PSCL3 TOTAL     ACCESS:    1164096  HIT:    1164094  MISS:          2  HIT %:    99.9998  MISS %: 0.000171807   MPKI: 1e-05
PSCL3 LOAD TRANSLATION ACCESS:      27445  HIT:      27443  MISS:          2  HIT %:    99.9927  MISS %:  0.0072873   MPKI: 1e-05
PSCL3 TRANSLATION FROM L1D PREFETCHER ACCESS:    1136651  HIT:    1136651  MISS:          0  HIT %:        100  MISS %:          0   MPKI: 0
PSCL3 PREFETCH  REQUESTED:          0  ISSUED:          0  USEFUL:          0  USELESS:          0
PSCL3 USEFUL LOAD PREFETCHES:          0 PREFETCH ISSUED TO LOWER LEVEL:          0  ACCURACY: -nan
PSCL3 TIMELY PREFETCHES:          0 LATE PREFETCHES: 0 DROPPED PREFETCHES: 0
PSCL3 PREFETCHES SAME FILL-ORIGIN LEVEL: 0 DIFFERENT FILL-ORIGIN LEVEL: 0

PSCL2 TOTAL     ACCESS:     638872  HIT:     638780  MISS:         92  HIT %:    99.9856  MISS %:  0.0144004   MPKI: 0.00046
PSCL2 LOAD TRANSLATION ACCESS:      27445  HIT:      27353  MISS:         92  HIT %:    99.6648  MISS %:   0.335216   MPKI: 0.00046
PSCL2 TRANSLATION FROM L1D PREFETCHER ACCESS:     611427  HIT:     611427  MISS:          0  HIT %:        100  MISS %:          0   MPKI: 0
PSCL2 PREFETCH  REQUESTED:          0  ISSUED:          0  USEFUL:          0  USELESS:          0
PSCL2 USEFUL LOAD PREFETCHES:          0 PREFETCH ISSUED TO LOWER LEVEL:          0  ACCURACY: -nan
PSCL2 TIMELY PREFETCHES:          0 LATE PREFETCHES: 0 DROPPED PREFETCHES: 0
PSCL2 PREFETCHES SAME FILL-ORIGIN LEVEL: 0 DIFFERENT FILL-ORIGIN LEVEL: 0

LLC TOTAL     ACCESS:    4006854  HIT:    2202211  MISS:    1804643  HIT %:    54.9611  MISS %:    45.0389   MPKI: 9.02321
LLC LOAD      ACCESS:      51330  HIT:       5179  MISS:      46151  HIT %:    10.0896  MISS %:    89.9104   MPKI: 0.230755
LLC RFO       ACCESS:        919  HIT:        918  MISS:          1  HIT %:    99.8912  MISS %:   0.108814   MPKI: 5e-06
LLC PREFETCH  ACCESS:    2194903  HIT:     486167  MISS:    1708736  HIT %:    22.1498  MISS %:    77.8502   MPKI: 8.54368
LLC WRITEBACK ACCESS:    1754401  HIT:    1708213  MISS:      46188  HIT %:    97.3673  MISS %:    2.63269   MPKI: 0.23094
LLC LOAD TRANSLATION ACCESS:         58  HIT:         10  MISS:         48  HIT %:    17.2414  MISS %:    82.7586   MPKI: 0.00024
LLC TRANSLATION FROM L1D PREFETCHER ACCESS:       5243  HIT:       1724  MISS:       3519  HIT %:    32.8819  MISS %:    67.1181   MPKI: 0.017595
LLC PREFETCH  REQUESTED:          0  ISSUED:          0  USEFUL:       5342  USELESS:    6936476
LLC USEFUL LOAD PREFETCHES:       5342 PREFETCH ISSUED TO LOWER LEVEL:    7146083  ACCURACY: 0.0747542
LLC TIMELY PREFETCHES:       5342 LATE PREFETCHES: 0 DROPPED PREFETCHES: 0
LLC PREFETCHES SAME FILL-ORIGIN LEVEL: 0 DIFFERENT FILL-ORIGIN LEVEL: 0
LLC AVERAGE MISS LATENCY: 3284.43 cycles
LLC RQ	ACCESS:     224130	FORWARD:          0	MERGED:          0	TO_CACHE:     224130
LLC WQ	ACCESS:    7106309	FORWARD:          1	MERGED:          0	TO_CACHE:    7106309
LLC PQ	ACCESS:    8903404	FORWARD:          0	MERGED:          0	TO_CACHE:    8903403

LLC Dense regions hint to LLC: 0

RAW hits: 3460
Loads Generated: 70169149
Loads sent to L1D: 70165687
Stores Generated: 14041096
Stores sent to L1D: 14041098
Major fault: 0 Minor fault: 34498
Allocated PAGES: 139372

CPU 3 cumulative IPC: 0.808689 instructions: 200000000 cycles: 247314019
ITLB TOTAL     ACCESS:   28699800  HIT:   28699800  MISS:          0  HIT %:        100  MISS %:          0   MPKI: 0
ITLB LOAD TRANSLATION ACCESS:   28699800  HIT:   28699800  MISS:          0  HIT %:        100  MISS %:          0   MPKI: 0
ITLB PREFETCH  REQUESTED:          0  ISSUED:          0  USEFUL:          0  USELESS:          0
ITLB USEFUL LOAD PREFETCHES:          0 PREFETCH ISSUED TO LOWER LEVEL:          0  ACCURACY: -nan
ITLB TIMELY PREFETCHES:          0 LATE PREFETCHES: 0 DROPPED PREFETCHES: 0
ITLB PREFETCHES SAME FILL-ORIGIN LEVEL: 0 DIFFERENT FILL-ORIGIN LEVEL: 0
ITLB AVERAGE MISS LATENCY: -nan cycles
ITLB RQ	ACCESS:   36089392	FORWARD:          0	MERGED:    7095241	TO_CACHE:   28994151

DTLB TOTAL     ACCESS:   26048274  HIT:   26001292  MISS:      46982  HIT %:    99.8196  MISS %:   0.180365   MPKI: 0.23491
DTLB LOAD TRANSLATION ACCESS:   26048274  HIT:   26001292  MISS:      46982  HIT %:    99.8196  MISS %:   0.180365   MPKI: 0.23491
DTLB PREFETCH  REQUESTED:          0  ISSUED:          0  USEFUL:          0  USELESS:          0
DTLB USEFUL LOAD PREFETCHES:          0 PREFETCH ISSUED TO LOWER LEVEL:          0  ACCURACY: -nan
DTLB TIMELY PREFETCHES:          0 LATE PREFETCHES: 0 DROPPED PREFETCHES: 0
DTLB PREFETCHES SAME FILL-ORIGIN LEVEL: 0 DIFFERENT FILL-ORIGIN LEVEL: 0
DTLB AVERAGE MISS LATENCY: 79.0452 cycles
DTLB RQ	ACCESS:   41370558	FORWARD:          0	MERGED:   15053172	TO_CACHE:   26317386

STLB TOTAL     ACCESS:   12190022  HIT:   12162577  MISS:      27445  HIT %:    99.7749  MISS %:   0.225143   MPKI: 0.137225
STLB LOAD TRANSLATION ACCESS:      46982  HIT:      19537  MISS:      27445  HIT %:     41.584  MISS %:     58.416   MPKI: 0.137225
STLB TRANSLATION FROM L1D PREFETCHER ACCESS:   12143040  HIT:   12143040  MISS:          0  HIT %:        100  MISS %:          0   MPKI: 0
STLB PREFETCH  REQUESTED:          0  ISSUED:          0  USEFUL:          0  USELESS:          0
STLB USEFUL LOAD PREFETCHES:          0 PREFETCH ISSUED TO LOWER LEVEL:          0  ACCURACY: -nan
STLB TIMELY PREFETCHES:          0 LATE PREFETCHES: 6785 DROPPED PREFETCHES: 943693
STLB PREFETCHES SAME FILL-ORIGIN LEVEL: 0 DIFFERENT FILL-ORIGIN LEVEL: 0
STLB AVERAGE MISS LATENCY: 120.558 cycles
STLB RQ	ACCESS:   72743500	FORWARD:          0	MERGED:   59373305	TO_CACHE:   13370195

STLB Hit, L1D data hit: 0
STLB Hit, L2C data hit: 0
STLB Hit, LLC data hit: 0
STLB Hit, LLC data miss: 0
STLB STLB hints to L2: 0
L1D TOTAL     ACCESS:   83699800  HIT:   81044684  MISS:    2655116  HIT %:    96.8278  MISS %:    3.17219   MPKI: 13.2756
L1D LOAD      ACCESS:   26435145  HIT:   26059008  MISS:     376137  HIT %:    98.5771  MISS %:    1.42287   MPKI: 1.88068
L1D RFO       ACCESS:   14035122  HIT:   14032064  MISS:       3058  HIT %:    99.9782  MISS %:  0.0217882   MPKI: 0.01529
L1D PREFETCH  ACCESS:   43229533  HIT:   40953612  MISS:    2275921  HIT %:    94.7353  MISS %:    5.26474   MPKI: 11.3796
L1D PREFETCH  REQUESTED:  302616694  ISSUED:  201664709  USEFUL:    2288777  USELESS:      10236
L1D USEFUL LOAD PREFETCHES:    2288777 PREFETCH ISSUED TO LOWER LEVEL:   22574279  ACCURACY: 10.1389
L1D TIMELY PREFETCHES:    2288777 LATE PREFETCHES: 264720 DROPPED PREFETCHES: 2221289
L1D PREFETCHES SAME FILL-ORIGIN LEVEL: 2565548 DIFFERENT FILL-ORIGIN LEVEL: 20008731
L1D AVERAGE MISS LATENCY: 221.313 cycles
L1D RQ	ACCESS:   70884673	FORWARD:          0	MERGED:   43698750	TO_CACHE:   27185588
L1D WQ	ACCESS:   14184970	FORWARD:        335	MERGED:          0	TO_CACHE:   14184970
L1D PQ	ACCESS:  128968677	FORWARD:          0	MERGED:   56272645	TO_CACHE:   72696032

L1D UNIQUE REGIONS ACCESSED: 0
L1D REGIONS CONFLICTS: 0
L1D Cross Page Prefetch Requests: 7594482
L1D Same Page Prefetch Requests: 156760100
L1D ROI Sum of L1D PQ occupancy: 1226803814
L1D PREFETCHES PUSHED FROM L2C: 0
L1I TOTAL     ACCESS:   35723074  HIT:   35723074  MISS:          0  HIT %:        100  MISS %:          0   MPKI: 0
L1I LOAD      ACCESS:   35723074  HIT:   35723074  MISS:          0  HIT %:        100  MISS %:          0   MPKI: 0
L1I PREFETCH  REQUESTED:          0  ISSUED:          0  USEFUL:          0  USELESS:          0
L1I USEFUL LOAD PREFETCHES:          0 PREFETCH ISSUED TO LOWER LEVEL:          0  ACCURACY: -nan
L1I TIMELY PREFETCHES:          0 LATE PREFETCHES: 0 DROPPED PREFETCHES: 0
L1I PREFETCHES SAME FILL-ORIGIN LEVEL: 0 DIFFERENT FILL-ORIGIN LEVEL: 0
L1I AVERAGE MISS LATENCY: -nan cycles
L1I RQ	ACCESS:   46597286	FORWARD:          0	MERGED:   10507894	TO_CACHE:   36089392

BTB TOTAL     ACCESS:    3509176  HIT:    3509168  MISS:          8  HIT %:    99.9998  MISS %: 0.000227974   MPKI: 4e-05
BTB BRANCH_DIRECT_JUMP	ACCESS:        876  HIT:        874  MISS:          2
BTB BRANCH_INDIRECT	ACCESS:          0  HIT:          0  MISS:          0
BTB BRANCH_CONDITIONAL	ACCESS:    3506548  HIT:    3506546  MISS:          2
BTB BRANCH_DIRECT_CALL	ACCESS:        876  HIT:        874  MISS:          2
BTB BRANCH_INDIRECT_CALL	ACCESS:          0  HIT:          0  MISS:          0
BTB BRANCH_RETURN	ACCESS:        876  HIT:        874  MISS:          2
BTB BRANCH_OTHER ACCESS:          0  HIT:          0  MISS:          0

L2C TOTAL     ACCESS:   23369002  HIT:   20968622  MISS:    2400380  HIT %:    89.7284  MISS %:    10.2716   MPKI: 12.0019
L2C LOAD      ACCESS:     114200  HIT:      48665  MISS:      65535  HIT %:    42.6138  MISS %:    57.3862   MPKI: 0.327675
L2C DATA LOAD MPKI: 0.327675
L2C INSTRUCTION LOAD MPKI: 0
L2C RFO       ACCESS:       3057  HIT:       1747  MISS:       1310  HIT %:    57.1475  MISS %:    42.8525   MPKI: 0.00655
L2C PREFETCH  ACCESS:   20278486  HIT:   18079359  MISS:    2199127  HIT %:    89.1554  MISS %:    10.8446   MPKI: 10.9956
L2C DATA PREFETCH MPKI: 10.9956
L2C INSTRUCTION PREFETCH MPKI: 0
L2C WRITEBACK ACCESS:    1756963  HIT:    1627783  MISS:     129180  HIT %:    92.6475  MISS %:    7.35246   MPKI: 0.6459
L2C LOAD TRANSLATION ACCESS:      27449  HIT:      27400  MISS:         49  HIT %:    99.8215  MISS %:   0.178513   MPKI: 0.000245
L2C TRANSLATION FROM L1D PREFETCHER ACCESS:    1188847  HIT:    1183668  MISS:       5179  HIT %:    99.5644  MISS %:   0.435632   MPKI: 0.025895
L2C PREFETCH  REQUESTED:          0  ISSUED:          0  USEFUL:      48054  USELESS:    2178524
L2C USEFUL LOAD PREFETCHES:      48054 PREFETCH ISSUED TO LOWER LEVEL:    2237408  ACCURACY: 2.14775
L2C TIMELY PREFETCHES:      48054 LATE PREFETCHES: 15911 DROPPED PREFETCHES: 0
L2C PREFETCHES SAME FILL-ORIGIN LEVEL: 1399601 DIFFERENT FILL-ORIGIN LEVEL: 0
L2C AVERAGE MISS LATENCY: 642.455 cycles
L2C RQ	ACCESS:    1357901	FORWARD:          0	MERGED:          0	TO_CACHE:    1357901
L2C WQ	ACCESS:    1774968	FORWARD:          0	MERGED:          0	TO_CACHE:    1774968
L2C PQ	ACCESS:   22571199	FORWARD:          0	MERGED:     320408	TO_CACHE:   22250791

L2C Instructions Evicting Data 0
L2C Translations Evicting Data 5263
L2C Data Evicting Data 2284038
L2C Instructions Evicting Instructions 0
L2C Translations Evicting Instructions 0
L2C Data Evicting Instructions 0
L2C Instructions Evicting Translations 0
L2C Translations Evicting Translations 14
L2C Data Evicting Translations 5038
L2C Dense regions hint from L2: 0
PSCL5 TOTAL     ACCESS:     963659  HIT:     963659  MISS:          0  HIT %:        100  MISS %:          0   MPKI: 0
PSCL5 LOAD TRANSLATION ACCESS:      27445  HIT:      27445  MISS:          0  HIT %:        100  MISS %:          0   MPKI: 0
PSCL5 TRANSLATION FROM L1D PREFETCHER ACCESS:     936214  HIT:     936214  MISS:          0  HIT %:        100  MISS %:          0   MPKI: 0
PSCL5 PREFETCH  REQUESTED:          0  ISSUED:          0  USEFUL:          0  USELESS:          0
PSCL5 USEFUL LOAD PREFETCHES:          0 PREFETCH ISSUED TO LOWER LEVEL:          0  ACCURACY: -nan
PSCL5 TIMELY PREFETCHES:          0 LATE PREFETCHES: 0 DROPPED PREFETCHES: 0
PSCL5 PREFETCHES SAME FILL-ORIGIN LEVEL: 0 DIFFERENT FILL-ORIGIN LEVEL: 0

PSCL4 TOTAL     ACCESS:     963659  HIT:     963659  MISS:          0  HIT %:        100  MISS %:          0   MPKI: 0
PSCL4 LOAD TRANSLATION ACCESS:      27445  HIT:      27445  MISS:          0  HIT %:        100  MISS %:          0   MPKI: 0
PSCL4 TRANSLATION FROM L1D PREFETCHER ACCESS:     936214  HIT:     936214  MISS:          0  HIT %:        100  MISS %:          0   MPKI: 0
PSCL4 PREFETCH  REQUESTED:          0  ISSUED:          0  USEFUL:          0  USELESS:          0
PSCL4 USEFUL LOAD PREFETCHES:          0 PREFETCH ISSUED TO LOWER LEVEL:          0  ACCURACY: -nan
PSCL4 TIMELY PREFETCHES:          0 LATE PREFETCHES: 0 DROPPED PREFETCHES: 0
PSCL4 PREFETCHES SAME FILL-ORIGIN LEVEL: 0 DIFFERENT FILL-ORIGIN LEVEL: 0

PSCL3 TOTAL     ACCESS:     961708  HIT:     961706  MISS:          2  HIT %:    99.9998  MISS %: 0.000207963   MPKI: 1e-05
PSCL3 LOAD TRANSLATION ACCESS:      27445  HIT:      27443  MISS:          2  HIT %:    99.9927  MISS %:  0.0072873   MPKI: 1e-05
PSCL3 TRANSLATION FROM L1D PREFETCHER ACCESS:     934263  HIT:     934263  MISS:          0  HIT %:        100  MISS %:          0   MPKI: 0
PSCL3 PREFETCH  REQUESTED:          0  ISSUED:          0  USEFUL:          0  USELESS:          0
PSCL3 USEFUL LOAD PREFETCHES:          0 PREFETCH ISSUED TO LOWER LEVEL:          0  ACCURACY: -nan
PSCL3 TIMELY PREFETCHES:          0 LATE PREFETCHES: 0 DROPPED PREFETCHES: 0
PSCL3 PREFETCHES SAME FILL-ORIGIN LEVEL: 0 DIFFERENT FILL-ORIGIN LEVEL: 0

PSCL2 TOTAL     ACCESS:     712015  HIT:     711923  MISS:         92  HIT %:    99.9871  MISS %:  0.0129211   MPKI: 0.00046
PSCL2 LOAD TRANSLATION ACCESS:      27445  HIT:      27353  MISS:         92  HIT %:    99.6648  MISS %:   0.335216   MPKI: 0.00046
PSCL2 TRANSLATION FROM L1D PREFETCHER ACCESS:     684570  HIT:     684570  MISS:          0  HIT %:        100  MISS %:          0   MPKI: 0
PSCL2 PREFETCH  REQUESTED:          0  ISSUED:          0  USEFUL:          0  USELESS:          0
PSCL2 USEFUL LOAD PREFETCHES:          0 PREFETCH ISSUED TO LOWER LEVEL:          0  ACCURACY: -nan
PSCL2 TIMELY PREFETCHES:          0 LATE PREFETCHES: 0 DROPPED PREFETCHES: 0
PSCL2 PREFETCHES SAME FILL-ORIGIN LEVEL: 0 DIFFERENT FILL-ORIGIN LEVEL: 0

LLC TOTAL     ACCESS:    4026010  HIT:    2221174  MISS:    1804836  HIT %:    55.1706  MISS %:    44.8294   MPKI: 9.02418
LLC LOAD      ACCESS:      49826  HIT:       5156  MISS:      44670  HIT %:     10.348  MISS %:     89.652   MPKI: 0.22335
LLC RFO       ACCESS:       1278  HIT:       1276  MISS:          2  HIT %:    99.8435  MISS %:   0.156495   MPKI: 1e-05
LLC PREFETCH  ACCESS:    2214868  HIT:     504581  MISS:    1710287  HIT %:    22.7815  MISS %:    77.2185   MPKI: 8.55143
LLC WRITEBACK ACCESS:    1754810  HIT:    1708484  MISS:      46326  HIT %:    97.3601  MISS %:    2.63994   MPKI: 0.23163
LLC LOAD TRANSLATION ACCESS:         49  HIT:          1  MISS:         48  HIT %:    2.04082  MISS %:    97.9592   MPKI: 0.00024
LLC TRANSLATION FROM L1D PREFETCHER ACCESS:       5179  HIT:       1676  MISS:       3503  HIT %:    32.3615  MISS %:    67.6385   MPKI: 0.017515
LLC PREFETCH  REQUESTED:          0  ISSUED:          0  USEFUL:       5342  USELESS:    6936476
LLC USEFUL LOAD PREFETCHES:       5342 PREFETCH ISSUED TO LOWER LEVEL:    7146083  ACCURACY: 0.0747542
LLC TIMELY PREFETCHES:       5342 LATE PREFETCHES: 0 DROPPED PREFETCHES: 0
LLC PREFETCHES SAME FILL-ORIGIN LEVEL: 0 DIFFERENT FILL-ORIGIN LEVEL: 0
LLC AVERAGE MISS LATENCY: 3284.08 cycles
LLC RQ	ACCESS:     224130	FORWARD:          0	MERGED:          0	TO_CACHE:     224130
LLC WQ	ACCESS:    7106309	FORWARD:          1	MERGED:          0	TO_CACHE:    7106309
LLC PQ	ACCESS:    8903404	FORWARD:          0	MERGED:          0	TO_CACHE:    8903403

LLC Dense regions hint to LLC: 0

RAW hits: 3460
Loads Generated: 70169150
Loads sent to L1D: 70165690
Stores Generated: 14041096
Stores sent to L1D: 14041096
Major fault: 0 Minor fault: 34779
Allocated PAGES: 139372

DRAM Statistics
 CHANNEL 0
 RQ ROW_BUFFER_HIT:    3186640  ROW_BUFFER_MISS:    3935636
 DBUS_CONGESTED:          5
 WQ ROW_BUFFER_HIT:    2172475  ROW_BUFFER_MISS:    4929397  FULL:     284331

 AVG_CONGESTED_CYCLE: 3
 All warmup complete: 5
Channel 0 Bank busy for read cycles: 0
Channel 0 Bank busy for write cycles: 0
Channel 0
Rank 0
0banks busy for read cycles: 5224
0banks busy for write cycles: 0
1banks busy for read cycles: 810210
1banks busy for write cycles: 502313
2banks busy for read cycles: 1025606
2banks busy for write cycles: 502310
3banks busy for read cycles: 1349811
3banks busy for write cycles: 502310
4banks busy for read cycles: 1905130
4banks busy for write cycles: 502309
5banks busy for read cycles: 2988755
5banks busy for write cycles: 502306
6banks busy for read cycles: 5570522
6banks busy for write cycles: 503985
7banks busy for read cycles: 16665331
7banks busy for write cycles: 7637006
8banks busy for read cycles: 80490721
8banks busy for write cycles: 128395886

CPU 0 Branch Prediction Accuracy: 99.9751% MPKI: 0.00437848 Average ROB Occupancy at Mispredict: 246.283
Branch types
NOT_BRANCH: 200146172 98.2439%
BRANCH_DIRECT_JUMP: 892 0.000437848%
BRANCH_INDIRECT: 0 0%
BRANCH_CONDITIONAL: 3574963 1.75481%
BRANCH_DIRECT_CALL: 892 0.000437848%
BRANCH_INDIRECT_CALL: 0 0%
BRANCH_RETURN: 892 0.000437848%
BRANCH_OTHER: 0 0%


CPU 1 Branch Prediction Accuracy: 99.9751% MPKI: 0.00438111 Average ROB Occupancy at Mispredict: 251.647
Branch types
NOT_BRANCH: 200698336 98.2438%
BRANCH_DIRECT_JUMP: 894 0.000437622%
BRANCH_INDIRECT: 0 0%
BRANCH_CONDITIONAL: 3584826 1.75481%
BRANCH_DIRECT_CALL: 894 0.000437622%
BRANCH_INDIRECT_CALL: 0 0%
BRANCH_RETURN: 894 0.000437622%
BRANCH_OTHER: 0 0%


CPU 2 Branch Prediction Accuracy: 99.9751% MPKI: 0.00438 Average ROB Occupancy at Mispredict: 253.598
Branch types
NOT_BRANCH: 196487678 98.2438%
BRANCH_DIRECT_JUMP: 876 0.000438%
BRANCH_INDIRECT: 0 0%
BRANCH_CONDITIONAL: 3509616 1.75481%
BRANCH_DIRECT_CALL: 876 0.000438%
BRANCH_INDIRECT_CALL: 0 0%
BRANCH_RETURN: 876 0.000438%
BRANCH_OTHER: 0 0%


CPU 3 Branch Prediction Accuracy: 99.9751% MPKI: 0.00438007 Average ROB Occupancy at Mispredict: 251.545
Branch types
NOT_BRANCH: 198501099 98.2438%
BRANCH_DIRECT_JUMP: 884 0.000437517%
BRANCH_INDIRECT: 0 0%
BRANCH_CONDITIONAL: 3545579 1.75481%
BRANCH_DIRECT_CALL: 884 0.000437517%
BRANCH_INDIRECT_CALL: 0 0%
BRANCH_RETURN: 884 0.000437517%
BRANCH_OTHER: 0 0%

DRAM PAGES: 1048576
Allocated PAGES: 139372
