
*** ChampSim Multicore Out-of-Order Simulator ***

Warmup Instructions: 50000000
Simulation Instructions: 200000000
Number of CPUs: 4
LLC sets: 8192
LLC ways: 16
Off-chip DRAM Size: 4096 MB Channels: 1 Width: 64-bit Data Rate: 6400 MT/s
CPU 0 runs ./traces/spec/654.roms_s-1007B.champsimtrace.xz
.xz
CPU 1 runs ./traces/spec/654.roms_s-1007B.champsimtrace.xz
.xz
CPU 2 runs ./traces/spec/654.roms_s-1007B.champsimtrace.xz
.xz
CPU 3 runs ./traces/spec/654.roms_s-1007B.champsimtrace.xz
.xz
BTB has LRU replacement policy
ITLB has LRU replacement policy
DTLB has LRU replacement policy
STLB has LRU replacement policy
L1I has LRU replacement policy
History Sets: 8
History Ways: 16
BERTI Size: 16
BERTI Stride Size: 8
L1D has LRU replacement policy
Initialize SRRIP state for L2C
Initialize DRRIP state for LLC
BTB has LRU replacement policy
ITLB has LRU replacement policy
DTLB has LRU replacement policy
STLB has LRU replacement policy
L1I has LRU replacement policy
History Sets: 8
History Ways: 16
BERTI Size: 16
BERTI Stride Size: 8
L1D has LRU replacement policy
Initialize SRRIP state for L2C
Initialize DRRIP state for LLC
BTB has LRU replacement policy
ITLB has LRU replacement policy
DTLB has LRU replacement policy
STLB has LRU replacement policy
L1I has LRU replacement policy
History Sets: 8
History Ways: 16
BERTI Size: 16
BERTI Stride Size: 8
L1D has LRU replacement policy
Initialize SRRIP state for L2C
Initialize DRRIP state for LLC
BTB has LRU replacement policy
ITLB has LRU replacement policy
DTLB has LRU replacement policy
STLB has LRU replacement policy
L1I has LRU replacement policy
History Sets: 8
History Ways: 16
BERTI Size: 16
BERTI Stride Size: 8
L1D has LRU replacement policy
Initialize SRRIP state for L2C
Initialize DRRIP state for LLC
Heartbeat CPU 0 instructions: 10000000 cycles: 3016020 heartbeat IPC: 3.31563 cumulative IPC: 3.31563 (Simulation time: 0 hr 3 min 1 sec) 
Heartbeat CPU 1 instructions: 10000000 cycles: 3016029 heartbeat IPC: 3.31562 cumulative IPC: 3.31562 (Simulation time: 0 hr 3 min 1 sec) 
Heartbeat CPU 2 instructions: 10000000 cycles: 3016044 heartbeat IPC: 3.3156 cumulative IPC: 3.3156 (Simulation time: 0 hr 3 min 1 sec) 
Heartbeat CPU 3 instructions: 10000000 cycles: 3016057 heartbeat IPC: 3.31559 cumulative IPC: 3.31559 (Simulation time: 0 hr 3 min 1 sec) 
Heartbeat CPU 0 instructions: 20000002 cycles: 6031785 heartbeat IPC: 3.31591 cumulative IPC: 3.31577 (Simulation time: 0 hr 6 min 15 sec) 
Heartbeat CPU 1 instructions: 20000002 cycles: 6031799 heartbeat IPC: 3.3159 cumulative IPC: 3.31576 (Simulation time: 0 hr 6 min 15 sec) 
Heartbeat CPU 2 instructions: 20000002 cycles: 6031807 heartbeat IPC: 3.31591 cumulative IPC: 3.31576 (Simulation time: 0 hr 6 min 15 sec) 
Heartbeat CPU 3 instructions: 20000002 cycles: 6031823 heartbeat IPC: 3.31591 cumulative IPC: 3.31575 (Simulation time: 0 hr 6 min 15 sec) 
Heartbeat CPU 0 instructions: 30000000 cycles: 9047672 heartbeat IPC: 3.31577 cumulative IPC: 3.31577 (Simulation time: 0 hr 9 min 7 sec) 
Heartbeat CPU 2 instructions: 30000000 cycles: 9047684 heartbeat IPC: 3.31578 cumulative IPC: 3.31577 (Simulation time: 0 hr 9 min 7 sec) 
Heartbeat CPU 1 instructions: 30000000 cycles: 9047696 heartbeat IPC: 3.31576 cumulative IPC: 3.31576 (Simulation time: 0 hr 9 min 7 sec) 
Heartbeat CPU 3 instructions: 30000000 cycles: 9047710 heartbeat IPC: 3.31577 cumulative IPC: 3.31576 (Simulation time: 0 hr 9 min 7 sec) 
Heartbeat CPU 0 instructions: 40000000 cycles: 12063421 heartbeat IPC: 3.31593 cumulative IPC: 3.31581 (Simulation time: 0 hr 12 min 6 sec) 
Heartbeat CPU 2 instructions: 40000000 cycles: 12063433 heartbeat IPC: 3.31593 cumulative IPC: 3.31581 (Simulation time: 0 hr 12 min 6 sec) 
Heartbeat CPU 1 instructions: 40000000 cycles: 12063445 heartbeat IPC: 3.31593 cumulative IPC: 3.3158 (Simulation time: 0 hr 12 min 6 sec) 
Heartbeat CPU 3 instructions: 40000000 cycles: 12063459 heartbeat IPC: 3.31593 cumulative IPC: 3.3158 (Simulation time: 0 hr 12 min 6 sec) 
Heartbeat CPU 0 instructions: 50000003 cycles: 15187287 heartbeat IPC: 3.20116 cumulative IPC: 3.29223 (Simulation time: 0 hr 15 min 54 sec) 
Heartbeat CPU 2 instructions: 50000003 cycles: 15187492 heartbeat IPC: 3.20096 cumulative IPC: 3.29218 (Simulation time: 0 hr 15 min 54 sec) 
Heartbeat CPU 1 instructions: 50000003 cycles: 15187551 heartbeat IPC: 3.20092 cumulative IPC: 3.29217 (Simulation time: 0 hr 15 min 54 sec) 
Heartbeat CPU 3 instructions: 50000003 cycles: 15187658 heartbeat IPC: 3.20082 cumulative IPC: 3.29215 (Simulation time: 0 hr 15 min 54 sec) 

Warmup complete CPU 0 instructions: 50001182 cycles: 15187658 (Simulation time: 0 hr 15 min 54 sec) 
Warmup complete CPU 1 instructions: 50000350 cycles: 15187658 (Simulation time: 0 hr 15 min 54 sec) 
Warmup complete CPU 2 instructions: 50000546 cycles: 15187658 (Simulation time: 0 hr 15 min 54 sec) 
Warmup complete CPU 3 instructions: 50000003 cycles: 15187658 (Simulation time: 0 hr 15 min 54 sec) 

Heartbeat CPU 1 instructions: 60000002 cycles: 40734619 heartbeat IPC: 0.391434 cumulative IPC: 0.391422 (Simulation time: 0 hr 20 min 59 sec) 
Heartbeat CPU 3 instructions: 60000002 cycles: 40762188 heartbeat IPC: 0.391014 cumulative IPC: 0.391014 (Simulation time: 0 hr 20 min 59 sec) 
Heartbeat CPU 0 instructions: 60000002 cycles: 40798968 heartbeat IPC: 0.390447 cumulative IPC: 0.390406 (Simulation time: 0 hr 20 min 59 sec) 
Heartbeat CPU 2 instructions: 60000002 cycles: 40841028 heartbeat IPC: 0.38981 cumulative IPC: 0.389791 (Simulation time: 0 hr 21 min 0 sec) 
Heartbeat CPU 1 instructions: 70000000 cycles: 56745603 heartbeat IPC: 0.624571 cumulative IPC: 0.481247 (Simulation time: 0 hr 24 min 34 sec) 
Heartbeat CPU 3 instructions: 70000000 cycles: 56773176 heartbeat IPC: 0.624571 cumulative IPC: 0.480937 (Simulation time: 0 hr 24 min 34 sec) 
Heartbeat CPU 0 instructions: 70000000 cycles: 56809977 heartbeat IPC: 0.62457 cumulative IPC: 0.480483 (Simulation time: 0 hr 24 min 35 sec) 
Heartbeat CPU 2 instructions: 70000000 cycles: 56852036 heartbeat IPC: 0.62457 cumulative IPC: 0.480013 (Simulation time: 0 hr 24 min 35 sec) 
Heartbeat CPU 1 instructions: 80000000 cycles: 72751137 heartbeat IPC: 0.624784 cumulative IPC: 0.521158 (Simulation time: 0 hr 28 min 22 sec) 
Heartbeat CPU 3 instructions: 80000000 cycles: 72779148 heartbeat IPC: 0.624767 cumulative IPC: 0.52091 (Simulation time: 0 hr 28 min 22 sec) 
Heartbeat CPU 0 instructions: 80000000 cycles: 72815005 heartbeat IPC: 0.624804 cumulative IPC: 0.520566 (Simulation time: 0 hr 28 min 22 sec) 
Heartbeat CPU 2 instructions: 80000000 cycles: 72857231 heartbeat IPC: 0.624797 cumulative IPC: 0.520196 (Simulation time: 0 hr 28 min 23 sec) 
Heartbeat CPU 1 instructions: 90000000 cycles: 88753124 heartbeat IPC: 0.624922 cumulative IPC: 0.543729 (Simulation time: 0 hr 32 min 14 sec) 
Heartbeat CPU 3 instructions: 90000000 cycles: 88781543 heartbeat IPC: 0.624906 cumulative IPC: 0.543523 (Simulation time: 0 hr 32 min 15 sec) 
Heartbeat CPU 0 instructions: 90000000 cycles: 88815835 heartbeat IPC: 0.624968 cumulative IPC: 0.543254 (Simulation time: 0 hr 32 min 15 sec) 
Heartbeat CPU 2 instructions: 90000000 cycles: 88858982 heartbeat IPC: 0.624932 cumulative IPC: 0.542945 (Simulation time: 0 hr 32 min 15 sec) 
Heartbeat CPU 1 instructions: 100000000 cycles: 104746032 heartbeat IPC: 0.625277 cumulative IPC: 0.558291 (Simulation time: 0 hr 35 min 59 sec) 
Heartbeat CPU 3 instructions: 100000000 cycles: 104774147 heartbeat IPC: 0.625289 cumulative IPC: 0.55812 (Simulation time: 0 hr 36 min 0 sec) 
Heartbeat CPU 0 instructions: 100000000 cycles: 104807933 heartbeat IPC: 0.625309 cumulative IPC: 0.557896 (Simulation time: 0 hr 36 min 1 sec) 
Heartbeat CPU 2 instructions: 100000000 cycles: 104850449 heartbeat IPC: 0.625333 cumulative IPC: 0.557639 (Simulation time: 0 hr 36 min 1 sec) 
Heartbeat CPU 1 instructions: 110000000 cycles: 120745985 heartbeat IPC: 0.625002 cumulative IPC: 0.568403 (Simulation time: 0 hr 39 min 50 sec) 
Heartbeat CPU 3 instructions: 110000000 cycles: 120773320 heartbeat IPC: 0.625032 cumulative IPC: 0.568259 (Simulation time: 0 hr 39 min 50 sec) 
Heartbeat CPU 0 instructions: 110000000 cycles: 120806749 heartbeat IPC: 0.625046 cumulative IPC: 0.568068 (Simulation time: 0 hr 39 min 51 sec) 
Heartbeat CPU 2 instructions: 110000000 cycles: 120849438 heartbeat IPC: 0.62504 cumulative IPC: 0.567844 (Simulation time: 0 hr 39 min 51 sec) 
Heartbeat CPU 3 instructions: 120000001 cycles: 141774395 heartbeat IPC: 0.476166 cumulative IPC: 0.55298 (Simulation time: 0 hr 44 min 24 sec) 
Heartbeat CPU 1 instructions: 120000001 cycles: 141802629 heartbeat IPC: 0.47491 cumulative IPC: 0.552854 (Simulation time: 0 hr 44 min 24 sec) 
Heartbeat CPU 0 instructions: 120000001 cycles: 142184643 heartbeat IPC: 0.467773 cumulative IPC: 0.551185 (Simulation time: 0 hr 44 min 29 sec) 
Heartbeat CPU 2 instructions: 120000001 cycles: 142371097 heartbeat IPC: 0.464648 cumulative IPC: 0.550382 (Simulation time: 0 hr 44 min 31 sec) 
Heartbeat CPU 1 instructions: 130000002 cycles: 177219546 heartbeat IPC: 0.282351 cumulative IPC: 0.493728 (Simulation time: 0 hr 51 min 0 sec) 
Heartbeat CPU 3 instructions: 130000002 cycles: 177220258 heartbeat IPC: 0.28212 cumulative IPC: 0.493728 (Simulation time: 0 hr 51 min 0 sec) 
Heartbeat CPU 0 instructions: 130000002 cycles: 177304293 heartbeat IPC: 0.284741 cumulative IPC: 0.493465 (Simulation time: 0 hr 51 min 1 sec) 
Heartbeat CPU 2 instructions: 130000002 cycles: 177429160 heartbeat IPC: 0.285241 cumulative IPC: 0.493089 (Simulation time: 0 hr 51 min 3 sec) 
Heartbeat CPU 1 instructions: 140000000 cycles: 193216816 heartbeat IPC: 0.625107 cumulative IPC: 0.505533 (Simulation time: 0 hr 54 min 45 sec) 
Heartbeat CPU 3 instructions: 140000000 cycles: 193216918 heartbeat IPC: 0.62513 cumulative IPC: 0.505535 (Simulation time: 0 hr 54 min 45 sec) 
Heartbeat CPU 0 instructions: 140000000 cycles: 193301120 heartbeat IPC: 0.625124 cumulative IPC: 0.505289 (Simulation time: 0 hr 54 min 46 sec) 
Heartbeat CPU 2 instructions: 140000000 cycles: 193425776 heartbeat IPC: 0.625132 cumulative IPC: 0.504939 (Simulation time: 0 hr 54 min 48 sec) 
Heartbeat CPU 1 instructions: 150000000 cycles: 209221263 heartbeat IPC: 0.624826 cumulative IPC: 0.515373 (Simulation time: 0 hr 58 min 22 sec) 
Heartbeat CPU 3 instructions: 150000000 cycles: 209221327 heartbeat IPC: 0.624828 cumulative IPC: 0.515374 (Simulation time: 0 hr 58 min 22 sec) 
Heartbeat CPU 0 instructions: 150000000 cycles: 209305047 heartbeat IPC: 0.624847 cumulative IPC: 0.515146 (Simulation time: 0 hr 58 min 23 sec) 
Heartbeat CPU 2 instructions: 150000000 cycles: 209429763 heartbeat IPC: 0.624844 cumulative IPC: 0.514819 (Simulation time: 0 hr 58 min 25 sec) 
Heartbeat CPU 1 instructions: 160000001 cycles: 225223552 heartbeat IPC: 0.624911 cumulative IPC: 0.523718 (Simulation time: 1 hr 2 min 2 sec) 
Heartbeat CPU 3 instructions: 160000001 cycles: 225223754 heartbeat IPC: 0.624905 cumulative IPC: 0.523719 (Simulation time: 1 hr 2 min 2 sec) 
Heartbeat CPU 0 instructions: 160000001 cycles: 225306876 heartbeat IPC: 0.624929 cumulative IPC: 0.523507 (Simulation time: 1 hr 2 min 3 sec) 
Heartbeat CPU 2 instructions: 160000001 cycles: 225432902 heartbeat IPC: 0.624877 cumulative IPC: 0.523196 (Simulation time: 1 hr 2 min 4 sec) 
Heartbeat CPU 1 instructions: 170000000 cycles: 241218396 heartbeat IPC: 0.625201 cumulative IPC: 0.5309 (Simulation time: 1 hr 5 min 57 sec) 
Heartbeat CPU 3 instructions: 170000000 cycles: 241218447 heartbeat IPC: 0.625207 cumulative IPC: 0.530901 (Simulation time: 1 hr 5 min 57 sec) 
Heartbeat CPU 0 instructions: 170000000 cycles: 241301337 heartbeat IPC: 0.625216 cumulative IPC: 0.530701 (Simulation time: 1 hr 5 min 58 sec) 
Heartbeat CPU 2 instructions: 170000000 cycles: 241426909 heartbeat IPC: 0.625234 cumulative IPC: 0.53041 (Simulation time: 1 hr 6 min 0 sec) 
Heartbeat CPU 1 instructions: 180000002 cycles: 257216575 heartbeat IPC: 0.625071 cumulative IPC: 0.537124 (Simulation time: 1 hr 9 min 57 sec) 
Heartbeat CPU 3 instructions: 180000002 cycles: 257216626 heartbeat IPC: 0.625071 cumulative IPC: 0.537126 (Simulation time: 1 hr 9 min 57 sec) 
Heartbeat CPU 0 instructions: 180000002 cycles: 257299726 heartbeat IPC: 0.625063 cumulative IPC: 0.536937 (Simulation time: 1 hr 9 min 58 sec) 
Heartbeat CPU 2 instructions: 180000002 cycles: 257424532 heartbeat IPC: 0.625093 cumulative IPC: 0.536663 (Simulation time: 1 hr 10 min 0 sec) 
Heartbeat CPU 3 instructions: 190000002 cycles: 273218650 heartbeat IPC: 0.624921 cumulative IPC: 0.54257 (Simulation time: 1 hr 13 min 56 sec) 
Heartbeat CPU 1 instructions: 190000002 cycles: 273218752 heartbeat IPC: 0.624915 cumulative IPC: 0.542569 (Simulation time: 1 hr 13 min 56 sec) 
Heartbeat CPU 0 instructions: 190000002 cycles: 273301006 heartbeat IPC: 0.62495 cumulative IPC: 0.542393 (Simulation time: 1 hr 13 min 57 sec) 
Heartbeat CPU 2 instructions: 190000002 cycles: 273426135 heartbeat IPC: 0.624937 cumulative IPC: 0.542132 (Simulation time: 1 hr 13 min 59 sec) 
Heartbeat CPU 3 instructions: 200000001 cycles: 306656981 heartbeat IPC: 0.299058 cumulative IPC: 0.514634 (Simulation time: 1 hr 22 min 1 sec) 
Heartbeat CPU 1 instructions: 200000001 cycles: 306664487 heartbeat IPC: 0.298992 cumulative IPC: 0.514619 (Simulation time: 1 hr 22 min 1 sec) 
Heartbeat CPU 0 instructions: 200000001 cycles: 306725917 heartbeat IPC: 0.299178 cumulative IPC: 0.514508 (Simulation time: 1 hr 22 min 2 sec) 
Heartbeat CPU 2 instructions: 200000001 cycles: 307037395 heartbeat IPC: 0.297519 cumulative IPC: 0.513961 (Simulation time: 1 hr 22 min 5 sec) 
Heartbeat CPU 1 instructions: 210000001 cycles: 329197352 heartbeat IPC: 0.443796 cumulative IPC: 0.509537 (Simulation time: 1 hr 26 min 48 sec) 
Heartbeat CPU 3 instructions: 210000001 cycles: 329197454 heartbeat IPC: 0.443646 cumulative IPC: 0.509538 (Simulation time: 1 hr 26 min 48 sec) 
Heartbeat CPU 0 instructions: 210000001 cycles: 329210560 heartbeat IPC: 0.444748 cumulative IPC: 0.509513 (Simulation time: 1 hr 26 min 48 sec) 
Heartbeat CPU 2 instructions: 210000001 cycles: 329323018 heartbeat IPC: 0.44872 cumulative IPC: 0.509333 (Simulation time: 1 hr 26 min 50 sec) 
Heartbeat CPU 1 instructions: 220000000 cycles: 345194597 heartbeat IPC: 0.625108 cumulative IPC: 0.51514 (Simulation time: 1 hr 30 min 45 sec) 
Heartbeat CPU 3 instructions: 220000000 cycles: 345194699 heartbeat IPC: 0.625108 cumulative IPC: 0.515141 (Simulation time: 1 hr 30 min 45 sec) 
Heartbeat CPU 0 instructions: 220000000 cycles: 345207366 heartbeat IPC: 0.625125 cumulative IPC: 0.515117 (Simulation time: 1 hr 30 min 45 sec) 
Heartbeat CPU 2 instructions: 220000000 cycles: 345319761 heartbeat IPC: 0.625127 cumulative IPC: 0.514944 (Simulation time: 1 hr 30 min 47 sec) 
Heartbeat CPU 1 instructions: 230000000 cycles: 361196694 heartbeat IPC: 0.624918 cumulative IPC: 0.520217 (Simulation time: 1 hr 34 min 54 sec) 
Heartbeat CPU 3 instructions: 230000000 cycles: 361197904 heartbeat IPC: 0.624875 cumulative IPC: 0.520216 (Simulation time: 1 hr 34 min 54 sec) 
Heartbeat CPU 0 instructions: 230000000 cycles: 361209854 heartbeat IPC: 0.624903 cumulative IPC: 0.520194 (Simulation time: 1 hr 34 min 54 sec) 
Heartbeat CPU 2 instructions: 230000000 cycles: 361322188 heartbeat IPC: 0.624905 cumulative IPC: 0.520027 (Simulation time: 1 hr 34 min 56 sec) 
Heartbeat CPU 1 instructions: 240000001 cycles: 377198615 heartbeat IPC: 0.624925 cumulative IPC: 0.524845 (Simulation time: 1 hr 38 min 38 sec) 
Heartbeat CPU 3 instructions: 240000001 cycles: 377200797 heartbeat IPC: 0.624887 cumulative IPC: 0.524843 (Simulation time: 1 hr 38 min 38 sec) 
Heartbeat CPU 0 instructions: 240000001 cycles: 377212186 heartbeat IPC: 0.624909 cumulative IPC: 0.524823 (Simulation time: 1 hr 38 min 38 sec) 
Heartbeat CPU 2 instructions: 240000001 cycles: 377324083 heartbeat IPC: 0.624926 cumulative IPC: 0.524663 (Simulation time: 1 hr 38 min 39 sec) 
Heartbeat CPU 1 instructions: 250000003 cycles: 393189897 heartbeat IPC: 0.625341 cumulative IPC: 0.529096 (Simulation time: 1 hr 42 min 26 sec) 
Finished CPU 1 instructions: 200000000 cycles: 378002789 cumulative IPC: 0.529097 (Simulation time: 1 hr 42 min 26 sec) 
Heartbeat CPU 3 instructions: 250000003 cycles: 393191257 heartbeat IPC: 0.625373 cumulative IPC: 0.529095 (Simulation time: 1 hr 42 min 26 sec) 
Finished CPU 3 instructions: 200000000 cycles: 378003599 cumulative IPC: 0.529096 (Simulation time: 1 hr 42 min 26 sec) 
Heartbeat CPU 0 instructions: 250000003 cycles: 393203735 heartbeat IPC: 0.62533 cumulative IPC: 0.529075 (Simulation time: 1 hr 42 min 26 sec) 
Finished CPU 0 instructions: 200000002 cycles: 378018028 cumulative IPC: 0.529075 (Simulation time: 1 hr 42 min 26 sec) 
Heartbeat CPU 2 instructions: 250000003 cycles: 393314237 heartbeat IPC: 0.625385 cumulative IPC: 0.528922 (Simulation time: 1 hr 42 min 28 sec) 
Finished CPU 2 instructions: 200000003 cycles: 378127436 cumulative IPC: 0.528922 (Simulation time: 1 hr 42 min 28 sec) 

ChampSim completed all CPUs

Total Simulation Statistics (not including warmup)

CPU 0 cumulative IPC: 0.529097 instructions: 200066154 cycles: 378127436
ITLB TOTAL     ACCESS:   33945608  HIT:   33945606  MISS:          2  HIT %:        100  MISS %: 5.89178e-06   MPKI: 9.99669e-06
ITLB LOAD      ACCESS:          0  HIT:          0  MISS:          0  HIT %:       -nan  MISS %:       -nan   MPKI: 0
ITLB RFO       ACCESS:          0  HIT:          0  MISS:          0  HIT %:       -nan  MISS %:       -nan   MPKI: 0
ITLB PREFETCH  ACCESS:          0  HIT:          0  MISS:          0  HIT %:       -nan  MISS %:       -nan   MPKI: 0
ITLB WRITEBACK ACCESS:          0  HIT:          0  MISS:          0  HIT %:       -nan  MISS %:       -nan   MPKI: 0
DTLB TOTAL     ACCESS:   53854987  HIT:   53825098  MISS:      29889  HIT %:    99.9445  MISS %:   0.055499   MPKI: 0.149396
DTLB LOAD      ACCESS:          0  HIT:          0  MISS:          0  HIT %:       -nan  MISS %:       -nan   MPKI: 0
DTLB RFO       ACCESS:          0  HIT:          0  MISS:          0  HIT %:       -nan  MISS %:       -nan   MPKI: 0
DTLB PREFETCH  ACCESS:          0  HIT:          0  MISS:          0  HIT %:       -nan  MISS %:       -nan   MPKI: 0
DTLB WRITEBACK ACCESS:          0  HIT:          0  MISS:          0  HIT %:       -nan  MISS %:       -nan   MPKI: 0
STLB TOTAL     ACCESS:    5067239  HIT:    5038088  MISS:      29151  HIT %:    99.4247  MISS %:   0.575284   MPKI: 0.145707
STLB LOAD      ACCESS:          0  HIT:          0  MISS:          0  HIT %:       -nan  MISS %:       -nan   MPKI: 0
STLB RFO       ACCESS:          0  HIT:          0  MISS:          0  HIT %:       -nan  MISS %:       -nan   MPKI: 0
STLB PREFETCH  ACCESS:          0  HIT:          0  MISS:          0  HIT %:       -nan  MISS %:       -nan   MPKI: 0
STLB WRITEBACK ACCESS:          0  HIT:          0  MISS:          0  HIT %:       -nan  MISS %:       -nan   MPKI: 0
L1D TOTAL     ACCESS:   76209150  HIT:   74960638  MISS:    1248512  HIT %:    98.3617  MISS %:    1.63827   MPKI: 6.2405
L1D LOAD      ACCESS:   37759500  HIT:   37552293  MISS:     207207  HIT %:    99.4512  MISS %:   0.548755   MPKI: 1.03569
L1D RFO       ACCESS:   21511846  HIT:   21093439  MISS:     418407  HIT %:     98.055  MISS %:    1.94501   MPKI: 2.09134
L1D PREFETCH  ACCESS:   16937804  HIT:   16314906  MISS:     622898  HIT %:    96.3224  MISS %:    3.67756   MPKI: 3.11346
L1D WRITEBACK ACCESS:          0  HIT:          0  MISS:          0  HIT %:       -nan  MISS %:       -nan   MPKI: 0
L1I TOTAL     ACCESS:   43069993  HIT:   43069957  MISS:         36  HIT %:    99.9999  MISS %: 8.35849e-05   MPKI: 0.00017994
L1I LOAD      ACCESS:   43069993  HIT:   43069957  MISS:         36  HIT %:    99.9999  MISS %: 8.35849e-05   MPKI: 0.00017994
L1I RFO       ACCESS:          0  HIT:          0  MISS:          0  HIT %:       -nan  MISS %:       -nan   MPKI: 0
L1I PREFETCH  ACCESS:          0  HIT:          0  MISS:          0  HIT %:       -nan  MISS %:       -nan   MPKI: 0
L1I WRITEBACK ACCESS:          0  HIT:          0  MISS:          0  HIT %:       -nan  MISS %:       -nan   MPKI: 0
L2C TOTAL     ACCESS:    5911933  HIT:    4571197  MISS:    1340736  HIT %:    77.3215  MISS %:    22.6785   MPKI: 6.70146
L2C LOAD      ACCESS:     143618  HIT:     102251  MISS:      41367  HIT %:    71.1965  MISS %:    28.8035   MPKI: 0.206767
L2C RFO       ACCESS:     418407  HIT:          0  MISS:     418407  HIT %:          0  MISS %:        100   MPKI: 2.09134
L2C PREFETCH  ACCESS:    4866044  HIT:    4061064  MISS:     804980  HIT %:    83.4572  MISS %:    16.5428   MPKI: 4.02357
L2C WRITEBACK ACCESS:     418305  HIT:     348597  MISS:      69708  HIT %:    83.3356  MISS %:    16.6644   MPKI: 0.348425
PSCL5 TOTAL     ACCESS:      61102  HIT:      61102  MISS:          0  HIT %:        100  MISS %:          0   MPKI: 0
PSCL5 LOAD      ACCESS:          0  HIT:          0  MISS:          0  HIT %:       -nan  MISS %:       -nan   MPKI: 0
PSCL5 RFO       ACCESS:          0  HIT:          0  MISS:          0  HIT %:       -nan  MISS %:       -nan   MPKI: 0
PSCL5 PREFETCH  ACCESS:          0  HIT:          0  MISS:          0  HIT %:       -nan  MISS %:       -nan   MPKI: 0
PSCL5 WRITEBACK ACCESS:          0  HIT:          0  MISS:          0  HIT %:       -nan  MISS %:       -nan   MPKI: 0
PSCL4 TOTAL     ACCESS:      61102  HIT:      61102  MISS:          0  HIT %:        100  MISS %:          0   MPKI: 0
PSCL4 LOAD      ACCESS:          0  HIT:          0  MISS:          0  HIT %:       -nan  MISS %:       -nan   MPKI: 0
PSCL4 RFO       ACCESS:          0  HIT:          0  MISS:          0  HIT %:       -nan  MISS %:       -nan   MPKI: 0
PSCL4 PREFETCH  ACCESS:          0  HIT:          0  MISS:          0  HIT %:       -nan  MISS %:       -nan   MPKI: 0
PSCL4 WRITEBACK ACCESS:          0  HIT:          0  MISS:          0  HIT %:       -nan  MISS %:       -nan   MPKI: 0
PSCL3 TOTAL     ACCESS:      60761  HIT:      60750  MISS:         11  HIT %:    99.9819  MISS %:  0.0181037   MPKI: 5.49818e-05
PSCL3 LOAD      ACCESS:          0  HIT:          0  MISS:          0  HIT %:       -nan  MISS %:       -nan   MPKI: 0
PSCL3 RFO       ACCESS:          0  HIT:          0  MISS:          0  HIT %:       -nan  MISS %:       -nan   MPKI: 0
PSCL3 PREFETCH  ACCESS:          0  HIT:          0  MISS:          0  HIT %:       -nan  MISS %:       -nan   MPKI: 0
PSCL3 WRITEBACK ACCESS:          0  HIT:          0  MISS:          0  HIT %:       -nan  MISS %:       -nan   MPKI: 0
PSCL2 TOTAL     ACCESS:      56714  HIT:      56586  MISS:        128  HIT %:    99.7743  MISS %:   0.225694   MPKI: 0.000639788
PSCL2 LOAD      ACCESS:          0  HIT:          0  MISS:          0  HIT %:       -nan  MISS %:       -nan   MPKI: 0
PSCL2 RFO       ACCESS:          0  HIT:          0  MISS:          0  HIT %:       -nan  MISS %:       -nan   MPKI: 0
PSCL2 PREFETCH  ACCESS:          0  HIT:          0  MISS:          0  HIT %:       -nan  MISS %:       -nan   MPKI: 0
PSCL2 WRITEBACK ACCESS:          0  HIT:          0  MISS:          0  HIT %:       -nan  MISS %:       -nan   MPKI: 0
LLC TOTAL     ACCESS:    1689323  HIT:     402778  MISS:    1286545  HIT %:    23.8426  MISS %:    76.1574   MPKI: 6.4306
LLC LOAD      ACCESS:      22306  HIT:         56  MISS:      22250  HIT %:   0.251054  MISS %:    99.7489   MPKI: 0.111213
LLC RFO       ACCESS:     418407  HIT:          0  MISS:     418407  HIT %:          0  MISS %:        100   MPKI: 2.09134
LLC PREFETCH  ACCESS:     824041  HIT:        173  MISS:     823868  HIT %:  0.0209941  MISS %:     99.979   MPKI: 4.11798
LLC WRITEBACK ACCESS:     418295  HIT:     402421  MISS:      15874  HIT %:    96.2051  MISS %:    3.79493   MPKI: 0.0793438

RAW hits: 6765940
Loads Generated: 54581612
Loads sent to L1D: 47815671
Stores Generated: 25061265
Stores sent to L1D: 25061265

CPU 1 cumulative IPC: 0.529121 instructions: 200075300 cycles: 378127436
ITLB TOTAL     ACCESS:   33946875  HIT:   33946873  MISS:          2  HIT %:        100  MISS %: 5.89156e-06   MPKI: 9.99624e-06
ITLB LOAD      ACCESS:          0  HIT:          0  MISS:          0  HIT %:       -nan  MISS %:       -nan   MPKI: 0
ITLB RFO       ACCESS:          0  HIT:          0  MISS:          0  HIT %:       -nan  MISS %:       -nan   MPKI: 0
ITLB PREFETCH  ACCESS:          0  HIT:          0  MISS:          0  HIT %:       -nan  MISS %:       -nan   MPKI: 0
ITLB WRITEBACK ACCESS:          0  HIT:          0  MISS:          0  HIT %:       -nan  MISS %:       -nan   MPKI: 0
DTLB TOTAL     ACCESS:   53859016  HIT:   53829106  MISS:      29910  HIT %:    99.9445  MISS %:  0.0555339   MPKI: 0.149494
DTLB LOAD      ACCESS:          0  HIT:          0  MISS:          0  HIT %:       -nan  MISS %:       -nan   MPKI: 0
DTLB RFO       ACCESS:          0  HIT:          0  MISS:          0  HIT %:       -nan  MISS %:       -nan   MPKI: 0
DTLB PREFETCH  ACCESS:          0  HIT:          0  MISS:          0  HIT %:       -nan  MISS %:       -nan   MPKI: 0
DTLB WRITEBACK ACCESS:          0  HIT:          0  MISS:          0  HIT %:       -nan  MISS %:       -nan   MPKI: 0
STLB TOTAL     ACCESS:    4886519  HIT:    4857368  MISS:      29151  HIT %:    99.4034  MISS %:    0.59656   MPKI: 0.1457
STLB LOAD      ACCESS:          0  HIT:          0  MISS:          0  HIT %:       -nan  MISS %:       -nan   MPKI: 0
STLB RFO       ACCESS:          0  HIT:          0  MISS:          0  HIT %:       -nan  MISS %:       -nan   MPKI: 0
STLB PREFETCH  ACCESS:          0  HIT:          0  MISS:          0  HIT %:       -nan  MISS %:       -nan   MPKI: 0
STLB WRITEBACK ACCESS:          0  HIT:          0  MISS:          0  HIT %:       -nan  MISS %:       -nan   MPKI: 0
L1D TOTAL     ACCESS:   76232165  HIT:   74983615  MISS:    1248550  HIT %:    98.3622  MISS %:    1.63783   MPKI: 6.2404
L1D LOAD      ACCESS:   37761893  HIT:   37554780  MISS:     207113  HIT %:    99.4515  MISS %:   0.548471   MPKI: 1.03518
L1D RFO       ACCESS:   21512465  HIT:   21094043  MISS:     418422  HIT %:     98.055  MISS %:    1.94502   MPKI: 2.09132
L1D PREFETCH  ACCESS:   16957807  HIT:   16334792  MISS:     623015  HIT %:    96.3261  MISS %:    3.67391   MPKI: 3.1139
L1D WRITEBACK ACCESS:          0  HIT:          0  MISS:          0  HIT %:       -nan  MISS %:       -nan   MPKI: 0
L1I TOTAL     ACCESS:   43071535  HIT:   43071499  MISS:         36  HIT %:    99.9999  MISS %: 8.35819e-05   MPKI: 0.000179932
L1I LOAD      ACCESS:   43071535  HIT:   43071499  MISS:         36  HIT %:    99.9999  MISS %: 8.35819e-05   MPKI: 0.000179932
L1I RFO       ACCESS:          0  HIT:          0  MISS:          0  HIT %:       -nan  MISS %:       -nan   MPKI: 0
L1I PREFETCH  ACCESS:          0  HIT:          0  MISS:          0  HIT %:       -nan  MISS %:       -nan   MPKI: 0
L1I WRITEBACK ACCESS:          0  HIT:          0  MISS:          0  HIT %:       -nan  MISS %:       -nan   MPKI: 0
L2C TOTAL     ACCESS:    5710971  HIT:    4371948  MISS:    1339023  HIT %:    76.5535  MISS %:    23.4465   MPKI: 6.6926
L2C LOAD      ACCESS:     143938  HIT:     102592  MISS:      41346  HIT %:    71.2751  MISS %:    28.7249   MPKI: 0.206652
L2C RFO       ACCESS:     418422  HIT:          0  MISS:     418422  HIT %:          0  MISS %:        100   MPKI: 2.09132
L2C PREFETCH  ACCESS:    4671762  HIT:    3866694  MISS:     805068  HIT %:    82.7674  MISS %:    17.2326   MPKI: 4.02383
L2C WRITEBACK ACCESS:     418323  HIT:     350377  MISS:      67946  HIT %:    83.7575  MISS %:    16.2425   MPKI: 0.339602
PSCL5 TOTAL     ACCESS:      57708  HIT:      57708  MISS:          0  HIT %:        100  MISS %:          0   MPKI: 0
PSCL5 LOAD      ACCESS:          0  HIT:          0  MISS:          0  HIT %:       -nan  MISS %:       -nan   MPKI: 0
PSCL5 RFO       ACCESS:          0  HIT:          0  MISS:          0  HIT %:       -nan  MISS %:       -nan   MPKI: 0
PSCL5 PREFETCH  ACCESS:          0  HIT:          0  MISS:          0  HIT %:       -nan  MISS %:       -nan   MPKI: 0
PSCL5 WRITEBACK ACCESS:          0  HIT:          0  MISS:          0  HIT %:       -nan  MISS %:       -nan   MPKI: 0
PSCL4 TOTAL     ACCESS:      57708  HIT:      57708  MISS:          0  HIT %:        100  MISS %:          0   MPKI: 0
PSCL4 LOAD      ACCESS:          0  HIT:          0  MISS:          0  HIT %:       -nan  MISS %:       -nan   MPKI: 0
PSCL4 RFO       ACCESS:          0  HIT:          0  MISS:          0  HIT %:       -nan  MISS %:       -nan   MPKI: 0
PSCL4 PREFETCH  ACCESS:          0  HIT:          0  MISS:          0  HIT %:       -nan  MISS %:       -nan   MPKI: 0
PSCL4 WRITEBACK ACCESS:          0  HIT:          0  MISS:          0  HIT %:       -nan  MISS %:       -nan   MPKI: 0
PSCL3 TOTAL     ACCESS:      57215  HIT:      57209  MISS:          6  HIT %:    99.9895  MISS %:  0.0104868   MPKI: 2.99887e-05
PSCL3 LOAD      ACCESS:          0  HIT:          0  MISS:          0  HIT %:       -nan  MISS %:       -nan   MPKI: 0
PSCL3 RFO       ACCESS:          0  HIT:          0  MISS:          0  HIT %:       -nan  MISS %:       -nan   MPKI: 0
PSCL3 PREFETCH  ACCESS:          0  HIT:          0  MISS:          0  HIT %:       -nan  MISS %:       -nan   MPKI: 0
PSCL3 WRITEBACK ACCESS:          0  HIT:          0  MISS:          0  HIT %:       -nan  MISS %:       -nan   MPKI: 0
PSCL2 TOTAL     ACCESS:      56961  HIT:      56833  MISS:        128  HIT %:    99.7753  MISS %:   0.224715   MPKI: 0.000639759
PSCL2 LOAD      ACCESS:          0  HIT:          0  MISS:          0  HIT %:       -nan  MISS %:       -nan   MPKI: 0
PSCL2 RFO       ACCESS:          0  HIT:          0  MISS:          0  HIT %:       -nan  MISS %:       -nan   MPKI: 0
PSCL2 PREFETCH  ACCESS:          0  HIT:          0  MISS:          0  HIT %:       -nan  MISS %:       -nan   MPKI: 0
PSCL2 WRITEBACK ACCESS:          0  HIT:          0  MISS:          0  HIT %:       -nan  MISS %:       -nan   MPKI: 0
LLC TOTAL     ACCESS:    1689289  HIT:     403061  MISS:    1286228  HIT %:    23.8598  MISS %:    76.1402   MPKI: 6.42872
LLC LOAD      ACCESS:      22165  HIT:         61  MISS:      22104  HIT %:   0.275209  MISS %:    99.7248   MPKI: 0.110478
LLC RFO       ACCESS:     418422  HIT:          0  MISS:     418422  HIT %:          0  MISS %:        100   MPKI: 2.09132
LLC PREFETCH  ACCESS:     824249  HIT:        189  MISS:     824060  HIT %:    0.02293  MISS %:    99.9771   MPKI: 4.11875
LLC WRITEBACK ACCESS:     418212  HIT:     402713  MISS:      15499  HIT %:     96.294  MISS %:    3.70602   MPKI: 0.0774658

RAW hits: 6766284
Loads Generated: 54584086
Loads sent to L1D: 47817802
Stores Generated: 25062372
Stores sent to L1D: 25062376

CPU 2 cumulative IPC: 0.528922 instructions: 200000003 cycles: 378127436
ITLB TOTAL     ACCESS:   33935404  HIT:   33935402  MISS:          2  HIT %:        100  MISS %: 5.89355e-06   MPKI: 1e-05
ITLB LOAD      ACCESS:          0  HIT:          0  MISS:          0  HIT %:       -nan  MISS %:       -nan   MPKI: 0
ITLB RFO       ACCESS:          0  HIT:          0  MISS:          0  HIT %:       -nan  MISS %:       -nan   MPKI: 0
ITLB PREFETCH  ACCESS:          0  HIT:          0  MISS:          0  HIT %:       -nan  MISS %:       -nan   MPKI: 0
ITLB WRITEBACK ACCESS:          0  HIT:          0  MISS:          0  HIT %:       -nan  MISS %:       -nan   MPKI: 0
DTLB TOTAL     ACCESS:   53837279  HIT:   53807377  MISS:      29902  HIT %:    99.9445  MISS %:  0.0555414   MPKI: 0.14951
DTLB LOAD      ACCESS:          0  HIT:          0  MISS:          0  HIT %:       -nan  MISS %:       -nan   MPKI: 0
DTLB RFO       ACCESS:          0  HIT:          0  MISS:          0  HIT %:       -nan  MISS %:       -nan   MPKI: 0
DTLB PREFETCH  ACCESS:          0  HIT:          0  MISS:          0  HIT %:       -nan  MISS %:       -nan   MPKI: 0
DTLB WRITEBACK ACCESS:          0  HIT:          0  MISS:          0  HIT %:       -nan  MISS %:       -nan   MPKI: 0
STLB TOTAL     ACCESS:    5073377  HIT:    5044230  MISS:      29147  HIT %:    99.4255  MISS %:   0.574509   MPKI: 0.145735
STLB LOAD      ACCESS:          0  HIT:          0  MISS:          0  HIT %:       -nan  MISS %:       -nan   MPKI: 0
STLB RFO       ACCESS:          0  HIT:          0  MISS:          0  HIT %:       -nan  MISS %:       -nan   MPKI: 0
STLB PREFETCH  ACCESS:          0  HIT:          0  MISS:          0  HIT %:       -nan  MISS %:       -nan   MPKI: 0
STLB WRITEBACK ACCESS:          0  HIT:          0  MISS:          0  HIT %:       -nan  MISS %:       -nan   MPKI: 0
L1D TOTAL     ACCESS:   76350598  HIT:   75102193  MISS:    1248405  HIT %:    98.3649  MISS %:     1.6351   MPKI: 6.24202
L1D LOAD      ACCESS:   37748532  HIT:   37542142  MISS:     206390  HIT %:    99.4533  MISS %:    0.54675   MPKI: 1.03195
L1D RFO       ACCESS:   21505616  HIT:   21087239  MISS:     418377  HIT %:    98.0546  MISS %:    1.94543   MPKI: 2.09188
L1D PREFETCH  ACCESS:   17096450  HIT:   16472812  MISS:     623638  HIT %:    96.3522  MISS %:    3.64776   MPKI: 3.11819
L1D WRITEBACK ACCESS:          0  HIT:          0  MISS:          0  HIT %:       -nan  MISS %:       -nan   MPKI: 0
L1I TOTAL     ACCESS:   43057440  HIT:   43057404  MISS:         36  HIT %:    99.9999  MISS %: 8.36092e-05   MPKI: 0.00018
L1I LOAD      ACCESS:   43057440  HIT:   43057404  MISS:         36  HIT %:    99.9999  MISS %: 8.36092e-05   MPKI: 0.00018
L1I RFO       ACCESS:          0  HIT:          0  MISS:          0  HIT %:       -nan  MISS %:       -nan   MPKI: 0
L1I PREFETCH  ACCESS:          0  HIT:          0  MISS:          0  HIT %:       -nan  MISS %:       -nan   MPKI: 0
L1I WRITEBACK ACCESS:          0  HIT:          0  MISS:          0  HIT %:       -nan  MISS %:       -nan   MPKI: 0
L2C TOTAL     ACCESS:    6105962  HIT:    4764237  MISS:    1341725  HIT %:     78.026  MISS %:     21.974   MPKI: 6.70862
L2C LOAD      ACCESS:     143017  HIT:     101994  MISS:      41023  HIT %:     71.316  MISS %:     28.684   MPKI: 0.205115
L2C RFO       ACCESS:     418377  HIT:          0  MISS:     418377  HIT %:          0  MISS %:        100   MPKI: 2.09188
L2C PREFETCH  ACCESS:    5061363  HIT:    4255742  MISS:     805621  HIT %:    84.0829  MISS %:    15.9171   MPKI: 4.0281
L2C WRITEBACK ACCESS:     418288  HIT:     347844  MISS:      70444  HIT %:     83.159  MISS %:     16.841   MPKI: 0.35222
PSCL5 TOTAL     ACCESS:      60945  HIT:      60945  MISS:          0  HIT %:        100  MISS %:          0   MPKI: 0
PSCL5 LOAD      ACCESS:          0  HIT:          0  MISS:          0  HIT %:       -nan  MISS %:       -nan   MPKI: 0
PSCL5 RFO       ACCESS:          0  HIT:          0  MISS:          0  HIT %:       -nan  MISS %:       -nan   MPKI: 0
PSCL5 PREFETCH  ACCESS:          0  HIT:          0  MISS:          0  HIT %:       -nan  MISS %:       -nan   MPKI: 0
PSCL5 WRITEBACK ACCESS:          0  HIT:          0  MISS:          0  HIT %:       -nan  MISS %:       -nan   MPKI: 0
PSCL4 TOTAL     ACCESS:      60945  HIT:      60945  MISS:          0  HIT %:        100  MISS %:          0   MPKI: 0
PSCL4 LOAD      ACCESS:          0  HIT:          0  MISS:          0  HIT %:       -nan  MISS %:       -nan   MPKI: 0
PSCL4 RFO       ACCESS:          0  HIT:          0  MISS:          0  HIT %:       -nan  MISS %:       -nan   MPKI: 0
PSCL4 PREFETCH  ACCESS:          0  HIT:          0  MISS:          0  HIT %:       -nan  MISS %:       -nan   MPKI: 0
PSCL4 WRITEBACK ACCESS:          0  HIT:          0  MISS:          0  HIT %:       -nan  MISS %:       -nan   MPKI: 0
PSCL3 TOTAL     ACCESS:      60582  HIT:      60571  MISS:         11  HIT %:    99.9818  MISS %:  0.0181572   MPKI: 5.5e-05
PSCL3 LOAD      ACCESS:          0  HIT:          0  MISS:          0  HIT %:       -nan  MISS %:       -nan   MPKI: 0
PSCL3 RFO       ACCESS:          0  HIT:          0  MISS:          0  HIT %:       -nan  MISS %:       -nan   MPKI: 0
PSCL3 PREFETCH  ACCESS:          0  HIT:          0  MISS:          0  HIT %:       -nan  MISS %:       -nan   MPKI: 0
PSCL3 WRITEBACK ACCESS:          0  HIT:          0  MISS:          0  HIT %:       -nan  MISS %:       -nan   MPKI: 0
PSCL2 TOTAL     ACCESS:      57045  HIT:      56917  MISS:        128  HIT %:    99.7756  MISS %:   0.224384   MPKI: 0.00064
PSCL2 LOAD      ACCESS:          0  HIT:          0  MISS:          0  HIT %:       -nan  MISS %:       -nan   MPKI: 0
PSCL2 RFO       ACCESS:          0  HIT:          0  MISS:          0  HIT %:       -nan  MISS %:       -nan   MPKI: 0
PSCL2 PREFETCH  ACCESS:          0  HIT:          0  MISS:          0  HIT %:       -nan  MISS %:       -nan   MPKI: 0
PSCL2 WRITEBACK ACCESS:          0  HIT:          0  MISS:          0  HIT %:       -nan  MISS %:       -nan   MPKI: 0
LLC TOTAL     ACCESS:    1688846  HIT:     396346  MISS:    1292500  HIT %:    23.4685  MISS %:    76.5315   MPKI: 6.4625
LLC LOAD      ACCESS:      22208  HIT:         54  MISS:      22154  HIT %:   0.243156  MISS %:    99.7568   MPKI: 0.11077
LLC RFO       ACCESS:     418377  HIT:          0  MISS:     418377  HIT %:          0  MISS %:        100   MPKI: 2.09188
LLC PREFETCH  ACCESS:     824436  HIT:        235  MISS:     824201  HIT %:  0.0285043  MISS %:    99.9715   MPKI: 4.121
LLC WRITEBACK ACCESS:     417565  HIT:     395938  MISS:      21627  HIT %:    94.8207  MISS %:    5.17931   MPKI: 0.108135

RAW hits: 6763158
Loads Generated: 54564099
Loads sent to L1D: 47800953
Stores Generated: 25053050
Stores sent to L1D: 25053048

CPU 3 cumulative IPC: 0.52912 instructions: 200074866 cycles: 378127436
ITLB TOTAL     ACCESS:   33947395  HIT:   33947393  MISS:          2  HIT %:        100  MISS %: 5.89147e-06   MPKI: 9.99626e-06
ITLB LOAD      ACCESS:          0  HIT:          0  MISS:          0  HIT %:       -nan  MISS %:       -nan   MPKI: 0
ITLB RFO       ACCESS:          0  HIT:          0  MISS:          0  HIT %:       -nan  MISS %:       -nan   MPKI: 0
ITLB PREFETCH  ACCESS:          0  HIT:          0  MISS:          0  HIT %:       -nan  MISS %:       -nan   MPKI: 0
ITLB WRITEBACK ACCESS:          0  HIT:          0  MISS:          0  HIT %:       -nan  MISS %:       -nan   MPKI: 0
DTLB TOTAL     ACCESS:   53855776  HIT:   53825877  MISS:      29899  HIT %:    99.9445  MISS %:  0.0555168   MPKI: 0.149439
DTLB LOAD      ACCESS:          0  HIT:          0  MISS:          0  HIT %:       -nan  MISS %:       -nan   MPKI: 0
DTLB RFO       ACCESS:          0  HIT:          0  MISS:          0  HIT %:       -nan  MISS %:       -nan   MPKI: 0
DTLB PREFETCH  ACCESS:          0  HIT:          0  MISS:          0  HIT %:       -nan  MISS %:       -nan   MPKI: 0
DTLB WRITEBACK ACCESS:          0  HIT:          0  MISS:          0  HIT %:       -nan  MISS %:       -nan   MPKI: 0
STLB TOTAL     ACCESS:    4909256  HIT:    4880106  MISS:      29150  HIT %:    99.4062  MISS %:   0.593776   MPKI: 0.145695
STLB LOAD      ACCESS:          0  HIT:          0  MISS:          0  HIT %:       -nan  MISS %:       -nan   MPKI: 0
STLB RFO       ACCESS:          0  HIT:          0  MISS:          0  HIT %:       -nan  MISS %:       -nan   MPKI: 0
STLB PREFETCH  ACCESS:          0  HIT:          0  MISS:          0  HIT %:       -nan  MISS %:       -nan   MPKI: 0
STLB WRITEBACK ACCESS:          0  HIT:          0  MISS:          0  HIT %:       -nan  MISS %:       -nan   MPKI: 0
L1D TOTAL     ACCESS:   76237343  HIT:   74988675  MISS:    1248668  HIT %:    98.3621  MISS %:    1.63787   MPKI: 6.241
L1D LOAD      ACCESS:   37761701  HIT:   37554321  MISS:     207380  HIT %:    99.4508  MISS %:   0.549181   MPKI: 1.03651
L1D RFO       ACCESS:   21512234  HIT:   21093810  MISS:     418424  HIT %:    98.0549  MISS %:    1.94505   MPKI: 2.09134
L1D PREFETCH  ACCESS:   16963408  HIT:   16340544  MISS:     622864  HIT %:    96.3282  MISS %:    3.67181   MPKI: 3.11315
L1D WRITEBACK ACCESS:          0  HIT:          0  MISS:          0  HIT %:       -nan  MISS %:       -nan   MPKI: 0
L1I TOTAL     ACCESS:   43072679  HIT:   43072643  MISS:         36  HIT %:    99.9999  MISS %: 8.35797e-05   MPKI: 0.000179933
L1I LOAD      ACCESS:   43072679  HIT:   43072643  MISS:         36  HIT %:    99.9999  MISS %: 8.35797e-05   MPKI: 0.000179933
L1I RFO       ACCESS:          0  HIT:          0  MISS:          0  HIT %:       -nan  MISS %:       -nan   MPKI: 0
L1I PREFETCH  ACCESS:          0  HIT:          0  MISS:          0  HIT %:       -nan  MISS %:       -nan   MPKI: 0
L1I WRITEBACK ACCESS:          0  HIT:          0  MISS:          0  HIT %:       -nan  MISS %:       -nan   MPKI: 0
L2C TOTAL     ACCESS:    5726888  HIT:    4385846  MISS:    1341042  HIT %:    76.5834  MISS %:    23.4166   MPKI: 6.7027
L2C LOAD      ACCESS:     144033  HIT:     102596  MISS:      41437  HIT %:    71.2309  MISS %:    28.7691   MPKI: 0.207107
L2C RFO       ACCESS:     418424  HIT:          0  MISS:     418424  HIT %:          0  MISS %:        100   MPKI: 2.09134
L2C PREFETCH  ACCESS:    4688737  HIT:    3883584  MISS:     805153  HIT %:    82.8279  MISS %:    17.1721   MPKI: 4.02426
L2C WRITEBACK ACCESS:     418326  HIT:     348531  MISS:      69795  HIT %:    83.3156  MISS %:    16.6844   MPKI: 0.348844
PSCL5 TOTAL     ACCESS:      57275  HIT:      57275  MISS:          0  HIT %:        100  MISS %:          0   MPKI: 0
PSCL5 LOAD      ACCESS:          0  HIT:          0  MISS:          0  HIT %:       -nan  MISS %:       -nan   MPKI: 0
PSCL5 RFO       ACCESS:          0  HIT:          0  MISS:          0  HIT %:       -nan  MISS %:       -nan   MPKI: 0
PSCL5 PREFETCH  ACCESS:          0  HIT:          0  MISS:          0  HIT %:       -nan  MISS %:       -nan   MPKI: 0
PSCL5 WRITEBACK ACCESS:          0  HIT:          0  MISS:          0  HIT %:       -nan  MISS %:       -nan   MPKI: 0
PSCL4 TOTAL     ACCESS:      57275  HIT:      57275  MISS:          0  HIT %:        100  MISS %:          0   MPKI: 0
PSCL4 LOAD      ACCESS:          0  HIT:          0  MISS:          0  HIT %:       -nan  MISS %:       -nan   MPKI: 0
PSCL4 RFO       ACCESS:          0  HIT:          0  MISS:          0  HIT %:       -nan  MISS %:       -nan   MPKI: 0
PSCL4 PREFETCH  ACCESS:          0  HIT:          0  MISS:          0  HIT %:       -nan  MISS %:       -nan   MPKI: 0
PSCL4 WRITEBACK ACCESS:          0  HIT:          0  MISS:          0  HIT %:       -nan  MISS %:       -nan   MPKI: 0
PSCL3 TOTAL     ACCESS:      56861  HIT:      56855  MISS:          6  HIT %:    99.9894  MISS %:   0.010552   MPKI: 2.99888e-05
PSCL3 LOAD      ACCESS:          0  HIT:          0  MISS:          0  HIT %:       -nan  MISS %:       -nan   MPKI: 0
PSCL3 RFO       ACCESS:          0  HIT:          0  MISS:          0  HIT %:       -nan  MISS %:       -nan   MPKI: 0
PSCL3 PREFETCH  ACCESS:          0  HIT:          0  MISS:          0  HIT %:       -nan  MISS %:       -nan   MPKI: 0
PSCL3 WRITEBACK ACCESS:          0  HIT:          0  MISS:          0  HIT %:       -nan  MISS %:       -nan   MPKI: 0
PSCL2 TOTAL     ACCESS:      57255  HIT:      57127  MISS:        128  HIT %:    99.7764  MISS %:   0.223561   MPKI: 0.000639761
PSCL2 LOAD      ACCESS:          0  HIT:          0  MISS:          0  HIT %:       -nan  MISS %:       -nan   MPKI: 0
PSCL2 RFO       ACCESS:          0  HIT:          0  MISS:          0  HIT %:       -nan  MISS %:       -nan   MPKI: 0
PSCL2 PREFETCH  ACCESS:          0  HIT:          0  MISS:          0  HIT %:       -nan  MISS %:       -nan   MPKI: 0
PSCL2 WRITEBACK ACCESS:          0  HIT:          0  MISS:          0  HIT %:       -nan  MISS %:       -nan   MPKI: 0
LLC TOTAL     ACCESS:    1689517  HIT:     402541  MISS:    1286976  HIT %:    23.8258  MISS %:    76.1742   MPKI: 6.43247
LLC LOAD      ACCESS:      22130  HIT:         69  MISS:      22061  HIT %:   0.311794  MISS %:    99.6882   MPKI: 0.110264
LLC RFO       ACCESS:     418424  HIT:          0  MISS:     418424  HIT %:          0  MISS %:        100   MPKI: 2.09134
LLC PREFETCH  ACCESS:     824460  HIT:        170  MISS:     824290  HIT %:  0.0206196  MISS %:    99.9794   MPKI: 4.11991
LLC WRITEBACK ACCESS:     418270  HIT:     402202  MISS:      16068  HIT %:    96.1585  MISS %:    3.84154   MPKI: 0.0803099

RAW hits: 6766221
Loads Generated: 54583982
Loads sent to L1D: 47817760
Stores Generated: 25062306
Stores sent to L1D: 25062310

Region of Interest Statistics

CPU 0 cumulative IPC: 0.529075 instructions: 200000002 cycles: 378018028
ITLB TOTAL     ACCESS:   33934478  HIT:   33934476  MISS:          2  HIT %:        100  MISS %: 5.89371e-06   MPKI: 1e-05
ITLB LOAD TRANSLATION ACCESS:   33934478  HIT:   33934476  MISS:          2  HIT %:        100  MISS %: 5.89371e-06   MPKI: 1e-05
ITLB PREFETCH  REQUESTED:          0  ISSUED:          0  USEFUL:          0  USELESS:          0
ITLB USEFUL LOAD PREFETCHES:          0 PREFETCH ISSUED TO LOWER LEVEL:          0  ACCURACY: -nan
ITLB TIMELY PREFETCHES:          0 LATE PREFETCHES: 0 DROPPED PREFETCHES: 0
ITLB PREFETCHES SAME FILL-ORIGIN LEVEL: 0 DIFFERENT FILL-ORIGIN LEVEL: 0
ITLB AVERAGE MISS LATENCY: 427 cycles
ITLB RQ	ACCESS:   43070006	FORWARD:          0	MERGED:    9124398	TO_CACHE:   33945608

DTLB TOTAL     ACCESS:   53837281  HIT:   53807394  MISS:      29887  HIT %:    99.9445  MISS %:  0.0555136   MPKI: 0.149435
DTLB LOAD TRANSLATION ACCESS:   53837281  HIT:   53807394  MISS:      29887  HIT %:    99.9445  MISS %:  0.0555136   MPKI: 0.149435
DTLB PREFETCH  REQUESTED:          0  ISSUED:          0  USEFUL:          0  USELESS:          0
DTLB USEFUL LOAD PREFETCHES:          0 PREFETCH ISSUED TO LOWER LEVEL:          0  ACCURACY: -nan
DTLB TIMELY PREFETCHES:          0 LATE PREFETCHES: 0 DROPPED PREFETCHES: 0
DTLB PREFETCHES SAME FILL-ORIGIN LEVEL: 0 DIFFERENT FILL-ORIGIN LEVEL: 0
DTLB AVERAGE MISS LATENCY: 542.352 cycles
DTLB RQ	ACCESS:   61556518	FORWARD:          0	MERGED:    7637781	TO_CACHE:   53918737

STLB TOTAL     ACCESS:    5066589  HIT:    5037439  MISS:      29150  HIT %:    99.4247  MISS %:   0.575338   MPKI: 0.14575
STLB LOAD TRANSLATION ACCESS:      29889  HIT:       9926  MISS:      19963  HIT %:    33.2095  MISS %:    66.7905   MPKI: 0.099815
STLB TRANSLATION FROM L1D PREFETCHER ACCESS:    5036700  HIT:    5027513  MISS:       9187  HIT %:    99.8176  MISS %:   0.182401   MPKI: 0.045935
STLB PREFETCH  REQUESTED:          0  ISSUED:          0  USEFUL:       9184  USELESS:          2
STLB USEFUL LOAD PREFETCHES:       9184 PREFETCH ISSUED TO LOWER LEVEL:          0  ACCURACY: inf
STLB TIMELY PREFETCHES:       9184 LATE PREFETCHES: 876 DROPPED PREFETCHES: 31236
STLB PREFETCHES SAME FILL-ORIGIN LEVEL: 0 DIFFERENT FILL-ORIGIN LEVEL: 0
STLB AVERAGE MISS LATENCY: 655.241 cycles
STLB RQ	ACCESS:   23762761	FORWARD:          0	MERGED:   18657284	TO_CACHE:    5105477

STLB Hit, L1D data hit: 0
STLB Hit, L2C data hit: 0
STLB Hit, LLC data hit: 0
STLB Hit, LLC data miss: 0
STLB STLB hints to L2: 0
L1D TOTAL     ACCESS:   76185495  HIT:   74937053  MISS:    1248442  HIT %:    98.3613  MISS %:    1.63869   MPKI: 6.24221
L1D LOAD      ACCESS:   37746824  HIT:   37539617  MISS:     207207  HIT %:    99.4511  MISS %:   0.548939   MPKI: 1.03603
L1D RFO       ACCESS:   21504238  HIT:   21085867  MISS:     418371  HIT %:    98.0545  MISS %:    1.94553   MPKI: 2.09185
L1D PREFETCH  ACCESS:   16934433  HIT:   16311569  MISS:     622864  HIT %:    96.3219  MISS %:    3.67809   MPKI: 3.11432
L1D PREFETCH  REQUESTED:   96118066  ISSUED:   62983404  USEFUL:     584443  USELESS:      38490
L1D USEFUL LOAD PREFETCHES:     584443 PREFETCH ISSUED TO LOWER LEVEL:   13307383  ACCURACY: 4.39187
L1D TIMELY PREFETCHES:     584443 LATE PREFETCHES: 63617 DROPPED PREFETCHES: 107333
L1D PREFETCHES SAME FILL-ORIGIN LEVEL: 883803 DIFFERENT FILL-ORIGIN LEVEL: 12423580
L1D AVERAGE MISS LATENCY: 771.031 cycles
L1D RQ	ACCESS:   47815671	FORWARD:          0	MERGED:    9850062	TO_CACHE:   37936786
L1D WQ	ACCESS:   25061265	FORWARD:      28846	MERGED:    1441533	TO_CACHE:   23619732
L1D PQ	ACCESS:   39250534	FORWARD:          0	MERGED:   15517641	TO_CACHE:   23732870

L1D UNIQUE REGIONS ACCESSED: 0
L1D REGIONS CONFLICTS: 0
L1D Cross Page Prefetch Requests: 4773988
L1D Same Page Prefetch Requests: 46160199
L1D ROI Sum of L1D PQ occupancy: 774130127
L1D PREFETCHES PUSHED FROM L2C: 0
L1I TOTAL     ACCESS:   43055640  HIT:   43055604  MISS:         36  HIT %:    99.9999  MISS %: 8.36127e-05   MPKI: 0.00018
L1I LOAD      ACCESS:   43055640  HIT:   43055604  MISS:         36  HIT %:    99.9999  MISS %: 8.36127e-05   MPKI: 0.00018
L1I PREFETCH  REQUESTED:          0  ISSUED:          0  USEFUL:          0  USELESS:          0
L1I USEFUL LOAD PREFETCHES:          0 PREFETCH ISSUED TO LOWER LEVEL:          0  ACCURACY: -nan
L1I TIMELY PREFETCHES:          0 LATE PREFETCHES: 0 DROPPED PREFETCHES: 0
L1I PREFETCHES SAME FILL-ORIGIN LEVEL: 0 DIFFERENT FILL-ORIGIN LEVEL: 0
L1I AVERAGE MISS LATENCY: 981.278 cycles
L1I RQ	ACCESS:   56740204	FORWARD:          0	MERGED:   13670198	TO_CACHE:   43070006

BTB TOTAL     ACCESS:   12980557  HIT:   11531307  MISS:    1449250  HIT %:    88.8352  MISS %:    11.1648   MPKI: 7.24625
BTB BRANCH_DIRECT_JUMP	ACCESS:    1449227  HIT:    1449219  MISS:          8
BTB BRANCH_INDIRECT	ACCESS:          0  HIT:          0  MISS:          0
BTB BRANCH_CONDITIONAL	ACCESS:    5734539  HIT:    5734509  MISS:         30
BTB BRANCH_DIRECT_CALL	ACCESS:    2898397  HIT:    2898387  MISS:         10
BTB BRANCH_INDIRECT_CALL	ACCESS:          0  HIT:          0  MISS:          0
BTB BRANCH_RETURN	ACCESS:    2898394  HIT:    1449192  MISS:    1449202
BTB BRANCH_OTHER ACCESS:          0  HIT:          0  MISS:          0

L2C TOTAL     ACCESS:    5911103  HIT:    4570451  MISS:    1340652  HIT %:    77.3198  MISS %:    22.6802   MPKI: 6.70326
L2C LOAD      ACCESS:     143618  HIT:     102251  MISS:      41367  HIT %:    71.1965  MISS %:    28.8035   MPKI: 0.206835
L2C DATA LOAD MPKI: 0.206655
L2C INSTRUCTION LOAD MPKI: 0.00018
L2C RFO       ACCESS:     418371  HIT:          0  MISS:     418371  HIT %:          0  MISS %:        100   MPKI: 2.09185
L2C PREFETCH  ACCESS:    4865280  HIT:    4060336  MISS:     804944  HIT %:    83.4553  MISS %:    16.5447   MPKI: 4.02472
L2C DATA PREFETCH MPKI: 4.02472
L2C INSTRUCTION PREFETCH MPKI: 0
L2C WRITEBACK ACCESS:     418276  HIT:     348580  MISS:      69696  HIT %:    83.3373  MISS %:    16.6627   MPKI: 0.34848
L2C LOAD TRANSLATION ACCESS:      19878  HIT:      15431  MISS:       4447  HIT %:    77.6285  MISS %:    22.3715   MPKI: 0.022235
L2C TRANSLATION FROM L1D PREFETCHER ACCESS:      45680  HIT:      43853  MISS:       1827  HIT %:    96.0004  MISS %:    3.99956   MPKI: 0.009135
L2C PREFETCH  REQUESTED:          0  ISSUED:          0  USEFUL:     103843  USELESS:     702910
L2C USEFUL LOAD PREFETCHES:     103843 PREFETCH ISSUED TO LOWER LEVEL:     824042  ACCURACY: 12.6017
L2C TIMELY PREFETCHES:     103843 LATE PREFETCHES: 19061 DROPPED PREFETCHES: 0
L2C PREFETCHES SAME FILL-ORIGIN LEVEL: 622481 DIFFERENT FILL-ORIGIN LEVEL: 0
L2C AVERAGE MISS LATENCY: 1422.93 cycles
L2C RQ	ACCESS:     627591	FORWARD:          0	MERGED:          0	TO_CACHE:     627583
L2C WQ	ACCESS:     418305	FORWARD:          8	MERGED:          0	TO_CACHE:     418305
L2C PQ	ACCESS:    6221682	FORWARD:          0	MERGED:      70271	TO_CACHE:    6151411

L2C Instructions Evicting Data 35
L2C Translations Evicting Data 6260
L2C Data Evicting Data 1258705
L2C Instructions Evicting Instructions 0
L2C Translations Evicting Instructions 0
L2C Data Evicting Instructions 34
L2C Instructions Evicting Translations 1
L2C Translations Evicting Translations 14
L2C Data Evicting Translations 5979
L2C Dense regions hint from L2: 0
PSCL5 TOTAL     ACCESS:      61101  HIT:      61101  MISS:          0  HIT %:        100  MISS %:          0   MPKI: 0
PSCL5 LOAD TRANSLATION ACCESS:      19802  HIT:      19802  MISS:          0  HIT %:        100  MISS %:          0   MPKI: 0
PSCL5 TRANSLATION FROM L1D PREFETCHER ACCESS:      41299  HIT:      41299  MISS:          0  HIT %:        100  MISS %:          0   MPKI: 0
PSCL5 PREFETCH  REQUESTED:          0  ISSUED:          0  USEFUL:          0  USELESS:          0
PSCL5 USEFUL LOAD PREFETCHES:          0 PREFETCH ISSUED TO LOWER LEVEL:          0  ACCURACY: -nan
PSCL5 TIMELY PREFETCHES:          0 LATE PREFETCHES: 0 DROPPED PREFETCHES: 0
PSCL5 PREFETCHES SAME FILL-ORIGIN LEVEL: 0 DIFFERENT FILL-ORIGIN LEVEL: 0

PSCL4 TOTAL     ACCESS:      61101  HIT:      61101  MISS:          0  HIT %:        100  MISS %:          0   MPKI: 0
PSCL4 LOAD TRANSLATION ACCESS:      19802  HIT:      19802  MISS:          0  HIT %:        100  MISS %:          0   MPKI: 0
PSCL4 TRANSLATION FROM L1D PREFETCHER ACCESS:      41299  HIT:      41299  MISS:          0  HIT %:        100  MISS %:          0   MPKI: 0
PSCL4 PREFETCH  REQUESTED:          0  ISSUED:          0  USEFUL:          0  USELESS:          0
PSCL4 USEFUL LOAD PREFETCHES:          0 PREFETCH ISSUED TO LOWER LEVEL:          0  ACCURACY: -nan
PSCL4 TIMELY PREFETCHES:          0 LATE PREFETCHES: 0 DROPPED PREFETCHES: 0
PSCL4 PREFETCHES SAME FILL-ORIGIN LEVEL: 0 DIFFERENT FILL-ORIGIN LEVEL: 0

PSCL3 TOTAL     ACCESS:      60760  HIT:      60749  MISS:         11  HIT %:    99.9819  MISS %:   0.018104   MPKI: 5.5e-05
PSCL3 LOAD TRANSLATION ACCESS:      19570  HIT:      19559  MISS:         11  HIT %:    99.9438  MISS %:  0.0562085   MPKI: 5.5e-05
PSCL3 TRANSLATION FROM L1D PREFETCHER ACCESS:      41190  HIT:      41190  MISS:          0  HIT %:        100  MISS %:          0   MPKI: 0
PSCL3 PREFETCH  REQUESTED:          0  ISSUED:          0  USEFUL:          0  USELESS:          0
PSCL3 USEFUL LOAD PREFETCHES:          0 PREFETCH ISSUED TO LOWER LEVEL:          0  ACCURACY: -nan
PSCL3 TIMELY PREFETCHES:          0 LATE PREFETCHES: 0 DROPPED PREFETCHES: 0
PSCL3 PREFETCHES SAME FILL-ORIGIN LEVEL: 0 DIFFERENT FILL-ORIGIN LEVEL: 0

PSCL2 TOTAL     ACCESS:      56713  HIT:      56585  MISS:        128  HIT %:    99.7743  MISS %:   0.225698   MPKI: 0.00064
PSCL2 LOAD TRANSLATION ACCESS:      19820  HIT:      19692  MISS:        128  HIT %:    99.3542  MISS %:   0.645812   MPKI: 0.00064
PSCL2 TRANSLATION FROM L1D PREFETCHER ACCESS:      36893  HIT:      36893  MISS:          0  HIT %:        100  MISS %:          0   MPKI: 0
PSCL2 PREFETCH  REQUESTED:          0  ISSUED:          0  USEFUL:          0  USELESS:          0
PSCL2 USEFUL LOAD PREFETCHES:          0 PREFETCH ISSUED TO LOWER LEVEL:          0  ACCURACY: -nan
PSCL2 TIMELY PREFETCHES:          0 LATE PREFETCHES: 0 DROPPED PREFETCHES: 0
PSCL2 PREFETCHES SAME FILL-ORIGIN LEVEL: 0 DIFFERENT FILL-ORIGIN LEVEL: 0

LLC TOTAL     ACCESS:    1689208  HIT:     402736  MISS:    1286472  HIT %:    23.8417  MISS %:    76.1583   MPKI: 6.43236
LLC LOAD      ACCESS:      22306  HIT:         56  MISS:      22250  HIT %:   0.251054  MISS %:    99.7489   MPKI: 0.11125
LLC RFO       ACCESS:     418371  HIT:          0  MISS:     418371  HIT %:          0  MISS %:        100   MPKI: 2.09185
LLC PREFETCH  ACCESS:     824005  HIT:        173  MISS:     823832  HIT %:   0.020995  MISS %:     99.979   MPKI: 4.11916
LLC WRITEBACK ACCESS:     418252  HIT:     402379  MISS:      15873  HIT %:    96.2049  MISS %:    3.79508   MPKI: 0.079365
LLC LOAD TRANSLATION ACCESS:       4447  HIT:         67  MISS:       4380  HIT %:    1.50663  MISS %:    98.4934   MPKI: 0.0219
LLC TRANSLATION FROM L1D PREFETCHER ACCESS:       1827  HIT:         61  MISS:       1766  HIT %:    3.33881  MISS %:    96.6612   MPKI: 0.00883
LLC PREFETCH  REQUESTED:          0  ISSUED:          0  USEFUL:        163  USELESS:    3314294
LLC USEFUL LOAD PREFETCHES:        163 PREFETCH ISSUED TO LOWER LEVEL:  254851751  ACCURACY: 6.39588e-05
LLC TIMELY PREFETCHES:        163 LATE PREFETCHES: 0 DROPPED PREFETCHES: 0
LLC PREFETCHES SAME FILL-ORIGIN LEVEL: 0 DIFFERENT FILL-ORIGIN LEVEL: 0
LLC AVERAGE MISS LATENCY: 4715.44 cycles
LLC RQ	ACCESS:    1787447	FORWARD:          0	MERGED:          0	TO_CACHE:    1787447
LLC WQ	ACCESS:    1672342	FORWARD:          0	MERGED:          0	TO_CACHE:    1672342
LLC PQ	ACCESS:    3297187	FORWARD:          0	MERGED:          0	TO_CACHE:    3297187

LLC Dense regions hint to LLC: 0

RAW hits: 6763205
Loads Generated: 54564053
Loads sent to L1D: 47800846
Stores Generated: 25053075
Stores sent to L1D: 25053075
Major fault: 0 Minor fault: 17838
Allocated PAGES: 71352

CPU 1 cumulative IPC: 0.529097 instructions: 200000000 cycles: 378002789
ITLB TOTAL     ACCESS:   33934220  HIT:   33934218  MISS:          2  HIT %:        100  MISS %: 5.89376e-06   MPKI: 1e-05
ITLB LOAD TRANSLATION ACCESS:   33934220  HIT:   33934218  MISS:          2  HIT %:        100  MISS %: 5.89376e-06   MPKI: 1e-05
ITLB PREFETCH  REQUESTED:          0  ISSUED:          0  USEFUL:          0  USELESS:          0
ITLB USEFUL LOAD PREFETCHES:          0 PREFETCH ISSUED TO LOWER LEVEL:          0  ACCURACY: -nan
ITLB TIMELY PREFETCHES:          0 LATE PREFETCHES: 0 DROPPED PREFETCHES: 0
ITLB PREFETCHES SAME FILL-ORIGIN LEVEL: 0 DIFFERENT FILL-ORIGIN LEVEL: 0
ITLB AVERAGE MISS LATENCY: 1525 cycles
ITLB RQ	ACCESS:   43071549	FORWARD:          0	MERGED:    9124674	TO_CACHE:   33946875

DTLB TOTAL     ACCESS:   53838855  HIT:   53808947  MISS:      29908  HIT %:    99.9444  MISS %:   0.055551   MPKI: 0.14954
DTLB LOAD TRANSLATION ACCESS:   53838855  HIT:   53808947  MISS:      29908  HIT %:    99.9444  MISS %:   0.055551   MPKI: 0.14954
DTLB PREFETCH  REQUESTED:          0  ISSUED:          0  USEFUL:          0  USELESS:          0
DTLB USEFUL LOAD PREFETCHES:          0 PREFETCH ISSUED TO LOWER LEVEL:          0  ACCURACY: -nan
DTLB TIMELY PREFETCHES:          0 LATE PREFETCHES: 0 DROPPED PREFETCHES: 0
DTLB PREFETCHES SAME FILL-ORIGIN LEVEL: 0 DIFFERENT FILL-ORIGIN LEVEL: 0
DTLB AVERAGE MISS LATENCY: 534.466 cycles
DTLB RQ	ACCESS:   61559343	FORWARD:          0	MERGED:    7638174	TO_CACHE:   53921169

STLB TOTAL     ACCESS:    4885763  HIT:    4856613  MISS:      29150  HIT %:    99.4034  MISS %:   0.596631   MPKI: 0.14575
STLB LOAD TRANSLATION ACCESS:      29910  HIT:       9936  MISS:      19974  HIT %:    33.2197  MISS %:    66.7803   MPKI: 0.09987
STLB TRANSLATION FROM L1D PREFETCHER ACCESS:    4855853  HIT:    4846677  MISS:       9176  HIT %:     99.811  MISS %:   0.188968   MPKI: 0.04588
STLB PREFETCH  REQUESTED:          0  ISSUED:          0  USEFUL:       9173  USELESS:          2
STLB USEFUL LOAD PREFETCHES:       9173 PREFETCH ISSUED TO LOWER LEVEL:          0  ACCURACY: inf
STLB TIMELY PREFETCHES:       9173 LATE PREFETCHES: 863 DROPPED PREFETCHES: 27862
STLB PREFETCHES SAME FILL-ORIGIN LEVEL: 0 DIFFERENT FILL-ORIGIN LEVEL: 0
STLB AVERAGE MISS LATENCY: 644.677 cycles
STLB RQ	ACCESS:   23620866	FORWARD:          0	MERGED:   18699655	TO_CACHE:    4921211

STLB Hit, L1D data hit: 0
STLB Hit, L2C data hit: 0
STLB Hit, LLC data hit: 0
STLB Hit, LLC data miss: 0
STLB STLB hints to L2: 0
L1D TOTAL     ACCESS:   76205188  HIT:   74956724  MISS:    1248464  HIT %:    98.3617  MISS %:    1.63829   MPKI: 6.24232
L1D LOAD      ACCESS:   37747461  HIT:   37540348  MISS:     207113  HIT %:    99.4513  MISS %:   0.548681   MPKI: 1.03557
L1D RFO       ACCESS:   21503798  HIT:   21085418  MISS:     418380  HIT %:    98.0544  MISS %:    1.94561   MPKI: 2.0919
L1D PREFETCH  ACCESS:   16953929  HIT:   16330958  MISS:     622971  HIT %:    96.3255  MISS %:    3.67449   MPKI: 3.11485
L1D PREFETCH  REQUESTED:   95559617  ISSUED:   62697723  USEFUL:     584556  USELESS:      38494
L1D USEFUL LOAD PREFETCHES:     584556 PREFETCH ISSUED TO LOWER LEVEL:   13137415  ACCURACY: 4.44955
L1D TIMELY PREFETCHES:     584556 LATE PREFETCHES: 63208 DROPPED PREFETCHES: 102742
L1D PREFETCHES SAME FILL-ORIGIN LEVEL: 905504 DIFFERENT FILL-ORIGIN LEVEL: 12231911
L1D AVERAGE MISS LATENCY: 771.619 cycles
L1D RQ	ACCESS:   47817802	FORWARD:          0	MERGED:    9850395	TO_CACHE:   37938573
L1D WQ	ACCESS:   25062376	FORWARD:      28865	MERGED:    1441606	TO_CACHE:   23620770
L1D PQ	ACCESS:   39106769	FORWARD:          0	MERGED:   15515784	TO_CACHE:   23590954

L1D UNIQUE REGIONS ACCESSED: 0
L1D REGIONS CONFLICTS: 0
L1D Cross Page Prefetch Requests: 4798249
L1D Same Page Prefetch Requests: 45989875
L1D ROI Sum of L1D PQ occupancy: 770837361
L1D PREFETCHES PUSHED FROM L2C: 0
L1I TOTAL     ACCESS:   43055218  HIT:   43055182  MISS:         36  HIT %:    99.9999  MISS %: 8.36136e-05   MPKI: 0.00018
L1I LOAD      ACCESS:   43055218  HIT:   43055182  MISS:         36  HIT %:    99.9999  MISS %: 8.36136e-05   MPKI: 0.00018
L1I PREFETCH  REQUESTED:          0  ISSUED:          0  USEFUL:          0  USELESS:          0
L1I USEFUL LOAD PREFETCHES:          0 PREFETCH ISSUED TO LOWER LEVEL:          0  ACCURACY: -nan
L1I TIMELY PREFETCHES:          0 LATE PREFETCHES: 0 DROPPED PREFETCHES: 0
L1I PREFETCHES SAME FILL-ORIGIN LEVEL: 0 DIFFERENT FILL-ORIGIN LEVEL: 0
L1I AVERAGE MISS LATENCY: 1292.06 cycles
L1I RQ	ACCESS:   56744004	FORWARD:          0	MERGED:   13672455	TO_CACHE:   43071549

BTB TOTAL     ACCESS:   12980526  HIT:   11531283  MISS:    1449243  HIT %:    88.8353  MISS %:    11.1647   MPKI: 7.24622
BTB BRANCH_DIRECT_JUMP	ACCESS:    1449219  HIT:    1449211  MISS:          8
BTB BRANCH_INDIRECT	ACCESS:          0  HIT:          0  MISS:          0
BTB BRANCH_CONDITIONAL	ACCESS:    5734546  HIT:    5734516  MISS:         30
BTB BRANCH_DIRECT_CALL	ACCESS:    2898381  HIT:    2898371  MISS:         10
BTB BRANCH_INDIRECT_CALL	ACCESS:          0  HIT:          0  MISS:          0
BTB BRANCH_RETURN	ACCESS:    2898380  HIT:    1449185  MISS:    1449195
BTB BRANCH_OTHER ACCESS:          0  HIT:          0  MISS:          0

L2C TOTAL     ACCESS:    5710060  HIT:    4371137  MISS:    1338923  HIT %:    76.5515  MISS %:    23.4485   MPKI: 6.69461
L2C LOAD      ACCESS:     143938  HIT:     102592  MISS:      41346  HIT %:    71.2751  MISS %:    28.7249   MPKI: 0.20673
L2C DATA LOAD MPKI: 0.20655
L2C INSTRUCTION LOAD MPKI: 0.00018
L2C RFO       ACCESS:     418380  HIT:          0  MISS:     418380  HIT %:          0  MISS %:        100   MPKI: 2.0919
L2C PREFETCH  ACCESS:    4670934  HIT:    3865908  MISS:     805026  HIT %:    82.7652  MISS %:    17.2348   MPKI: 4.02513
L2C DATA PREFETCH MPKI: 4.02513
L2C INSTRUCTION PREFETCH MPKI: 0
L2C WRITEBACK ACCESS:     418283  HIT:     350353  MISS:      67930  HIT %:    83.7598  MISS %:    16.2402   MPKI: 0.33965
L2C LOAD TRANSLATION ACCESS:      19878  HIT:      15459  MISS:       4419  HIT %:    77.7694  MISS %:    22.2306   MPKI: 0.022095
L2C TRANSLATION FROM L1D PREFETCHER ACCESS:      38647  HIT:      36825  MISS:       1822  HIT %:    95.2855  MISS %:    4.71447   MPKI: 0.00911
L2C PREFETCH  REQUESTED:          0  ISSUED:          0  USEFUL:     104185  USELESS:     702704
L2C USEFUL LOAD PREFETCHES:     104185 PREFETCH ISSUED TO LOWER LEVEL:     824249  ACCURACY: 12.64
L2C TIMELY PREFETCHES:     104185 LATE PREFETCHES: 19181 DROPPED PREFETCHES: 0
L2C PREFETCHES SAME FILL-ORIGIN LEVEL: 622837 DIFFERENT FILL-ORIGIN LEVEL: 0
L2C AVERAGE MISS LATENCY: 1425.23 cycles
L2C RQ	ACCESS:     620889	FORWARD:          0	MERGED:          0	TO_CACHE:     620886
L2C WQ	ACCESS:     418323	FORWARD:          3	MERGED:          0	TO_CACHE:     418323
L2C PQ	ACCESS:    6044853	FORWARD:          0	MERGED:      71897	TO_CACHE:    5972956

L2C Instructions Evicting Data 36
L2C Translations Evicting Data 6225
L2C Data Evicting Data 1258794
L2C Instructions Evicting Instructions 0
L2C Translations Evicting Instructions 0
L2C Data Evicting Instructions 34
L2C Instructions Evicting Translations 0
L2C Translations Evicting Translations 16
L2C Data Evicting Translations 5972
L2C Dense regions hint from L2: 0
PSCL5 TOTAL     ACCESS:      57707  HIT:      57707  MISS:          0  HIT %:        100  MISS %:          0   MPKI: 0
PSCL5 LOAD TRANSLATION ACCESS:      19806  HIT:      19806  MISS:          0  HIT %:        100  MISS %:          0   MPKI: 0
PSCL5 TRANSLATION FROM L1D PREFETCHER ACCESS:      37901  HIT:      37901  MISS:          0  HIT %:        100  MISS %:          0   MPKI: 0
PSCL5 PREFETCH  REQUESTED:          0  ISSUED:          0  USEFUL:          0  USELESS:          0
PSCL5 USEFUL LOAD PREFETCHES:          0 PREFETCH ISSUED TO LOWER LEVEL:          0  ACCURACY: -nan
PSCL5 TIMELY PREFETCHES:          0 LATE PREFETCHES: 0 DROPPED PREFETCHES: 0
PSCL5 PREFETCHES SAME FILL-ORIGIN LEVEL: 0 DIFFERENT FILL-ORIGIN LEVEL: 0

PSCL4 TOTAL     ACCESS:      57707  HIT:      57707  MISS:          0  HIT %:        100  MISS %:          0   MPKI: 0
PSCL4 LOAD TRANSLATION ACCESS:      19806  HIT:      19806  MISS:          0  HIT %:        100  MISS %:          0   MPKI: 0
PSCL4 TRANSLATION FROM L1D PREFETCHER ACCESS:      37901  HIT:      37901  MISS:          0  HIT %:        100  MISS %:          0   MPKI: 0
PSCL4 PREFETCH  REQUESTED:          0  ISSUED:          0  USEFUL:          0  USELESS:          0
PSCL4 USEFUL LOAD PREFETCHES:          0 PREFETCH ISSUED TO LOWER LEVEL:          0  ACCURACY: -nan
PSCL4 TIMELY PREFETCHES:          0 LATE PREFETCHES: 0 DROPPED PREFETCHES: 0
PSCL4 PREFETCHES SAME FILL-ORIGIN LEVEL: 0 DIFFERENT FILL-ORIGIN LEVEL: 0

PSCL3 TOTAL     ACCESS:      57214  HIT:      57208  MISS:          6  HIT %:    99.9895  MISS %:  0.0104869   MPKI: 3e-05
PSCL3 LOAD TRANSLATION ACCESS:      19390  HIT:      19384  MISS:          6  HIT %:    99.9691  MISS %:  0.0309438   MPKI: 3e-05
PSCL3 TRANSLATION FROM L1D PREFETCHER ACCESS:      37824  HIT:      37824  MISS:          0  HIT %:        100  MISS %:          0   MPKI: 0
PSCL3 PREFETCH  REQUESTED:          0  ISSUED:          0  USEFUL:          0  USELESS:          0
PSCL3 USEFUL LOAD PREFETCHES:          0 PREFETCH ISSUED TO LOWER LEVEL:          0  ACCURACY: -nan
PSCL3 TIMELY PREFETCHES:          0 LATE PREFETCHES: 0 DROPPED PREFETCHES: 0
PSCL3 PREFETCHES SAME FILL-ORIGIN LEVEL: 0 DIFFERENT FILL-ORIGIN LEVEL: 0

PSCL2 TOTAL     ACCESS:      56960  HIT:      56832  MISS:        128  HIT %:    99.7753  MISS %:   0.224719   MPKI: 0.00064
PSCL2 LOAD TRANSLATION ACCESS:      19824  HIT:      19696  MISS:        128  HIT %:    99.3543  MISS %:   0.645682   MPKI: 0.00064
PSCL2 TRANSLATION FROM L1D PREFETCHER ACCESS:      37136  HIT:      37136  MISS:          0  HIT %:        100  MISS %:          0   MPKI: 0
PSCL2 PREFETCH  REQUESTED:          0  ISSUED:          0  USEFUL:          0  USELESS:          0
PSCL2 USEFUL LOAD PREFETCHES:          0 PREFETCH ISSUED TO LOWER LEVEL:          0  ACCURACY: -nan
PSCL2 TIMELY PREFETCHES:          0 LATE PREFETCHES: 0 DROPPED PREFETCHES: 0
PSCL2 PREFETCHES SAME FILL-ORIGIN LEVEL: 0 DIFFERENT FILL-ORIGIN LEVEL: 0

LLC TOTAL     ACCESS:    1689139  HIT:     402995  MISS:    1286144  HIT %:     23.858  MISS %:     76.142   MPKI: 6.43072
LLC LOAD      ACCESS:      22165  HIT:         61  MISS:      22104  HIT %:   0.275209  MISS %:    99.7248   MPKI: 0.11052
LLC RFO       ACCESS:     418380  HIT:          0  MISS:     418380  HIT %:          0  MISS %:        100   MPKI: 2.0919
LLC PREFETCH  ACCESS:     824207  HIT:        189  MISS:     824018  HIT %:  0.0229311  MISS %:    99.9771   MPKI: 4.12009
LLC WRITEBACK ACCESS:     418146  HIT:     402647  MISS:      15499  HIT %:    96.2934  MISS %:     3.7066   MPKI: 0.077495
LLC LOAD TRANSLATION ACCESS:       4419  HIT:         42  MISS:       4377  HIT %:   0.950441  MISS %:    99.0496   MPKI: 0.021885
LLC TRANSLATION FROM L1D PREFETCHER ACCESS:       1822  HIT:         56  MISS:       1766  HIT %:    3.07355  MISS %:    96.9265   MPKI: 0.00883
LLC PREFETCH  REQUESTED:          0  ISSUED:          0  USEFUL:        163  USELESS:    3314294
LLC USEFUL LOAD PREFETCHES:        163 PREFETCH ISSUED TO LOWER LEVEL:  254851751  ACCURACY: 6.39588e-05
LLC TIMELY PREFETCHES:        163 LATE PREFETCHES: 0 DROPPED PREFETCHES: 0
LLC PREFETCHES SAME FILL-ORIGIN LEVEL: 0 DIFFERENT FILL-ORIGIN LEVEL: 0
LLC AVERAGE MISS LATENCY: 4716.64 cycles
LLC RQ	ACCESS:    1787447	FORWARD:          0	MERGED:          0	TO_CACHE:    1787447
LLC WQ	ACCESS:    1672342	FORWARD:          0	MERGED:          0	TO_CACHE:    1672342
LLC PQ	ACCESS:    3297187	FORWARD:          0	MERGED:          0	TO_CACHE:    3297187

LLC Dense regions hint to LLC: 0

RAW hits: 6763168
Loads Generated: 54564095
Loads sent to L1D: 47800922
Stores Generated: 25053043
Stores sent to L1D: 25053046
Major fault: 0 Minor fault: 17838
Allocated PAGES: 71352

CPU 2 cumulative IPC: 0.528922 instructions: 200000003 cycles: 378127436
ITLB TOTAL     ACCESS:   33935404  HIT:   33935402  MISS:          2  HIT %:        100  MISS %: 5.89355e-06   MPKI: 1e-05
ITLB LOAD TRANSLATION ACCESS:   33935404  HIT:   33935402  MISS:          2  HIT %:        100  MISS %: 5.89355e-06   MPKI: 1e-05
ITLB PREFETCH  REQUESTED:          0  ISSUED:          0  USEFUL:          0  USELESS:          0
ITLB USEFUL LOAD PREFETCHES:          0 PREFETCH ISSUED TO LOWER LEVEL:          0  ACCURACY: -nan
ITLB TIMELY PREFETCHES:          0 LATE PREFETCHES: 0 DROPPED PREFETCHES: 0
ITLB PREFETCHES SAME FILL-ORIGIN LEVEL: 0 DIFFERENT FILL-ORIGIN LEVEL: 0
ITLB AVERAGE MISS LATENCY: 325.5 cycles
ITLB RQ	ACCESS:   43057452	FORWARD:          0	MERGED:    9122048	TO_CACHE:   33935404

DTLB TOTAL     ACCESS:   53837279  HIT:   53807377  MISS:      29902  HIT %:    99.9445  MISS %:  0.0555414   MPKI: 0.14951
DTLB LOAD TRANSLATION ACCESS:   53837279  HIT:   53807377  MISS:      29902  HIT %:    99.9445  MISS %:  0.0555414   MPKI: 0.14951
DTLB PREFETCH  REQUESTED:          0  ISSUED:          0  USEFUL:          0  USELESS:          0
DTLB USEFUL LOAD PREFETCHES:          0 PREFETCH ISSUED TO LOWER LEVEL:          0  ACCURACY: -nan
DTLB TIMELY PREFETCHES:          0 LATE PREFETCHES: 0 DROPPED PREFETCHES: 0
DTLB PREFETCHES SAME FILL-ORIGIN LEVEL: 0 DIFFERENT FILL-ORIGIN LEVEL: 0
DTLB AVERAGE MISS LATENCY: 539.173 cycles
DTLB RQ	ACCESS:   61536661	FORWARD:          0	MERGED:    7635425	TO_CACHE:   53901236

STLB TOTAL     ACCESS:    5073377  HIT:    5044230  MISS:      29147  HIT %:    99.4255  MISS %:   0.574509   MPKI: 0.145735
STLB LOAD TRANSLATION ACCESS:      29904  HIT:       9938  MISS:      19966  HIT %:     33.233  MISS %:     66.767   MPKI: 0.09983
STLB TRANSLATION FROM L1D PREFETCHER ACCESS:    5043473  HIT:    5034292  MISS:       9181  HIT %:     99.818  MISS %:   0.182037   MPKI: 0.045905
STLB PREFETCH  REQUESTED:          0  ISSUED:          0  USEFUL:       9178  USELESS:          2
STLB USEFUL LOAD PREFETCHES:       9178 PREFETCH ISSUED TO LOWER LEVEL:          0  ACCURACY: inf
STLB TIMELY PREFETCHES:       9178 LATE PREFETCHES: 888 DROPPED PREFETCHES: 31088
STLB PREFETCHES SAME FILL-ORIGIN LEVEL: 0 DIFFERENT FILL-ORIGIN LEVEL: 0
STLB AVERAGE MISS LATENCY: 649.124 cycles
STLB RQ	ACCESS:   24127560	FORWARD:          0	MERGED:   19015939	TO_CACHE:    5111621

STLB Hit, L1D data hit: 0
STLB Hit, L2C data hit: 0
STLB Hit, LLC data hit: 0
STLB Hit, LLC data miss: 0
STLB STLB hints to L2: 0
L1D TOTAL     ACCESS:   76350598  HIT:   75102193  MISS:    1248405  HIT %:    98.3649  MISS %:     1.6351   MPKI: 6.24202
L1D LOAD      ACCESS:   37748532  HIT:   37542142  MISS:     206390  HIT %:    99.4533  MISS %:    0.54675   MPKI: 1.03195
L1D RFO       ACCESS:   21505616  HIT:   21087239  MISS:     418377  HIT %:    98.0546  MISS %:    1.94543   MPKI: 2.09188
L1D PREFETCH  ACCESS:   17096450  HIT:   16472812  MISS:     623638  HIT %:    96.3522  MISS %:    3.64776   MPKI: 3.11819
L1D PREFETCH  REQUESTED:   96890314  ISSUED:   63740280  USEFUL:     585257  USELESS:      38419
L1D USEFUL LOAD PREFETCHES:     585257 PREFETCH ISSUED TO LOWER LEVEL:   13512833  ACCURACY: 4.33112
L1D TIMELY PREFETCHES:     585257 LATE PREFETCHES: 63408 DROPPED PREFETCHES: 108162
L1D PREFETCHES SAME FILL-ORIGIN LEVEL: 919183 DIFFERENT FILL-ORIGIN LEVEL: 12593650
L1D AVERAGE MISS LATENCY: 770.572 cycles
L1D RQ	ACCESS:   47800953	FORWARD:          0	MERGED:    9847558	TO_CACHE:   37924558
L1D WQ	ACCESS:   25053048	FORWARD:      28877	MERGED:    1440945	TO_CACHE:   23612103
L1D PQ	ACCESS:   39642624	FORWARD:          0	MERGED:   15544928	TO_CACHE:   24097656

L1D UNIQUE REGIONS ACCESSED: 0
L1D REGIONS CONFLICTS: 0
L1D Cross Page Prefetch Requests: 4792484
L1D Same Page Prefetch Requests: 46534055
L1D ROI Sum of L1D PQ occupancy: 775750710
L1D PREFETCHES PUSHED FROM L2C: 0
L1I TOTAL     ACCESS:   43057440  HIT:   43057404  MISS:         36  HIT %:    99.9999  MISS %: 8.36092e-05   MPKI: 0.00018
L1I LOAD      ACCESS:   43057440  HIT:   43057404  MISS:         36  HIT %:    99.9999  MISS %: 8.36092e-05   MPKI: 0.00018
L1I PREFETCH  REQUESTED:          0  ISSUED:          0  USEFUL:          0  USELESS:          0
L1I USEFUL LOAD PREFETCHES:          0 PREFETCH ISSUED TO LOWER LEVEL:          0  ACCURACY: -nan
L1I TIMELY PREFETCHES:          0 LATE PREFETCHES: 0 DROPPED PREFETCHES: 0
L1I PREFETCHES SAME FILL-ORIGIN LEVEL: 0 DIFFERENT FILL-ORIGIN LEVEL: 0
L1I AVERAGE MISS LATENCY: 398.111 cycles
L1I RQ	ACCESS:   56723253	FORWARD:          0	MERGED:   13665801	TO_CACHE:   43057452

BTB TOTAL     ACCESS:   12980531  HIT:   11531287  MISS:    1449244  HIT %:    88.8352  MISS %:    11.1648   MPKI: 7.24622
BTB BRANCH_DIRECT_JUMP	ACCESS:    1449221  HIT:    1449213  MISS:          8
BTB BRANCH_INDIRECT	ACCESS:          0  HIT:          0  MISS:          0
BTB BRANCH_CONDITIONAL	ACCESS:    5734543  HIT:    5734513  MISS:         30
BTB BRANCH_DIRECT_CALL	ACCESS:    2898385  HIT:    2898375  MISS:         10
BTB BRANCH_INDIRECT_CALL	ACCESS:          0  HIT:          0  MISS:          0
BTB BRANCH_RETURN	ACCESS:    2898382  HIT:    1449186  MISS:    1449196
BTB BRANCH_OTHER ACCESS:          0  HIT:          0  MISS:          0

L2C TOTAL     ACCESS:    6105962  HIT:    4764237  MISS:    1341725  HIT %:     78.026  MISS %:     21.974   MPKI: 6.70862
L2C LOAD      ACCESS:     143017  HIT:     101994  MISS:      41023  HIT %:     71.316  MISS %:     28.684   MPKI: 0.205115
L2C DATA LOAD MPKI: 0.204935
L2C INSTRUCTION LOAD MPKI: 0.00018
L2C RFO       ACCESS:     418377  HIT:          0  MISS:     418377  HIT %:          0  MISS %:        100   MPKI: 2.09188
L2C PREFETCH  ACCESS:    5061363  HIT:    4255742  MISS:     805621  HIT %:    84.0829  MISS %:    15.9171   MPKI: 4.0281
L2C DATA PREFETCH MPKI: 4.0281
L2C INSTRUCTION PREFETCH MPKI: 0
L2C WRITEBACK ACCESS:     418288  HIT:     347844  MISS:      70444  HIT %:     83.159  MISS %:     16.841   MPKI: 0.35222
L2C LOAD TRANSLATION ACCESS:      19864  HIT:      15417  MISS:       4447  HIT %:    77.6128  MISS %:    22.3872   MPKI: 0.022235
L2C TRANSLATION FROM L1D PREFETCHER ACCESS:      45053  HIT:      43240  MISS:       1813  HIT %:    95.9759  MISS %:    4.02415   MPKI: 0.009065
L2C PREFETCH  REQUESTED:          0  ISSUED:          0  USEFUL:     103554  USELESS:     704481
L2C USEFUL LOAD PREFETCHES:     103554 PREFETCH ISSUED TO LOWER LEVEL:     824436  ACCURACY: 12.5606
L2C TIMELY PREFETCHES:     103554 LATE PREFETCHES: 18815 DROPPED PREFETCHES: 0
L2C PREFETCHES SAME FILL-ORIGIN LEVEL: 623013 DIFFERENT FILL-ORIGIN LEVEL: 0
L2C AVERAGE MISS LATENCY: 1423.64 cycles
L2C RQ	ACCESS:     626312	FORWARD:          0	MERGED:          0	TO_CACHE:     626311
L2C WQ	ACCESS:     418288	FORWARD:          1	MERGED:          0	TO_CACHE:     418288
L2C PQ	ACCESS:    6426586	FORWARD:          0	MERGED:      71060	TO_CACHE:    6355526

L2C Instructions Evicting Data 36
L2C Translations Evicting Data 6230
L2C Data Evicting Data 1258982
L2C Instructions Evicting Instructions 0
L2C Translations Evicting Instructions 0
L2C Data Evicting Instructions 36
L2C Instructions Evicting Translations 0
L2C Translations Evicting Translations 30
L2C Data Evicting Translations 5967
L2C Dense regions hint from L2: 0
PSCL5 TOTAL     ACCESS:      60945  HIT:      60945  MISS:          0  HIT %:        100  MISS %:          0   MPKI: 0
PSCL5 LOAD TRANSLATION ACCESS:      19788  HIT:      19788  MISS:          0  HIT %:        100  MISS %:          0   MPKI: 0
PSCL5 TRANSLATION FROM L1D PREFETCHER ACCESS:      41157  HIT:      41157  MISS:          0  HIT %:        100  MISS %:          0   MPKI: 0
PSCL5 PREFETCH  REQUESTED:          0  ISSUED:          0  USEFUL:          0  USELESS:          0
PSCL5 USEFUL LOAD PREFETCHES:          0 PREFETCH ISSUED TO LOWER LEVEL:          0  ACCURACY: -nan
PSCL5 TIMELY PREFETCHES:          0 LATE PREFETCHES: 0 DROPPED PREFETCHES: 0
PSCL5 PREFETCHES SAME FILL-ORIGIN LEVEL: 0 DIFFERENT FILL-ORIGIN LEVEL: 0

PSCL4 TOTAL     ACCESS:      60945  HIT:      60945  MISS:          0  HIT %:        100  MISS %:          0   MPKI: 0
PSCL4 LOAD TRANSLATION ACCESS:      19788  HIT:      19788  MISS:          0  HIT %:        100  MISS %:          0   MPKI: 0
PSCL4 TRANSLATION FROM L1D PREFETCHER ACCESS:      41157  HIT:      41157  MISS:          0  HIT %:        100  MISS %:          0   MPKI: 0
PSCL4 PREFETCH  REQUESTED:          0  ISSUED:          0  USEFUL:          0  USELESS:          0
PSCL4 USEFUL LOAD PREFETCHES:          0 PREFETCH ISSUED TO LOWER LEVEL:          0  ACCURACY: -nan
PSCL4 TIMELY PREFETCHES:          0 LATE PREFETCHES: 0 DROPPED PREFETCHES: 0
PSCL4 PREFETCHES SAME FILL-ORIGIN LEVEL: 0 DIFFERENT FILL-ORIGIN LEVEL: 0

PSCL3 TOTAL     ACCESS:      60582  HIT:      60571  MISS:         11  HIT %:    99.9818  MISS %:  0.0181572   MPKI: 5.5e-05
PSCL3 LOAD TRANSLATION ACCESS:      19558  HIT:      19547  MISS:         11  HIT %:    99.9438  MISS %:   0.056243   MPKI: 5.5e-05
PSCL3 TRANSLATION FROM L1D PREFETCHER ACCESS:      41024  HIT:      41024  MISS:          0  HIT %:        100  MISS %:          0   MPKI: 0
PSCL3 PREFETCH  REQUESTED:          0  ISSUED:          0  USEFUL:          0  USELESS:          0
PSCL3 USEFUL LOAD PREFETCHES:          0 PREFETCH ISSUED TO LOWER LEVEL:          0  ACCURACY: -nan
PSCL3 TIMELY PREFETCHES:          0 LATE PREFETCHES: 0 DROPPED PREFETCHES: 0
PSCL3 PREFETCHES SAME FILL-ORIGIN LEVEL: 0 DIFFERENT FILL-ORIGIN LEVEL: 0

PSCL2 TOTAL     ACCESS:      57045  HIT:      56917  MISS:        128  HIT %:    99.7756  MISS %:   0.224384   MPKI: 0.00064
PSCL2 LOAD TRANSLATION ACCESS:      19806  HIT:      19678  MISS:        128  HIT %:    99.3537  MISS %:   0.646269   MPKI: 0.00064
PSCL2 TRANSLATION FROM L1D PREFETCHER ACCESS:      37239  HIT:      37239  MISS:          0  HIT %:        100  MISS %:          0   MPKI: 0
PSCL2 PREFETCH  REQUESTED:          0  ISSUED:          0  USEFUL:          0  USELESS:          0
PSCL2 USEFUL LOAD PREFETCHES:          0 PREFETCH ISSUED TO LOWER LEVEL:          0  ACCURACY: -nan
PSCL2 TIMELY PREFETCHES:          0 LATE PREFETCHES: 0 DROPPED PREFETCHES: 0
PSCL2 PREFETCHES SAME FILL-ORIGIN LEVEL: 0 DIFFERENT FILL-ORIGIN LEVEL: 0

LLC TOTAL     ACCESS:    1688846  HIT:     396346  MISS:    1292500  HIT %:    23.4685  MISS %:    76.5315   MPKI: 6.4625
LLC LOAD      ACCESS:      22208  HIT:         54  MISS:      22154  HIT %:   0.243156  MISS %:    99.7568   MPKI: 0.11077
LLC RFO       ACCESS:     418377  HIT:          0  MISS:     418377  HIT %:          0  MISS %:        100   MPKI: 2.09188
LLC PREFETCH  ACCESS:     824436  HIT:        235  MISS:     824201  HIT %:  0.0285043  MISS %:    99.9715   MPKI: 4.121
LLC WRITEBACK ACCESS:     417565  HIT:     395938  MISS:      21627  HIT %:    94.8207  MISS %:    5.17931   MPKI: 0.108135
LLC LOAD TRANSLATION ACCESS:       4447  HIT:         62  MISS:       4385  HIT %:     1.3942  MISS %:    98.6058   MPKI: 0.021925
LLC TRANSLATION FROM L1D PREFETCHER ACCESS:       1813  HIT:         57  MISS:       1756  HIT %:    3.14396  MISS %:     96.856   MPKI: 0.00878
LLC PREFETCH  REQUESTED:          0  ISSUED:          0  USEFUL:        163  USELESS:    3314294
LLC USEFUL LOAD PREFETCHES:        163 PREFETCH ISSUED TO LOWER LEVEL:  254851751  ACCURACY: 6.39588e-05
LLC TIMELY PREFETCHES:        163 LATE PREFETCHES: 0 DROPPED PREFETCHES: 0
LLC PREFETCHES SAME FILL-ORIGIN LEVEL: 0 DIFFERENT FILL-ORIGIN LEVEL: 0
LLC AVERAGE MISS LATENCY: 4693.45 cycles
LLC RQ	ACCESS:    1787447	FORWARD:          0	MERGED:          0	TO_CACHE:    1787447
LLC WQ	ACCESS:    1672342	FORWARD:          0	MERGED:          0	TO_CACHE:    1672342
LLC PQ	ACCESS:    3297187	FORWARD:          0	MERGED:          0	TO_CACHE:    3297187

LLC Dense regions hint to LLC: 0

RAW hits: 6763158
Loads Generated: 54564099
Loads sent to L1D: 47800953
Stores Generated: 25053050
Stores sent to L1D: 25053048
Major fault: 0 Minor fault: 17838
Allocated PAGES: 71352

CPU 3 cumulative IPC: 0.529096 instructions: 200000000 cycles: 378003599
ITLB TOTAL     ACCESS:   33934817  HIT:   33934815  MISS:          2  HIT %:        100  MISS %: 5.89365e-06   MPKI: 1e-05
ITLB LOAD TRANSLATION ACCESS:   33934817  HIT:   33934815  MISS:          2  HIT %:        100  MISS %: 5.89365e-06   MPKI: 1e-05
ITLB PREFETCH  REQUESTED:          0  ISSUED:          0  USEFUL:          0  USELESS:          0
ITLB USEFUL LOAD PREFETCHES:          0 PREFETCH ISSUED TO LOWER LEVEL:          0  ACCURACY: -nan
ITLB TIMELY PREFETCHES:          0 LATE PREFETCHES: 0 DROPPED PREFETCHES: 0
ITLB PREFETCHES SAME FILL-ORIGIN LEVEL: 0 DIFFERENT FILL-ORIGIN LEVEL: 0
ITLB AVERAGE MISS LATENCY: 1158.5 cycles
ITLB RQ	ACCESS:   43072689	FORWARD:          0	MERGED:    9125295	TO_CACHE:   33947394

DTLB TOTAL     ACCESS:   53835736  HIT:   53805839  MISS:      29897  HIT %:    99.9445  MISS %:  0.0555337   MPKI: 0.149485
DTLB LOAD TRANSLATION ACCESS:   53835736  HIT:   53805839  MISS:      29897  HIT %:    99.9445  MISS %:  0.0555337   MPKI: 0.149485
DTLB PREFETCH  REQUESTED:          0  ISSUED:          0  USEFUL:          0  USELESS:          0
DTLB USEFUL LOAD PREFETCHES:          0 PREFETCH ISSUED TO LOWER LEVEL:          0  ACCURACY: -nan
DTLB TIMELY PREFETCHES:          0 LATE PREFETCHES: 0 DROPPED PREFETCHES: 0
DTLB PREFETCHES SAME FILL-ORIGIN LEVEL: 0 DIFFERENT FILL-ORIGIN LEVEL: 0
DTLB AVERAGE MISS LATENCY: 549.312 cycles
DTLB RQ	ACCESS:   61559107	FORWARD:          0	MERGED:    7638950	TO_CACHE:   53920157

STLB TOTAL     ACCESS:    4908503  HIT:    4879354  MISS:      29149  HIT %:    99.4062  MISS %:   0.593847   MPKI: 0.145745
STLB LOAD TRANSLATION ACCESS:      29899  HIT:       9933  MISS:      19966  HIT %:    33.2218  MISS %:    66.7782   MPKI: 0.09983
STLB TRANSLATION FROM L1D PREFETCHER ACCESS:    4878604  HIT:    4869421  MISS:       9183  HIT %:    99.8118  MISS %:    0.18823   MPKI: 0.045915
STLB PREFETCH  REQUESTED:          0  ISSUED:          0  USEFUL:       9180  USELESS:          2
STLB USEFUL LOAD PREFETCHES:       9180 PREFETCH ISSUED TO LOWER LEVEL:          0  ACCURACY: inf
STLB TIMELY PREFETCHES:       9180 LATE PREFETCHES: 878 DROPPED PREFETCHES: 27428
STLB PREFETCHES SAME FILL-ORIGIN LEVEL: 0 DIFFERENT FILL-ORIGIN LEVEL: 0
STLB AVERAGE MISS LATENCY: 661.027 cycles
STLB RQ	ACCESS:   23642922	FORWARD:          0	MERGED:   18699333	TO_CACHE:    4943589

STLB Hit, L1D data hit: 0
STLB Hit, L2C data hit: 0
STLB Hit, LLC data hit: 0
STLB Hit, LLC data miss: 0
STLB STLB hints to L2: 0
L1D TOTAL     ACCESS:   76210524  HIT:   74961941  MISS:    1248583  HIT %:    98.3617  MISS %:    1.63833   MPKI: 6.24291
L1D LOAD      ACCESS:   37747360  HIT:   37539980  MISS:     207380  HIT %:    99.4506  MISS %:   0.549389   MPKI: 1.0369
L1D RFO       ACCESS:   21503612  HIT:   21085229  MISS:     418383  HIT %:    98.0544  MISS %:    1.94564   MPKI: 2.09192
L1D PREFETCH  ACCESS:   16959552  HIT:   16336732  MISS:     622820  HIT %:    96.3276  MISS %:    3.67238   MPKI: 3.1141
L1D PREFETCH  REQUESTED:   95576707  ISSUED:   62739137  USEFUL:     584297  USELESS:      38604
L1D USEFUL LOAD PREFETCHES:     584297 PREFETCH ISSUED TO LOWER LEVEL:   13199461  ACCURACY: 4.42667
L1D TIMELY PREFETCHES:     584297 LATE PREFETCHES: 63377 DROPPED PREFETCHES: 103365
L1D PREFETCHES SAME FILL-ORIGIN LEVEL: 910655 DIFFERENT FILL-ORIGIN LEVEL: 12288806
L1D AVERAGE MISS LATENCY: 768.978 cycles
L1D RQ	ACCESS:   47817760	FORWARD:          0	MERGED:    9850540	TO_CACHE:   37938396
L1D WQ	ACCESS:   25062310	FORWARD:      28864	MERGED:    1441599	TO_CACHE:   23620711
L1D PQ	ACCESS:   39126116	FORWARD:          0	MERGED:   15513055	TO_CACHE:   23613021

L1D UNIQUE REGIONS ACCESSED: 0
L1D REGIONS CONFLICTS: 0
L1D Cross Page Prefetch Requests: 4797279
L1D Same Page Prefetch Requests: 46013921
L1D ROI Sum of L1D PQ occupancy: 772922610
L1D PREFETCHES PUSHED FROM L2C: 0
L1I TOTAL     ACCESS:   43056460  HIT:   43056424  MISS:         36  HIT %:    99.9999  MISS %: 8.36111e-05   MPKI: 0.00018
L1I LOAD      ACCESS:   43056460  HIT:   43056424  MISS:         36  HIT %:    99.9999  MISS %: 8.36111e-05   MPKI: 0.00018
L1I PREFETCH  REQUESTED:          0  ISSUED:          0  USEFUL:          0  USELESS:          0
L1I USEFUL LOAD PREFETCHES:          0 PREFETCH ISSUED TO LOWER LEVEL:          0  ACCURACY: -nan
L1I TIMELY PREFETCHES:          0 LATE PREFETCHES: 0 DROPPED PREFETCHES: 0
L1I PREFETCHES SAME FILL-ORIGIN LEVEL: 0 DIFFERENT FILL-ORIGIN LEVEL: 0
L1I AVERAGE MISS LATENCY: 1109.17 cycles
L1I RQ	ACCESS:   56743564	FORWARD:          0	MERGED:   13670875	TO_CACHE:   43072689

BTB TOTAL     ACCESS:   12980515  HIT:   11531274  MISS:    1449241  HIT %:    88.8353  MISS %:    11.1647   MPKI: 7.2462
BTB BRANCH_DIRECT_JUMP	ACCESS:    1449216  HIT:    1449208  MISS:          8
BTB BRANCH_INDIRECT	ACCESS:          0  HIT:          0  MISS:          0
BTB BRANCH_CONDITIONAL	ACCESS:    5734550  HIT:    5734519  MISS:         31
BTB BRANCH_DIRECT_CALL	ACCESS:    2898375  HIT:    2898365  MISS:         10
BTB BRANCH_INDIRECT_CALL	ACCESS:          0  HIT:          0  MISS:          0
BTB BRANCH_RETURN	ACCESS:    2898374  HIT:    1449182  MISS:    1449192
BTB BRANCH_OTHER ACCESS:          0  HIT:          0  MISS:          0

L2C TOTAL     ACCESS:    5725984  HIT:    4385043  MISS:    1340941  HIT %:    76.5815  MISS %:    23.4185   MPKI: 6.7047
L2C LOAD      ACCESS:     144033  HIT:     102596  MISS:      41437  HIT %:    71.2309  MISS %:    28.7691   MPKI: 0.207185
L2C DATA LOAD MPKI: 0.207005
L2C INSTRUCTION LOAD MPKI: 0.00018
L2C RFO       ACCESS:     418383  HIT:          0  MISS:     418383  HIT %:          0  MISS %:        100   MPKI: 2.09192
L2C PREFETCH  ACCESS:    4687915  HIT:    3882804  MISS:     805111  HIT %:    82.8258  MISS %:    17.1742   MPKI: 4.02555
L2C DATA PREFETCH MPKI: 4.02555
L2C INSTRUCTION PREFETCH MPKI: 0
L2C WRITEBACK ACCESS:     418286  HIT:     348509  MISS:      69777  HIT %:    83.3184  MISS %:    16.6816   MPKI: 0.348885
L2C LOAD TRANSLATION ACCESS:      19859  HIT:      15434  MISS:       4425  HIT %:    77.7179  MISS %:    22.2821   MPKI: 0.022125
L2C TRANSLATION FROM L1D PREFETCHER ACCESS:      37508  HIT:      35700  MISS:       1808  HIT %:    95.1797  MISS %:    4.82031   MPKI: 0.00904
L2C PREFETCH  REQUESTED:          0  ISSUED:          0  USEFUL:     104193  USELESS:     702715
L2C USEFUL LOAD PREFETCHES:     104193 PREFETCH ISSUED TO LOWER LEVEL:     824460  ACCURACY: 12.6377
L2C TIMELY PREFETCHES:     104193 LATE PREFETCHES: 19307 DROPPED PREFETCHES: 0
L2C PREFETCHES SAME FILL-ORIGIN LEVEL: 624224 DIFFERENT FILL-ORIGIN LEVEL: 0
L2C AVERAGE MISS LATENCY: 1422.73 cycles
L2C RQ	ACCESS:     619832	FORWARD:          0	MERGED:          0	TO_CACHE:     619826
L2C WQ	ACCESS:     418326	FORWARD:          6	MERGED:          0	TO_CACHE:     418326
L2C PQ	ACCESS:    6064879	FORWARD:          0	MERGED:      71368	TO_CACHE:    5993511

L2C Instructions Evicting Data 36
L2C Translations Evicting Data 6220
L2C Data Evicting Data 1258947
L2C Instructions Evicting Instructions 0
L2C Translations Evicting Instructions 1
L2C Data Evicting Instructions 34
L2C Instructions Evicting Translations 0
L2C Translations Evicting Translations 12
L2C Data Evicting Translations 5997
L2C Dense regions hint from L2: 0
PSCL5 TOTAL     ACCESS:      57274  HIT:      57274  MISS:          0  HIT %:        100  MISS %:          0   MPKI: 0
PSCL5 LOAD TRANSLATION ACCESS:      19785  HIT:      19785  MISS:          0  HIT %:        100  MISS %:          0   MPKI: 0
PSCL5 TRANSLATION FROM L1D PREFETCHER ACCESS:      37489  HIT:      37489  MISS:          0  HIT %:        100  MISS %:          0   MPKI: 0
PSCL5 PREFETCH  REQUESTED:          0  ISSUED:          0  USEFUL:          0  USELESS:          0
PSCL5 USEFUL LOAD PREFETCHES:          0 PREFETCH ISSUED TO LOWER LEVEL:          0  ACCURACY: -nan
PSCL5 TIMELY PREFETCHES:          0 LATE PREFETCHES: 0 DROPPED PREFETCHES: 0
PSCL5 PREFETCHES SAME FILL-ORIGIN LEVEL: 0 DIFFERENT FILL-ORIGIN LEVEL: 0

PSCL4 TOTAL     ACCESS:      57274  HIT:      57274  MISS:          0  HIT %:        100  MISS %:          0   MPKI: 0
PSCL4 LOAD TRANSLATION ACCESS:      19785  HIT:      19785  MISS:          0  HIT %:        100  MISS %:          0   MPKI: 0
PSCL4 TRANSLATION FROM L1D PREFETCHER ACCESS:      37489  HIT:      37489  MISS:          0  HIT %:        100  MISS %:          0   MPKI: 0
PSCL4 PREFETCH  REQUESTED:          0  ISSUED:          0  USEFUL:          0  USELESS:          0
PSCL4 USEFUL LOAD PREFETCHES:          0 PREFETCH ISSUED TO LOWER LEVEL:          0  ACCURACY: -nan
PSCL4 TIMELY PREFETCHES:          0 LATE PREFETCHES: 0 DROPPED PREFETCHES: 0
PSCL4 PREFETCHES SAME FILL-ORIGIN LEVEL: 0 DIFFERENT FILL-ORIGIN LEVEL: 0

PSCL3 TOTAL     ACCESS:      56860  HIT:      56854  MISS:          6  HIT %:    99.9894  MISS %:  0.0105522   MPKI: 3e-05
PSCL3 LOAD TRANSLATION ACCESS:      19477  HIT:      19471  MISS:          6  HIT %:    99.9692  MISS %:  0.0308056   MPKI: 3e-05
PSCL3 TRANSLATION FROM L1D PREFETCHER ACCESS:      37383  HIT:      37383  MISS:          0  HIT %:        100  MISS %:          0   MPKI: 0
PSCL3 PREFETCH  REQUESTED:          0  ISSUED:          0  USEFUL:          0  USELESS:          0
PSCL3 USEFUL LOAD PREFETCHES:          0 PREFETCH ISSUED TO LOWER LEVEL:          0  ACCURACY: -nan
PSCL3 TIMELY PREFETCHES:          0 LATE PREFETCHES: 0 DROPPED PREFETCHES: 0
PSCL3 PREFETCHES SAME FILL-ORIGIN LEVEL: 0 DIFFERENT FILL-ORIGIN LEVEL: 0

PSCL2 TOTAL     ACCESS:      57254  HIT:      57126  MISS:        128  HIT %:    99.7764  MISS %:   0.223565   MPKI: 0.00064
PSCL2 LOAD TRANSLATION ACCESS:      19802  HIT:      19674  MISS:        128  HIT %:    99.3536  MISS %:   0.646399   MPKI: 0.00064
PSCL2 TRANSLATION FROM L1D PREFETCHER ACCESS:      37452  HIT:      37452  MISS:          0  HIT %:        100  MISS %:          0   MPKI: 0
PSCL2 PREFETCH  REQUESTED:          0  ISSUED:          0  USEFUL:          0  USELESS:          0
PSCL2 USEFUL LOAD PREFETCHES:          0 PREFETCH ISSUED TO LOWER LEVEL:          0  ACCURACY: -nan
PSCL2 TIMELY PREFETCHES:          0 LATE PREFETCHES: 0 DROPPED PREFETCHES: 0
PSCL2 PREFETCHES SAME FILL-ORIGIN LEVEL: 0 DIFFERENT FILL-ORIGIN LEVEL: 0

LLC TOTAL     ACCESS:    1689380  HIT:     402488  MISS:    1286892  HIT %:    23.8246  MISS %:    76.1754   MPKI: 6.43446
LLC LOAD      ACCESS:      22130  HIT:         69  MISS:      22061  HIT %:   0.311794  MISS %:    99.6882   MPKI: 0.110305
LLC RFO       ACCESS:     418383  HIT:          0  MISS:     418383  HIT %:          0  MISS %:        100   MPKI: 2.09192
LLC PREFETCH  ACCESS:     824418  HIT:        170  MISS:     824248  HIT %:  0.0206206  MISS %:    99.9794   MPKI: 4.12124
LLC WRITEBACK ACCESS:     418216  HIT:     402149  MISS:      16067  HIT %:    96.1582  MISS %:    3.84179   MPKI: 0.080335
LLC LOAD TRANSLATION ACCESS:       4425  HIT:         50  MISS:       4375  HIT %:    1.12994  MISS %:    98.8701   MPKI: 0.021875
LLC TRANSLATION FROM L1D PREFETCHER ACCESS:       1808  HIT:         50  MISS:       1758  HIT %:    2.76549  MISS %:    97.2345   MPKI: 0.00879
LLC PREFETCH  REQUESTED:          0  ISSUED:          0  USEFUL:        163  USELESS:    3314294
LLC USEFUL LOAD PREFETCHES:        163 PREFETCH ISSUED TO LOWER LEVEL:  254851751  ACCURACY: 6.39588e-05
LLC TIMELY PREFETCHES:        163 LATE PREFETCHES: 0 DROPPED PREFETCHES: 0
LLC PREFETCHES SAME FILL-ORIGIN LEVEL: 0 DIFFERENT FILL-ORIGIN LEVEL: 0
LLC AVERAGE MISS LATENCY: 4713.9 cycles
LLC RQ	ACCESS:    1787447	FORWARD:          0	MERGED:          0	TO_CACHE:    1787447
LLC WQ	ACCESS:    1672342	FORWARD:          0	MERGED:          0	TO_CACHE:    1672342
LLC PQ	ACCESS:    3297187	FORWARD:          0	MERGED:          0	TO_CACHE:    3297187

LLC Dense regions hint to LLC: 0

RAW hits: 6763123
Loads Generated: 54564109
Loads sent to L1D: 47800986
Stores Generated: 25053029
Stores sent to L1D: 25053030
Major fault: 0 Minor fault: 17838
Allocated PAGES: 71352

DRAM Statistics
 CHANNEL 0
 RQ ROW_BUFFER_HIT:    1968088  ROW_BUFFER_MISS:    3115094
 DBUS_CONGESTED:       5135
 WQ ROW_BUFFER_HIT:     187024  ROW_BUFFER_MISS:    1470310  FULL:          0

 AVG_CONGESTED_CYCLE: 4
 All warmup complete: 5
Channel 0 Bank busy for read cycles: 0
Channel 0 Bank busy for write cycles: 0
Channel 0
Rank 0
0banks busy for read cycles: 144957393
0banks busy for write cycles: 177237
1banks busy for read cycles: 79354503
1banks busy for write cycles: 26980768
2banks busy for read cycles: 14192591
2banks busy for write cycles: 5988357
3banks busy for read cycles: 1184457
3banks busy for write cycles: 1836579
4banks busy for read cycles: 303245
4banks busy for write cycles: 988320
5banks busy for read cycles: 304659
5banks busy for write cycles: 781715
6banks busy for read cycles: 449985
6banks busy for write cycles: 804902
7banks busy for read cycles: 5049787
7banks busy for write cycles: 4289052
8banks busy for read cycles: 58689914
8banks busy for write cycles: 31793973

CPU 0 Branch Prediction Accuracy: 99.9742% MPKI: 0.0279556 Average ROB Occupancy at Mispredict: 157.857
Branch types
NOT_BRANCH: 178379367 89.1602%
BRANCH_DIRECT_JUMP: 1449812 0.724666%
BRANCH_INDIRECT: 0 0%
BRANCH_CONDITIONAL: 14437575 7.2164%
BRANCH_DIRECT_CALL: 2899567 1.4493%
BRANCH_INDIRECT_CALL: 0 0%
BRANCH_RETURN: 2899566 1.4493%
BRANCH_OTHER: 0 0%


CPU 1 Branch Prediction Accuracy: 99.9742% MPKI: 0.0279544 Average ROB Occupancy at Mispredict: 158.97
Branch types
NOT_BRANCH: 178387444 89.1602%
BRANCH_DIRECT_JUMP: 1449885 0.72467%
BRANCH_INDIRECT: 0 0%
BRANCH_CONDITIONAL: 14438221 7.21639%
BRANCH_DIRECT_CALL: 2899713 1.44931%
BRANCH_INDIRECT_CALL: 0 0%
BRANCH_RETURN: 2899712 1.44931%
BRANCH_OTHER: 0 0%


CPU 2 Branch Prediction Accuracy: 99.9742% MPKI: 0.0279649 Average ROB Occupancy at Mispredict: 157.825
Branch types
NOT_BRANCH: 178321165 89.1606%
BRANCH_DIRECT_JUMP: 1449221 0.72461%
BRANCH_INDIRECT: 0 0%
BRANCH_CONDITIONAL: 14432567 7.21628%
BRANCH_DIRECT_CALL: 2898385 1.44919%
BRANCH_INDIRECT_CALL: 0 0%
BRANCH_RETURN: 2898382 1.44919%
BRANCH_OTHER: 0 0%


CPU 3 Branch Prediction Accuracy: 99.9742% MPKI: 0.0279545 Average ROB Occupancy at Mispredict: 158.454
Branch types
NOT_BRANCH: 178387081 89.1602%
BRANCH_DIRECT_JUMP: 1449878 0.724668%
BRANCH_INDIRECT: 0 0%
BRANCH_CONDITIONAL: 14438172 7.21638%
BRANCH_DIRECT_CALL: 2899699 1.44931%
BRANCH_INDIRECT_CALL: 0 0%
BRANCH_RETURN: 2899698 1.44931%
BRANCH_OTHER: 0 0%

DRAM PAGES: 1048576
Allocated PAGES: 71352
