
*** ChampSim Multicore Out-of-Order Simulator ***

Warmup Instructions: 50000000
Simulation Instructions: 200000000
Number of CPUs: 4
LLC sets: 8192
LLC ways: 16
Off-chip DRAM Size: 4096 MB Channels: 1 Width: 64-bit Data Rate: 6400 MT/s
CPU 0 runs ./traces/spec/605.mcf_s-994B.champsimtrace.xz
.xz
CPU 1 runs ./traces/spec/605.mcf_s-994B.champsimtrace.xz
.xz
CPU 2 runs ./traces/spec/605.mcf_s-994B.champsimtrace.xz
.xz
CPU 3 runs ./traces/spec/605.mcf_s-994B.champsimtrace.xz
.xz
BTB has LRU replacement policy
ITLB has LRU replacement policy
DTLB has LRU replacement policy
STLB has LRU replacement policy
L1I has LRU replacement policy
History Sets: 8
History Ways: 16
BERTI Size: 16
BERTI Stride Size: 8
L1D has LRU replacement policy
Initialize SRRIP state for L2C
Initialize DRRIP state for LLC
BTB has LRU replacement policy
ITLB has LRU replacement policy
DTLB has LRU replacement policy
STLB has LRU replacement policy
L1I has LRU replacement policy
History Sets: 8
History Ways: 16
BERTI Size: 16
BERTI Stride Size: 8
L1D has LRU replacement policy
Initialize SRRIP state for L2C
Initialize DRRIP state for LLC
BTB has LRU replacement policy
ITLB has LRU replacement policy
DTLB has LRU replacement policy
STLB has LRU replacement policy
L1I has LRU replacement policy
History Sets: 8
History Ways: 16
BERTI Size: 16
BERTI Stride Size: 8
L1D has LRU replacement policy
Initialize SRRIP state for L2C
Initialize DRRIP state for LLC
BTB has LRU replacement policy
ITLB has LRU replacement policy
DTLB has LRU replacement policy
STLB has LRU replacement policy
L1I has LRU replacement policy
History Sets: 8
History Ways: 16
BERTI Size: 16
BERTI Stride Size: 8
L1D has LRU replacement policy
Initialize SRRIP state for L2C
Initialize DRRIP state for LLC
Heartbeat CPU 0 instructions: 10000000 cycles: 3269578 heartbeat IPC: 3.0585 cumulative IPC: 3.0585 (Simulation time: 0 hr 4 min 4 sec) 
Heartbeat CPU 1 instructions: 10000000 cycles: 3271645 heartbeat IPC: 3.05657 cumulative IPC: 3.05657 (Simulation time: 0 hr 4 min 4 sec) 
Heartbeat CPU 2 instructions: 10000000 cycles: 3273264 heartbeat IPC: 3.05505 cumulative IPC: 3.05505 (Simulation time: 0 hr 4 min 5 sec) 
Heartbeat CPU 3 instructions: 10000000 cycles: 3274575 heartbeat IPC: 3.05383 cumulative IPC: 3.05383 (Simulation time: 0 hr 4 min 5 sec) 
Heartbeat CPU 0 instructions: 20000003 cycles: 6576426 heartbeat IPC: 3.02403 cumulative IPC: 3.04117 (Simulation time: 0 hr 8 min 18 sec) 
Heartbeat CPU 1 instructions: 20000003 cycles: 6580198 heartbeat IPC: 3.02247 cumulative IPC: 3.03942 (Simulation time: 0 hr 8 min 19 sec) 
Heartbeat CPU 2 instructions: 20000003 cycles: 6583845 heartbeat IPC: 3.02062 cumulative IPC: 3.03774 (Simulation time: 0 hr 8 min 19 sec) 
Heartbeat CPU 3 instructions: 20000003 cycles: 6588065 heartbeat IPC: 3.01797 cumulative IPC: 3.03579 (Simulation time: 0 hr 8 min 19 sec) 
Heartbeat CPU 0 instructions: 30000003 cycles: 9924700 heartbeat IPC: 2.98661 cumulative IPC: 3.02276 (Simulation time: 0 hr 12 min 41 sec) 
Heartbeat CPU 1 instructions: 30000003 cycles: 9930335 heartbeat IPC: 2.98495 cumulative IPC: 3.02105 (Simulation time: 0 hr 12 min 41 sec) 
Heartbeat CPU 2 instructions: 30000003 cycles: 9936250 heartbeat IPC: 2.98293 cumulative IPC: 3.01925 (Simulation time: 0 hr 12 min 42 sec) 
Heartbeat CPU 3 instructions: 30000003 cycles: 9942722 heartbeat IPC: 2.98093 cumulative IPC: 3.01728 (Simulation time: 0 hr 12 min 42 sec) 
Heartbeat CPU 0 instructions: 40000002 cycles: 13273887 heartbeat IPC: 2.9858 cumulative IPC: 3.01344 (Simulation time: 0 hr 16 min 58 sec) 
Heartbeat CPU 1 instructions: 40000002 cycles: 13280955 heartbeat IPC: 2.98452 cumulative IPC: 3.01183 (Simulation time: 0 hr 16 min 58 sec) 
Heartbeat CPU 2 instructions: 40000002 cycles: 13288557 heartbeat IPC: 2.98302 cumulative IPC: 3.01011 (Simulation time: 0 hr 16 min 59 sec) 
Heartbeat CPU 3 instructions: 40000002 cycles: 13296591 heartbeat IPC: 2.98163 cumulative IPC: 3.00829 (Simulation time: 0 hr 17 min 0 sec) 
Heartbeat CPU 0 instructions: 50000001 cycles: 16913782 heartbeat IPC: 2.74733 cumulative IPC: 2.95617 (Simulation time: 0 hr 21 min 47 sec) 
Heartbeat CPU 1 instructions: 50000001 cycles: 16931172 heartbeat IPC: 2.73956 cumulative IPC: 2.95313 (Simulation time: 0 hr 21 min 48 sec) 
Heartbeat CPU 2 instructions: 50000001 cycles: 16947331 heartbeat IPC: 2.73316 cumulative IPC: 2.95032 (Simulation time: 0 hr 21 min 49 sec) 
Heartbeat CPU 3 instructions: 50000001 cycles: 16964006 heartbeat IPC: 2.72672 cumulative IPC: 2.94742 (Simulation time: 0 hr 21 min 50 sec) 

Warmup complete CPU 0 instructions: 50070153 cycles: 16964006 (Simulation time: 0 hr 21 min 50 sec) 
Warmup complete CPU 1 instructions: 50045647 cycles: 16964006 (Simulation time: 0 hr 21 min 50 sec) 
Warmup complete CPU 2 instructions: 50022967 cycles: 16964006 (Simulation time: 0 hr 21 min 50 sec) 
Warmup complete CPU 3 instructions: 50000001 cycles: 16964006 (Simulation time: 0 hr 21 min 50 sec) 

Heartbeat CPU 0 instructions: 60000000 cycles: 61052153 heartbeat IPC: 0.22656 cumulative IPC: 0.225227 (Simulation time: 0 hr 27 min 1 sec) 
Heartbeat CPU 1 instructions: 60000000 cycles: 61393496 heartbeat IPC: 0.224909 cumulative IPC: 0.224048 (Simulation time: 0 hr 27 min 5 sec) 
Heartbeat CPU 2 instructions: 60000000 cycles: 61681881 heartbeat IPC: 0.223541 cumulative IPC: 0.223111 (Simulation time: 0 hr 27 min 9 sec) 
Heartbeat CPU 3 instructions: 60000000 cycles: 61868907 heartbeat IPC: 0.222693 cumulative IPC: 0.222693 (Simulation time: 0 hr 27 min 11 sec) 
Heartbeat CPU 0 instructions: 70000000 cycles: 110689473 heartbeat IPC: 0.201461 cumulative IPC: 0.212641 (Simulation time: 0 hr 32 min 25 sec) 
Heartbeat CPU 1 instructions: 70000000 cycles: 111010542 heartbeat IPC: 0.201544 cumulative IPC: 0.212175 (Simulation time: 0 hr 32 min 27 sec) 
Heartbeat CPU 2 instructions: 70000000 cycles: 111286286 heartbeat IPC: 0.201595 cumulative IPC: 0.211795 (Simulation time: 0 hr 32 min 29 sec) 
Heartbeat CPU 3 instructions: 70000003 cycles: 111478821 heartbeat IPC: 0.201573 cumulative IPC: 0.211607 (Simulation time: 0 hr 32 min 30 sec) 
Heartbeat CPU 0 instructions: 80000001 cycles: 143627371 heartbeat IPC: 0.303602 cumulative IPC: 0.236294 (Simulation time: 0 hr 37 min 16 sec) 
Heartbeat CPU 1 instructions: 80000003 cycles: 144069788 heartbeat IPC: 0.302487 cumulative IPC: 0.235665 (Simulation time: 0 hr 37 min 20 sec) 
Heartbeat CPU 2 instructions: 80000000 cycles: 144178529 heartbeat IPC: 0.304023 cumulative IPC: 0.235642 (Simulation time: 0 hr 37 min 22 sec) 
Heartbeat CPU 3 instructions: 80000002 cycles: 144245544 heartbeat IPC: 0.305188 cumulative IPC: 0.235698 (Simulation time: 0 hr 37 min 23 sec) 
Heartbeat CPU 0 instructions: 90000002 cycles: 179922759 heartbeat IPC: 0.275517 cumulative IPC: 0.24503 (Simulation time: 0 hr 42 min 21 sec) 
Heartbeat CPU 1 instructions: 90000002 cycles: 180976431 heartbeat IPC: 0.270954 cumulative IPC: 0.243606 (Simulation time: 0 hr 42 min 33 sec) 
Heartbeat CPU 2 instructions: 90000002 cycles: 181239948 heartbeat IPC: 0.269822 cumulative IPC: 0.243353 (Simulation time: 0 hr 42 min 37 sec) 
Heartbeat CPU 3 instructions: 90000002 cycles: 181272245 heartbeat IPC: 0.270075 cumulative IPC: 0.243445 (Simulation time: 0 hr 42 min 37 sec) 
Heartbeat CPU 0 instructions: 100000001 cycles: 210102872 heartbeat IPC: 0.331344 cumulative IPC: 0.258518 (Simulation time: 0 hr 47 min 20 sec) 
Heartbeat CPU 1 instructions: 100000001 cycles: 211509001 heartbeat IPC: 0.327519 cumulative IPC: 0.256775 (Simulation time: 0 hr 47 min 30 sec) 
Heartbeat CPU 2 instructions: 100000001 cycles: 211844449 heartbeat IPC: 0.326749 cumulative IPC: 0.25645 (Simulation time: 0 hr 47 min 32 sec) 
Heartbeat CPU 3 instructions: 100000001 cycles: 211906620 heartbeat IPC: 0.326431 cumulative IPC: 0.256486 (Simulation time: 0 hr 47 min 32 sec) 
Heartbeat CPU 0 instructions: 110000000 cycles: 269688339 heartbeat IPC: 0.167826 cumulative IPC: 0.237135 (Simulation time: 0 hr 53 min 27 sec) 
Heartbeat CPU 1 instructions: 110000000 cycles: 271413776 heartbeat IPC: 0.166932 cumulative IPC: 0.235624 (Simulation time: 0 hr 53 min 46 sec) 
Heartbeat CPU 2 instructions: 110000000 cycles: 271864810 heartbeat IPC: 0.16661 cumulative IPC: 0.235296 (Simulation time: 0 hr 53 min 52 sec) 
Heartbeat CPU 3 instructions: 110000000 cycles: 271974390 heartbeat IPC: 0.166479 cumulative IPC: 0.235285 (Simulation time: 0 hr 53 min 53 sec) 
Heartbeat CPU 0 instructions: 120000000 cycles: 311272893 heartbeat IPC: 0.240474 cumulative IPC: 0.237607 (Simulation time: 0 hr 58 min 13 sec) 
Heartbeat CPU 1 instructions: 120000000 cycles: 313573435 heartbeat IPC: 0.237194 cumulative IPC: 0.235847 (Simulation time: 0 hr 58 min 35 sec) 
Heartbeat CPU 2 instructions: 120000000 cycles: 313877914 heartbeat IPC: 0.238021 cumulative IPC: 0.235681 (Simulation time: 0 hr 58 min 39 sec) 
Heartbeat CPU 3 instructions: 120000000 cycles: 313953269 heartbeat IPC: 0.238215 cumulative IPC: 0.235699 (Simulation time: 0 hr 58 min 40 sec) 
Heartbeat CPU 0 instructions: 130000000 cycles: 346817229 heartbeat IPC: 0.281339 cumulative IPC: 0.242319 (Simulation time: 1 hr 3 min 2 sec) 
Heartbeat CPU 1 instructions: 130000000 cycles: 349069414 heartbeat IPC: 0.281722 cumulative IPC: 0.24075 (Simulation time: 1 hr 3 min 32 sec) 
Heartbeat CPU 2 instructions: 130000000 cycles: 349237074 heartbeat IPC: 0.282812 cumulative IPC: 0.240697 (Simulation time: 1 hr 3 min 34 sec) 
Heartbeat CPU 3 instructions: 130000000 cycles: 349313428 heartbeat IPC: 0.282804 cumulative IPC: 0.240711 (Simulation time: 1 hr 3 min 35 sec) 
Heartbeat CPU 0 instructions: 140000000 cycles: 391371508 heartbeat IPC: 0.224445 cumulative IPC: 0.240192 (Simulation time: 1 hr 8 min 19 sec) 
Heartbeat CPU 1 instructions: 140000000 cycles: 394691538 heartbeat IPC: 0.219192 cumulative IPC: 0.238146 (Simulation time: 1 hr 8 min 31 sec) 
Heartbeat CPU 2 instructions: 140000000 cycles: 394826801 heartbeat IPC: 0.219348 cumulative IPC: 0.238121 (Simulation time: 1 hr 8 min 32 sec) 
Heartbeat CPU 3 instructions: 140000000 cycles: 394920385 heartbeat IPC: 0.219265 cumulative IPC: 0.238123 (Simulation time: 1 hr 8 min 32 sec) 
Heartbeat CPU 0 instructions: 150000003 cycles: 472337227 heartbeat IPC: 0.123509 cumulative IPC: 0.219446 (Simulation time: 1 hr 15 min 10 sec) 
Heartbeat CPU 1 instructions: 150000003 cycles: 475683792 heartbeat IPC: 0.123469 cumulative IPC: 0.217899 (Simulation time: 1 hr 15 min 43 sec) 
Heartbeat CPU 2 instructions: 150000003 cycles: 475684523 heartbeat IPC: 0.123674 cumulative IPC: 0.217948 (Simulation time: 1 hr 15 min 43 sec) 
Heartbeat CPU 3 instructions: 150000003 cycles: 475936249 heartbeat IPC: 0.123433 cumulative IPC: 0.217878 (Simulation time: 1 hr 15 min 46 sec) 
Heartbeat CPU 0 instructions: 160000000 cycles: 510702795 heartbeat IPC: 0.26065 cumulative IPC: 0.222648 (Simulation time: 1 hr 20 min 28 sec) 
Heartbeat CPU 2 instructions: 160000002 cycles: 516795290 heartbeat IPC: 0.243245 cumulative IPC: 0.220028 (Simulation time: 1 hr 21 min 21 sec) 
Heartbeat CPU 1 instructions: 160000002 cycles: 517146279 heartbeat IPC: 0.241182 cumulative IPC: 0.219829 (Simulation time: 1 hr 21 min 24 sec) 
Heartbeat CPU 3 instructions: 160000000 cycles: 517493683 heartbeat IPC: 0.240631 cumulative IPC: 0.219767 (Simulation time: 1 hr 21 min 29 sec) 
Heartbeat CPU 0 instructions: 170000003 cycles: 538978084 heartbeat IPC: 0.353666 cumulative IPC: 0.229744 (Simulation time: 1 hr 25 min 12 sec) 
Heartbeat CPU 2 instructions: 170000003 cycles: 546391095 heartbeat IPC: 0.337886 cumulative IPC: 0.226617 (Simulation time: 1 hr 26 min 21 sec) 
Heartbeat CPU 1 instructions: 170000003 cycles: 547402526 heartbeat IPC: 0.33051 cumulative IPC: 0.226142 (Simulation time: 1 hr 26 min 31 sec) 
Heartbeat CPU 3 instructions: 170000003 cycles: 547566904 heartbeat IPC: 0.332522 cumulative IPC: 0.226158 (Simulation time: 1 hr 26 min 33 sec) 
Heartbeat CPU 0 instructions: 180000000 cycles: 625043570 heartbeat IPC: 0.116191 cumulative IPC: 0.213672 (Simulation time: 1 hr 32 min 27 sec) 
Heartbeat CPU 2 instructions: 180000000 cycles: 634264209 heartbeat IPC: 0.1138 cumulative IPC: 0.210557 (Simulation time: 1 hr 33 min 42 sec) 
Heartbeat CPU 1 instructions: 180000000 cycles: 635674845 heartbeat IPC: 0.113286 cumulative IPC: 0.210041 (Simulation time: 1 hr 33 min 57 sec) 
Heartbeat CPU 3 instructions: 180000001 cycles: 635932377 heartbeat IPC: 0.113166 cumulative IPC: 0.210027 (Simulation time: 1 hr 34 min 0 sec) 
Heartbeat CPU 0 instructions: 190000003 cycles: 653830718 heartbeat IPC: 0.347377 cumulative IPC: 0.219716 (Simulation time: 1 hr 37 min 0 sec) 
Heartbeat CPU 2 instructions: 190000003 cycles: 663613360 heartbeat IPC: 0.340725 cumulative IPC: 0.216465 (Simulation time: 1 hr 38 min 22 sec) 
Heartbeat CPU 1 instructions: 190000003 cycles: 665355846 heartbeat IPC: 0.336916 cumulative IPC: 0.215848 (Simulation time: 1 hr 38 min 43 sec) 
Heartbeat CPU 3 instructions: 190000003 cycles: 665616272 heartbeat IPC: 0.336883 cumulative IPC: 0.215832 (Simulation time: 1 hr 38 min 45 sec) 
Heartbeat CPU 0 instructions: 200000000 cycles: 692046291 heartbeat IPC: 0.261673 cumulative IPC: 0.222091 (Simulation time: 1 hr 42 min 47 sec) 
Heartbeat CPU 2 instructions: 200000000 cycles: 700196146 heartbeat IPC: 0.273353 cumulative IPC: 0.219511 (Simulation time: 1 hr 43 min 32 sec) 
Heartbeat CPU 1 instructions: 200000000 cycles: 701965530 heartbeat IPC: 0.273152 cumulative IPC: 0.218911 (Simulation time: 1 hr 43 min 39 sec) 
Heartbeat CPU 3 instructions: 200000000 cycles: 702204345 heartbeat IPC: 0.273313 cumulative IPC: 0.218901 (Simulation time: 1 hr 43 min 40 sec) 
Heartbeat CPU 0 instructions: 210000001 cycles: 744008581 heartbeat IPC: 0.192447 cumulative IPC: 0.219973 (Simulation time: 1 hr 47 min 35 sec) 
Heartbeat CPU 2 instructions: 210000001 cycles: 754428278 heartbeat IPC: 0.184393 cumulative IPC: 0.216929 (Simulation time: 1 hr 49 min 22 sec) 
Heartbeat CPU 1 instructions: 210000001 cycles: 755626500 heartbeat IPC: 0.186355 cumulative IPC: 0.216546 (Simulation time: 1 hr 49 min 33 sec) 
Heartbeat CPU 3 instructions: 210000001 cycles: 755885780 heartbeat IPC: 0.186284 cumulative IPC: 0.216532 (Simulation time: 1 hr 49 min 36 sec) 
Heartbeat CPU 0 instructions: 220000000 cycles: 811048069 heartbeat IPC: 0.149166 cumulative IPC: 0.213995 (Simulation time: 1 hr 54 min 33 sec) 
Heartbeat CPU 2 instructions: 220000000 cycles: 820769083 heartbeat IPC: 0.150737 cumulative IPC: 0.211465 (Simulation time: 1 hr 55 min 40 sec) 
Heartbeat CPU 1 instructions: 220000000 cycles: 821864800 heartbeat IPC: 0.15097 cumulative IPC: 0.211149 (Simulation time: 1 hr 55 min 54 sec) 
Heartbeat CPU 3 instructions: 220000000 cycles: 822135378 heartbeat IPC: 0.150944 cumulative IPC: 0.211135 (Simulation time: 1 hr 55 min 57 sec) 
Heartbeat CPU 0 instructions: 230000000 cycles: 842462908 heartbeat IPC: 0.318321 cumulative IPC: 0.217965 (Simulation time: 1 hr 58 min 40 sec) 
Heartbeat CPU 2 instructions: 230000000 cycles: 853409600 heartbeat IPC: 0.306368 cumulative IPC: 0.215169 (Simulation time: 2 hr 0 min 24 sec) 
Heartbeat CPU 1 instructions: 230000000 cycles: 854616203 heartbeat IPC: 0.30533 cumulative IPC: 0.214832 (Simulation time: 2 hr 0 min 40 sec) 
Heartbeat CPU 3 instructions: 230000000 cycles: 854802967 heartbeat IPC: 0.306114 cumulative IPC: 0.214838 (Simulation time: 2 hr 0 min 42 sec) 
Heartbeat CPU 0 instructions: 240000002 cycles: 875372254 heartbeat IPC: 0.303865 cumulative IPC: 0.221258 (Simulation time: 2 hr 3 min 42 sec) 
Heartbeat CPU 2 instructions: 240000002 cycles: 890874846 heartbeat IPC: 0.266914 cumulative IPC: 0.217387 (Simulation time: 2 hr 5 min 56 sec) 
Heartbeat CPU 1 instructions: 240000002 cycles: 892295684 heartbeat IPC: 0.265396 cumulative IPC: 0.217008 (Simulation time: 2 hr 6 min 4 sec) 
Heartbeat CPU 3 instructions: 240000002 cycles: 892495208 heartbeat IPC: 0.265307 cumulative IPC: 0.217011 (Simulation time: 2 hr 6 min 5 sec) 
Heartbeat CPU 0 instructions: 250000002 cycles: 902355875 heartbeat IPC: 0.370595 cumulative IPC: 0.225809 (Simulation time: 2 hr 7 min 50 sec) 
Finished CPU 0 instructions: 200000001 cycles: 885508134 cumulative IPC: 0.225859 (Simulation time: 2 hr 7 min 52 sec) 
Heartbeat CPU 2 instructions: 250000002 cycles: 920411483 heartbeat IPC: 0.338563 cumulative IPC: 0.221349 (Simulation time: 2 hr 10 min 43 sec) 
Finished CPU 2 instructions: 200000002 cycles: 903485221 cumulative IPC: 0.221365 (Simulation time: 2 hr 10 min 44 sec) 
Heartbeat CPU 1 instructions: 250000002 cycles: 921758173 heartbeat IPC: 0.339415 cumulative IPC: 0.220994 (Simulation time: 2 hr 10 min 59 sec) 
Finished CPU 1 instructions: 200000000 cycles: 904871033 cumulative IPC: 0.221026 (Simulation time: 2 hr 11 min 0 sec) 
Heartbeat CPU 3 instructions: 250000002 cycles: 921917183 heartbeat IPC: 0.339882 cumulative IPC: 0.221006 (Simulation time: 2 hr 11 min 1 sec) 
Finished CPU 3 instructions: 200000001 cycles: 904953177 cumulative IPC: 0.221006 (Simulation time: 2 hr 11 min 1 sec) 

ChampSim completed all CPUs

Total Simulation Statistics (not including warmup)

CPU 0 cumulative IPC: 0.224885 instructions: 203510553 cycles: 904953177
ITLB TOTAL     ACCESS:   35995957  HIT:   35995957  MISS:          0  HIT %:        100  MISS %:          0   MPKI: 0
ITLB LOAD      ACCESS:          0  HIT:          0  MISS:          0  HIT %:       -nan  MISS %:       -nan   MPKI: 0
ITLB RFO       ACCESS:          0  HIT:          0  MISS:          0  HIT %:       -nan  MISS %:       -nan   MPKI: 0
ITLB PREFETCH  ACCESS:          0  HIT:          0  MISS:          0  HIT %:       -nan  MISS %:       -nan   MPKI: 0
ITLB WRITEBACK ACCESS:          0  HIT:          0  MISS:          0  HIT %:       -nan  MISS %:       -nan   MPKI: 0
DTLB TOTAL     ACCESS:   66232742  HIT:   63280361  MISS:    2952381  HIT %:    95.5424  MISS %:    4.45759   MPKI: 14.5073
DTLB LOAD      ACCESS:          0  HIT:          0  MISS:          0  HIT %:       -nan  MISS %:       -nan   MPKI: 0
DTLB RFO       ACCESS:          0  HIT:          0  MISS:          0  HIT %:       -nan  MISS %:       -nan   MPKI: 0
DTLB PREFETCH  ACCESS:          0  HIT:          0  MISS:          0  HIT %:       -nan  MISS %:       -nan   MPKI: 0
DTLB WRITEBACK ACCESS:          0  HIT:          0  MISS:          0  HIT %:       -nan  MISS %:       -nan   MPKI: 0
STLB TOTAL     ACCESS:   24833297  HIT:   23361903  MISS:    1471394  HIT %:    94.0749  MISS %:    5.92509   MPKI: 7.23006
STLB LOAD      ACCESS:          0  HIT:          0  MISS:          0  HIT %:       -nan  MISS %:       -nan   MPKI: 0
STLB RFO       ACCESS:          0  HIT:          0  MISS:          0  HIT %:       -nan  MISS %:       -nan   MPKI: 0
STLB PREFETCH  ACCESS:          0  HIT:          0  MISS:          0  HIT %:       -nan  MISS %:       -nan   MPKI: 0
STLB WRITEBACK ACCESS:          0  HIT:          0  MISS:          0  HIT %:       -nan  MISS %:       -nan   MPKI: 0
L1D TOTAL     ACCESS:  139159465  HIT:  132070457  MISS:    7089008  HIT %:    94.9058  MISS %:    5.09416   MPKI: 34.8336
L1D LOAD      ACCESS:   58637031  HIT:   51893482  MISS:    6743549  HIT %:    88.4995  MISS %:    11.5005   MPKI: 33.1361
L1D RFO       ACCESS:   20385187  HIT:   20333402  MISS:      51785  HIT %:     99.746  MISS %:   0.254032   MPKI: 0.254459
L1D PREFETCH  ACCESS:   60137247  HIT:   59843573  MISS:     293674  HIT %:    99.5117  MISS %:    0.48834   MPKI: 1.44304
L1D WRITEBACK ACCESS:          0  HIT:          0  MISS:          0  HIT %:       -nan  MISS %:       -nan   MPKI: 0
L1I TOTAL     ACCESS:   36912569  HIT:   36912569  MISS:          0  HIT %:        100  MISS %:          0   MPKI: 0
L1I LOAD      ACCESS:   36912569  HIT:   36912569  MISS:          0  HIT %:        100  MISS %:          0   MPKI: 0
L1I RFO       ACCESS:          0  HIT:          0  MISS:          0  HIT %:       -nan  MISS %:       -nan   MPKI: 0
L1I PREFETCH  ACCESS:          0  HIT:          0  MISS:          0  HIT %:       -nan  MISS %:       -nan   MPKI: 0
L1I WRITEBACK ACCESS:          0  HIT:          0  MISS:          0  HIT %:       -nan  MISS %:       -nan   MPKI: 0
L2C TOTAL     ACCESS:   37045139  HIT:   28882741  MISS:    8162398  HIT %:    77.9663  MISS %:    22.0337   MPKI: 40.108
L2C LOAD      ACCESS:    6743210  HIT:    2391020  MISS:    4352190  HIT %:    35.4582  MISS %:    64.5418   MPKI: 21.3856
L2C RFO       ACCESS:      51784  HIT:      43720  MISS:       8064  HIT %:    84.4276  MISS %:    15.5724   MPKI: 0.0396245
L2C PREFETCH  ACCESS:   27215225  HIT:   24053639  MISS:    3161586  HIT %:     88.383  MISS %:     11.617   MPKI: 15.5352
L2C WRITEBACK ACCESS:     465266  HIT:     451781  MISS:      13485  HIT %:    97.1017  MISS %:    2.89834   MPKI: 0.0662619
PSCL5 TOTAL     ACCESS:    1594907  HIT:    1594907  MISS:          0  HIT %:        100  MISS %:          0   MPKI: 0
PSCL5 LOAD      ACCESS:          0  HIT:          0  MISS:          0  HIT %:       -nan  MISS %:       -nan   MPKI: 0
PSCL5 RFO       ACCESS:          0  HIT:          0  MISS:          0  HIT %:       -nan  MISS %:       -nan   MPKI: 0
PSCL5 PREFETCH  ACCESS:          0  HIT:          0  MISS:          0  HIT %:       -nan  MISS %:       -nan   MPKI: 0
PSCL5 WRITEBACK ACCESS:          0  HIT:          0  MISS:          0  HIT %:       -nan  MISS %:       -nan   MPKI: 0
PSCL4 TOTAL     ACCESS:    1594907  HIT:    1594907  MISS:          0  HIT %:        100  MISS %:          0   MPKI: 0
PSCL4 LOAD      ACCESS:          0  HIT:          0  MISS:          0  HIT %:       -nan  MISS %:       -nan   MPKI: 0
PSCL4 RFO       ACCESS:          0  HIT:          0  MISS:          0  HIT %:       -nan  MISS %:       -nan   MPKI: 0
PSCL4 PREFETCH  ACCESS:          0  HIT:          0  MISS:          0  HIT %:       -nan  MISS %:       -nan   MPKI: 0
PSCL4 WRITEBACK ACCESS:          0  HIT:          0  MISS:          0  HIT %:       -nan  MISS %:       -nan   MPKI: 0
PSCL3 TOTAL     ACCESS:    1594907  HIT:    1594907  MISS:          0  HIT %:        100  MISS %:          0   MPKI: 0
PSCL3 LOAD      ACCESS:          0  HIT:          0  MISS:          0  HIT %:       -nan  MISS %:       -nan   MPKI: 0
PSCL3 RFO       ACCESS:          0  HIT:          0  MISS:          0  HIT %:       -nan  MISS %:       -nan   MPKI: 0
PSCL3 PREFETCH  ACCESS:          0  HIT:          0  MISS:          0  HIT %:       -nan  MISS %:       -nan   MPKI: 0
PSCL3 WRITEBACK ACCESS:          0  HIT:          0  MISS:          0  HIT %:       -nan  MISS %:       -nan   MPKI: 0
PSCL2 TOTAL     ACCESS:    1555293  HIT:     620151  MISS:     935142  HIT %:    39.8736  MISS %:    60.1264   MPKI: 4.59505
PSCL2 LOAD      ACCESS:          0  HIT:          0  MISS:          0  HIT %:       -nan  MISS %:       -nan   MPKI: 0
PSCL2 RFO       ACCESS:          0  HIT:          0  MISS:          0  HIT %:       -nan  MISS %:       -nan   MPKI: 0
PSCL2 PREFETCH  ACCESS:          0  HIT:          0  MISS:          0  HIT %:       -nan  MISS %:       -nan   MPKI: 0
PSCL2 WRITEBACK ACCESS:          0  HIT:          0  MISS:          0  HIT %:       -nan  MISS %:       -nan   MPKI: 0
LLC TOTAL     ACCESS:    8458227  HIT:    2483416  MISS:    5974811  HIT %:     29.361  MISS %:     70.639   MPKI: 29.3587
LLC LOAD      ACCESS:    4257445  HIT:    1350162  MISS:    2907283  HIT %:     31.713  MISS %:     68.287   MPKI: 14.2857
LLC RFO       ACCESS:       7793  HIT:       5263  MISS:       2530  HIT %:     67.535  MISS %:     32.465   MPKI: 0.0124318
LLC PREFETCH  ACCESS:    3256598  HIT:     604087  MISS:    2652511  HIT %:    18.5496  MISS %:    81.4504   MPKI: 13.0338
LLC WRITEBACK ACCESS:     309318  HIT:     290854  MISS:      18464  HIT %:    94.0307  MISS %:    5.96926   MPKI: 0.0907275

RAW hits: 2063130
Loads Generated: 70608148
Loads sent to L1D: 68545017
Stores Generated: 20615200
Stores sent to L1D: 20615200

CPU 1 cumulative IPC: 0.221058 instructions: 200047467 cycles: 904953177
ITLB TOTAL     ACCESS:   35385859  HIT:   35385859  MISS:          0  HIT %:        100  MISS %:          0   MPKI: 0
ITLB LOAD      ACCESS:          0  HIT:          0  MISS:          0  HIT %:       -nan  MISS %:       -nan   MPKI: 0
ITLB RFO       ACCESS:          0  HIT:          0  MISS:          0  HIT %:       -nan  MISS %:       -nan   MPKI: 0
ITLB PREFETCH  ACCESS:          0  HIT:          0  MISS:          0  HIT %:       -nan  MISS %:       -nan   MPKI: 0
ITLB WRITEBACK ACCESS:          0  HIT:          0  MISS:          0  HIT %:       -nan  MISS %:       -nan   MPKI: 0
DTLB TOTAL     ACCESS:   65064635  HIT:   62142148  MISS:    2922487  HIT %:    95.5083  MISS %:    4.49167   MPKI: 14.609
DTLB LOAD      ACCESS:          0  HIT:          0  MISS:          0  HIT %:       -nan  MISS %:       -nan   MPKI: 0
DTLB RFO       ACCESS:          0  HIT:          0  MISS:          0  HIT %:       -nan  MISS %:       -nan   MPKI: 0
DTLB PREFETCH  ACCESS:          0  HIT:          0  MISS:          0  HIT %:       -nan  MISS %:       -nan   MPKI: 0
DTLB WRITEBACK ACCESS:          0  HIT:          0  MISS:          0  HIT %:       -nan  MISS %:       -nan   MPKI: 0
STLB TOTAL     ACCESS:   24460037  HIT:   23006941  MISS:    1453096  HIT %:    94.0593  MISS %:    5.94069   MPKI: 7.26376
STLB LOAD      ACCESS:          0  HIT:          0  MISS:          0  HIT %:       -nan  MISS %:       -nan   MPKI: 0
STLB RFO       ACCESS:          0  HIT:          0  MISS:          0  HIT %:       -nan  MISS %:       -nan   MPKI: 0
STLB PREFETCH  ACCESS:          0  HIT:          0  MISS:          0  HIT %:       -nan  MISS %:       -nan   MPKI: 0
STLB WRITEBACK ACCESS:          0  HIT:          0  MISS:          0  HIT %:       -nan  MISS %:       -nan   MPKI: 0
L1D TOTAL     ACCESS:  137277023  HIT:  130300808  MISS:    6976215  HIT %:    94.9181  MISS %:    5.08185   MPKI: 34.8728
L1D LOAD      ACCESS:   57628032  HIT:   50988909  MISS:    6639123  HIT %:    88.4794  MISS %:    11.5206   MPKI: 33.1877
L1D RFO       ACCESS:   20027805  HIT:   19976943  MISS:      50862  HIT %:     99.746  MISS %:   0.253957   MPKI: 0.25425
L1D PREFETCH  ACCESS:   59621186  HIT:   59334956  MISS:     286230  HIT %:    99.5199  MISS %:   0.480081   MPKI: 1.43081
L1D WRITEBACK ACCESS:          0  HIT:          0  MISS:          0  HIT %:       -nan  MISS %:       -nan   MPKI: 0
L1I TOTAL     ACCESS:   36288630  HIT:   36288630  MISS:          0  HIT %:        100  MISS %:          0   MPKI: 0
L1I LOAD      ACCESS:   36288630  HIT:   36288630  MISS:          0  HIT %:        100  MISS %:          0   MPKI: 0
L1I RFO       ACCESS:          0  HIT:          0  MISS:          0  HIT %:       -nan  MISS %:       -nan   MPKI: 0
L1I PREFETCH  ACCESS:          0  HIT:          0  MISS:          0  HIT %:       -nan  MISS %:       -nan   MPKI: 0
L1I WRITEBACK ACCESS:          0  HIT:          0  MISS:          0  HIT %:       -nan  MISS %:       -nan   MPKI: 0
L2C TOTAL     ACCESS:   36476411  HIT:   28482194  MISS:    7994217  HIT %:    78.0839  MISS %:    21.9161   MPKI: 39.9616
L2C LOAD      ACCESS:    6638803  HIT:    2346929  MISS:    4291874  HIT %:    35.3517  MISS %:    64.6483   MPKI: 21.4543
L2C RFO       ACCESS:      50861  HIT:      43175  MISS:       7686  HIT %:    84.8882  MISS %:    15.1118   MPKI: 0.0384209
L2C PREFETCH  ACCESS:   26800681  HIT:   23741697  MISS:    3058984  HIT %:    88.5862  MISS %:    11.4138   MPKI: 15.2913
L2C WRITEBACK ACCESS:     455822  HIT:     442742  MISS:      13080  HIT %:    97.1305  MISS %:    2.86954   MPKI: 0.0653845
PSCL5 TOTAL     ACCESS:    1567911  HIT:    1567911  MISS:          0  HIT %:        100  MISS %:          0   MPKI: 0
PSCL5 LOAD      ACCESS:          0  HIT:          0  MISS:          0  HIT %:       -nan  MISS %:       -nan   MPKI: 0
PSCL5 RFO       ACCESS:          0  HIT:          0  MISS:          0  HIT %:       -nan  MISS %:       -nan   MPKI: 0
PSCL5 PREFETCH  ACCESS:          0  HIT:          0  MISS:          0  HIT %:       -nan  MISS %:       -nan   MPKI: 0
PSCL5 WRITEBACK ACCESS:          0  HIT:          0  MISS:          0  HIT %:       -nan  MISS %:       -nan   MPKI: 0
PSCL4 TOTAL     ACCESS:    1567911  HIT:    1567911  MISS:          0  HIT %:        100  MISS %:          0   MPKI: 0
PSCL4 LOAD      ACCESS:          0  HIT:          0  MISS:          0  HIT %:       -nan  MISS %:       -nan   MPKI: 0
PSCL4 RFO       ACCESS:          0  HIT:          0  MISS:          0  HIT %:       -nan  MISS %:       -nan   MPKI: 0
PSCL4 PREFETCH  ACCESS:          0  HIT:          0  MISS:          0  HIT %:       -nan  MISS %:       -nan   MPKI: 0
PSCL4 WRITEBACK ACCESS:          0  HIT:          0  MISS:          0  HIT %:       -nan  MISS %:       -nan   MPKI: 0
PSCL3 TOTAL     ACCESS:    1567911  HIT:    1567911  MISS:          0  HIT %:        100  MISS %:          0   MPKI: 0
PSCL3 LOAD      ACCESS:          0  HIT:          0  MISS:          0  HIT %:       -nan  MISS %:       -nan   MPKI: 0
PSCL3 RFO       ACCESS:          0  HIT:          0  MISS:          0  HIT %:       -nan  MISS %:       -nan   MPKI: 0
PSCL3 PREFETCH  ACCESS:          0  HIT:          0  MISS:          0  HIT %:       -nan  MISS %:       -nan   MPKI: 0
PSCL3 WRITEBACK ACCESS:          0  HIT:          0  MISS:          0  HIT %:       -nan  MISS %:       -nan   MPKI: 0
PSCL2 TOTAL     ACCESS:    1535921  HIT:     605571  MISS:     930350  HIT %:    39.4272  MISS %:    60.5728   MPKI: 4.65065
PSCL2 LOAD      ACCESS:          0  HIT:          0  MISS:          0  HIT %:       -nan  MISS %:       -nan   MPKI: 0
PSCL2 RFO       ACCESS:          0  HIT:          0  MISS:          0  HIT %:       -nan  MISS %:       -nan   MPKI: 0
PSCL2 PREFETCH  ACCESS:          0  HIT:          0  MISS:          0  HIT %:       -nan  MISS %:       -nan   MPKI: 0
PSCL2 WRITEBACK ACCESS:          0  HIT:          0  MISS:          0  HIT %:       -nan  MISS %:       -nan   MPKI: 0
LLC TOTAL     ACCESS:    8284652  HIT:    2448070  MISS:    5836582  HIT %:    29.5495  MISS %:    70.4505   MPKI: 29.176
LLC LOAD      ACCESS:    4199428  HIT:    1335357  MISS:    2864071  HIT %:    31.7985  MISS %:    68.2015   MPKI: 14.317
LLC RFO       ACCESS:       7467  HIT:       4904  MISS:       2563  HIT %:    65.6756  MISS %:    34.3244   MPKI: 0.012812
LLC PREFETCH  ACCESS:    3151644  HIT:     587896  MISS:    2563748  HIT %:    18.6536  MISS %:    81.3464   MPKI: 12.8157
LLC WRITEBACK ACCESS:     303520  HIT:     286128  MISS:      17392  HIT %:    94.2699  MISS %:     5.7301   MPKI: 0.0869394

RAW hits: 2034811
Loads Generated: 69399030
Loads sent to L1D: 67364217
Stores Generated: 20254904
Stores sent to L1D: 20254903

CPU 2 cumulative IPC: 0.22191 instructions: 200817757 cycles: 904953177
ITLB TOTAL     ACCESS:   35521010  HIT:   35521010  MISS:          0  HIT %:        100  MISS %:          0   MPKI: 0
ITLB LOAD      ACCESS:          0  HIT:          0  MISS:          0  HIT %:       -nan  MISS %:       -nan   MPKI: 0
ITLB RFO       ACCESS:          0  HIT:          0  MISS:          0  HIT %:       -nan  MISS %:       -nan   MPKI: 0
ITLB PREFETCH  ACCESS:          0  HIT:          0  MISS:          0  HIT %:       -nan  MISS %:       -nan   MPKI: 0
ITLB WRITEBACK ACCESS:          0  HIT:          0  MISS:          0  HIT %:       -nan  MISS %:       -nan   MPKI: 0
DTLB TOTAL     ACCESS:   65303171  HIT:   62377490  MISS:    2925681  HIT %:    95.5198  MISS %:    4.48015   MPKI: 14.5688
DTLB LOAD      ACCESS:          0  HIT:          0  MISS:          0  HIT %:       -nan  MISS %:       -nan   MPKI: 0
DTLB RFO       ACCESS:          0  HIT:          0  MISS:          0  HIT %:       -nan  MISS %:       -nan   MPKI: 0
DTLB PREFETCH  ACCESS:          0  HIT:          0  MISS:          0  HIT %:       -nan  MISS %:       -nan   MPKI: 0
DTLB WRITEBACK ACCESS:          0  HIT:          0  MISS:          0  HIT %:       -nan  MISS %:       -nan   MPKI: 0
STLB TOTAL     ACCESS:   24333589  HIT:   22879949  MISS:    1453640  HIT %:    94.0262  MISS %:     5.9738   MPKI: 7.2386
STLB LOAD      ACCESS:          0  HIT:          0  MISS:          0  HIT %:       -nan  MISS %:       -nan   MPKI: 0
STLB RFO       ACCESS:          0  HIT:          0  MISS:          0  HIT %:       -nan  MISS %:       -nan   MPKI: 0
STLB PREFETCH  ACCESS:          0  HIT:          0  MISS:          0  HIT %:       -nan  MISS %:       -nan   MPKI: 0
STLB WRITEBACK ACCESS:          0  HIT:          0  MISS:          0  HIT %:       -nan  MISS %:       -nan   MPKI: 0
L1D TOTAL     ACCESS:  136680365  HIT:  129691313  MISS:    6989052  HIT %:    94.8866  MISS %:    5.11343   MPKI: 34.803
L1D LOAD      ACCESS:   57837293  HIT:   51186667  MISS:    6650626  HIT %:    88.5011  MISS %:    11.4989   MPKI: 33.1177
L1D RFO       ACCESS:   20113621  HIT:   20062375  MISS:      51246  HIT %:    99.7452  MISS %:   0.254783   MPKI: 0.255187
L1D PREFETCH  ACCESS:   58729451  HIT:   58442271  MISS:     287180  HIT %:     99.511  MISS %:   0.488988   MPKI: 1.43005
L1D WRITEBACK ACCESS:          0  HIT:          0  MISS:          0  HIT %:       -nan  MISS %:       -nan   MPKI: 0
L1I TOTAL     ACCESS:   36429065  HIT:   36429065  MISS:          0  HIT %:        100  MISS %:          0   MPKI: 0
L1I LOAD      ACCESS:   36429065  HIT:   36429065  MISS:          0  HIT %:        100  MISS %:          0   MPKI: 0
L1I RFO       ACCESS:          0  HIT:          0  MISS:          0  HIT %:       -nan  MISS %:       -nan   MPKI: 0
L1I PREFETCH  ACCESS:          0  HIT:          0  MISS:          0  HIT %:       -nan  MISS %:       -nan   MPKI: 0
L1I WRITEBACK ACCESS:          0  HIT:          0  MISS:          0  HIT %:       -nan  MISS %:       -nan   MPKI: 0
L2C TOTAL     ACCESS:   36741608  HIT:   28733584  MISS:    8008024  HIT %:    78.2045  MISS %:    21.7955   MPKI: 39.8771
L2C LOAD      ACCESS:    6650281  HIT:    2353107  MISS:    4297174  HIT %:    35.3836  MISS %:    64.6164   MPKI: 21.3984
L2C RFO       ACCESS:      51233  HIT:      43618  MISS:       7615  HIT %:    85.1365  MISS %:    14.8635   MPKI: 0.03792
L2C PREFETCH  ACCESS:   27057624  HIT:   23991613  MISS:    3066011  HIT %:    88.6686  MISS %:    11.3314   MPKI: 15.2676
L2C WRITEBACK ACCESS:     456756  HIT:     444075  MISS:      12681  HIT %:    97.2237  MISS %:    2.77632   MPKI: 0.0631468
PSCL5 TOTAL     ACCESS:    1563451  HIT:    1563451  MISS:          0  HIT %:        100  MISS %:          0   MPKI: 0
PSCL5 LOAD      ACCESS:          0  HIT:          0  MISS:          0  HIT %:       -nan  MISS %:       -nan   MPKI: 0
PSCL5 RFO       ACCESS:          0  HIT:          0  MISS:          0  HIT %:       -nan  MISS %:       -nan   MPKI: 0
PSCL5 PREFETCH  ACCESS:          0  HIT:          0  MISS:          0  HIT %:       -nan  MISS %:       -nan   MPKI: 0
PSCL5 WRITEBACK ACCESS:          0  HIT:          0  MISS:          0  HIT %:       -nan  MISS %:       -nan   MPKI: 0
PSCL4 TOTAL     ACCESS:    1563451  HIT:    1563451  MISS:          0  HIT %:        100  MISS %:          0   MPKI: 0
PSCL4 LOAD      ACCESS:          0  HIT:          0  MISS:          0  HIT %:       -nan  MISS %:       -nan   MPKI: 0
PSCL4 RFO       ACCESS:          0  HIT:          0  MISS:          0  HIT %:       -nan  MISS %:       -nan   MPKI: 0
PSCL4 PREFETCH  ACCESS:          0  HIT:          0  MISS:          0  HIT %:       -nan  MISS %:       -nan   MPKI: 0
PSCL4 WRITEBACK ACCESS:          0  HIT:          0  MISS:          0  HIT %:       -nan  MISS %:       -nan   MPKI: 0
PSCL3 TOTAL     ACCESS:    1563451  HIT:    1563451  MISS:          0  HIT %:        100  MISS %:          0   MPKI: 0
PSCL3 LOAD      ACCESS:          0  HIT:          0  MISS:          0  HIT %:       -nan  MISS %:       -nan   MPKI: 0
PSCL3 RFO       ACCESS:          0  HIT:          0  MISS:          0  HIT %:       -nan  MISS %:       -nan   MPKI: 0
PSCL3 PREFETCH  ACCESS:          0  HIT:          0  MISS:          0  HIT %:       -nan  MISS %:       -nan   MPKI: 0
PSCL3 WRITEBACK ACCESS:          0  HIT:          0  MISS:          0  HIT %:       -nan  MISS %:       -nan   MPKI: 0
PSCL2 TOTAL     ACCESS:    1531835  HIT:     601182  MISS:     930653  HIT %:    39.2459  MISS %:    60.7541   MPKI: 4.63432
PSCL2 LOAD      ACCESS:          0  HIT:          0  MISS:          0  HIT %:       -nan  MISS %:       -nan   MPKI: 0
PSCL2 RFO       ACCESS:          0  HIT:          0  MISS:          0  HIT %:       -nan  MISS %:       -nan   MPKI: 0
PSCL2 PREFETCH  ACCESS:          0  HIT:          0  MISS:          0  HIT %:       -nan  MISS %:       -nan   MPKI: 0
PSCL2 WRITEBACK ACCESS:          0  HIT:          0  MISS:          0  HIT %:       -nan  MISS %:       -nan   MPKI: 0
LLC TOTAL     ACCESS:    8299017  HIT:    2418634  MISS:    5880383  HIT %:    29.1436  MISS %:    70.8564   MPKI: 29.2822
LLC LOAD      ACCESS:    4203969  HIT:    1318200  MISS:    2885769  HIT %:    31.3561  MISS %:    68.6439   MPKI: 14.3701
LLC RFO       ACCESS:       7350  HIT:       4804  MISS:       2546  HIT %:    65.3605  MISS %:    34.6395   MPKI: 0.0126782
LLC PREFETCH  ACCESS:    3159478  HIT:     575585  MISS:    2583893  HIT %:    18.2177  MISS %:    81.7823   MPKI: 12.8669
LLC WRITEBACK ACCESS:     303677  HIT:     286629  MISS:      17048  HIT %:    94.3861  MISS %:    5.61386   MPKI: 0.0848929

RAW hits: 2043246
Loads Generated: 69655306
Loads sent to L1D: 67612059
Stores Generated: 20341431
Stores sent to L1D: 20341431

CPU 3 cumulative IPC: 0.221006 instructions: 200000001 cycles: 904953177
ITLB TOTAL     ACCESS:   35378138  HIT:   35378138  MISS:          0  HIT %:        100  MISS %:          0   MPKI: 0
ITLB LOAD      ACCESS:          0  HIT:          0  MISS:          0  HIT %:       -nan  MISS %:       -nan   MPKI: 0
ITLB RFO       ACCESS:          0  HIT:          0  MISS:          0  HIT %:       -nan  MISS %:       -nan   MPKI: 0
ITLB PREFETCH  ACCESS:          0  HIT:          0  MISS:          0  HIT %:       -nan  MISS %:       -nan   MPKI: 0
ITLB WRITEBACK ACCESS:          0  HIT:          0  MISS:          0  HIT %:       -nan  MISS %:       -nan   MPKI: 0
DTLB TOTAL     ACCESS:   65053674  HIT:   62130159  MISS:    2923515  HIT %:     95.506  MISS %:      4.494   MPKI: 14.6176
DTLB LOAD      ACCESS:          0  HIT:          0  MISS:          0  HIT %:       -nan  MISS %:       -nan   MPKI: 0
DTLB RFO       ACCESS:          0  HIT:          0  MISS:          0  HIT %:       -nan  MISS %:       -nan   MPKI: 0
DTLB PREFETCH  ACCESS:          0  HIT:          0  MISS:          0  HIT %:       -nan  MISS %:       -nan   MPKI: 0
DTLB WRITEBACK ACCESS:          0  HIT:          0  MISS:          0  HIT %:       -nan  MISS %:       -nan   MPKI: 0
STLB TOTAL     ACCESS:   24435462  HIT:   22981259  MISS:    1454203  HIT %:    94.0488  MISS %:     5.9512   MPKI: 7.27101
STLB LOAD      ACCESS:          0  HIT:          0  MISS:          0  HIT %:       -nan  MISS %:       -nan   MPKI: 0
STLB RFO       ACCESS:          0  HIT:          0  MISS:          0  HIT %:       -nan  MISS %:       -nan   MPKI: 0
STLB PREFETCH  ACCESS:          0  HIT:          0  MISS:          0  HIT %:       -nan  MISS %:       -nan   MPKI: 0
STLB WRITEBACK ACCESS:          0  HIT:          0  MISS:          0  HIT %:       -nan  MISS %:       -nan   MPKI: 0
L1D TOTAL     ACCESS:  136773874  HIT:  129795299  MISS:    6978575  HIT %:    94.8977  MISS %:    5.10227   MPKI: 34.8929
L1D LOAD      ACCESS:   57618384  HIT:   50977651  MISS:    6640733  HIT %:    88.4746  MISS %:    11.5254   MPKI: 33.2037
L1D RFO       ACCESS:   20020258  HIT:   19969285  MISS:      50973  HIT %:    99.7454  MISS %:   0.254607   MPKI: 0.254865
L1D PREFETCH  ACCESS:   59135232  HIT:   58848363  MISS:     286869  HIT %:    99.5149  MISS %:   0.485107   MPKI: 1.43434
L1D WRITEBACK ACCESS:          0  HIT:          0  MISS:          0  HIT %:       -nan  MISS %:       -nan   MPKI: 0
L1I TOTAL     ACCESS:   36280115  HIT:   36280115  MISS:          0  HIT %:        100  MISS %:          0   MPKI: 0
L1I LOAD      ACCESS:   36280115  HIT:   36280115  MISS:          0  HIT %:        100  MISS %:          0   MPKI: 0
L1I RFO       ACCESS:          0  HIT:          0  MISS:          0  HIT %:       -nan  MISS %:       -nan   MPKI: 0
L1I PREFETCH  ACCESS:          0  HIT:          0  MISS:          0  HIT %:       -nan  MISS %:       -nan   MPKI: 0
L1I WRITEBACK ACCESS:          0  HIT:          0  MISS:          0  HIT %:       -nan  MISS %:       -nan   MPKI: 0
L2C TOTAL     ACCESS:   36484517  HIT:   28480048  MISS:    8004469  HIT %:    78.0606  MISS %:    21.9394   MPKI: 40.0223
L2C LOAD      ACCESS:    6640445  HIT:    2341151  MISS:    4299294  HIT %:    35.2559  MISS %:    64.7441   MPKI: 21.4965
L2C RFO       ACCESS:      50969  HIT:      42923  MISS:       8046  HIT %:    84.2139  MISS %:    15.7861   MPKI: 0.04023
L2C PREFETCH  ACCESS:   26809397  HIT:   23750842  MISS:    3058555  HIT %:    88.5915  MISS %:    11.4085   MPKI: 15.2928
L2C WRITEBACK ACCESS:     456201  HIT:     442765  MISS:      13436  HIT %:    97.0548  MISS %:    2.94519   MPKI: 0.06718
PSCL5 TOTAL     ACCESS:    1564048  HIT:    1564048  MISS:          0  HIT %:        100  MISS %:          0   MPKI: 0
PSCL5 LOAD      ACCESS:          0  HIT:          0  MISS:          0  HIT %:       -nan  MISS %:       -nan   MPKI: 0
PSCL5 RFO       ACCESS:          0  HIT:          0  MISS:          0  HIT %:       -nan  MISS %:       -nan   MPKI: 0
PSCL5 PREFETCH  ACCESS:          0  HIT:          0  MISS:          0  HIT %:       -nan  MISS %:       -nan   MPKI: 0
PSCL5 WRITEBACK ACCESS:          0  HIT:          0  MISS:          0  HIT %:       -nan  MISS %:       -nan   MPKI: 0
PSCL4 TOTAL     ACCESS:    1564048  HIT:    1564048  MISS:          0  HIT %:        100  MISS %:          0   MPKI: 0
PSCL4 LOAD      ACCESS:          0  HIT:          0  MISS:          0  HIT %:       -nan  MISS %:       -nan   MPKI: 0
PSCL4 RFO       ACCESS:          0  HIT:          0  MISS:          0  HIT %:       -nan  MISS %:       -nan   MPKI: 0
PSCL4 PREFETCH  ACCESS:          0  HIT:          0  MISS:          0  HIT %:       -nan  MISS %:       -nan   MPKI: 0
PSCL4 WRITEBACK ACCESS:          0  HIT:          0  MISS:          0  HIT %:       -nan  MISS %:       -nan   MPKI: 0
PSCL3 TOTAL     ACCESS:    1564048  HIT:    1564048  MISS:          0  HIT %:        100  MISS %:          0   MPKI: 0
PSCL3 LOAD      ACCESS:          0  HIT:          0  MISS:          0  HIT %:       -nan  MISS %:       -nan   MPKI: 0
PSCL3 RFO       ACCESS:          0  HIT:          0  MISS:          0  HIT %:       -nan  MISS %:       -nan   MPKI: 0
PSCL3 PREFETCH  ACCESS:          0  HIT:          0  MISS:          0  HIT %:       -nan  MISS %:       -nan   MPKI: 0
PSCL3 WRITEBACK ACCESS:          0  HIT:          0  MISS:          0  HIT %:       -nan  MISS %:       -nan   MPKI: 0
PSCL2 TOTAL     ACCESS:    1531845  HIT:     600584  MISS:     931261  HIT %:    39.2066  MISS %:    60.7934   MPKI: 4.6563
PSCL2 LOAD      ACCESS:          0  HIT:          0  MISS:          0  HIT %:       -nan  MISS %:       -nan   MPKI: 0
PSCL2 RFO       ACCESS:          0  HIT:          0  MISS:          0  HIT %:       -nan  MISS %:       -nan   MPKI: 0
PSCL2 PREFETCH  ACCESS:          0  HIT:          0  MISS:          0  HIT %:       -nan  MISS %:       -nan   MPKI: 0
PSCL2 WRITEBACK ACCESS:          0  HIT:          0  MISS:          0  HIT %:       -nan  MISS %:       -nan   MPKI: 0
LLC TOTAL     ACCESS:    8295577  HIT:    2473406  MISS:    5822171  HIT %:     29.816  MISS %:     70.184   MPKI: 29.1109
LLC LOAD      ACCESS:    4208062  HIT:    1348819  MISS:    2859243  HIT %:    32.0532  MISS %:    67.9468   MPKI: 14.2962
LLC RFO       ACCESS:       7780  HIT:       5268  MISS:       2512  HIT %:    67.7121  MISS %:    32.2879   MPKI: 0.01256
LLC PREFETCH  ACCESS:    3150046  HIT:     594144  MISS:    2555902  HIT %:    18.8614  MISS %:    81.1386   MPKI: 12.7795
LLC WRITEBACK ACCESS:     304551  HIT:     287600  MISS:      16951  HIT %:    94.4341  MISS %:     5.5659   MPKI: 0.084755

RAW hits: 2033888
Loads Generated: 69386095
Loads sent to L1D: 67352207
Stores Generated: 20248054
Stores sent to L1D: 20248058

Region of Interest Statistics

CPU 0 cumulative IPC: 0.225859 instructions: 200000001 cycles: 885508134
ITLB TOTAL     ACCESS:   35377375  HIT:   35377375  MISS:          0  HIT %:        100  MISS %:          0   MPKI: 0
ITLB LOAD TRANSLATION ACCESS:   35377375  HIT:   35377375  MISS:          0  HIT %:        100  MISS %:          0   MPKI: 0
ITLB PREFETCH  REQUESTED:          0  ISSUED:          0  USEFUL:          0  USELESS:          0
ITLB USEFUL LOAD PREFETCHES:          0 PREFETCH ISSUED TO LOWER LEVEL:          0  ACCURACY: -nan
ITLB TIMELY PREFETCHES:          0 LATE PREFETCHES: 0 DROPPED PREFETCHES: 0
ITLB PREFETCHES SAME FILL-ORIGIN LEVEL: 0 DIFFERENT FILL-ORIGIN LEVEL: 0
ITLB AVERAGE MISS LATENCY: -nan cycles
ITLB RQ	ACCESS:   36912569	FORWARD:          0	MERGED:     916612	TO_CACHE:   35995957

DTLB TOTAL     ACCESS:   65052069  HIT:   62130521  MISS:    2921548  HIT %:    95.5089  MISS %:    4.49109   MPKI: 14.6077
DTLB LOAD TRANSLATION ACCESS:   65052069  HIT:   62130521  MISS:    2921548  HIT %:    95.5089  MISS %:    4.49109   MPKI: 14.6077
DTLB PREFETCH  REQUESTED:          0  ISSUED:          0  USEFUL:          0  USELESS:          0
DTLB USEFUL LOAD PREFETCHES:          0 PREFETCH ISSUED TO LOWER LEVEL:          0  ACCURACY: -nan
DTLB TIMELY PREFETCHES:          0 LATE PREFETCHES: 0 DROPPED PREFETCHES: 0
DTLB PREFETCHES SAME FILL-ORIGIN LEVEL: 0 DIFFERENT FILL-ORIGIN LEVEL: 0
DTLB AVERAGE MISS LATENCY: 81.4261 cycles
DTLB RQ	ACCESS:   79251866	FORWARD:          0	MERGED:   12194054	TO_CACHE:   67057812

STLB TOTAL     ACCESS:   24333382  HIT:   22881031  MISS:    1452351  HIT %:    94.0314  MISS %:    5.96855   MPKI: 7.26175
STLB LOAD TRANSLATION ACCESS:    2921548  HIT:    1542976  MISS:    1378572  HIT %:    52.8136  MISS %:    47.1864   MPKI: 6.89286
STLB TRANSLATION FROM L1D PREFETCHER ACCESS:   21411834  HIT:   21338055  MISS:      73779  HIT %:    99.6554  MISS %:   0.344571   MPKI: 0.368895
STLB PREFETCH  REQUESTED:          0  ISSUED:          0  USEFUL:      73830  USELESS:       1887
STLB USEFUL LOAD PREFETCHES:      73830 PREFETCH ISSUED TO LOWER LEVEL:          0  ACCURACY: inf
STLB TIMELY PREFETCHES:      73830 LATE PREFETCHES: 1343 DROPPED PREFETCHES: 123248
STLB PREFETCHES SAME FILL-ORIGIN LEVEL: 0 DIFFERENT FILL-ORIGIN LEVEL: 0
STLB AVERAGE MISS LATENCY: 151.002 cycles
STLB RQ	ACCESS:   91129160	FORWARD:          0	MERGED:   66119559	TO_CACHE:   25009601

STLB Hit, L1D data hit: 0
STLB Hit, L2C data hit: 0
STLB Hit, LLC data hit: 0
STLB Hit, LLC data miss: 0
STLB STLB hints to L2: 0
L1D TOTAL     ACCESS:  136641977  HIT:  129667425  MISS:    6974552  HIT %:    94.8957  MISS %:    5.10425   MPKI: 34.8728
L1D LOAD      ACCESS:   57615909  HIT:   50978663  MISS:    6637246  HIT %:    88.4802  MISS %:    11.5198   MPKI: 33.1862
L1D RFO       ACCESS:   20024160  HIT:   19973097  MISS:      51063  HIT %:     99.745  MISS %:   0.255007   MPKI: 0.255315
L1D PREFETCH  ACCESS:   59001908  HIT:   58715665  MISS:     286243  HIT %:    99.5149  MISS %:   0.485142   MPKI: 1.43121
L1D PREFETCH  REQUESTED:  209481494  ISSUED:  205006560  USEFUL:     285949  USELESS:       7730
L1D USEFUL LOAD PREFETCHES:     285949 PREFETCH ISSUED TO LOWER LEVEL:   27894631  ACCURACY: 1.0251
L1D TIMELY PREFETCHES:     285949 LATE PREFETCHES: 336 DROPPED PREFETCHES: 303484
L1D PREFETCHES SAME FILL-ORIGIN LEVEL: 294011 DIFFERENT FILL-ORIGIN LEVEL: 27600620
L1D AVERAGE MISS LATENCY: 147.492 cycles
L1D RQ	ACCESS:   68545017	FORWARD:          0	MERGED:    5295099	TO_CACHE:   58751211
L1D WQ	ACCESS:   20615200	FORWARD:    4540497	MERGED:     114545	TO_CACHE:   20500655
L1D PQ	ACCESS:  116829781	FORWARD:          0	MERGED:   28611212	TO_CACHE:   88176779

L1D UNIQUE REGIONS ACCESSED: 0
L1D REGIONS CONFLICTS: 0
L1D Cross Page Prefetch Requests: 12808823
L1D Same Page Prefetch Requests: 127556199
L1D ROI Sum of L1D PQ occupancy: 1167014816
L1D PREFETCHES PUSHED FROM L2C: 0
L1I TOTAL     ACCESS:   36279993  HIT:   36279993  MISS:          0  HIT %:        100  MISS %:          0   MPKI: 0
L1I LOAD      ACCESS:   36279993  HIT:   36279993  MISS:          0  HIT %:        100  MISS %:          0   MPKI: 0
L1I PREFETCH  REQUESTED:          0  ISSUED:          0  USEFUL:          0  USELESS:          0
L1I USEFUL LOAD PREFETCHES:          0 PREFETCH ISSUED TO LOWER LEVEL:          0  ACCURACY: -nan
L1I TIMELY PREFETCHES:          0 LATE PREFETCHES: 0 DROPPED PREFETCHES: 0
L1I PREFETCHES SAME FILL-ORIGIN LEVEL: 0 DIFFERENT FILL-ORIGIN LEVEL: 0
L1I AVERAGE MISS LATENCY: -nan cycles
L1I RQ	ACCESS:   58483909	FORWARD:          0	MERGED:   21571340	TO_CACHE:   36912569

BTB TOTAL     ACCESS:   47139894  HIT:   44379801  MISS:    2760093  HIT %:    94.1449  MISS %:    5.85511   MPKI: 13.8005
BTB BRANCH_DIRECT_JUMP	ACCESS:    4519822  HIT:    4519804  MISS:         18
BTB BRANCH_INDIRECT	ACCESS:          0  HIT:          0  MISS:          0
BTB BRANCH_CONDITIONAL	ACCESS:   30059835  HIT:   30059803  MISS:         32
BTB BRANCH_DIRECT_CALL	ACCESS:    6071095  HIT:    6071084  MISS:         11
BTB BRANCH_INDIRECT_CALL	ACCESS:     209024  HIT:     209016  MISS:          8
BTB BRANCH_RETURN	ACCESS:    6280118  HIT:    3520094  MISS:    2760024
BTB BRANCH_OTHER ACCESS:          0  HIT:          0  MISS:          0

L2C TOTAL     ACCESS:   36264519  HIT:   28276244  MISS:    7988275  HIT %:    77.9722  MISS %:    22.0278   MPKI: 39.9414
L2C LOAD      ACCESS:    6636944  HIT:    2352031  MISS:    4284913  HIT %:    35.4385  MISS %:    64.5615   MPKI: 21.4246
L2C DATA LOAD MPKI: 21.4246
L2C INSTRUCTION LOAD MPKI: 0
L2C RFO       ACCESS:      51062  HIT:      43046  MISS:       8016  HIT %:    84.3014  MISS %:    15.6986   MPKI: 0.04008
L2C PREFETCH  ACCESS:   26595067  HIT:   23534679  MISS:    3060388  HIT %:    88.4926  MISS %:    11.5074   MPKI: 15.3019
L2C DATA PREFETCH MPKI: 15.3019
L2C INSTRUCTION PREFETCH MPKI: 0
L2C WRITEBACK ACCESS:     455653  HIT:     442766  MISS:      12887  HIT %:    97.1718  MISS %:    2.82825   MPKI: 0.064435
L2C LOAD TRANSLATION ACCESS:    2282138  HIT:    1677082  MISS:     605056  HIT %:    73.4873  MISS %:    26.5127   MPKI: 3.02528
L2C TRANSLATION FROM L1D PREFETCHER ACCESS:     243655  HIT:     226640  MISS:      17015  HIT %:    93.0168  MISS %:    6.98323   MPKI: 0.085075
L2C PREFETCH  REQUESTED:          0  ISSUED:          0  USEFUL:     508337  USELESS:    2668894
L2C USEFUL LOAD PREFETCHES:     508337 PREFETCH ISSUED TO LOWER LEVEL:    3256601  ACCURACY: 15.6094
L2C TIMELY PREFETCHES:     508337 LATE PREFETCHES: 95015 DROPPED PREFETCHES: 0
L2C PREFETCHES SAME FILL-ORIGIN LEVEL: 3224536 DIFFERENT FILL-ORIGIN LEVEL: 0
L2C AVERAGE MISS LATENCY: 240.266 cycles
L2C RQ	ACCESS:    9364651	FORWARD:          0	MERGED:          0	TO_CACHE:    9364648
L2C WQ	ACCESS:     465266	FORWARD:         17	MERGED:          0	TO_CACHE:     465266
L2C PQ	ACCESS:   27885809	FORWARD:          0	MERGED:      36338	TO_CACHE:   27849457

L2C Instructions Evicting Data 0
L2C Translations Evicting Data 555536
L2C Data Evicting Data 6966193
L2C Instructions Evicting Instructions 0
L2C Translations Evicting Instructions 0
L2C Data Evicting Instructions 0
L2C Instructions Evicting Translations 0
L2C Translations Evicting Translations 71537
L2C Data Evicting Translations 555647
L2C Dense regions hint from L2: 0
PSCL5 TOTAL     ACCESS:    1563904  HIT:    1563904  MISS:          0  HIT %:        100  MISS %:          0   MPKI: 0
PSCL5 LOAD TRANSLATION ACCESS:    1377502  HIT:    1377502  MISS:          0  HIT %:        100  MISS %:          0   MPKI: 0
PSCL5 TRANSLATION FROM L1D PREFETCHER ACCESS:     186402  HIT:     186402  MISS:          0  HIT %:        100  MISS %:          0   MPKI: 0
PSCL5 PREFETCH  REQUESTED:          0  ISSUED:          0  USEFUL:          0  USELESS:          0
PSCL5 USEFUL LOAD PREFETCHES:          0 PREFETCH ISSUED TO LOWER LEVEL:          0  ACCURACY: -nan
PSCL5 TIMELY PREFETCHES:          0 LATE PREFETCHES: 0 DROPPED PREFETCHES: 0
PSCL5 PREFETCHES SAME FILL-ORIGIN LEVEL: 0 DIFFERENT FILL-ORIGIN LEVEL: 0

PSCL4 TOTAL     ACCESS:    1563904  HIT:    1563904  MISS:          0  HIT %:        100  MISS %:          0   MPKI: 0
PSCL4 LOAD TRANSLATION ACCESS:    1377502  HIT:    1377502  MISS:          0  HIT %:        100  MISS %:          0   MPKI: 0
PSCL4 TRANSLATION FROM L1D PREFETCHER ACCESS:     186402  HIT:     186402  MISS:          0  HIT %:        100  MISS %:          0   MPKI: 0
PSCL4 PREFETCH  REQUESTED:          0  ISSUED:          0  USEFUL:          0  USELESS:          0
PSCL4 USEFUL LOAD PREFETCHES:          0 PREFETCH ISSUED TO LOWER LEVEL:          0  ACCURACY: -nan
PSCL4 TIMELY PREFETCHES:          0 LATE PREFETCHES: 0 DROPPED PREFETCHES: 0
PSCL4 PREFETCHES SAME FILL-ORIGIN LEVEL: 0 DIFFERENT FILL-ORIGIN LEVEL: 0

PSCL3 TOTAL     ACCESS:    1563904  HIT:    1563904  MISS:          0  HIT %:        100  MISS %:          0   MPKI: 0
PSCL3 LOAD TRANSLATION ACCESS:    1377502  HIT:    1377502  MISS:          0  HIT %:        100  MISS %:          0   MPKI: 0
PSCL3 TRANSLATION FROM L1D PREFETCHER ACCESS:     186402  HIT:     186402  MISS:          0  HIT %:        100  MISS %:          0   MPKI: 0
PSCL3 PREFETCH  REQUESTED:          0  ISSUED:          0  USEFUL:          0  USELESS:          0
PSCL3 USEFUL LOAD PREFETCHES:          0 PREFETCH ISSUED TO LOWER LEVEL:          0  ACCURACY: -nan
PSCL3 TIMELY PREFETCHES:          0 LATE PREFETCHES: 0 DROPPED PREFETCHES: 0
PSCL3 PREFETCHES SAME FILL-ORIGIN LEVEL: 0 DIFFERENT FILL-ORIGIN LEVEL: 0

PSCL2 TOTAL     ACCESS:    1531611  HIT:     602008  MISS:     929603  HIT %:    39.3055  MISS %:    60.6945   MPKI: 4.64801
PSCL2 LOAD TRANSLATION ACCESS:    1402462  HIT:     472859  MISS:     929603  HIT %:    33.7164  MISS %:    66.2836   MPKI: 4.64801
PSCL2 TRANSLATION FROM L1D PREFETCHER ACCESS:     129149  HIT:     129149  MISS:          0  HIT %:        100  MISS %:          0   MPKI: 0
PSCL2 PREFETCH  REQUESTED:          0  ISSUED:          0  USEFUL:          0  USELESS:          0
PSCL2 USEFUL LOAD PREFETCHES:          0 PREFETCH ISSUED TO LOWER LEVEL:          0  ACCURACY: -nan
PSCL2 TIMELY PREFETCHES:          0 LATE PREFETCHES: 0 DROPPED PREFETCHES: 0
PSCL2 PREFETCHES SAME FILL-ORIGIN LEVEL: 0 DIFFERENT FILL-ORIGIN LEVEL: 0

LLC TOTAL     ACCESS:    8277160  HIT:    2455659  MISS:    5821501  HIT %:    29.6679  MISS %:    70.3321   MPKI: 29.1075
LLC LOAD      ACCESS:    4192492  HIT:    1339903  MISS:    2852589  HIT %:    31.9596  MISS %:    68.0404   MPKI: 14.2629
LLC RFO       ACCESS:       7747  HIT:       5219  MISS:       2528  HIT %:     67.368  MISS %:     32.632   MPKI: 0.01264
LLC PREFETCH  ACCESS:    3153074  HIT:     594047  MISS:    2559027  HIT %:    18.8402  MISS %:    81.1598   MPKI: 12.7951
LLC WRITEBACK ACCESS:     301776  HIT:     284113  MISS:      17663  HIT %:     94.147  MISS %:    5.85302   MPKI: 0.088315
LLC LOAD TRANSLATION ACCESS:     605056  HIT:     226972  MISS:     378084  HIT %:    37.5126  MISS %:    62.4874   MPKI: 1.89042
LLC TRANSLATION FROM L1D PREFETCHER ACCESS:      17015  HIT:       5405  MISS:      11610  HIT %:    31.7661  MISS %:    68.2339   MPKI: 0.05805
LLC PREFETCH  REQUESTED:          0  ISSUED:          0  USEFUL:     186736  USELESS:   10170575
LLC USEFUL LOAD PREFETCHES:     186736 PREFETCH ISSUED TO LOWER LEVEL:   10403945  ACCURACY: 1.79486
LLC TIMELY PREFETCHES:     186736 LATE PREFETCHES: 0 DROPPED PREFETCHES: 0
LLC PREFETCHES SAME FILL-ORIGIN LEVEL: 0 DIFFERENT FILL-ORIGIN LEVEL: 0
LLC AVERAGE MISS LATENCY: 1167.28 cycles
LLC RQ	ACCESS:   19398643	FORWARD:          0	MERGED:          0	TO_CACHE:   19398641
LLC WQ	ACCESS:    1221066	FORWARD:         19	MERGED:          0	TO_CACHE:    1221066
LLC PQ	ACCESS:   12717783	FORWARD:          0	MERGED:          0	TO_CACHE:   12717766

LLC Dense regions hint to LLC: 0

RAW hits: 2027907
Loads Generated: 69382032
Loads sent to L1D: 67354124
Stores Generated: 20250072
Stores sent to L1D: 20250072
Major fault: 0 Minor fault: 173510
Allocated PAGES: 675305

CPU 1 cumulative IPC: 0.221026 instructions: 200000000 cycles: 904871033
ITLB TOTAL     ACCESS:   35377700  HIT:   35377700  MISS:          0  HIT %:        100  MISS %:          0   MPKI: 0
ITLB LOAD TRANSLATION ACCESS:   35377700  HIT:   35377700  MISS:          0  HIT %:        100  MISS %:          0   MPKI: 0
ITLB PREFETCH  REQUESTED:          0  ISSUED:          0  USEFUL:          0  USELESS:          0
ITLB USEFUL LOAD PREFETCHES:          0 PREFETCH ISSUED TO LOWER LEVEL:          0  ACCURACY: -nan
ITLB TIMELY PREFETCHES:          0 LATE PREFETCHES: 0 DROPPED PREFETCHES: 0
ITLB PREFETCHES SAME FILL-ORIGIN LEVEL: 0 DIFFERENT FILL-ORIGIN LEVEL: 0
ITLB AVERAGE MISS LATENCY: -nan cycles
ITLB RQ	ACCESS:   36288630	FORWARD:          0	MERGED:     902771	TO_CACHE:   35385859

DTLB TOTAL     ACCESS:   65050160  HIT:   62127895  MISS:    2922265  HIT %:    95.5077  MISS %:    4.49233   MPKI: 14.6113
DTLB LOAD TRANSLATION ACCESS:   65050160  HIT:   62127895  MISS:    2922265  HIT %:    95.5077  MISS %:    4.49233   MPKI: 14.6113
DTLB PREFETCH  REQUESTED:          0  ISSUED:          0  USEFUL:          0  USELESS:          0
DTLB USEFUL LOAD PREFETCHES:          0 PREFETCH ISSUED TO LOWER LEVEL:          0  ACCURACY: -nan
DTLB TIMELY PREFETCHES:          0 LATE PREFETCHES: 0 DROPPED PREFETCHES: 0
DTLB PREFETCHES SAME FILL-ORIGIN LEVEL: 0 DIFFERENT FILL-ORIGIN LEVEL: 0
DTLB AVERAGE MISS LATENCY: 82.3824 cycles
DTLB RQ	ACCESS:   77881483	FORWARD:          0	MERGED:   11992908	TO_CACHE:   65888575

STLB TOTAL     ACCESS:   24454990  HIT:   23001894  MISS:    1453096  HIT %:    94.0581  MISS %:    5.94192   MPKI: 7.26548
STLB LOAD TRANSLATION ACCESS:    2922265  HIT:    1543019  MISS:    1379246  HIT %:    52.8022  MISS %:    47.1978   MPKI: 6.89623
STLB TRANSLATION FROM L1D PREFETCHER ACCESS:   21532725  HIT:   21458875  MISS:      73850  HIT %:     99.657  MISS %:   0.342966   MPKI: 0.36925
STLB PREFETCH  REQUESTED:          0  ISSUED:          0  USEFUL:      71980  USELESS:       1866
STLB USEFUL LOAD PREFETCHES:      71980 PREFETCH ISSUED TO LOWER LEVEL:          0  ACCURACY: inf
STLB TIMELY PREFETCHES:      71980 LATE PREFETCHES: 1317 DROPPED PREFETCHES: 114597
STLB PREFETCHES SAME FILL-ORIGIN LEVEL: 0 DIFFERENT FILL-ORIGIN LEVEL: 0
STLB AVERAGE MISS LATENCY: 153.334 cycles
STLB RQ	ACCESS:   90127956	FORWARD:          0	MERGED:   65500164	TO_CACHE:   24627792

STLB Hit, L1D data hit: 0
STLB Hit, L2C data hit: 0
STLB Hit, LLC data hit: 0
STLB Hit, LLC data miss: 0
STLB STLB hints to L2: 0
L1D TOTAL     ACCESS:  137247151  HIT:  130271561  MISS:    6975590  HIT %:    94.9175  MISS %:     5.0825   MPKI: 34.8779
L1D LOAD      ACCESS:   57615584  HIT:   50977075  MISS:    6638509  HIT %:    88.4779  MISS %:    11.5221   MPKI: 33.1925
L1D RFO       ACCESS:   20022197  HIT:   19971346  MISS:      50851  HIT %:     99.746  MISS %:   0.253973   MPKI: 0.254255
L1D PREFETCH  ACCESS:   59609370  HIT:   59323140  MISS:     286230  HIT %:    99.5198  MISS %:   0.480176   MPKI: 1.43115
L1D PREFETCH  REQUESTED:  207165744  ISSUED:  202855052  USEFUL:     278661  USELESS:       7586
L1D USEFUL LOAD PREFETCHES:     278661 PREFETCH ISSUED TO LOWER LEVEL:   27470087  ACCURACY: 1.01442
L1D TIMELY PREFETCHES:     278661 LATE PREFETCHES: 319 DROPPED PREFETCHES: 268863
L1D PREFETCHES SAME FILL-ORIGIN LEVEL: 286607 DIFFERENT FILL-ORIGIN LEVEL: 27183480
L1D AVERAGE MISS LATENCY: 150.818 cycles
L1D RQ	ACCESS:   67364217	FORWARD:          0	MERGED:    5194183	TO_CACHE:   57740656
L1D WQ	ACCESS:   20254903	FORWARD:    4474597	MERGED:     114076	TO_CACHE:   20140827
L1D PQ	ACCESS:  115649583	FORWARD:          0	MERGED:   28398895	TO_CACHE:   87205469

L1D UNIQUE REGIONS ACCESSED: 0
L1D REGIONS CONFLICTS: 0
L1D Cross Page Prefetch Requests: 12985470
L1D Same Page Prefetch Requests: 126188210
L1D ROI Sum of L1D PQ occupancy: 1155423223
L1D PREFETCHES PUSHED FROM L2C: 0
L1I TOTAL     ACCESS:   36280062  HIT:   36280062  MISS:          0  HIT %:        100  MISS %:          0   MPKI: 0
L1I LOAD      ACCESS:   36280062  HIT:   36280062  MISS:          0  HIT %:        100  MISS %:          0   MPKI: 0
L1I PREFETCH  REQUESTED:          0  ISSUED:          0  USEFUL:          0  USELESS:          0
L1I USEFUL LOAD PREFETCHES:          0 PREFETCH ISSUED TO LOWER LEVEL:          0  ACCURACY: -nan
L1I TIMELY PREFETCHES:          0 LATE PREFETCHES: 0 DROPPED PREFETCHES: 0
L1I PREFETCHES SAME FILL-ORIGIN LEVEL: 0 DIFFERENT FILL-ORIGIN LEVEL: 0
L1I AVERAGE MISS LATENCY: -nan cycles
L1I RQ	ACCESS:   57438297	FORWARD:          0	MERGED:   21149667	TO_CACHE:   36288630

BTB TOTAL     ACCESS:   47141247  HIT:   44380978  MISS:    2760269  HIT %:    94.1447  MISS %:    5.85532   MPKI: 13.8013
BTB BRANCH_DIRECT_JUMP	ACCESS:    4520235  HIT:    4520217  MISS:         18
BTB BRANCH_INDIRECT	ACCESS:          0  HIT:          0  MISS:          0
BTB BRANCH_CONDITIONAL	ACCESS:   30060146  HIT:   30060114  MISS:         32
BTB BRANCH_DIRECT_CALL	ACCESS:    6071458  HIT:    6071447  MISS:         11
BTB BRANCH_INDIRECT_CALL	ACCESS:     208976  HIT:     208968  MISS:          8
BTB BRANCH_RETURN	ACCESS:    6280432  HIT:    3520232  MISS:    2760200
BTB BRANCH_OTHER ACCESS:          0  HIT:          0  MISS:          0

L2C TOTAL     ACCESS:   36469648  HIT:   28475532  MISS:    7994116  HIT %:    78.0801  MISS %:    21.9199   MPKI: 39.9706
L2C LOAD      ACCESS:    6638189  HIT:    2346364  MISS:    4291825  HIT %:    35.3464  MISS %:    64.6536   MPKI: 21.4591
L2C DATA LOAD MPKI: 21.4591
L2C INSTRUCTION LOAD MPKI: 0
L2C RFO       ACCESS:      50850  HIT:      43164  MISS:       7686  HIT %:     84.885  MISS %:     15.115   MPKI: 0.03843
L2C PREFETCH  ACCESS:   26794612  HIT:   23735679  MISS:    3058933  HIT %:    88.5838  MISS %:    11.4162   MPKI: 15.2947
L2C DATA PREFETCH MPKI: 15.2947
L2C INSTRUCTION PREFETCH MPKI: 0
L2C WRITEBACK ACCESS:     455753  HIT:     442674  MISS:      13079  HIT %:    97.1302  MISS %:    2.86976   MPKI: 0.065395
L2C LOAD TRANSLATION ACCESS:    2283241  HIT:    1677679  MISS:     605562  HIT %:     73.478  MISS %:     26.522   MPKI: 3.02781
L2C TRANSLATION FROM L1D PREFETCHER ACCESS:     247003  HIT:     229972  MISS:      17031  HIT %:    93.1049  MISS %:    6.89506   MPKI: 0.085155
L2C PREFETCH  REQUESTED:          0  ISSUED:          0  USEFUL:     488958  USELESS:    2584274
L2C USEFUL LOAD PREFETCHES:     488958 PREFETCH ISSUED TO LOWER LEVEL:    3151649  ACCURACY: 15.5144
L2C TIMELY PREFETCHES:     488958 LATE PREFETCHES: 92665 DROPPED PREFETCHES: 0
L2C PREFETCHES SAME FILL-ORIGIN LEVEL: 3121301 DIFFERENT FILL-ORIGIN LEVEL: 0
L2C AVERAGE MISS LATENCY: 242.848 cycles
L2C RQ	ACCESS:    9219909	FORWARD:          0	MERGED:          0	TO_CACHE:    9219908
L2C WQ	ACCESS:     455822	FORWARD:         16	MERGED:          0	TO_CACHE:     455822
L2C PQ	ACCESS:   27462317	FORWARD:          0	MERGED:      34136	TO_CACHE:   27428166

L2C Instructions Evicting Data 0
L2C Translations Evicting Data 551467
L2C Data Evicting Data 6806511
L2C Instructions Evicting Instructions 0
L2C Translations Evicting Instructions 0
L2C Data Evicting Instructions 0
L2C Instructions Evicting Translations 0
L2C Translations Evicting Translations 71126
L2C Data Evicting Translations 552033
L2C Dense regions hint from L2: 0
PSCL5 TOTAL     ACCESS:    1567911  HIT:    1567911  MISS:          0  HIT %:        100  MISS %:          0   MPKI: 0
PSCL5 LOAD TRANSLATION ACCESS:    1378147  HIT:    1378147  MISS:          0  HIT %:        100  MISS %:          0   MPKI: 0
PSCL5 TRANSLATION FROM L1D PREFETCHER ACCESS:     189764  HIT:     189764  MISS:          0  HIT %:        100  MISS %:          0   MPKI: 0
PSCL5 PREFETCH  REQUESTED:          0  ISSUED:          0  USEFUL:          0  USELESS:          0
PSCL5 USEFUL LOAD PREFETCHES:          0 PREFETCH ISSUED TO LOWER LEVEL:          0  ACCURACY: -nan
PSCL5 TIMELY PREFETCHES:          0 LATE PREFETCHES: 0 DROPPED PREFETCHES: 0
PSCL5 PREFETCHES SAME FILL-ORIGIN LEVEL: 0 DIFFERENT FILL-ORIGIN LEVEL: 0

PSCL4 TOTAL     ACCESS:    1567911  HIT:    1567911  MISS:          0  HIT %:        100  MISS %:          0   MPKI: 0
PSCL4 LOAD TRANSLATION ACCESS:    1378147  HIT:    1378147  MISS:          0  HIT %:        100  MISS %:          0   MPKI: 0
PSCL4 TRANSLATION FROM L1D PREFETCHER ACCESS:     189764  HIT:     189764  MISS:          0  HIT %:        100  MISS %:          0   MPKI: 0
PSCL4 PREFETCH  REQUESTED:          0  ISSUED:          0  USEFUL:          0  USELESS:          0
PSCL4 USEFUL LOAD PREFETCHES:          0 PREFETCH ISSUED TO LOWER LEVEL:          0  ACCURACY: -nan
PSCL4 TIMELY PREFETCHES:          0 LATE PREFETCHES: 0 DROPPED PREFETCHES: 0
PSCL4 PREFETCHES SAME FILL-ORIGIN LEVEL: 0 DIFFERENT FILL-ORIGIN LEVEL: 0

PSCL3 TOTAL     ACCESS:    1567911  HIT:    1567911  MISS:          0  HIT %:        100  MISS %:          0   MPKI: 0
PSCL3 LOAD TRANSLATION ACCESS:    1378147  HIT:    1378147  MISS:          0  HIT %:        100  MISS %:          0   MPKI: 0
PSCL3 TRANSLATION FROM L1D PREFETCHER ACCESS:     189764  HIT:     189764  MISS:          0  HIT %:        100  MISS %:          0   MPKI: 0
PSCL3 PREFETCH  REQUESTED:          0  ISSUED:          0  USEFUL:          0  USELESS:          0
PSCL3 USEFUL LOAD PREFETCHES:          0 PREFETCH ISSUED TO LOWER LEVEL:          0  ACCURACY: -nan
PSCL3 TIMELY PREFETCHES:          0 LATE PREFETCHES: 0 DROPPED PREFETCHES: 0
PSCL3 PREFETCHES SAME FILL-ORIGIN LEVEL: 0 DIFFERENT FILL-ORIGIN LEVEL: 0

PSCL2 TOTAL     ACCESS:    1535921  HIT:     605571  MISS:     930350  HIT %:    39.4272  MISS %:    60.5728   MPKI: 4.65175
PSCL2 LOAD TRANSLATION ACCESS:    1403396  HIT:     473046  MISS:     930350  HIT %:    33.7072  MISS %:    66.2928   MPKI: 4.65175
PSCL2 TRANSLATION FROM L1D PREFETCHER ACCESS:     132525  HIT:     132525  MISS:          0  HIT %:        100  MISS %:          0   MPKI: 0
PSCL2 PREFETCH  REQUESTED:          0  ISSUED:          0  USEFUL:          0  USELESS:          0
PSCL2 USEFUL LOAD PREFETCHES:          0 PREFETCH ISSUED TO LOWER LEVEL:          0  ACCURACY: -nan
PSCL2 TIMELY PREFETCHES:          0 LATE PREFETCHES: 0 DROPPED PREFETCHES: 0
PSCL2 PREFETCHES SAME FILL-ORIGIN LEVEL: 0 DIFFERENT FILL-ORIGIN LEVEL: 0

LLC TOTAL     ACCESS:    8284549  HIT:    2447986  MISS:    5836563  HIT %:    29.5488  MISS %:    70.4512   MPKI: 29.1828
LLC LOAD      ACCESS:    4199385  HIT:    1335314  MISS:    2864071  HIT %:    31.7978  MISS %:    68.2022   MPKI: 14.3204
LLC RFO       ACCESS:       7467  HIT:       4904  MISS:       2563  HIT %:    65.6756  MISS %:    34.3244   MPKI: 0.012815
LLC PREFETCH  ACCESS:    3151587  HIT:     587858  MISS:    2563729  HIT %:    18.6528  MISS %:    81.3472   MPKI: 12.8186
LLC WRITEBACK ACCESS:     303517  HIT:     286125  MISS:      17392  HIT %:    94.2698  MISS %:    5.73016   MPKI: 0.08696
LLC LOAD TRANSLATION ACCESS:     605562  HIT:     228571  MISS:     376991  HIT %:    37.7453  MISS %:    62.2547   MPKI: 1.88495
LLC TRANSLATION FROM L1D PREFETCHER ACCESS:      17031  HIT:       5214  MISS:      11817  HIT %:    30.6148  MISS %:    69.3852   MPKI: 0.059085
LLC PREFETCH  REQUESTED:          0  ISSUED:          0  USEFUL:     186736  USELESS:   10170575
LLC USEFUL LOAD PREFETCHES:     186736 PREFETCH ISSUED TO LOWER LEVEL:   10403945  ACCURACY: 1.79486
LLC TIMELY PREFETCHES:     186736 LATE PREFETCHES: 0 DROPPED PREFETCHES: 0
LLC PREFETCHES SAME FILL-ORIGIN LEVEL: 0 DIFFERENT FILL-ORIGIN LEVEL: 0
LLC AVERAGE MISS LATENCY: 1164.27 cycles
LLC RQ	ACCESS:   19398643	FORWARD:          0	MERGED:          0	TO_CACHE:   19398641
LLC WQ	ACCESS:    1221066	FORWARD:         19	MERGED:          0	TO_CACHE:    1221066
LLC PQ	ACCESS:   12717783	FORWARD:          0	MERGED:          0	TO_CACHE:   12717766

LLC Dense regions hint to LLC: 0

RAW hits: 2034157
Loads Generated: 69383387
Loads sent to L1D: 67349228
Stores Generated: 20249259
Stores sent to L1D: 20249259
Major fault: 0 Minor fault: 167265
Allocated PAGES: 675305

CPU 2 cumulative IPC: 0.221365 instructions: 200000002 cycles: 903485221
ITLB TOTAL     ACCESS:   35378274  HIT:   35378274  MISS:          0  HIT %:        100  MISS %:          0   MPKI: 0
ITLB LOAD TRANSLATION ACCESS:   35378274  HIT:   35378274  MISS:          0  HIT %:        100  MISS %:          0   MPKI: 0
ITLB PREFETCH  REQUESTED:          0  ISSUED:          0  USEFUL:          0  USELESS:          0
ITLB USEFUL LOAD PREFETCHES:          0 PREFETCH ISSUED TO LOWER LEVEL:          0  ACCURACY: -nan
ITLB TIMELY PREFETCHES:          0 LATE PREFETCHES: 0 DROPPED PREFETCHES: 0
ITLB PREFETCHES SAME FILL-ORIGIN LEVEL: 0 DIFFERENT FILL-ORIGIN LEVEL: 0
ITLB AVERAGE MISS LATENCY: -nan cycles
ITLB RQ	ACCESS:   36429064	FORWARD:          0	MERGED:     908055	TO_CACHE:   35521009

DTLB TOTAL     ACCESS:   65052375  HIT:   62129514  MISS:    2922861  HIT %:    95.5069  MISS %:    4.49309   MPKI: 14.6143
DTLB LOAD TRANSLATION ACCESS:   65052375  HIT:   62129514  MISS:    2922861  HIT %:    95.5069  MISS %:    4.49309   MPKI: 14.6143
DTLB PREFETCH  REQUESTED:          0  ISSUED:          0  USEFUL:          0  USELESS:          0
DTLB USEFUL LOAD PREFETCHES:          0 PREFETCH ISSUED TO LOWER LEVEL:          0  ACCURACY: -nan
DTLB TIMELY PREFETCHES:          0 LATE PREFETCHES: 0 DROPPED PREFETCHES: 0
DTLB PREFETCHES SAME FILL-ORIGIN LEVEL: 0 DIFFERENT FILL-ORIGIN LEVEL: 0
DTLB AVERAGE MISS LATENCY: 82.3577 cycles
DTLB RQ	ACCESS:   78177360	FORWARD:          0	MERGED:   12049429	TO_CACHE:   66127931

STLB TOTAL     ACCESS:   24217027  HIT:   22763450  MISS:    1453577  HIT %:    93.9977  MISS %:    6.00229   MPKI: 7.26788
STLB LOAD TRANSLATION ACCESS:    2922861  HIT:    1542975  MISS:    1379886  HIT %:    52.7899  MISS %:    47.2101   MPKI: 6.89943
STLB TRANSLATION FROM L1D PREFETCHER ACCESS:   21294166  HIT:   21220475  MISS:      73691  HIT %:    99.6539  MISS %:   0.346062   MPKI: 0.368455
STLB PREFETCH  REQUESTED:          0  ISSUED:          0  USEFUL:      71849  USELESS:       1860
STLB USEFUL LOAD PREFETCHES:      71849 PREFETCH ISSUED TO LOWER LEVEL:          0  ACCURACY: inf
STLB TIMELY PREFETCHES:      71849 LATE PREFETCHES: 1258 DROPPED PREFETCHES: 109604
STLB PREFETCHES SAME FILL-ORIGIN LEVEL: 0 DIFFERENT FILL-ORIGIN LEVEL: 0
STLB AVERAGE MISS LATENCY: 153.164 cycles
STLB RQ	ACCESS:   89486606	FORWARD:          0	MERGED:   64991018	TO_CACHE:   24495588

STLB Hit, L1D data hit: 0
STLB Hit, L2C data hit: 0
STLB Hit, LLC data hit: 0
STLB Hit, LLC data miss: 0
STLB STLB hints to L2: 0
L1D TOTAL     ACCESS:  136099027  HIT:  129121518  MISS:    6977509  HIT %:    94.8732  MISS %:    5.12679   MPKI: 34.8875
L1D LOAD      ACCESS:   57617372  HIT:   50977789  MISS:    6639583  HIT %:    88.4764  MISS %:    11.5236   MPKI: 33.1979
L1D RFO       ACCESS:   20021523  HIT:   19970556  MISS:      50967  HIT %:    99.7454  MISS %:   0.254561   MPKI: 0.254835
L1D PREFETCH  ACCESS:   58460132  HIT:   58173173  MISS:     286959  HIT %:    99.5091  MISS %:   0.490863   MPKI: 1.43479
L1D PREFETCH  REQUESTED:  206079770  ISSUED:  201893280  USEFUL:     279153  USELESS:       8041
L1D USEFUL LOAD PREFETCHES:     279153 PREFETCH ISSUED TO LOWER LEVEL:   27735259  ACCURACY: 1.00649
L1D TIMELY PREFETCHES:     279153 LATE PREFETCHES: 344 DROPPED PREFETCHES: 260197
L1D PREFETCHES SAME FILL-ORIGIN LEVEL: 287537 DIFFERENT FILL-ORIGIN LEVEL: 27447722
L1D AVERAGE MISS LATENCY: 150.529 cycles
L1D RQ	ACCESS:   67612059	FORWARD:          0	MERGED:    5215358	TO_CACHE:   57950140
L1D WQ	ACCESS:   20341431	FORWARD:    4489397	MERGED:     114211	TO_CACHE:   20227220
L1D PQ	ACCESS:  115332354	FORWARD:          0	MERGED:   28728592	TO_CACHE:   86560926

L1D UNIQUE REGIONS ACCESSED: 0
L1D REGIONS CONFLICTS: 0
L1D Cross Page Prefetch Requests: 12209741
L1D Same Page Prefetch Requests: 126401735
L1D ROI Sum of L1D PQ occupancy: 1144534298
L1D PREFETCHES PUSHED FROM L2C: 0
L1I TOTAL     ACCESS:   36280450  HIT:   36280450  MISS:          0  HIT %:        100  MISS %:          0   MPKI: 0
L1I LOAD      ACCESS:   36280450  HIT:   36280450  MISS:          0  HIT %:        100  MISS %:          0   MPKI: 0
L1I PREFETCH  REQUESTED:          0  ISSUED:          0  USEFUL:          0  USELESS:          0
L1I USEFUL LOAD PREFETCHES:          0 PREFETCH ISSUED TO LOWER LEVEL:          0  ACCURACY: -nan
L1I TIMELY PREFETCHES:          0 LATE PREFETCHES: 0 DROPPED PREFETCHES: 0
L1I PREFETCHES SAME FILL-ORIGIN LEVEL: 0 DIFFERENT FILL-ORIGIN LEVEL: 0
L1I AVERAGE MISS LATENCY: -nan cycles
L1I RQ	ACCESS:   57655604	FORWARD:          0	MERGED:   21226540	TO_CACHE:   36429064

BTB TOTAL     ACCESS:   47142332  HIT:   44381973  MISS:    2760359  HIT %:    94.1446  MISS %:    5.85537   MPKI: 13.8018
BTB BRANCH_DIRECT_JUMP	ACCESS:    4520602  HIT:    4520584  MISS:         18
BTB BRANCH_INDIRECT	ACCESS:          0  HIT:          0  MISS:          0
BTB BRANCH_CONDITIONAL	ACCESS:   30060310  HIT:   30060278  MISS:         32
BTB BRANCH_DIRECT_CALL	ACCESS:    6071790  HIT:    6071779  MISS:         11
BTB BRANCH_INDIRECT_CALL	ACCESS:     208922  HIT:     208914  MISS:          8
BTB BRANCH_RETURN	ACCESS:    6280708  HIT:    3520418  MISS:    2760290
BTB BRANCH_OTHER ACCESS:          0  HIT:          0  MISS:          0

L2C TOTAL     ACCESS:   36629240  HIT:   28633072  MISS:    7996168  HIT %:      78.17  MISS %:      21.83   MPKI: 39.9808
L2C LOAD      ACCESS:    6639238  HIT:    2345662  MISS:    4293576  HIT %:    35.3303  MISS %:    64.6697   MPKI: 21.4679
L2C DATA LOAD MPKI: 21.4679
L2C INSTRUCTION LOAD MPKI: 0
L2C RFO       ACCESS:      50954  HIT:      43348  MISS:       7606  HIT %:    85.0728  MISS %:    14.9272   MPKI: 0.03803
L2C PREFETCH  ACCESS:   26957861  HIT:   23900009  MISS:    3057852  HIT %:    88.6569  MISS %:    11.3431   MPKI: 15.2893
L2C DATA PREFETCH MPKI: 15.2893
L2C INSTRUCTION PREFETCH MPKI: 0
L2C WRITEBACK ACCESS:     455853  HIT:     443221  MISS:      12632  HIT %:    97.2289  MISS %:    2.77107   MPKI: 0.06316
L2C LOAD TRANSLATION ACCESS:    2284488  HIT:    1677133  MISS:     607355  HIT %:     73.414  MISS %:     26.586   MPKI: 3.03677
L2C TRANSLATION FROM L1D PREFETCHER ACCESS:     240846  HIT:     223699  MISS:      17147  HIT %:    92.8805  MISS %:    7.11949   MPKI: 0.085735
L2C PREFETCH  REQUESTED:          0  ISSUED:          0  USEFUL:     490340  USELESS:    2589469
L2C USEFUL LOAD PREFETCHES:     490340 PREFETCH ISSUED TO LOWER LEVEL:    3159481  ACCURACY: 15.5196
L2C TIMELY PREFETCHES:     490340 LATE PREFETCHES: 93470 DROPPED PREFETCHES: 0
L2C PREFETCHES SAME FILL-ORIGIN LEVEL: 3130358 DIFFERENT FILL-ORIGIN LEVEL: 0
L2C AVERAGE MISS LATENCY: 242.825 cycles
L2C RQ	ACCESS:    9227229	FORWARD:          0	MERGED:          0	TO_CACHE:    9227228
L2C WQ	ACCESS:     456756	FORWARD:         13	MERGED:          0	TO_CACHE:     456756
L2C PQ	ACCESS:   27718580	FORWARD:          0	MERGED:      35635	TO_CACHE:   27682933

L2C Instructions Evicting Data 0
L2C Translations Evicting Data 550866
L2C Data Evicting Data 6819375
L2C Instructions Evicting Instructions 0
L2C Translations Evicting Instructions 0
L2C Data Evicting Instructions 0
L2C Instructions Evicting Translations 0
L2C Translations Evicting Translations 73677
L2C Data Evicting Translations 551425
L2C Dense regions hint from L2: 0
PSCL5 TOTAL     ACCESS:    1563197  HIT:    1563197  MISS:          0  HIT %:        100  MISS %:          0   MPKI: 0
PSCL5 LOAD TRANSLATION ACCESS:    1378835  HIT:    1378835  MISS:          0  HIT %:        100  MISS %:          0   MPKI: 0
PSCL5 TRANSLATION FROM L1D PREFETCHER ACCESS:     184362  HIT:     184362  MISS:          0  HIT %:        100  MISS %:          0   MPKI: 0
PSCL5 PREFETCH  REQUESTED:          0  ISSUED:          0  USEFUL:          0  USELESS:          0
PSCL5 USEFUL LOAD PREFETCHES:          0 PREFETCH ISSUED TO LOWER LEVEL:          0  ACCURACY: -nan
PSCL5 TIMELY PREFETCHES:          0 LATE PREFETCHES: 0 DROPPED PREFETCHES: 0
PSCL5 PREFETCHES SAME FILL-ORIGIN LEVEL: 0 DIFFERENT FILL-ORIGIN LEVEL: 0

PSCL4 TOTAL     ACCESS:    1563197  HIT:    1563197  MISS:          0  HIT %:        100  MISS %:          0   MPKI: 0
PSCL4 LOAD TRANSLATION ACCESS:    1378835  HIT:    1378835  MISS:          0  HIT %:        100  MISS %:          0   MPKI: 0
PSCL4 TRANSLATION FROM L1D PREFETCHER ACCESS:     184362  HIT:     184362  MISS:          0  HIT %:        100  MISS %:          0   MPKI: 0
PSCL4 PREFETCH  REQUESTED:          0  ISSUED:          0  USEFUL:          0  USELESS:          0
PSCL4 USEFUL LOAD PREFETCHES:          0 PREFETCH ISSUED TO LOWER LEVEL:          0  ACCURACY: -nan
PSCL4 TIMELY PREFETCHES:          0 LATE PREFETCHES: 0 DROPPED PREFETCHES: 0
PSCL4 PREFETCHES SAME FILL-ORIGIN LEVEL: 0 DIFFERENT FILL-ORIGIN LEVEL: 0

PSCL3 TOTAL     ACCESS:    1563197  HIT:    1563197  MISS:          0  HIT %:        100  MISS %:          0   MPKI: 0
PSCL3 LOAD TRANSLATION ACCESS:    1378835  HIT:    1378835  MISS:          0  HIT %:        100  MISS %:          0   MPKI: 0
PSCL3 TRANSLATION FROM L1D PREFETCHER ACCESS:     184362  HIT:     184362  MISS:          0  HIT %:        100  MISS %:          0   MPKI: 0
PSCL3 PREFETCH  REQUESTED:          0  ISSUED:          0  USEFUL:          0  USELESS:          0
PSCL3 USEFUL LOAD PREFETCHES:          0 PREFETCH ISSUED TO LOWER LEVEL:          0  ACCURACY: -nan
PSCL3 TIMELY PREFETCHES:          0 LATE PREFETCHES: 0 DROPPED PREFETCHES: 0
PSCL3 PREFETCHES SAME FILL-ORIGIN LEVEL: 0 DIFFERENT FILL-ORIGIN LEVEL: 0

PSCL2 TOTAL     ACCESS:    1531701  HIT:     601054  MISS:     930647  HIT %:    39.2409  MISS %:    60.7591   MPKI: 4.65323
PSCL2 LOAD TRANSLATION ACCESS:    1403823  HIT:     473176  MISS:     930647  HIT %:    33.7062  MISS %:    66.2938   MPKI: 4.65323
PSCL2 TRANSLATION FROM L1D PREFETCHER ACCESS:     127878  HIT:     127878  MISS:          0  HIT %:        100  MISS %:          0   MPKI: 0
PSCL2 PREFETCH  REQUESTED:          0  ISSUED:          0  USEFUL:          0  USELESS:          0
PSCL2 USEFUL LOAD PREFETCHES:          0 PREFETCH ISSUED TO LOWER LEVEL:          0  ACCURACY: -nan
PSCL2 TIMELY PREFETCHES:          0 LATE PREFETCHES: 0 DROPPED PREFETCHES: 0
PSCL2 PREFETCHES SAME FILL-ORIGIN LEVEL: 0 DIFFERENT FILL-ORIGIN LEVEL: 0

LLC TOTAL     ACCESS:    8286896  HIT:    2411234  MISS:    5875662  HIT %:     29.097  MISS %:     70.903   MPKI: 29.3783
LLC LOAD      ACCESS:    4200589  HIT:    1314992  MISS:    2885597  HIT %:    31.3049  MISS %:    68.6951   MPKI: 14.428
LLC RFO       ACCESS:       7341  HIT:       4795  MISS:       2546  HIT %:    65.3181  MISS %:    34.6819   MPKI: 0.01273
LLC PREFETCH  ACCESS:    3151101  HIT:     571742  MISS:    2579359  HIT %:    18.1442  MISS %:    81.8558   MPKI: 12.8968
LLC WRITEBACK ACCESS:     303363  HIT:     286324  MISS:      17039  HIT %:    94.3833  MISS %:     5.6167   MPKI: 0.085195
LLC LOAD TRANSLATION ACCESS:     607355  HIT:     228136  MISS:     379219  HIT %:    37.5622  MISS %:    62.4378   MPKI: 1.89609
LLC TRANSLATION FROM L1D PREFETCHER ACCESS:      17147  HIT:       5245  MISS:      11902  HIT %:    30.5884  MISS %:    69.4116   MPKI: 0.05951
LLC PREFETCH  REQUESTED:          0  ISSUED:          0  USEFUL:     186736  USELESS:   10170575
LLC USEFUL LOAD PREFETCHES:     186736 PREFETCH ISSUED TO LOWER LEVEL:   10403945  ACCURACY: 1.79486
LLC TIMELY PREFETCHES:     186736 LATE PREFETCHES: 0 DROPPED PREFETCHES: 0
LLC PREFETCHES SAME FILL-ORIGIN LEVEL: 0 DIFFERENT FILL-ORIGIN LEVEL: 0
LLC AVERAGE MISS LATENCY: 1156.52 cycles
LLC RQ	ACCESS:   19398643	FORWARD:          0	MERGED:          0	TO_CACHE:   19398641
LLC WQ	ACCESS:    1221066	FORWARD:         19	MERGED:          0	TO_CACHE:    1221066
LLC PQ	ACCESS:   12717783	FORWARD:          0	MERGED:          0	TO_CACHE:   12717766

LLC Dense regions hint to LLC: 0

RAW hits: 2033186
Loads Generated: 69384742
Loads sent to L1D: 67351554
Stores Generated: 20248649
Stores sent to L1D: 20248649
Major fault: 0 Minor fault: 167265
Allocated PAGES: 675305

CPU 3 cumulative IPC: 0.221006 instructions: 200000001 cycles: 904953177
ITLB TOTAL     ACCESS:   35378138  HIT:   35378138  MISS:          0  HIT %:        100  MISS %:          0   MPKI: 0
ITLB LOAD TRANSLATION ACCESS:   35378138  HIT:   35378138  MISS:          0  HIT %:        100  MISS %:          0   MPKI: 0
ITLB PREFETCH  REQUESTED:          0  ISSUED:          0  USEFUL:          0  USELESS:          0
ITLB USEFUL LOAD PREFETCHES:          0 PREFETCH ISSUED TO LOWER LEVEL:          0  ACCURACY: -nan
ITLB TIMELY PREFETCHES:          0 LATE PREFETCHES: 0 DROPPED PREFETCHES: 0
ITLB PREFETCHES SAME FILL-ORIGIN LEVEL: 0 DIFFERENT FILL-ORIGIN LEVEL: 0
ITLB AVERAGE MISS LATENCY: -nan cycles
ITLB RQ	ACCESS:   36280114	FORWARD:          0	MERGED:     901977	TO_CACHE:   35378137

DTLB TOTAL     ACCESS:   65053674  HIT:   62130159  MISS:    2923515  HIT %:     95.506  MISS %:      4.494   MPKI: 14.6176
DTLB LOAD TRANSLATION ACCESS:   65053674  HIT:   62130159  MISS:    2923515  HIT %:     95.506  MISS %:      4.494   MPKI: 14.6176
DTLB PREFETCH  REQUESTED:          0  ISSUED:          0  USEFUL:          0  USELESS:          0
DTLB USEFUL LOAD PREFETCHES:          0 PREFETCH ISSUED TO LOWER LEVEL:          0  ACCURACY: -nan
DTLB TIMELY PREFETCHES:          0 LATE PREFETCHES: 0 DROPPED PREFETCHES: 0
DTLB PREFETCHES SAME FILL-ORIGIN LEVEL: 0 DIFFERENT FILL-ORIGIN LEVEL: 0
DTLB AVERAGE MISS LATENCY: 82.4787 cycles
DTLB RQ	ACCESS:   77865289	FORWARD:          0	MERGED:   11987288	TO_CACHE:   65878001

STLB TOTAL     ACCESS:   24435462  HIT:   22981259  MISS:    1454203  HIT %:    94.0488  MISS %:     5.9512   MPKI: 7.27101
STLB LOAD TRANSLATION ACCESS:    2923515  HIT:    1543371  MISS:    1380144  HIT %:    52.7916  MISS %:    47.2084   MPKI: 6.90072
STLB TRANSLATION FROM L1D PREFETCHER ACCESS:   21511947  HIT:   21437888  MISS:      74059  HIT %:    99.6557  MISS %:   0.344269   MPKI: 0.370295
STLB PREFETCH  REQUESTED:          0  ISSUED:          0  USEFUL:      72220  USELESS:       1833
STLB USEFUL LOAD PREFETCHES:      72220 PREFETCH ISSUED TO LOWER LEVEL:          0  ACCURACY: inf
STLB TIMELY PREFETCHES:      72220 LATE PREFETCHES: 1259 DROPPED PREFETCHES: 109629
STLB PREFETCHES SAME FILL-ORIGIN LEVEL: 0 DIFFERENT FILL-ORIGIN LEVEL: 0
STLB AVERAGE MISS LATENCY: 153.515 cycles
STLB RQ	ACCESS:   89640153	FORWARD:          0	MERGED:   65043181	TO_CACHE:   24596972

STLB Hit, L1D data hit: 0
STLB Hit, L2C data hit: 0
STLB Hit, LLC data hit: 0
STLB Hit, LLC data miss: 0
STLB STLB hints to L2: 0
L1D TOTAL     ACCESS:  136773874  HIT:  129795299  MISS:    6978575  HIT %:    94.8977  MISS %:    5.10227   MPKI: 34.8929
L1D LOAD      ACCESS:   57618384  HIT:   50977651  MISS:    6640733  HIT %:    88.4746  MISS %:    11.5254   MPKI: 33.2037
L1D RFO       ACCESS:   20020258  HIT:   19969285  MISS:      50973  HIT %:    99.7454  MISS %:   0.254607   MPKI: 0.254865
L1D PREFETCH  ACCESS:   59135232  HIT:   58848363  MISS:     286869  HIT %:    99.5149  MISS %:   0.485107   MPKI: 1.43434
L1D PREFETCH  REQUESTED:  206298808  ISSUED:  202106987  USEFUL:     278913  USELESS:       7968
L1D USEFUL LOAD PREFETCHES:     278913 PREFETCH ISSUED TO LOWER LEVEL:   27480625  ACCURACY: 1.01494
L1D TIMELY PREFETCHES:     278913 LATE PREFETCHES: 287 DROPPED PREFETCHES: 259784
L1D PREFETCHES SAME FILL-ORIGIN LEVEL: 287171 DIFFERENT FILL-ORIGIN LEVEL: 27193454
L1D AVERAGE MISS LATENCY: 150.817 cycles
L1D RQ	ACCESS:   67352207	FORWARD:          0	MERGED:    5192733	TO_CACHE:   57731040
L1D WQ	ACCESS:   20248058	FORWARD:    4471554	MERGED:     113809	TO_CACHE:   20134249
L1D PQ	ACCESS:  115390349	FORWARD:          0	MERGED:   28630591	TO_CACHE:   86716638

L1D UNIQUE REGIONS ACCESSED: 0
L1D REGIONS CONFLICTS: 0
L1D Cross Page Prefetch Requests: 12651830
L1D Same Page Prefetch Requests: 125897384
L1D ROI Sum of L1D PQ occupancy: 1150190640
L1D PREFETCHES PUSHED FROM L2C: 0
L1I TOTAL     ACCESS:   36280115  HIT:   36280115  MISS:          0  HIT %:        100  MISS %:          0   MPKI: 0
L1I LOAD      ACCESS:   36280115  HIT:   36280115  MISS:          0  HIT %:        100  MISS %:          0   MPKI: 0
L1I PREFETCH  REQUESTED:          0  ISSUED:          0  USEFUL:          0  USELESS:          0
L1I USEFUL LOAD PREFETCHES:          0 PREFETCH ISSUED TO LOWER LEVEL:          0  ACCURACY: -nan
L1I TIMELY PREFETCHES:          0 LATE PREFETCHES: 0 DROPPED PREFETCHES: 0
L1I PREFETCHES SAME FILL-ORIGIN LEVEL: 0 DIFFERENT FILL-ORIGIN LEVEL: 0
L1I AVERAGE MISS LATENCY: -nan cycles
L1I RQ	ACCESS:   57427612	FORWARD:          0	MERGED:   21147498	TO_CACHE:   36280114

BTB TOTAL     ACCESS:   47143243  HIT:   44382764  MISS:    2760479  HIT %:    94.1445  MISS %:    5.85551   MPKI: 13.8024
BTB BRANCH_DIRECT_JUMP	ACCESS:    4520858  HIT:    4520837  MISS:         21
BTB BRANCH_INDIRECT	ACCESS:          0  HIT:          0  MISS:          0
BTB BRANCH_CONDITIONAL	ACCESS:   30060449  HIT:   30060407  MISS:         42
BTB BRANCH_DIRECT_CALL	ACCESS:    6072091  HIT:    6072078  MISS:         13
BTB BRANCH_INDIRECT_CALL	ACCESS:     208878  HIT:     208870  MISS:          8
BTB BRANCH_RETURN	ACCESS:    6280967  HIT:    3520572  MISS:    2760395
BTB BRANCH_OTHER ACCESS:          0  HIT:          0  MISS:          0

L2C TOTAL     ACCESS:   36484517  HIT:   28480048  MISS:    8004469  HIT %:    78.0606  MISS %:    21.9394   MPKI: 40.0223
L2C LOAD      ACCESS:    6640445  HIT:    2341151  MISS:    4299294  HIT %:    35.2559  MISS %:    64.7441   MPKI: 21.4965
L2C DATA LOAD MPKI: 21.4965
L2C INSTRUCTION LOAD MPKI: 0
L2C RFO       ACCESS:      50969  HIT:      42923  MISS:       8046  HIT %:    84.2139  MISS %:    15.7861   MPKI: 0.04023
L2C PREFETCH  ACCESS:   26809397  HIT:   23750842  MISS:    3058555  HIT %:    88.5915  MISS %:    11.4085   MPKI: 15.2928
L2C DATA PREFETCH MPKI: 15.2928
L2C INSTRUCTION PREFETCH MPKI: 0
L2C WRITEBACK ACCESS:     456201  HIT:     442765  MISS:      13436  HIT %:    97.0548  MISS %:    2.94519   MPKI: 0.06718
L2C LOAD TRANSLATION ACCESS:    2285181  HIT:    1677415  MISS:     607766  HIT %:     73.404  MISS %:     26.596   MPKI: 3.03883
L2C TRANSLATION FROM L1D PREFETCHER ACCESS:     242324  HIT:     224952  MISS:      17372  HIT %:    92.8311  MISS %:    7.16891   MPKI: 0.08686
L2C PREFETCH  REQUESTED:          0  ISSUED:          0  USEFUL:     488973  USELESS:    2584204
L2C USEFUL LOAD PREFETCHES:     488973 PREFETCH ISSUED TO LOWER LEVEL:    3150052  ACCURACY: 15.5227
L2C TIMELY PREFETCHES:     488973 LATE PREFETCHES: 91497 DROPPED PREFETCHES: 0
L2C PREFETCHES SAME FILL-ORIGIN LEVEL: 3119106 DIFFERENT FILL-ORIGIN LEVEL: 0
L2C AVERAGE MISS LATENCY: 241.744 cycles
L2C RQ	ACCESS:    9218920	FORWARD:          0	MERGED:          0	TO_CACHE:    9218919
L2C WQ	ACCESS:     456201	FORWARD:         11	MERGED:          0	TO_CACHE:     456201
L2C PQ	ACCESS:   27469867	FORWARD:          0	MERGED:      35129	TO_CACHE:   27434728

L2C Instructions Evicting Data 0
L2C Translations Evicting Data 552869
L2C Data Evicting Data 6812502
L2C Instructions Evicting Instructions 0
L2C Translations Evicting Instructions 0
L2C Data Evicting Instructions 0
L2C Instructions Evicting Translations 0
L2C Translations Evicting Translations 72269
L2C Data Evicting Translations 553393
L2C Dense regions hint from L2: 0
PSCL5 TOTAL     ACCESS:    1564048  HIT:    1564048  MISS:          0  HIT %:        100  MISS %:          0   MPKI: 0
PSCL5 LOAD TRANSLATION ACCESS:    1379101  HIT:    1379101  MISS:          0  HIT %:        100  MISS %:          0   MPKI: 0
PSCL5 TRANSLATION FROM L1D PREFETCHER ACCESS:     184947  HIT:     184947  MISS:          0  HIT %:        100  MISS %:          0   MPKI: 0
PSCL5 PREFETCH  REQUESTED:          0  ISSUED:          0  USEFUL:          0  USELESS:          0
PSCL5 USEFUL LOAD PREFETCHES:          0 PREFETCH ISSUED TO LOWER LEVEL:          0  ACCURACY: -nan
PSCL5 TIMELY PREFETCHES:          0 LATE PREFETCHES: 0 DROPPED PREFETCHES: 0
PSCL5 PREFETCHES SAME FILL-ORIGIN LEVEL: 0 DIFFERENT FILL-ORIGIN LEVEL: 0

PSCL4 TOTAL     ACCESS:    1564048  HIT:    1564048  MISS:          0  HIT %:        100  MISS %:          0   MPKI: 0
PSCL4 LOAD TRANSLATION ACCESS:    1379101  HIT:    1379101  MISS:          0  HIT %:        100  MISS %:          0   MPKI: 0
PSCL4 TRANSLATION FROM L1D PREFETCHER ACCESS:     184947  HIT:     184947  MISS:          0  HIT %:        100  MISS %:          0   MPKI: 0
PSCL4 PREFETCH  REQUESTED:          0  ISSUED:          0  USEFUL:          0  USELESS:          0
PSCL4 USEFUL LOAD PREFETCHES:          0 PREFETCH ISSUED TO LOWER LEVEL:          0  ACCURACY: -nan
PSCL4 TIMELY PREFETCHES:          0 LATE PREFETCHES: 0 DROPPED PREFETCHES: 0
PSCL4 PREFETCHES SAME FILL-ORIGIN LEVEL: 0 DIFFERENT FILL-ORIGIN LEVEL: 0

PSCL3 TOTAL     ACCESS:    1564048  HIT:    1564048  MISS:          0  HIT %:        100  MISS %:          0   MPKI: 0
PSCL3 LOAD TRANSLATION ACCESS:    1379101  HIT:    1379101  MISS:          0  HIT %:        100  MISS %:          0   MPKI: 0
PSCL3 TRANSLATION FROM L1D PREFETCHER ACCESS:     184947  HIT:     184947  MISS:          0  HIT %:        100  MISS %:          0   MPKI: 0
PSCL3 PREFETCH  REQUESTED:          0  ISSUED:          0  USEFUL:          0  USELESS:          0
PSCL3 USEFUL LOAD PREFETCHES:          0 PREFETCH ISSUED TO LOWER LEVEL:          0  ACCURACY: -nan
PSCL3 TIMELY PREFETCHES:          0 LATE PREFETCHES: 0 DROPPED PREFETCHES: 0
PSCL3 PREFETCHES SAME FILL-ORIGIN LEVEL: 0 DIFFERENT FILL-ORIGIN LEVEL: 0

PSCL2 TOTAL     ACCESS:    1531845  HIT:     600584  MISS:     931261  HIT %:    39.2066  MISS %:    60.7934   MPKI: 4.6563
PSCL2 LOAD TRANSLATION ACCESS:    1404275  HIT:     473014  MISS:     931261  HIT %:    33.6839  MISS %:    66.3161   MPKI: 4.6563
PSCL2 TRANSLATION FROM L1D PREFETCHER ACCESS:     127570  HIT:     127570  MISS:          0  HIT %:        100  MISS %:          0   MPKI: 0
PSCL2 PREFETCH  REQUESTED:          0  ISSUED:          0  USEFUL:          0  USELESS:          0
PSCL2 USEFUL LOAD PREFETCHES:          0 PREFETCH ISSUED TO LOWER LEVEL:          0  ACCURACY: -nan
PSCL2 TIMELY PREFETCHES:          0 LATE PREFETCHES: 0 DROPPED PREFETCHES: 0
PSCL2 PREFETCHES SAME FILL-ORIGIN LEVEL: 0 DIFFERENT FILL-ORIGIN LEVEL: 0

LLC TOTAL     ACCESS:    8295577  HIT:    2473406  MISS:    5822171  HIT %:     29.816  MISS %:     70.184   MPKI: 29.1109
LLC LOAD      ACCESS:    4208062  HIT:    1348819  MISS:    2859243  HIT %:    32.0532  MISS %:    67.9468   MPKI: 14.2962
LLC RFO       ACCESS:       7780  HIT:       5268  MISS:       2512  HIT %:    67.7121  MISS %:    32.2879   MPKI: 0.01256
LLC PREFETCH  ACCESS:    3150046  HIT:     594144  MISS:    2555902  HIT %:    18.8614  MISS %:    81.1386   MPKI: 12.7795
LLC WRITEBACK ACCESS:     304551  HIT:     287600  MISS:      16951  HIT %:    94.4341  MISS %:     5.5659   MPKI: 0.084755
LLC LOAD TRANSLATION ACCESS:     607766  HIT:     232081  MISS:     375685  HIT %:    38.1859  MISS %:    61.8141   MPKI: 1.87842
LLC TRANSLATION FROM L1D PREFETCHER ACCESS:      17372  HIT:       5494  MISS:      11878  HIT %:    31.6256  MISS %:    68.3744   MPKI: 0.05939
LLC PREFETCH  REQUESTED:          0  ISSUED:          0  USEFUL:     186736  USELESS:   10170575
LLC USEFUL LOAD PREFETCHES:     186736 PREFETCH ISSUED TO LOWER LEVEL:   10403945  ACCURACY: 1.79486
LLC TIMELY PREFETCHES:     186736 LATE PREFETCHES: 0 DROPPED PREFETCHES: 0
LLC PREFETCHES SAME FILL-ORIGIN LEVEL: 0 DIFFERENT FILL-ORIGIN LEVEL: 0
LLC AVERAGE MISS LATENCY: 1167.15 cycles
LLC RQ	ACCESS:   19398643	FORWARD:          0	MERGED:          0	TO_CACHE:   19398641
LLC WQ	ACCESS:    1221066	FORWARD:         19	MERGED:          0	TO_CACHE:    1221066
LLC PQ	ACCESS:   12717783	FORWARD:          0	MERGED:          0	TO_CACHE:   12717766

LLC Dense regions hint to LLC: 0

RAW hits: 2033888
Loads Generated: 69386095
Loads sent to L1D: 67352207
Stores Generated: 20248054
Stores sent to L1D: 20248058
Major fault: 0 Minor fault: 167265
Allocated PAGES: 675305

DRAM Statistics
 CHANNEL 0
 RQ ROW_BUFFER_HIT:    1590519  ROW_BUFFER_MISS:   21851246
 DBUS_CONGESTED:        250
 WQ ROW_BUFFER_HIT:      84065  ROW_BUFFER_MISS:     795364  FULL:          0

 AVG_CONGESTED_CYCLE: 5
 All warmup complete: 5
Channel 0 Bank busy for read cycles: 0
Channel 0 Bank busy for write cycles: 0
Channel 0
Rank 0
0banks busy for read cycles: 69832078
0banks busy for write cycles: 34924
1banks busy for read cycles: 73044720
1banks busy for write cycles: 7216892
2banks busy for read cycles: 107678895
2banks busy for write cycles: 2963063
3banks busy for read cycles: 127855723
3banks busy for write cycles: 1719520
4banks busy for read cycles: 132573088
4banks busy for write cycles: 1195828
5banks busy for read cycles: 119203842
5banks busy for write cycles: 978724
6banks busy for read cycles: 98819846
6banks busy for write cycles: 1073132
7banks busy for read cycles: 77017406
7banks busy for write cycles: 3854318
8banks busy for read cycles: 55771740
8banks busy for write cycles: 24119439

CPU 0 Branch Prediction Accuracy: 94.7111% MPKI: 13.1163 Average ROB Occupancy at Mispredict: 26.1331
Branch types
NOT_BRANCH: 153023220 75.1918%
BRANCH_DIRECT_JUMP: 4602161 2.26139%
BRANCH_INDIRECT: 0 0%
BRANCH_CONDITIONAL: 33092853 16.261%
BRANCH_DIRECT_CALL: 6183931 3.03863%
BRANCH_INDIRECT_CALL: 212216 0.104278%
BRANCH_RETURN: 6396150 3.14291%
BRANCH_OTHER: 0 0%


CPU 1 Branch Prediction Accuracy: 94.7162% MPKI: 13.0941 Average ROB Occupancy at Mispredict: 26.2204
Branch types
NOT_BRANCH: 150461204 75.2128%
BRANCH_DIRECT_JUMP: 4521130 2.26003%
BRANCH_INDIRECT: 0 0%
BRANCH_CONDITIONAL: 32501637 16.247%
BRANCH_DIRECT_CALL: 6072692 3.03563%
BRANCH_INDIRECT_CALL: 209058 0.104504%
BRANCH_RETURN: 6281751 3.14013%
BRANCH_OTHER: 0 0%


CPU 2 Branch Prediction Accuracy: 94.7163% MPKI: 13.0918 Average ROB Occupancy at Mispredict: 26.2301
Branch types
NOT_BRANCH: 151053714 75.2193%
BRANCH_DIRECT_JUMP: 4537758 2.25964%
BRANCH_INDIRECT: 0 0%
BRANCH_CONDITIONAL: 32618172 16.2427%
BRANCH_DIRECT_CALL: 6093796 3.03449%
BRANCH_INDIRECT_CALL: 210284 0.104714%
BRANCH_RETURN: 6304079 3.1392%
BRANCH_OTHER: 0 0%


CPU 3 Branch Prediction Accuracy: 94.7162% MPKI: 13.0983 Average ROB Occupancy at Mispredict: 26.2222
Branch types
NOT_BRANCH: 150420415 75.2102%
BRANCH_DIRECT_JUMP: 4520858 2.26043%
BRANCH_INDIRECT: 0 0%
BRANCH_CONDITIONAL: 32496415 16.2482%
BRANCH_DIRECT_CALL: 6072091 3.03605%
BRANCH_INDIRECT_CALL: 208878 0.104439%
BRANCH_RETURN: 6280967 3.14048%
BRANCH_OTHER: 0 0%

DRAM PAGES: 1048576
Allocated PAGES: 675305
