
*** ChampSim Multicore Out-of-Order Simulator ***

Warmup Instructions: 50000000
Simulation Instructions: 200000000
Number of CPUs: 4
LLC sets: 8192
LLC ways: 16
Off-chip DRAM Size: 4096 MB Channels: 1 Width: 64-bit Data Rate: 6400 MT/s
CPU 0 runs ./traces/cs/cloud9_phase2_core0.trace.xz
.xz
CPU 1 runs ./traces/cs/cloud9_phase2_core1.trace.xz
.xz
CPU 2 runs ./traces/cs/cloud9_phase2_core2.trace.xz
.xz
CPU 3 runs ./traces/cs/cloud9_phase2_core3.trace.xz
.xz
BTB has LRU replacement policy
ITLB has LRU replacement policy
DTLB has LRU replacement policy
STLB has LRU replacement policy
L1I has LRU replacement policy
History Sets: 8
History Ways: 16
BERTI Size: 16
BERTI Stride Size: 8
L1D has LRU replacement policy
Initialize SRRIP state for L2C
Initialize DRRIP state for LLC
BTB has LRU replacement policy
ITLB has LRU replacement policy
DTLB has LRU replacement policy
STLB has LRU replacement policy
L1I has LRU replacement policy
History Sets: 8
History Ways: 16
BERTI Size: 16
BERTI Stride Size: 8
L1D has LRU replacement policy
Initialize SRRIP state for L2C
Initialize DRRIP state for LLC
BTB has LRU replacement policy
ITLB has LRU replacement policy
DTLB has LRU replacement policy
STLB has LRU replacement policy
L1I has LRU replacement policy
History Sets: 8
History Ways: 16
BERTI Size: 16
BERTI Stride Size: 8
L1D has LRU replacement policy
Initialize SRRIP state for L2C
Initialize DRRIP state for LLC
BTB has LRU replacement policy
ITLB has LRU replacement policy
DTLB has LRU replacement policy
STLB has LRU replacement policy
L1I has LRU replacement policy
History Sets: 8
History Ways: 16
BERTI Size: 16
BERTI Stride Size: 8
L1D has LRU replacement policy
Initialize SRRIP state for L2C
Initialize DRRIP state for LLC
UNIQUE_ASID[0] = €
UNIQUE_ASID[1] = 
Heartbeat CPU 3 instructions: 10000002 cycles: 3333005 heartbeat IPC: 3.0003 cumulative IPC: 3.0003 (Simulation time: 0 hr 2 min 8 sec) 
Heartbeat CPU 1 instructions: 10000002 cycles: 3474836 heartbeat IPC: 2.87783 cumulative IPC: 2.87783 (Simulation time: 0 hr 2 min 13 sec) 
Heartbeat CPU 2 instructions: 10000001 cycles: 3967379 heartbeat IPC: 2.52056 cumulative IPC: 2.52056 (Simulation time: 0 hr 2 min 32 sec) 
Heartbeat CPU 0 instructions: 10000001 cycles: 4027061 heartbeat IPC: 2.4832 cumulative IPC: 2.4832 (Simulation time: 0 hr 2 min 35 sec) 
Heartbeat CPU 3 instructions: 20000002 cycles: 6676834 heartbeat IPC: 2.99058 cumulative IPC: 2.99543 (Simulation time: 0 hr 4 min 15 sec) 
Heartbeat CPU 1 instructions: 20000000 cycles: 6954041 heartbeat IPC: 2.87422 cumulative IPC: 2.87603 (Simulation time: 0 hr 4 min 26 sec) 
Heartbeat CPU 2 instructions: 20000000 cycles: 7809497 heartbeat IPC: 2.60273 cumulative IPC: 2.56098 (Simulation time: 0 hr 4 min 51 sec) 
Heartbeat CPU 0 instructions: 20000000 cycles: 7893360 heartbeat IPC: 2.58645 cumulative IPC: 2.53378 (Simulation time: 0 hr 4 min 53 sec) 
Heartbeat CPU 3 instructions: 30000000 cycles: 10042745 heartbeat IPC: 2.97096 cumulative IPC: 2.98723 (Simulation time: 0 hr 6 min 15 sec) 
Heartbeat CPU 1 instructions: 30000003 cycles: 10477369 heartbeat IPC: 2.83823 cumulative IPC: 2.86331 (Simulation time: 0 hr 6 min 29 sec) 
Heartbeat CPU 2 instructions: 30000000 cycles: 11657161 heartbeat IPC: 2.59898 cumulative IPC: 2.57353 (Simulation time: 0 hr 7 min 5 sec) 
Heartbeat CPU 0 instructions: 30000003 cycles: 11750854 heartbeat IPC: 2.59236 cumulative IPC: 2.55301 (Simulation time: 0 hr 7 min 8 sec) 
Heartbeat CPU 3 instructions: 40000003 cycles: 13382943 heartbeat IPC: 2.99384 cumulative IPC: 2.98888 (Simulation time: 0 hr 8 min 3 sec) 
Heartbeat CPU 1 instructions: 40000000 cycles: 13938461 heartbeat IPC: 2.88926 cumulative IPC: 2.86976 (Simulation time: 0 hr 8 min 21 sec) 
Heartbeat CPU 2 instructions: 40000001 cycles: 15593692 heartbeat IPC: 2.54031 cumulative IPC: 2.56514 (Simulation time: 0 hr 9 min 27 sec) 
Heartbeat CPU 0 instructions: 40000000 cycles: 15705208 heartbeat IPC: 2.52886 cumulative IPC: 2.54693 (Simulation time: 0 hr 9 min 31 sec) 
Heartbeat CPU 3 instructions: 50000002 cycles: 16750423 heartbeat IPC: 2.96958 cumulative IPC: 2.985 (Simulation time: 0 hr 10 min 12 sec) 
Heartbeat CPU 1 instructions: 50000001 cycles: 17241726 heartbeat IPC: 3.02731 cumulative IPC: 2.89994 (Simulation time: 0 hr 10 min 27 sec) 
Heartbeat CPU 2 instructions: 50000003 cycles: 19430323 heartbeat IPC: 2.60645 cumulative IPC: 2.5733 (Simulation time: 0 hr 11 min 44 sec) 
Heartbeat CPU 0 instructions: 50000003 cycles: 19580230 heartbeat IPC: 2.58063 cumulative IPC: 2.5536 (Simulation time: 0 hr 11 min 50 sec) 

Warmup complete CPU 0 instructions: 50000003 cycles: 19580230 (Simulation time: 0 hr 11 min 50 sec) 
Warmup complete CPU 1 instructions: 56993183 cycles: 19580229 (Simulation time: 0 hr 11 min 50 sec) 
Warmup complete CPU 2 instructions: 50391314 cycles: 19580229 (Simulation time: 0 hr 11 min 50 sec) 
Warmup complete CPU 3 instructions: 58305463 cycles: 19580229 (Simulation time: 0 hr 11 min 50 sec) 

Heartbeat CPU 3 instructions: 60000003 cycles: 22010606 heartbeat IPC: 1.90107 cumulative IPC: 0.697233 (Simulation time: 0 hr 12 min 27 sec) 
Heartbeat CPU 1 instructions: 60000001 cycles: 25234666 heartbeat IPC: 1.2511 cumulative IPC: 0.531763 (Simulation time: 0 hr 13 min 16 sec) 
Heartbeat CPU 3 instructions: 70000000 cycles: 36126555 heartbeat IPC: 0.708418 cumulative IPC: 0.706775 (Simulation time: 0 hr 15 min 40 sec) 
Heartbeat CPU 2 instructions: 60000001 cycles: 37202903 heartbeat IPC: 0.562664 cumulative IPC: 0.545246 (Simulation time: 0 hr 15 min 53 sec) 
Heartbeat CPU 0 instructions: 60000002 cycles: 37711172 heartbeat IPC: 0.551543 cumulative IPC: 0.551543 (Simulation time: 0 hr 16 min 0 sec) 
Heartbeat CPU 1 instructions: 70000002 cycles: 48454397 heartbeat IPC: 0.430668 cumulative IPC: 0.450466 (Simulation time: 0 hr 18 min 26 sec) 
Heartbeat CPU 3 instructions: 80000003 cycles: 50230865 heartbeat IPC: 0.709003 cumulative IPC: 0.707801 (Simulation time: 0 hr 18 min 49 sec) 
Heartbeat CPU 2 instructions: 70000001 cycles: 54336864 heartbeat IPC: 0.583636 cumulative IPC: 0.564171 (Simulation time: 0 hr 19 min 50 sec) 
Heartbeat CPU 0 instructions: 70000000 cycles: 54912334 heartbeat IPC: 0.581356 cumulative IPC: 0.566057 (Simulation time: 0 hr 19 min 58 sec) 
Heartbeat CPU 1 instructions: 80000000 cycles: 61815759 heartbeat IPC: 0.748427 cumulative IPC: 0.544727 (Simulation time: 0 hr 21 min 45 sec) 
Heartbeat CPU 3 instructions: 90000001 cycles: 64143335 heartbeat IPC: 0.71878 cumulative IPC: 0.711228 (Simulation time: 0 hr 22 min 24 sec) 
Heartbeat CPU 2 instructions: 80000002 cycles: 71433016 heartbeat IPC: 0.584927 cumulative IPC: 0.571014 (Simulation time: 0 hr 24 min 19 sec) 
Heartbeat CPU 0 instructions: 80000002 cycles: 71984912 heartbeat IPC: 0.585735 cumulative IPC: 0.572468 (Simulation time: 0 hr 24 min 28 sec) 
Heartbeat CPU 1 instructions: 90000000 cycles: 76412560 heartbeat IPC: 0.685082 cumulative IPC: 0.580775 (Simulation time: 0 hr 25 min 41 sec) 
Heartbeat CPU 3 instructions: 100000000 cycles: 80447446 heartbeat IPC: 0.613342 cumulative IPC: 0.685008 (Simulation time: 0 hr 26 min 38 sec) 
Heartbeat CPU 2 instructions: 90000000 cycles: 88958161 heartbeat IPC: 0.570609 cumulative IPC: 0.570912 (Simulation time: 0 hr 28 min 32 sec) 
Heartbeat CPU 0 instructions: 90000001 cycles: 89483791 heartbeat IPC: 0.571465 cumulative IPC: 0.572217 (Simulation time: 0 hr 28 min 38 sec) 
Heartbeat CPU 1 instructions: 100000003 cycles: 91045120 heartbeat IPC: 0.683408 cumulative IPC: 0.601789 (Simulation time: 0 hr 28 min 57 sec) 
Heartbeat CPU 3 instructions: 110000000 cycles: 93717105 heartbeat IPC: 0.753599 cumulative IPC: 0.697285 (Simulation time: 0 hr 29 min 37 sec) 
Heartbeat CPU 2 instructions: 100000001 cycles: 105912488 heartbeat IPC: 0.58982 cumulative IPC: 0.574625 (Simulation time: 0 hr 32 min 54 sec) 
Heartbeat CPU 0 instructions: 100000001 cycles: 106550379 heartbeat IPC: 0.58594 cumulative IPC: 0.57491 (Simulation time: 0 hr 33 min 5 sec) 
Heartbeat CPU 1 instructions: 110000000 cycles: 106895191 heartbeat IPC: 0.630912 cumulative IPC: 0.607076 (Simulation time: 0 hr 33 min 11 sec) 
Heartbeat CPU 3 instructions: 120000000 cycles: 107199706 heartbeat IPC: 0.741697 cumulative IPC: 0.704119 (Simulation time: 0 hr 33 min 16 sec) 
Heartbeat CPU 3 instructions: 130000000 cycles: 120718225 heartbeat IPC: 0.739726 cumulative IPC: 0.708878 (Simulation time: 0 hr 36 min 36 sec) 
Heartbeat CPU 1 instructions: 120000003 cycles: 122587553 heartbeat IPC: 0.637253 cumulative IPC: 0.611673 (Simulation time: 0 hr 37 min 2 sec) 
Heartbeat CPU 2 instructions: 110000000 cycles: 122975033 heartbeat IPC: 0.586079 cumulative IPC: 0.576515 (Simulation time: 0 hr 37 min 7 sec) 
Heartbeat CPU 0 instructions: 110000000 cycles: 123825271 heartbeat IPC: 0.578875 cumulative IPC: 0.575567 (Simulation time: 0 hr 37 min 16 sec) 
Heartbeat CPU 3 instructions: 140000001 cycles: 134206515 heartbeat IPC: 0.741384 cumulative IPC: 0.712703 (Simulation time: 0 hr 39 min 40 sec) 
Heartbeat CPU 1 instructions: 130000001 cycles: 139391023 heartbeat IPC: 0.595115 cumulative IPC: 0.609351 (Simulation time: 0 hr 41 min 4 sec) 
Heartbeat CPU 2 instructions: 120000001 cycles: 140031746 heartbeat IPC: 0.58628 cumulative IPC: 0.577898 (Simulation time: 0 hr 41 min 15 sec) 
Heartbeat CPU 0 instructions: 120000000 cycles: 140852198 heartbeat IPC: 0.587305 cumulative IPC: 0.577215 (Simulation time: 0 hr 41 min 28 sec) 
Heartbeat CPU 3 instructions: 150000000 cycles: 147876855 heartbeat IPC: 0.731511 cumulative IPC: 0.714707 (Simulation time: 0 hr 43 min 15 sec) 
Heartbeat CPU 2 instructions: 130000002 cycles: 157499177 heartbeat IPC: 0.572494 cumulative IPC: 0.577214 (Simulation time: 0 hr 45 min 22 sec) 
Heartbeat CPU 0 instructions: 130000000 cycles: 158502633 heartbeat IPC: 0.566558 cumulative IPC: 0.575861 (Simulation time: 0 hr 45 min 38 sec) 
Heartbeat CPU 1 instructions: 140000002 cycles: 158835297 heartbeat IPC: 0.51429 cumulative IPC: 0.596078 (Simulation time: 0 hr 45 min 43 sec) 
Heartbeat CPU 3 instructions: 160000001 cycles: 161723698 heartbeat IPC: 0.722186 cumulative IPC: 0.715436 (Simulation time: 0 hr 46 min 29 sec) 
Heartbeat CPU 2 instructions: 140000002 cycles: 174703525 heartbeat IPC: 0.581248 cumulative IPC: 0.577661 (Simulation time: 0 hr 50 min 4 sec) 
Heartbeat CPU 0 instructions: 140000003 cycles: 175669184 heartbeat IPC: 0.582528 cumulative IPC: 0.576594 (Simulation time: 0 hr 50 min 20 sec) 
Heartbeat CPU 3 instructions: 170000000 cycles: 175753270 heartbeat IPC: 0.71278 cumulative IPC: 0.715197 (Simulation time: 0 hr 50 min 21 sec) 
Heartbeat CPU 1 instructions: 150000002 cycles: 176440518 heartbeat IPC: 0.568013 cumulative IPC: 0.592928 (Simulation time: 0 hr 50 min 33 sec) 
Heartbeat CPU 3 instructions: 180000001 cycles: 190082800 heartbeat IPC: 0.69786 cumulative IPC: 0.71374 (Simulation time: 0 hr 54 min 12 sec) 
Heartbeat CPU 2 instructions: 150000001 cycles: 192865206 heartbeat IPC: 0.55061 cumulative IPC: 0.574826 (Simulation time: 0 hr 55 min 0 sec) 
Heartbeat CPU 0 instructions: 150000001 cycles: 193552721 heartbeat IPC: 0.559173 cumulative IPC: 0.574804 (Simulation time: 0 hr 55 min 11 sec) 
Heartbeat CPU 1 instructions: 160000000 cycles: 195049336 heartbeat IPC: 0.53738 cumulative IPC: 0.587037 (Simulation time: 0 hr 55 min 34 sec) 
Heartbeat CPU 3 instructions: 190000003 cycles: 204222378 heartbeat IPC: 0.707235 cumulative IPC: 0.713242 (Simulation time: 0 hr 57 min 55 sec) 
Heartbeat CPU 2 instructions: 160000002 cycles: 211135334 heartbeat IPC: 0.547342 cumulative IPC: 0.572204 (Simulation time: 0 hr 59 min 27 sec) 
Heartbeat CPU 0 instructions: 160000003 cycles: 211716651 heartbeat IPC: 0.550542 cumulative IPC: 0.57251 (Simulation time: 0 hr 59 min 36 sec) 
Heartbeat CPU 1 instructions: 170000000 cycles: 218771519 heartbeat IPC: 0.421546 cumulative IPC: 0.567328 (Simulation time: 1 hr 1 min 29 sec) 
Heartbeat CPU 3 instructions: 200000001 cycles: 221377841 heartbeat IPC: 0.582905 cumulative IPC: 0.702162 (Simulation time: 1 hr 2 min 14 sec) 
Heartbeat CPU 2 instructions: 170000003 cycles: 228218693 heartbeat IPC: 0.585365 cumulative IPC: 0.573282 (Simulation time: 1 hr 3 min 54 sec) 
Heartbeat CPU 0 instructions: 170000003 cycles: 228865164 heartbeat IPC: 0.583141 cumulative IPC: 0.573381 (Simulation time: 1 hr 4 min 1 sec) 
Heartbeat CPU 1 instructions: 180000002 cycles: 231981740 heartbeat IPC: 0.75699 cumulative IPC: 0.579124 (Simulation time: 1 hr 4 min 39 sec) 
Heartbeat CPU 3 instructions: 210000001 cycles: 234720909 heartbeat IPC: 0.749453 cumulative IPC: 0.705095 (Simulation time: 1 hr 5 min 10 sec) 
Heartbeat CPU 2 instructions: 180000003 cycles: 245238816 heartbeat IPC: 0.58754 cumulative IPC: 0.574357 (Simulation time: 1 hr 7 min 16 sec) 
Heartbeat CPU 0 instructions: 180000003 cycles: 245910660 heartbeat IPC: 0.586665 cumulative IPC: 0.574381 (Simulation time: 1 hr 7 min 24 sec) 
Heartbeat CPU 1 instructions: 190000000 cycles: 246501364 heartbeat IPC: 0.688723 cumulative IPC: 0.586137 (Simulation time: 1 hr 7 min 31 sec) 
Heartbeat CPU 3 instructions: 220000000 cycles: 248182809 heartbeat IPC: 0.742837 cumulative IPC: 0.707317 (Simulation time: 1 hr 7 min 50 sec) 
Heartbeat CPU 1 instructions: 200000003 cycles: 261134564 heartbeat IPC: 0.683378 cumulative IPC: 0.592028 (Simulation time: 1 hr 10 min 22 sec) 
Heartbeat CPU 3 instructions: 230000002 cycles: 261712279 heartbeat IPC: 0.739127 cumulative IPC: 0.709095 (Simulation time: 1 hr 10 min 30 sec) 
Heartbeat CPU 2 instructions: 190000000 cycles: 262684521 heartbeat IPC: 0.573207 cumulative IPC: 0.574275 (Simulation time: 1 hr 10 min 44 sec) 
Heartbeat CPU 0 instructions: 190000003 cycles: 263297850 heartbeat IPC: 0.575136 cumulative IPC: 0.574435 (Simulation time: 1 hr 10 min 52 sec) 
Heartbeat CPU 3 instructions: 240000000 cycles: 275187367 heartbeat IPC: 0.74211 cumulative IPC: 0.710835 (Simulation time: 1 hr 13 min 38 sec) 
Heartbeat CPU 1 instructions: 210000001 cycles: 276933171 heartbeat IPC: 0.632967 cumulative IPC: 0.594541 (Simulation time: 1 hr 14 min 3 sec) 
Heartbeat CPU 2 instructions: 200000001 cycles: 279598601 heartbeat IPC: 0.591223 cumulative IPC: 0.575377 (Simulation time: 1 hr 14 min 41 sec) 
Heartbeat CPU 0 instructions: 200000003 cycles: 280379088 heartbeat IPC: 0.585438 cumulative IPC: 0.575156 (Simulation time: 1 hr 14 min 52 sec) 
Heartbeat CPU 3 instructions: 250000000 cycles: 288866824 heartbeat IPC: 0.731023 cumulative IPC: 0.711861 (Simulation time: 1 hr 16 min 53 sec) 
Heartbeat CPU 1 instructions: 220000000 cycles: 292626358 heartbeat IPC: 0.637219 cumulative IPC: 0.596994 (Simulation time: 1 hr 17 min 54 sec) 
Heartbeat CPU 2 instructions: 210000001 cycles: 296629695 heartbeat IPC: 0.587161 cumulative IPC: 0.576102 (Simulation time: 1 hr 18 min 39 sec) 
Heartbeat CPU 0 instructions: 210000000 cycles: 297735218 heartbeat IPC: 0.576165 cumulative IPC: 0.575219 (Simulation time: 1 hr 18 min 57 sec) 
Finished CPU 3 instructions: 200000002 cycles: 280756648 cumulative IPC: 0.712361 (Simulation time: 1 hr 19 min 41 sec) 
Heartbeat CPU 3 instructions: 260000002 cycles: 302648482 heartbeat IPC: 0.725602 cumulative IPC: 0.71253 (Simulation time: 1 hr 20 min 17 sec) 
Heartbeat CPU 1 instructions: 230000001 cycles: 309398080 heartbeat IPC: 0.596242 cumulative IPC: 0.59695 (Simulation time: 1 hr 22 min 8 sec) 
Heartbeat CPU 2 instructions: 220000000 cycles: 313691255 heartbeat IPC: 0.586113 cumulative IPC: 0.576683 (Simulation time: 1 hr 23 min 2 sec) 
Heartbeat CPU 0 instructions: 220000000 cycles: 314783412 heartbeat IPC: 0.586572 cumulative IPC: 0.575875 (Simulation time: 1 hr 23 min 15 sec) 
Heartbeat CPU 3 instructions: 270000002 cycles: 316471772 heartbeat IPC: 0.723417 cumulative IPC: 0.713037 (Simulation time: 1 hr 23 min 33 sec) 
Heartbeat CPU 1 instructions: 240000003 cycles: 328645521 heartbeat IPC: 0.51955 cumulative IPC: 0.59213 (Simulation time: 1 hr 25 min 42 sec) 
Heartbeat CPU 3 instructions: 280000003 cycles: 330439182 heartbeat IPC: 0.715952 cumulative IPC: 0.713168 (Simulation time: 1 hr 26 min 1 sec) 
Heartbeat CPU 2 instructions: 230000002 cycles: 331132638 heartbeat IPC: 0.573349 cumulative IPC: 0.576496 (Simulation time: 1 hr 26 min 9 sec) 
Heartbeat CPU 0 instructions: 230000000 cycles: 332365390 heartbeat IPC: 0.568764 cumulative IPC: 0.575475 (Simulation time: 1 hr 26 min 23 sec) 
Heartbeat CPU 3 instructions: 290000002 cycles: 344543860 heartbeat IPC: 0.708985 cumulative IPC: 0.712986 (Simulation time: 1 hr 29 min 2 sec) 
Heartbeat CPU 1 instructions: 250000003 cycles: 346266183 heartbeat IPC: 0.567516 cumulative IPC: 0.590802 (Simulation time: 1 hr 29 min 18 sec) 
Heartbeat CPU 2 instructions: 240000003 cycles: 348413559 heartbeat IPC: 0.578673 cumulative IPC: 0.57661 (Simulation time: 1 hr 29 min 40 sec) 
Heartbeat CPU 0 instructions: 240000000 cycles: 349648728 heartbeat IPC: 0.578592 cumulative IPC: 0.575638 (Simulation time: 1 hr 29 min 53 sec) 
Finished CPU 1 instructions: 200000000 cycles: 340057441 cumulative IPC: 0.588136 (Simulation time: 1 hr 31 min 40 sec) 
Heartbeat CPU 3 instructions: 300000002 cycles: 361789702 heartbeat IPC: 0.57985 cumulative IPC: 0.706277 (Simulation time: 1 hr 32 min 6 sec) 
Heartbeat CPU 1 instructions: 260000003 cycles: 365251116 heartbeat IPC: 0.526734 cumulative IPC: 0.587284 (Simulation time: 1 hr 33 min 1 sec) 
Heartbeat CPU 2 instructions: 250000003 cycles: 366647940 heartbeat IPC: 0.548415 cumulative IPC: 0.575129 (Simulation time: 1 hr 33 min 23 sec) 
Finished CPU 2 instructions: 200000000 cycles: 347706300 cumulative IPC: 0.575198 (Simulation time: 1 hr 33 min 33 sec) 
Heartbeat CPU 0 instructions: 250000001 cycles: 367734212 heartbeat IPC: 0.55293 cumulative IPC: 0.574458 (Simulation time: 1 hr 33 min 40 sec) 
Finished CPU 0 instructions: 200000003 cycles: 348154005 cumulative IPC: 0.574458 (Simulation time: 1 hr 33 min 40 sec) 

ChampSim completed all CPUs

Total Simulation Statistics (not including warmup)

CPU 0 cumulative IPC: 0.574458 instructions: 200000003 cycles: 348154005
ITLB TOTAL     ACCESS:   40898700  HIT:   31025411  MISS:    9873289  HIT %:    75.8592  MISS %:    24.1408   MPKI: 49.3664
ITLB LOAD      ACCESS:          0  HIT:          0  MISS:          0  HIT %:       -nan  MISS %:       -nan   MPKI: 0
ITLB RFO       ACCESS:          0  HIT:          0  MISS:          0  HIT %:       -nan  MISS %:       -nan   MPKI: 0
ITLB PREFETCH  ACCESS:          0  HIT:          0  MISS:          0  HIT %:       -nan  MISS %:       -nan   MPKI: 0
ITLB WRITEBACK ACCESS:          0  HIT:          0  MISS:          0  HIT %:       -nan  MISS %:       -nan   MPKI: 0
DTLB TOTAL     ACCESS:   28410489  HIT:   16706440  MISS:   11704049  HIT %:    58.8038  MISS %:    41.1962   MPKI: 58.5202
DTLB LOAD      ACCESS:          0  HIT:          0  MISS:          0  HIT %:       -nan  MISS %:       -nan   MPKI: 0
DTLB RFO       ACCESS:          0  HIT:          0  MISS:          0  HIT %:       -nan  MISS %:       -nan   MPKI: 0
DTLB PREFETCH  ACCESS:          0  HIT:          0  MISS:          0  HIT %:       -nan  MISS %:       -nan   MPKI: 0
DTLB WRITEBACK ACCESS:          0  HIT:          0  MISS:          0  HIT %:       -nan  MISS %:       -nan   MPKI: 0
STLB TOTAL     ACCESS:   29481633  HIT:    9318416  MISS:   20163217  HIT %:    31.6075  MISS %:    68.3925   MPKI: 100.816
STLB LOAD      ACCESS:          0  HIT:          0  MISS:          0  HIT %:       -nan  MISS %:       -nan   MPKI: 0
STLB RFO       ACCESS:          0  HIT:          0  MISS:          0  HIT %:       -nan  MISS %:       -nan   MPKI: 0
STLB PREFETCH  ACCESS:          0  HIT:          0  MISS:          0  HIT %:       -nan  MISS %:       -nan   MPKI: 0
STLB WRITEBACK ACCESS:          0  HIT:          0  MISS:          0  HIT %:       -nan  MISS %:       -nan   MPKI: 0
L1D TOTAL     ACCESS:   53993272  HIT:   52421743  MISS:    1571529  HIT %:    97.0894  MISS %:     2.9106   MPKI: 7.85764
L1D LOAD      ACCESS:   20326572  HIT:   19516295  MISS:     810277  HIT %:    96.0137  MISS %:    3.98629   MPKI: 4.05138
L1D RFO       ACCESS:   12776684  HIT:   12711634  MISS:      65050  HIT %:    99.4909  MISS %:   0.509131   MPKI: 0.32525
L1D PREFETCH  ACCESS:   20890016  HIT:   20193814  MISS:     696202  HIT %:    96.6673  MISS %:     3.3327   MPKI: 3.48101
L1D WRITEBACK ACCESS:          0  HIT:          0  MISS:          0  HIT %:       -nan  MISS %:       -nan   MPKI: 0
L1I TOTAL     ACCESS:   48952068  HIT:   48936278  MISS:      15790  HIT %:    99.9677  MISS %:   0.032256   MPKI: 0.07895
L1I LOAD      ACCESS:   48952068  HIT:   48936278  MISS:      15790  HIT %:    99.9677  MISS %:   0.032256   MPKI: 0.07895
L1I RFO       ACCESS:          0  HIT:          0  MISS:          0  HIT %:       -nan  MISS %:       -nan   MPKI: 0
L1I PREFETCH  ACCESS:          0  HIT:          0  MISS:          0  HIT %:       -nan  MISS %:       -nan   MPKI: 0
L1I WRITEBACK ACCESS:          0  HIT:          0  MISS:          0  HIT %:       -nan  MISS %:       -nan   MPKI: 0
L2C TOTAL     ACCESS:   29133847  HIT:   27730751  MISS:    1403096  HIT %:     95.184  MISS %:    4.81603   MPKI: 7.01548
L2C LOAD      ACCESS:     825697  HIT:     397261  MISS:     428436  HIT %:    48.1122  MISS %:    51.8878   MPKI: 2.14218
L2C RFO       ACCESS:      65047  HIT:      14289  MISS:      50758  HIT %:    21.9672  MISS %:    78.0328   MPKI: 0.25379
L2C PREFETCH  ACCESS:    6643367  HIT:    5784445  MISS:     858922  HIT %:     87.071  MISS %:     12.929   MPKI: 4.29461
L2C WRITEBACK ACCESS:     897785  HIT:     849580  MISS:      48205  HIT %:    94.6307  MISS %:    5.36933   MPKI: 0.241025
PSCL5 TOTAL     ACCESS:   20536434  HIT:   20536434  MISS:          0  HIT %:        100  MISS %:          0   MPKI: 0
PSCL5 LOAD      ACCESS:          0  HIT:          0  MISS:          0  HIT %:       -nan  MISS %:       -nan   MPKI: 0
PSCL5 RFO       ACCESS:          0  HIT:          0  MISS:          0  HIT %:       -nan  MISS %:       -nan   MPKI: 0
PSCL5 PREFETCH  ACCESS:          0  HIT:          0  MISS:          0  HIT %:       -nan  MISS %:       -nan   MPKI: 0
PSCL5 WRITEBACK ACCESS:          0  HIT:          0  MISS:          0  HIT %:       -nan  MISS %:       -nan   MPKI: 0
PSCL4 TOTAL     ACCESS:   20536434  HIT:   20536434  MISS:          0  HIT %:        100  MISS %:          0   MPKI: 0
PSCL4 LOAD      ACCESS:          0  HIT:          0  MISS:          0  HIT %:       -nan  MISS %:       -nan   MPKI: 0
PSCL4 RFO       ACCESS:          0  HIT:          0  MISS:          0  HIT %:       -nan  MISS %:       -nan   MPKI: 0
PSCL4 PREFETCH  ACCESS:          0  HIT:          0  MISS:          0  HIT %:       -nan  MISS %:       -nan   MPKI: 0
PSCL4 WRITEBACK ACCESS:          0  HIT:          0  MISS:          0  HIT %:       -nan  MISS %:       -nan   MPKI: 0
PSCL3 TOTAL     ACCESS:   20536338  HIT:   20536258  MISS:         80  HIT %:    99.9996  MISS %: 0.000389553   MPKI: 0.0004
PSCL3 LOAD      ACCESS:          0  HIT:          0  MISS:          0  HIT %:       -nan  MISS %:       -nan   MPKI: 0
PSCL3 RFO       ACCESS:          0  HIT:          0  MISS:          0  HIT %:       -nan  MISS %:       -nan   MPKI: 0
PSCL3 PREFETCH  ACCESS:          0  HIT:          0  MISS:          0  HIT %:       -nan  MISS %:       -nan   MPKI: 0
PSCL3 WRITEBACK ACCESS:          0  HIT:          0  MISS:          0  HIT %:       -nan  MISS %:       -nan   MPKI: 0
PSCL2 TOTAL     ACCESS:   20535396  HIT:   20370508  MISS:     164888  HIT %:    99.1971  MISS %:   0.802945   MPKI: 0.82444
PSCL2 LOAD      ACCESS:          0  HIT:          0  MISS:          0  HIT %:       -nan  MISS %:       -nan   MPKI: 0
PSCL2 RFO       ACCESS:          0  HIT:          0  MISS:          0  HIT %:       -nan  MISS %:       -nan   MPKI: 0
PSCL2 PREFETCH  ACCESS:          0  HIT:          0  MISS:          0  HIT %:       -nan  MISS %:       -nan   MPKI: 0
PSCL2 WRITEBACK ACCESS:          0  HIT:          0  MISS:          0  HIT %:       -nan  MISS %:       -nan   MPKI: 0
LLC TOTAL     ACCESS:    2004699  HIT:    1362439  MISS:     642260  HIT %:    67.9623  MISS %:    32.0377   MPKI: 3.2113
LLC LOAD      ACCESS:     427127  HIT:     250154  MISS:     176973  HIT %:    58.5667  MISS %:    41.4333   MPKI: 0.884865
LLC RFO       ACCESS:      50699  HIT:      22995  MISS:      27704  HIT %:    45.3559  MISS %:    54.6441   MPKI: 0.13852
LLC PREFETCH  ACCESS:     860286  HIT:     438542  MISS:     421744  HIT %:    50.9763  MISS %:    49.0237   MPKI: 2.10872
LLC WRITEBACK ACCESS:     649812  HIT:     637859  MISS:      11953  HIT %:    98.1605  MISS %:    1.83946   MPKI: 0.059765

RAW hits: 7269477
Loads Generated: 37322136
Loads sent to L1D: 30052658
Stores Generated: 15118719
Stores sent to L1D: 15118719

CPU 1 cumulative IPC: 0.58611 instructions: 204056678 cycles: 348154006
ITLB TOTAL     ACCESS:   36975392  HIT:   28187559  MISS:    8787833  HIT %:    76.2333  MISS %:    23.7667   MPKI: 43.0656
ITLB LOAD      ACCESS:          0  HIT:          0  MISS:          0  HIT %:       -nan  MISS %:       -nan   MPKI: 0
ITLB RFO       ACCESS:          0  HIT:          0  MISS:          0  HIT %:       -nan  MISS %:       -nan   MPKI: 0
ITLB PREFETCH  ACCESS:          0  HIT:          0  MISS:          0  HIT %:       -nan  MISS %:       -nan   MPKI: 0
ITLB WRITEBACK ACCESS:          0  HIT:          0  MISS:          0  HIT %:       -nan  MISS %:       -nan   MPKI: 0
DTLB TOTAL     ACCESS:   25882560  HIT:   14531381  MISS:   11351179  HIT %:    56.1435  MISS %:    43.8565   MPKI: 55.6276
DTLB LOAD      ACCESS:          0  HIT:          0  MISS:          0  HIT %:       -nan  MISS %:       -nan   MPKI: 0
DTLB RFO       ACCESS:          0  HIT:          0  MISS:          0  HIT %:       -nan  MISS %:       -nan   MPKI: 0
DTLB PREFETCH  ACCESS:          0  HIT:          0  MISS:          0  HIT %:       -nan  MISS %:       -nan   MPKI: 0
DTLB WRITEBACK ACCESS:          0  HIT:          0  MISS:          0  HIT %:       -nan  MISS %:       -nan   MPKI: 0
STLB TOTAL     ACCESS:   24731679  HIT:    9326377  MISS:   15405302  HIT %:    37.7102  MISS %:    62.2898   MPKI: 75.4952
STLB LOAD      ACCESS:          0  HIT:          0  MISS:          0  HIT %:       -nan  MISS %:       -nan   MPKI: 0
STLB RFO       ACCESS:          0  HIT:          0  MISS:          0  HIT %:       -nan  MISS %:       -nan   MPKI: 0
STLB PREFETCH  ACCESS:          0  HIT:          0  MISS:          0  HIT %:       -nan  MISS %:       -nan   MPKI: 0
STLB WRITEBACK ACCESS:          0  HIT:          0  MISS:          0  HIT %:       -nan  MISS %:       -nan   MPKI: 0
L1D TOTAL     ACCESS:   42609247  HIT:   41236612  MISS:    1372635  HIT %:    96.7786  MISS %:    3.22145   MPKI: 6.72673
L1D LOAD      ACCESS:   19519176  HIT:   18538177  MISS:     980999  HIT %:    94.9742  MISS %:    5.02582   MPKI: 4.80748
L1D RFO       ACCESS:   13229709  HIT:   12976704  MISS:     253005  HIT %:    98.0876  MISS %:     1.9124   MPKI: 1.23988
L1D PREFETCH  ACCESS:    9860362  HIT:    9721731  MISS:     138631  HIT %:    98.5941  MISS %:    1.40594   MPKI: 0.679375
L1D WRITEBACK ACCESS:          0  HIT:          0  MISS:          0  HIT %:       -nan  MISS %:       -nan   MPKI: 0
L1I TOTAL     ACCESS:   46063938  HIT:   45860889  MISS:     203049  HIT %:    99.5592  MISS %:   0.440798   MPKI: 0.995062
L1I LOAD      ACCESS:   46063938  HIT:   45860889  MISS:     203049  HIT %:    99.5592  MISS %:   0.440798   MPKI: 0.995062
L1I RFO       ACCESS:          0  HIT:          0  MISS:          0  HIT %:       -nan  MISS %:       -nan   MPKI: 0
L1I PREFETCH  ACCESS:          0  HIT:          0  MISS:          0  HIT %:       -nan  MISS %:       -nan   MPKI: 0
L1I WRITEBACK ACCESS:          0  HIT:          0  MISS:          0  HIT %:       -nan  MISS %:       -nan   MPKI: 0
L2C TOTAL     ACCESS:   23513464  HIT:   21992401  MISS:    1521063  HIT %:    93.5311  MISS %:     6.4689   MPKI: 7.45412
L2C LOAD      ACCESS:    1177237  HIT:     556766  MISS:     620471  HIT %:    47.2943  MISS %:    52.7057   MPKI: 3.04068
L2C RFO       ACCESS:     253002  HIT:     101000  MISS:     152002  HIT %:    39.9206  MISS %:    60.0794   MPKI: 0.744901
L2C PREFETCH  ACCESS:    5576181  HIT:    4939348  MISS:     636833  HIT %:    88.5794  MISS %:    11.4206   MPKI: 3.12086
L2C WRITEBACK ACCESS:     804036  HIT:     737091  MISS:      66945  HIT %:    91.6739  MISS %:    8.32612   MPKI: 0.328071
PSCL5 TOTAL     ACCESS:   15563520  HIT:   15563520  MISS:          0  HIT %:        100  MISS %:          0   MPKI: 0
PSCL5 LOAD      ACCESS:          0  HIT:          0  MISS:          0  HIT %:       -nan  MISS %:       -nan   MPKI: 0
PSCL5 RFO       ACCESS:          0  HIT:          0  MISS:          0  HIT %:       -nan  MISS %:       -nan   MPKI: 0
PSCL5 PREFETCH  ACCESS:          0  HIT:          0  MISS:          0  HIT %:       -nan  MISS %:       -nan   MPKI: 0
PSCL5 WRITEBACK ACCESS:          0  HIT:          0  MISS:          0  HIT %:       -nan  MISS %:       -nan   MPKI: 0
PSCL4 TOTAL     ACCESS:   15563520  HIT:   15563520  MISS:          0  HIT %:        100  MISS %:          0   MPKI: 0
PSCL4 LOAD      ACCESS:          0  HIT:          0  MISS:          0  HIT %:       -nan  MISS %:       -nan   MPKI: 0
PSCL4 RFO       ACCESS:          0  HIT:          0  MISS:          0  HIT %:       -nan  MISS %:       -nan   MPKI: 0
PSCL4 PREFETCH  ACCESS:          0  HIT:          0  MISS:          0  HIT %:       -nan  MISS %:       -nan   MPKI: 0
PSCL4 WRITEBACK ACCESS:          0  HIT:          0  MISS:          0  HIT %:       -nan  MISS %:       -nan   MPKI: 0
PSCL3 TOTAL     ACCESS:   15563100  HIT:   15563035  MISS:         65  HIT %:    99.9996  MISS %: 0.000417655   MPKI: 0.000318539
PSCL3 LOAD      ACCESS:          0  HIT:          0  MISS:          0  HIT %:       -nan  MISS %:       -nan   MPKI: 0
PSCL3 RFO       ACCESS:          0  HIT:          0  MISS:          0  HIT %:       -nan  MISS %:       -nan   MPKI: 0
PSCL3 PREFETCH  ACCESS:          0  HIT:          0  MISS:          0  HIT %:       -nan  MISS %:       -nan   MPKI: 0
PSCL3 WRITEBACK ACCESS:          0  HIT:          0  MISS:          0  HIT %:       -nan  MISS %:       -nan   MPKI: 0
PSCL2 TOTAL     ACCESS:   15562989  HIT:   15424060  MISS:     138929  HIT %:    99.1073  MISS %:   0.892688   MPKI: 0.680835
PSCL2 LOAD      ACCESS:          0  HIT:          0  MISS:          0  HIT %:       -nan  MISS %:       -nan   MPKI: 0
PSCL2 RFO       ACCESS:          0  HIT:          0  MISS:          0  HIT %:       -nan  MISS %:       -nan   MPKI: 0
PSCL2 PREFETCH  ACCESS:          0  HIT:          0  MISS:          0  HIT %:       -nan  MISS %:       -nan   MPKI: 0
PSCL2 WRITEBACK ACCESS:          0  HIT:          0  MISS:          0  HIT %:       -nan  MISS %:       -nan   MPKI: 0
LLC TOTAL     ACCESS:    2143065  HIT:    1056902  MISS:    1086163  HIT %:    49.3173  MISS %:    50.6827   MPKI: 5.32285
LLC LOAD      ACCESS:     612970  HIT:     174681  MISS:     438289  HIT %:    28.4975  MISS %:    71.5025   MPKI: 2.14788
LLC RFO       ACCESS:     148925  HIT:      21726  MISS:     127199  HIT %:    14.5886  MISS %:    85.4114   MPKI: 0.623351
LLC PREFETCH  ACCESS:     647409  HIT:     158569  MISS:     488840  HIT %:    24.4929  MISS %:    75.5071   MPKI: 2.39561
LLC WRITEBACK ACCESS:     688949  HIT:     667525  MISS:      21424  HIT %:    96.8903  MISS %:    3.10966   MPKI: 0.10499

RAW hits: 4787579
Loads Generated: 34475315
Loads sent to L1D: 29687736
Stores Generated: 14386233
Stores sent to L1D: 14386234

CPU 2 cumulative IPC: 0.575248 instructions: 200274854 cycles: 348154006
ITLB TOTAL     ACCESS:   40888603  HIT:   31007973  MISS:    9880630  HIT %:    75.8352  MISS %:    24.1648   MPKI: 49.3353
ITLB LOAD      ACCESS:          0  HIT:          0  MISS:          0  HIT %:       -nan  MISS %:       -nan   MPKI: 0
ITLB RFO       ACCESS:          0  HIT:          0  MISS:          0  HIT %:       -nan  MISS %:       -nan   MPKI: 0
ITLB PREFETCH  ACCESS:          0  HIT:          0  MISS:          0  HIT %:       -nan  MISS %:       -nan   MPKI: 0
ITLB WRITEBACK ACCESS:          0  HIT:          0  MISS:          0  HIT %:       -nan  MISS %:       -nan   MPKI: 0
DTLB TOTAL     ACCESS:   28763778  HIT:   17353454  MISS:   11410324  HIT %:    60.3309  MISS %:    39.6691   MPKI: 56.9733
DTLB LOAD      ACCESS:          0  HIT:          0  MISS:          0  HIT %:       -nan  MISS %:       -nan   MPKI: 0
DTLB RFO       ACCESS:          0  HIT:          0  MISS:          0  HIT %:       -nan  MISS %:       -nan   MPKI: 0
DTLB PREFETCH  ACCESS:          0  HIT:          0  MISS:          0  HIT %:       -nan  MISS %:       -nan   MPKI: 0
DTLB WRITEBACK ACCESS:          0  HIT:          0  MISS:          0  HIT %:       -nan  MISS %:       -nan   MPKI: 0
STLB TOTAL     ACCESS:   28967238  HIT:    9460262  MISS:   19506976  HIT %:    32.6585  MISS %:    67.3415   MPKI: 97.401
STLB LOAD      ACCESS:          0  HIT:          0  MISS:          0  HIT %:       -nan  MISS %:       -nan   MPKI: 0
STLB RFO       ACCESS:          0  HIT:          0  MISS:          0  HIT %:       -nan  MISS %:       -nan   MPKI: 0
STLB PREFETCH  ACCESS:          0  HIT:          0  MISS:          0  HIT %:       -nan  MISS %:       -nan   MPKI: 0
STLB WRITEBACK ACCESS:          0  HIT:          0  MISS:          0  HIT %:       -nan  MISS %:       -nan   MPKI: 0
L1D TOTAL     ACCESS:   53232650  HIT:   51627729  MISS:    1604921  HIT %:    96.9851  MISS %:    3.01492   MPKI: 8.01359
L1D LOAD      ACCESS:   20387673  HIT:   19517333  MISS:     870340  HIT %:     95.731  MISS %:    4.26895   MPKI: 4.34573
L1D RFO       ACCESS:   12936546  HIT:   12866502  MISS:      70044  HIT %:    99.4586  MISS %:   0.541443   MPKI: 0.349739
L1D PREFETCH  ACCESS:   19908431  HIT:   19243894  MISS:     664537  HIT %:     96.662  MISS %:    3.33797   MPKI: 3.31813
L1D WRITEBACK ACCESS:          0  HIT:          0  MISS:          0  HIT %:       -nan  MISS %:       -nan   MPKI: 0
L1I TOTAL     ACCESS:   48931777  HIT:   48915093  MISS:      16684  HIT %:    99.9659  MISS %:  0.0340965   MPKI: 0.0833055
L1I LOAD      ACCESS:   48931777  HIT:   48915093  MISS:      16684  HIT %:    99.9659  MISS %:  0.0340965   MPKI: 0.0833055
L1I RFO       ACCESS:          0  HIT:          0  MISS:          0  HIT %:       -nan  MISS %:       -nan   MPKI: 0
L1I PREFETCH  ACCESS:          0  HIT:          0  MISS:          0  HIT %:       -nan  MISS %:       -nan   MPKI: 0
L1I WRITEBACK ACCESS:          0  HIT:          0  MISS:          0  HIT %:       -nan  MISS %:       -nan   MPKI: 0
L2C TOTAL     ACCESS:   29315081  HIT:   27899232  MISS:    1415849  HIT %:    95.1702  MISS %:    4.82976   MPKI: 7.06953
L2C LOAD      ACCESS:     886578  HIT:     425792  MISS:     460786  HIT %:    48.0265  MISS %:    51.9735   MPKI: 2.30077
L2C RFO       ACCESS:      70040  HIT:      15428  MISS:      54612  HIT %:    22.0274  MISS %:    77.9726   MPKI: 0.272685
L2C PREFETCH  ACCESS:    7347397  HIT:    6509602  MISS:     837795  HIT %:    88.5974  MISS %:    11.4026   MPKI: 4.18323
L2C WRITEBACK ACCESS:     912291  HIT:     867482  MISS:      44809  HIT %:    95.0883  MISS %:     4.9117   MPKI: 0.223738
PSCL5 TOTAL     ACCESS:   19975564  HIT:   19975564  MISS:          0  HIT %:        100  MISS %:          0   MPKI: 0
PSCL5 LOAD      ACCESS:          0  HIT:          0  MISS:          0  HIT %:       -nan  MISS %:       -nan   MPKI: 0
PSCL5 RFO       ACCESS:          0  HIT:          0  MISS:          0  HIT %:       -nan  MISS %:       -nan   MPKI: 0
PSCL5 PREFETCH  ACCESS:          0  HIT:          0  MISS:          0  HIT %:       -nan  MISS %:       -nan   MPKI: 0
PSCL5 WRITEBACK ACCESS:          0  HIT:          0  MISS:          0  HIT %:       -nan  MISS %:       -nan   MPKI: 0
PSCL4 TOTAL     ACCESS:   19975564  HIT:   19975564  MISS:          0  HIT %:        100  MISS %:          0   MPKI: 0
PSCL4 LOAD      ACCESS:          0  HIT:          0  MISS:          0  HIT %:       -nan  MISS %:       -nan   MPKI: 0
PSCL4 RFO       ACCESS:          0  HIT:          0  MISS:          0  HIT %:       -nan  MISS %:       -nan   MPKI: 0
PSCL4 PREFETCH  ACCESS:          0  HIT:          0  MISS:          0  HIT %:       -nan  MISS %:       -nan   MPKI: 0
PSCL4 WRITEBACK ACCESS:          0  HIT:          0  MISS:          0  HIT %:       -nan  MISS %:       -nan   MPKI: 0
PSCL3 TOTAL     ACCESS:   19975427  HIT:   19975377  MISS:         50  HIT %:    99.9997  MISS %: 0.000250308   MPKI: 0.000249657
PSCL3 LOAD      ACCESS:          0  HIT:          0  MISS:          0  HIT %:       -nan  MISS %:       -nan   MPKI: 0
PSCL3 RFO       ACCESS:          0  HIT:          0  MISS:          0  HIT %:       -nan  MISS %:       -nan   MPKI: 0
PSCL3 PREFETCH  ACCESS:          0  HIT:          0  MISS:          0  HIT %:       -nan  MISS %:       -nan   MPKI: 0
PSCL3 WRITEBACK ACCESS:          0  HIT:          0  MISS:          0  HIT %:       -nan  MISS %:       -nan   MPKI: 0
PSCL2 TOTAL     ACCESS:   19975257  HIT:   19852398  MISS:     122859  HIT %:    99.3849  MISS %:   0.615056   MPKI: 0.613452
PSCL2 LOAD      ACCESS:          0  HIT:          0  MISS:          0  HIT %:       -nan  MISS %:       -nan   MPKI: 0
PSCL2 RFO       ACCESS:          0  HIT:          0  MISS:          0  HIT %:       -nan  MISS %:       -nan   MPKI: 0
PSCL2 PREFETCH  ACCESS:          0  HIT:          0  MISS:          0  HIT %:       -nan  MISS %:       -nan   MPKI: 0
PSCL2 WRITEBACK ACCESS:          0  HIT:          0  MISS:          0  HIT %:       -nan  MISS %:       -nan   MPKI: 0
LLC TOTAL     ACCESS:    2038674  HIT:    1402650  MISS:     636024  HIT %:    68.8021  MISS %:    31.1979   MPKI: 3.17576
LLC LOAD      ACCESS:     459468  HIT:     286260  MISS:     173208  HIT %:    62.3025  MISS %:    37.6975   MPKI: 0.864851
LLC RFO       ACCESS:      54530  HIT:      25685  MISS:      28845  HIT %:    47.1025  MISS %:    52.8975   MPKI: 0.144027
LLC PREFETCH  ACCESS:     839185  HIT:     420409  MISS:     418776  HIT %:    50.0973  MISS %:    49.9027   MPKI: 2.09101
LLC WRITEBACK ACCESS:     667644  HIT:     655837  MISS:      11807  HIT %:    98.2315  MISS %:    1.76846   MPKI: 0.058954

RAW hits: 7204918
Loads Generated: 37405774
Loads sent to L1D: 30200856
Stores Generated: 15109138
Stores sent to L1D: 15109139

CPU 3 cumulative IPC: 0.706884 instructions: 246104487 cycles: 348154006
ITLB TOTAL     ACCESS:   46460646  HIT:   35664253  MISS:   10796393  HIT %:    76.7623  MISS %:    23.2377   MPKI: 43.8691
ITLB LOAD      ACCESS:          0  HIT:          0  MISS:          0  HIT %:       -nan  MISS %:       -nan   MPKI: 0
ITLB RFO       ACCESS:          0  HIT:          0  MISS:          0  HIT %:       -nan  MISS %:       -nan   MPKI: 0
ITLB PREFETCH  ACCESS:          0  HIT:          0  MISS:          0  HIT %:       -nan  MISS %:       -nan   MPKI: 0
ITLB WRITEBACK ACCESS:          0  HIT:          0  MISS:          0  HIT %:       -nan  MISS %:       -nan   MPKI: 0
DTLB TOTAL     ACCESS:   30283797  HIT:   17775143  MISS:   12508654  HIT %:    58.6952  MISS %:    41.3048   MPKI: 50.8266
DTLB LOAD      ACCESS:          0  HIT:          0  MISS:          0  HIT %:       -nan  MISS %:       -nan   MPKI: 0
DTLB RFO       ACCESS:          0  HIT:          0  MISS:          0  HIT %:       -nan  MISS %:       -nan   MPKI: 0
DTLB PREFETCH  ACCESS:          0  HIT:          0  MISS:          0  HIT %:       -nan  MISS %:       -nan   MPKI: 0
DTLB WRITEBACK ACCESS:          0  HIT:          0  MISS:          0  HIT %:       -nan  MISS %:       -nan   MPKI: 0
STLB TOTAL     ACCESS:   28359845  HIT:    9130805  MISS:   19229040  HIT %:    32.1962  MISS %:    67.8038   MPKI: 78.1336
STLB LOAD      ACCESS:          0  HIT:          0  MISS:          0  HIT %:       -nan  MISS %:       -nan   MPKI: 0
STLB RFO       ACCESS:          0  HIT:          0  MISS:          0  HIT %:       -nan  MISS %:       -nan   MPKI: 0
STLB PREFETCH  ACCESS:          0  HIT:          0  MISS:          0  HIT %:       -nan  MISS %:       -nan   MPKI: 0
STLB WRITEBACK ACCESS:          0  HIT:          0  MISS:          0  HIT %:       -nan  MISS %:       -nan   MPKI: 0
L1D TOTAL     ACCESS:   46074871  HIT:   45459038  MISS:     615833  HIT %:    98.6634  MISS %:    1.33659   MPKI: 2.50232
L1D LOAD      ACCESS:   22305256  HIT:   21923656  MISS:     381600  HIT %:    98.2892  MISS %:    1.71081   MPKI: 1.55056
L1D RFO       ACCESS:   14451297  HIT:   14445374  MISS:       5923  HIT %:     99.959  MISS %:  0.0409859   MPKI: 0.024067
L1D PREFETCH  ACCESS:    9318318  HIT:    9090008  MISS:     228310  HIT %:    97.5499  MISS %:    2.45012   MPKI: 0.927695
L1D WRITEBACK ACCESS:          0  HIT:          0  MISS:          0  HIT %:       -nan  MISS %:       -nan   MPKI: 0
L1I TOTAL     ACCESS:   56352588  HIT:   56346919  MISS:       5669  HIT %:    99.9899  MISS %:  0.0100599   MPKI: 0.0230349
L1I LOAD      ACCESS:   56352588  HIT:   56346919  MISS:       5669  HIT %:    99.9899  MISS %:  0.0100599   MPKI: 0.0230349
L1I RFO       ACCESS:          0  HIT:          0  MISS:          0  HIT %:       -nan  MISS %:       -nan   MPKI: 0
L1I PREFETCH  ACCESS:          0  HIT:          0  MISS:          0  HIT %:       -nan  MISS %:       -nan   MPKI: 0
L1I WRITEBACK ACCESS:          0  HIT:          0  MISS:          0  HIT %:       -nan  MISS %:       -nan   MPKI: 0
L2C TOTAL     ACCESS:   26243975  HIT:   25554888  MISS:     689087  HIT %:    97.3743  MISS %:     2.6257   MPKI: 2.79998
L2C LOAD      ACCESS:     387130  HIT:     151398  MISS:     235732  HIT %:    39.1078  MISS %:    60.8922   MPKI: 0.957853
L2C RFO       ACCESS:       5923  HIT:       2958  MISS:       2965  HIT %:    49.9409  MISS %:    50.0591   MPKI: 0.0120477
L2C PREFETCH  ACCESS:    6100108  HIT:    5693300  MISS:     406808  HIT %:    93.3311  MISS %:    6.66887   MPKI: 1.65299
L2C WRITEBACK ACCESS:     308705  HIT:     283942  MISS:      24763  HIT %:    91.9784  MISS %:    8.02157   MPKI: 0.10062
PSCL5 TOTAL     ACCESS:   19395465  HIT:   19395465  MISS:          0  HIT %:        100  MISS %:          0   MPKI: 0
PSCL5 LOAD      ACCESS:          0  HIT:          0  MISS:          0  HIT %:       -nan  MISS %:       -nan   MPKI: 0
PSCL5 RFO       ACCESS:          0  HIT:          0  MISS:          0  HIT %:       -nan  MISS %:       -nan   MPKI: 0
PSCL5 PREFETCH  ACCESS:          0  HIT:          0  MISS:          0  HIT %:       -nan  MISS %:       -nan   MPKI: 0
PSCL5 WRITEBACK ACCESS:          0  HIT:          0  MISS:          0  HIT %:       -nan  MISS %:       -nan   MPKI: 0
PSCL4 TOTAL     ACCESS:   19395465  HIT:   19395465  MISS:          0  HIT %:        100  MISS %:          0   MPKI: 0
PSCL4 LOAD      ACCESS:          0  HIT:          0  MISS:          0  HIT %:       -nan  MISS %:       -nan   MPKI: 0
PSCL4 RFO       ACCESS:          0  HIT:          0  MISS:          0  HIT %:       -nan  MISS %:       -nan   MPKI: 0
PSCL4 PREFETCH  ACCESS:          0  HIT:          0  MISS:          0  HIT %:       -nan  MISS %:       -nan   MPKI: 0
PSCL4 WRITEBACK ACCESS:          0  HIT:          0  MISS:          0  HIT %:       -nan  MISS %:       -nan   MPKI: 0
PSCL3 TOTAL     ACCESS:   19395254  HIT:   19395169  MISS:         85  HIT %:    99.9996  MISS %: 0.000438252   MPKI: 0.000345382
PSCL3 LOAD      ACCESS:          0  HIT:          0  MISS:          0  HIT %:       -nan  MISS %:       -nan   MPKI: 0
PSCL3 RFO       ACCESS:          0  HIT:          0  MISS:          0  HIT %:       -nan  MISS %:       -nan   MPKI: 0
PSCL3 PREFETCH  ACCESS:          0  HIT:          0  MISS:          0  HIT %:       -nan  MISS %:       -nan   MPKI: 0
PSCL3 WRITEBACK ACCESS:          0  HIT:          0  MISS:          0  HIT %:       -nan  MISS %:       -nan   MPKI: 0
PSCL2 TOTAL     ACCESS:   19395400  HIT:   19348896  MISS:      46504  HIT %:    99.7602  MISS %:   0.239768   MPKI: 0.18896
PSCL2 LOAD      ACCESS:          0  HIT:          0  MISS:          0  HIT %:       -nan  MISS %:       -nan   MPKI: 0
PSCL2 RFO       ACCESS:          0  HIT:          0  MISS:          0  HIT %:       -nan  MISS %:       -nan   MPKI: 0
PSCL2 PREFETCH  ACCESS:          0  HIT:          0  MISS:          0  HIT %:       -nan  MISS %:       -nan   MPKI: 0
PSCL2 WRITEBACK ACCESS:          0  HIT:          0  MISS:          0  HIT %:       -nan  MISS %:       -nan   MPKI: 0
LLC TOTAL     ACCESS:     951592  HIT:     435722  MISS:     515870  HIT %:    45.7887  MISS %:    54.2113   MPKI: 2.09614
LLC LOAD      ACCESS:     234649  HIT:      71134  MISS:     163515  HIT %:    30.3151  MISS %:    69.6849   MPKI: 0.664413
LLC RFO       ACCESS:       2937  HIT:       1608  MISS:       1329  HIT %:    54.7497  MISS %:    45.2503   MPKI: 0.00540015
LLC PREFETCH  ACCESS:     407917  HIT:      94852  MISS:     313065  HIT %:    23.2528  MISS %:    76.7472   MPKI: 1.27208
LLC WRITEBACK ACCESS:     287270  HIT:     253606  MISS:      33664  HIT %:    88.2814  MISS %:    11.7186   MPKI: 0.136787

RAW hits: 8366465
Loads Generated: 42279466
Loads sent to L1D: 33913001
Stores Generated: 15762906
Stores sent to L1D: 15762906

Region of Interest Statistics

CPU 0 cumulative IPC: 0.574458 instructions: 200000003 cycles: 348154005
ITLB TOTAL     ACCESS:   40898700  HIT:   31025411  MISS:    9873289  HIT %:    75.8592  MISS %:    24.1408   MPKI: 49.3664
ITLB LOAD TRANSLATION ACCESS:   40898700  HIT:   31025411  MISS:    9873289  HIT %:    75.8592  MISS %:    24.1408   MPKI: 49.3664
ITLB PREFETCH  REQUESTED:          0  ISSUED:          0  USEFUL:          0  USELESS:          0
ITLB USEFUL LOAD PREFETCHES:          0 PREFETCH ISSUED TO LOWER LEVEL:          0  ACCURACY: -nan
ITLB TIMELY PREFETCHES:          0 LATE PREFETCHES: 0 DROPPED PREFETCHES: 0
ITLB PREFETCHES SAME FILL-ORIGIN LEVEL: 0 DIFFERENT FILL-ORIGIN LEVEL: 0
ITLB AVERAGE MISS LATENCY: 37.7268 cycles
ITLB RQ	ACCESS:   48956779	FORWARD:          0	MERGED:    4363474	TO_CACHE:   44593305

DTLB TOTAL     ACCESS:   28410489  HIT:   16706440  MISS:   11704049  HIT %:    58.8038  MISS %:    41.1962   MPKI: 58.5202
DTLB LOAD TRANSLATION ACCESS:   28410489  HIT:   16706440  MISS:   11704049  HIT %:    58.8038  MISS %:    41.1962   MPKI: 58.5202
DTLB PREFETCH  REQUESTED:          0  ISSUED:          0  USEFUL:          0  USELESS:          0
DTLB USEFUL LOAD PREFETCHES:          0 PREFETCH ISSUED TO LOWER LEVEL:          0  ACCURACY: -nan
DTLB TIMELY PREFETCHES:          0 LATE PREFETCHES: 0 DROPPED PREFETCHES: 0
DTLB PREFETCHES SAME FILL-ORIGIN LEVEL: 0 DIFFERENT FILL-ORIGIN LEVEL: 0
DTLB AVERAGE MISS LATENCY: 37.0371 cycles
DTLB RQ	ACCESS:   33453590	FORWARD:          0	MERGED:    3654932	TO_CACHE:   29798658

STLB TOTAL     ACCESS:   29481633  HIT:    9318416  MISS:   20163217  HIT %:    31.6075  MISS %:    68.3925   MPKI: 100.816
STLB LOAD TRANSLATION ACCESS:   21577338  HIT:    4516225  MISS:   17061113  HIT %:    20.9304  MISS %:    79.0696   MPKI: 85.3056
STLB TRANSLATION FROM L1D PREFETCHER ACCESS:    7904295  HIT:    4802191  MISS:    3102104  HIT %:    60.7542  MISS %:    39.2458   MPKI: 15.5105
STLB PREFETCH  REQUESTED:          0  ISSUED:          0  USEFUL:    1031039  USELESS:    2071066
STLB USEFUL LOAD PREFETCHES:    1031039 PREFETCH ISSUED TO LOWER LEVEL:          0  ACCURACY: inf
STLB TIMELY PREFETCHES:    1031039 LATE PREFETCHES: 0 DROPPED PREFETCHES: 373216
STLB PREFETCHES SAME FILL-ORIGIN LEVEL: 0 DIFFERENT FILL-ORIGIN LEVEL: 0
STLB AVERAGE MISS LATENCY: 37.3891 cycles
STLB RQ	ACCESS:   49046153	FORWARD:          0	MERGED:   19053102	TO_CACHE:   29993051

STLB Hit, L1D data hit: 0
STLB Hit, L2C data hit: 0
STLB Hit, LLC data hit: 0
STLB Hit, LLC data miss: 0
STLB STLB hints to L2: 0
L1D TOTAL     ACCESS:   53993272  HIT:   52421743  MISS:    1571529  HIT %:    97.0894  MISS %:     2.9106   MPKI: 7.85764
L1D LOAD      ACCESS:   20326572  HIT:   19516295  MISS:     810277  HIT %:    96.0137  MISS %:    3.98629   MPKI: 4.05138
L1D RFO       ACCESS:   12776684  HIT:   12711634  MISS:      65050  HIT %:    99.4909  MISS %:   0.509131   MPKI: 0.32525
L1D PREFETCH  ACCESS:   20890016  HIT:   20193814  MISS:     696202  HIT %:    96.6673  MISS %:     3.3327   MPKI: 3.48101
L1D PREFETCH  REQUESTED:   66123149  ISSUED:   64280283  USEFUL:     634354  USELESS:      61860
L1D USEFUL LOAD PREFETCHES:     634354 PREFETCH ISSUED TO LOWER LEVEL:    6777651  ACCURACY: 9.3595
L1D TIMELY PREFETCHES:     634354 LATE PREFETCHES: 367 DROPPED PREFETCHES: 469404
L1D PREFETCHES SAME FILL-ORIGIN LEVEL: 696569 DIFFERENT FILL-ORIGIN LEVEL: 6081082
L1D AVERAGE MISS LATENCY: 55.3163 cycles
L1D RQ	ACCESS:   30052658	FORWARD:          0	MERGED:    9115339	TO_CACHE:   20371893
L1D WQ	ACCESS:   15118719	FORWARD:     568160	MERGED:    2037022	TO_CACHE:   13081697
L1D PQ	ACCESS:   36811470	FORWARD:          0	MERGED:    9339923	TO_CACHE:   27468813

L1D UNIQUE REGIONS ACCESSED: 0
L1D REGIONS CONFLICTS: 0
L1D Cross Page Prefetch Requests: 13536463
L1D Same Page Prefetch Requests: 36325339
L1D ROI Sum of L1D PQ occupancy: 876231656
L1D PREFETCHES PUSHED FROM L2C: 0
L1I TOTAL     ACCESS:   48952068  HIT:   48936278  MISS:      15790  HIT %:    99.9677  MISS %:   0.032256   MPKI: 0.07895
L1I LOAD      ACCESS:   48952068  HIT:   48936278  MISS:      15790  HIT %:    99.9677  MISS %:   0.032256   MPKI: 0.07895
L1I PREFETCH  REQUESTED:          0  ISSUED:          0  USEFUL:          0  USELESS:          0
L1I USEFUL LOAD PREFETCHES:          0 PREFETCH ISSUED TO LOWER LEVEL:          0  ACCURACY: -nan
L1I TIMELY PREFETCHES:          0 LATE PREFETCHES: 0 DROPPED PREFETCHES: 0
L1I PREFETCHES SAME FILL-ORIGIN LEVEL: 0 DIFFERENT FILL-ORIGIN LEVEL: 0
L1I AVERAGE MISS LATENCY: 121.762 cycles
L1I RQ	ACCESS:   95423785	FORWARD:          0	MERGED:   46467006	TO_CACHE:   48956779

BTB BRANCH_DIRECT_JUMP	ACCESS:          0  HIT:          0  MISS:          0
BTB BRANCH_INDIRECT	ACCESS:          0  HIT:          0  MISS:          0
BTB BRANCH_CONDITIONAL	ACCESS:          0  HIT:          0  MISS:          0
BTB BRANCH_DIRECT_CALL	ACCESS:          0  HIT:          0  MISS:          0
BTB BRANCH_INDIRECT_CALL	ACCESS:          0  HIT:          0  MISS:          0
BTB BRANCH_RETURN	ACCESS:          0  HIT:          0  MISS:          0
BTB BRANCH_OTHER ACCESS:          0  HIT:          0  MISS:          0

L2C TOTAL     ACCESS:   29133847  HIT:   27730751  MISS:    1403096  HIT %:     95.184  MISS %:    4.81603   MPKI: 7.01548
L2C LOAD      ACCESS:     825697  HIT:     397261  MISS:     428436  HIT %:    48.1122  MISS %:    51.8878   MPKI: 2.14218
L2C DATA LOAD MPKI: 2.10329
L2C INSTRUCTION LOAD MPKI: 0.03889
L2C RFO       ACCESS:      65047  HIT:      14289  MISS:      50758  HIT %:    21.9672  MISS %:    78.0328   MPKI: 0.25379
L2C PREFETCH  ACCESS:    6643367  HIT:    5784445  MISS:     858922  HIT %:     87.071  MISS %:     12.929   MPKI: 4.29461
L2C DATA PREFETCH MPKI: 4.29461
L2C INSTRUCTION PREFETCH MPKI: 0
L2C WRITEBACK ACCESS:     897785  HIT:     849580  MISS:      48205  HIT %:    94.6307  MISS %:    5.36933   MPKI: 0.241025
L2C LOAD TRANSLATION ACCESS:   17223136  HIT:   17208446  MISS:      14690  HIT %:    99.9147  MISS %:  0.0852922   MPKI: 0.07345
L2C TRANSLATION FROM L1D PREFETCHER ACCESS:    3478815  HIT:    3476730  MISS:       2085  HIT %:    99.9401  MISS %:  0.0599342   MPKI: 0.010425
L2C PREFETCH  REQUESTED:          0  ISSUED:          0  USEFUL:     171888  USELESS:     689383
L2C USEFUL LOAD PREFETCHES:     171888 PREFETCH ISSUED TO LOWER LEVEL:     860288  ACCURACY: 19.9803
L2C TIMELY PREFETCHES:     171888 LATE PREFETCHES: 1366 DROPPED PREFETCHES: 0
L2C PREFETCHES SAME FILL-ORIGIN LEVEL: 743878 DIFFERENT FILL-ORIGIN LEVEL: 0
L2C AVERAGE MISS LATENCY: 120.949 cycles
L2C RQ	ACCESS:   21592702	FORWARD:          0	MERGED:          0	TO_CACHE:   21592696
L2C WQ	ACCESS:     897785	FORWARD:         63	MERGED:          0	TO_CACHE:     897785
L2C PQ	ACCESS:    6777650	FORWARD:          0	MERGED:       1253	TO_CACHE:    6776340

L2C Instructions Evicting Data 7471
L2C Translations Evicting Data 16461
L2C Data Evicting Data 1307224
L2C Instructions Evicting Instructions 216
L2C Translations Evicting Instructions 128
L2C Data Evicting Instructions 7185
L2C Instructions Evicting Translations 91
L2C Translations Evicting Translations 186
L2C Data Evicting Translations 15919
L2C Dense regions hint from L2: 0
PSCL5 TOTAL     ACCESS:   20536434  HIT:   20536434  MISS:          0  HIT %:        100  MISS %:          0   MPKI: 0
PSCL5 LOAD TRANSLATION ACCESS:   17061114  HIT:   17061114  MISS:          0  HIT %:        100  MISS %:          0   MPKI: 0
PSCL5 TRANSLATION FROM L1D PREFETCHER ACCESS:    3475320  HIT:    3475320  MISS:          0  HIT %:        100  MISS %:          0   MPKI: 0
PSCL5 PREFETCH  REQUESTED:          0  ISSUED:          0  USEFUL:          0  USELESS:          0
PSCL5 USEFUL LOAD PREFETCHES:          0 PREFETCH ISSUED TO LOWER LEVEL:          0  ACCURACY: -nan
PSCL5 TIMELY PREFETCHES:          0 LATE PREFETCHES: 0 DROPPED PREFETCHES: 0
PSCL5 PREFETCHES SAME FILL-ORIGIN LEVEL: 0 DIFFERENT FILL-ORIGIN LEVEL: 0

PSCL4 TOTAL     ACCESS:   20536434  HIT:   20536434  MISS:          0  HIT %:        100  MISS %:          0   MPKI: 0
PSCL4 LOAD TRANSLATION ACCESS:   17061114  HIT:   17061114  MISS:          0  HIT %:        100  MISS %:          0   MPKI: 0
PSCL4 TRANSLATION FROM L1D PREFETCHER ACCESS:    3475320  HIT:    3475320  MISS:          0  HIT %:        100  MISS %:          0   MPKI: 0
PSCL4 PREFETCH  REQUESTED:          0  ISSUED:          0  USEFUL:          0  USELESS:          0
PSCL4 USEFUL LOAD PREFETCHES:          0 PREFETCH ISSUED TO LOWER LEVEL:          0  ACCURACY: -nan
PSCL4 TIMELY PREFETCHES:          0 LATE PREFETCHES: 0 DROPPED PREFETCHES: 0
PSCL4 PREFETCHES SAME FILL-ORIGIN LEVEL: 0 DIFFERENT FILL-ORIGIN LEVEL: 0

PSCL3 TOTAL     ACCESS:   20536338  HIT:   20536258  MISS:         80  HIT %:    99.9996  MISS %: 0.000389553   MPKI: 0.0004
PSCL3 LOAD TRANSLATION ACCESS:   17061048  HIT:   17060968  MISS:         80  HIT %:    99.9995  MISS %: 0.000468904   MPKI: 0.0004
PSCL3 TRANSLATION FROM L1D PREFETCHER ACCESS:    3475290  HIT:    3475290  MISS:          0  HIT %:        100  MISS %:          0   MPKI: 0
PSCL3 PREFETCH  REQUESTED:          0  ISSUED:          0  USEFUL:          0  USELESS:          0
PSCL3 USEFUL LOAD PREFETCHES:          0 PREFETCH ISSUED TO LOWER LEVEL:          0  ACCURACY: -nan
PSCL3 TIMELY PREFETCHES:          0 LATE PREFETCHES: 0 DROPPED PREFETCHES: 0
PSCL3 PREFETCHES SAME FILL-ORIGIN LEVEL: 0 DIFFERENT FILL-ORIGIN LEVEL: 0

PSCL2 TOTAL     ACCESS:   20535396  HIT:   20370508  MISS:     164888  HIT %:    99.1971  MISS %:   0.802945   MPKI: 0.82444
PSCL2 LOAD TRANSLATION ACCESS:   17064040  HIT:   16899152  MISS:     164888  HIT %:    99.0337  MISS %:   0.966289   MPKI: 0.82444
PSCL2 TRANSLATION FROM L1D PREFETCHER ACCESS:    3471356  HIT:    3471356  MISS:          0  HIT %:        100  MISS %:          0   MPKI: 0
PSCL2 PREFETCH  REQUESTED:          0  ISSUED:          0  USEFUL:          0  USELESS:          0
PSCL2 USEFUL LOAD PREFETCHES:          0 PREFETCH ISSUED TO LOWER LEVEL:          0  ACCURACY: -nan
PSCL2 TIMELY PREFETCHES:          0 LATE PREFETCHES: 0 DROPPED PREFETCHES: 0
PSCL2 PREFETCHES SAME FILL-ORIGIN LEVEL: 0 DIFFERENT FILL-ORIGIN LEVEL: 0

LLC TOTAL     ACCESS:    2004699  HIT:    1362439  MISS:     642260  HIT %:    67.9623  MISS %:    32.0377   MPKI: 3.2113
LLC LOAD      ACCESS:     427127  HIT:     250154  MISS:     176973  HIT %:    58.5667  MISS %:    41.4333   MPKI: 0.884865
LLC RFO       ACCESS:      50699  HIT:      22995  MISS:      27704  HIT %:    45.3559  MISS %:    54.6441   MPKI: 0.13852
LLC PREFETCH  ACCESS:     860286  HIT:     438542  MISS:     421744  HIT %:    50.9763  MISS %:    49.0237   MPKI: 2.10872
LLC WRITEBACK ACCESS:     649812  HIT:     637859  MISS:      11953  HIT %:    98.1605  MISS %:    1.83946   MPKI: 0.059765
LLC LOAD TRANSLATION ACCESS:      14690  HIT:      11147  MISS:       3543  HIT %:    75.8816  MISS %:    24.1184   MPKI: 0.017715
LLC TRANSLATION FROM L1D PREFETCHER ACCESS:       2085  HIT:       1742  MISS:        343  HIT %:    83.5492  MISS %:    16.4508   MPKI: 0.001715
LLC PREFETCH  REQUESTED:          0  ISSUED:          0  USEFUL:     106990  USELESS:    1533211
LLC USEFUL LOAD PREFETCHES:     106990 PREFETCH ISSUED TO LOWER LEVEL:    1642428  ACCURACY: 6.51414
LLC TIMELY PREFETCHES:     106990 LATE PREFETCHES: 0 DROPPED PREFETCHES: 0
LLC PREFETCHES SAME FILL-ORIGIN LEVEL: 0 DIFFERENT FILL-ORIGIN LEVEL: 0
LLC AVERAGE MISS LATENCY: 940.658 cycles
LLC RQ	ACCESS:    2089565	FORWARD:          0	MERGED:          0	TO_CACHE:    2089559
LLC WQ	ACCESS:    2293675	FORWARD:         17	MERGED:          0	TO_CACHE:    2293675
LLC PQ	ACCESS:    2754811	FORWARD:          0	MERGED:          0	TO_CACHE:    2754800

LLC Dense regions hint to LLC: 0

RAW hits: 7269477
Loads Generated: 37322136
Loads sent to L1D: 30052658
Stores Generated: 15118719
Stores sent to L1D: 15118719
Major fault: 0 Minor fault: 2006
Allocated PAGES: 16255

CPU 1 cumulative IPC: 0.588136 instructions: 200000000 cycles: 340057441
ITLB TOTAL     ACCESS:   36236865  HIT:   27576353  MISS:    8660512  HIT %:    76.1003  MISS %:    23.8997   MPKI: 43.3026
ITLB LOAD TRANSLATION ACCESS:   36236865  HIT:   27576353  MISS:    8660512  HIT %:    76.1003  MISS %:    23.8997   MPKI: 43.3026
ITLB PREFETCH  REQUESTED:          0  ISSUED:          0  USEFUL:          0  USELESS:          0
ITLB USEFUL LOAD PREFETCHES:          0 PREFETCH ISSUED TO LOWER LEVEL:          0  ACCURACY: -nan
ITLB TIMELY PREFETCHES:          0 LATE PREFETCHES: 0 DROPPED PREFETCHES: 0
ITLB PREFETCHES SAME FILL-ORIGIN LEVEL: 0 DIFFERENT FILL-ORIGIN LEVEL: 0
ITLB AVERAGE MISS LATENCY: 33.4643 cycles
ITLB RQ	ACCESS:   46130695	FORWARD:          0	MERGED:    6011847	TO_CACHE:   40118848

DTLB TOTAL     ACCESS:   25297327  HIT:   14195058  MISS:   11102269  HIT %:    56.1129  MISS %:    43.8871   MPKI: 55.5113
DTLB LOAD TRANSLATION ACCESS:   25297327  HIT:   14195058  MISS:   11102269  HIT %:    56.1129  MISS %:    43.8871   MPKI: 55.5113
DTLB PREFETCH  REQUESTED:          0  ISSUED:          0  USEFUL:          0  USELESS:          0
DTLB USEFUL LOAD PREFETCHES:          0 PREFETCH ISSUED TO LOWER LEVEL:          0  ACCURACY: -nan
DTLB TIMELY PREFETCHES:          0 LATE PREFETCHES: 0 DROPPED PREFETCHES: 0
DTLB PREFETCHES SAME FILL-ORIGIN LEVEL: 0 DIFFERENT FILL-ORIGIN LEVEL: 0
DTLB AVERAGE MISS LATENCY: 31.0102 cycles
DTLB RQ	ACCESS:   33322788	FORWARD:          0	MERGED:    5907493	TO_CACHE:   27415295

STLB TOTAL     ACCESS:   24184105  HIT:    8989993  MISS:   15194112  HIT %:    37.1731  MISS %:    62.8269   MPKI: 75.9706
STLB LOAD TRANSLATION ACCESS:   19762781  HIT:    5053657  MISS:   14709124  HIT %:    25.5716  MISS %:    74.4284   MPKI: 73.5456
STLB TRANSLATION FROM L1D PREFETCHER ACCESS:    4421324  HIT:    3936336  MISS:     484988  HIT %:    89.0307  MISS %:    10.9693   MPKI: 2.42494
STLB PREFETCH  REQUESTED:          0  ISSUED:          0  USEFUL:     298910  USELESS:     200788
STLB USEFUL LOAD PREFETCHES:     298910 PREFETCH ISSUED TO LOWER LEVEL:          0  ACCURACY: inf
STLB TIMELY PREFETCHES:     298910 LATE PREFETCHES: 0 DROPPED PREFETCHES: 158219
STLB PREFETCHES SAME FILL-ORIGIN LEVEL: 0 DIFFERENT FILL-ORIGIN LEVEL: 0
STLB AVERAGE MISS LATENCY: 30.882 cycles
STLB RQ	ACCESS:   36010966	FORWARD:          0	MERGED:   11096967	TO_CACHE:   24913999

STLB Hit, L1D data hit: 0
STLB Hit, L2C data hit: 0
STLB Hit, LLC data hit: 0
STLB Hit, LLC data miss: 0
STLB STLB hints to L2: 0
L1D TOTAL     ACCESS:   41582027  HIT:   40262076  MISS:    1319951  HIT %:    96.8257  MISS %:    3.17433   MPKI: 6.59976
L1D LOAD      ACCESS:   19022571  HIT:   18078283  MISS:     944288  HIT %:     95.036  MISS %:    4.96404   MPKI: 4.72144
L1D RFO       ACCESS:   13035448  HIT:   12787422  MISS:     248026  HIT %:    98.0973  MISS %:     1.9027   MPKI: 1.24013
L1D PREFETCH  ACCESS:    9524008  HIT:    9396371  MISS:     127637  HIT %:    98.6598  MISS %:    1.34016   MPKI: 0.638185
L1D PREFETCH  REQUESTED:   38137196  ISSUED:   36828339  USEFUL:     123255  USELESS:      15444
L1D USEFUL LOAD PREFETCHES:     123255 PREFETCH ISSUED TO LOWER LEVEL:    5877728  ACCURACY: 2.09698
L1D TIMELY PREFETCHES:     123255 LATE PREFETCHES: 6806 DROPPED PREFETCHES: 215436
L1D PREFETCHES SAME FILL-ORIGIN LEVEL: 146459 DIFFERENT FILL-ORIGIN LEVEL: 5731269
L1D AVERAGE MISS LATENCY: 131.543 cycles
L1D RQ	ACCESS:   29687736	FORWARD:          0	MERGED:    9797701	TO_CACHE:   19616673
L1D WQ	ACCESS:   14386234	FORWARD:     278810	MERGED:     680119	TO_CACHE:   13706115
L1D PQ	ACCESS:   20956383	FORWARD:          0	MERGED:    5078979	TO_CACHE:   15871956

L1D UNIQUE REGIONS ACCESSED: 0
L1D REGIONS CONFLICTS: 0
L1D Cross Page Prefetch Requests: 4243731
L1D Same Page Prefetch Requests: 23190483
L1D ROI Sum of L1D PQ occupancy: 292657067
L1D PREFETCHES PUSHED FROM L2C: 0
L1I TOTAL     ACCESS:   45143349  HIT:   44940901  MISS:     202448  HIT %:    99.5515  MISS %:   0.448456   MPKI: 1.01224
L1I LOAD      ACCESS:   45143349  HIT:   44940901  MISS:     202448  HIT %:    99.5515  MISS %:   0.448456   MPKI: 1.01224
L1I PREFETCH  REQUESTED:          0  ISSUED:          0  USEFUL:          0  USELESS:          0
L1I USEFUL LOAD PREFETCHES:          0 PREFETCH ISSUED TO LOWER LEVEL:          0  ACCURACY: -nan
L1I TIMELY PREFETCHES:          0 LATE PREFETCHES: 0 DROPPED PREFETCHES: 0
L1I PREFETCHES SAME FILL-ORIGIN LEVEL: 0 DIFFERENT FILL-ORIGIN LEVEL: 0
L1I AVERAGE MISS LATENCY: 17.2453 cycles
L1I RQ	ACCESS:   86478803	FORWARD:          0	MERGED:   40348108	TO_CACHE:   46130695

BTB BRANCH_DIRECT_JUMP	ACCESS:          0  HIT:          0  MISS:          0
BTB BRANCH_INDIRECT	ACCESS:          0  HIT:          0  MISS:          0
BTB BRANCH_CONDITIONAL	ACCESS:          0  HIT:          0  MISS:          0
BTB BRANCH_DIRECT_CALL	ACCESS:          0  HIT:          0  MISS:          0
BTB BRANCH_INDIRECT_CALL	ACCESS:          0  HIT:          0  MISS:          0
BTB BRANCH_RETURN	ACCESS:          0  HIT:          0  MISS:          0
BTB BRANCH_OTHER ACCESS:          0  HIT:          0  MISS:          0

L2C TOTAL     ACCESS:   22940304  HIT:   21503436  MISS:    1436868  HIT %:    93.7365  MISS %:    6.26351   MPKI: 7.18434
L2C LOAD      ACCESS:    1140161  HIT:     543073  MISS:     597088  HIT %:    47.6313  MISS %:    52.3687   MPKI: 2.98544
L2C DATA LOAD MPKI: 2.96432
L2C INSTRUCTION LOAD MPKI: 0.02112
L2C RFO       ACCESS:     248024  HIT:      99754  MISS:     148270  HIT %:    40.2195  MISS %:    59.7805   MPKI: 0.74135
L2C PREFETCH  ACCESS:    5290316  HIT:    4705160  MISS:     585156  HIT %:    88.9391  MISS %:    11.0609   MPKI: 2.92578
L2C DATA PREFETCH MPKI: 2.92578
L2C INSTRUCTION PREFETCH MPKI: 0
L2C WRITEBACK ACCESS:     775337  HIT:     711669  MISS:      63668  HIT %:    91.7883  MISS %:    8.21166   MPKI: 0.31834
L2C LOAD TRANSLATION ACCESS:   14844846  HIT:   14806510  MISS:      38336  HIT %:    99.7418  MISS %:   0.258245   MPKI: 0.19168
L2C TRANSLATION FROM L1D PREFETCHER ACCESS:     641620  HIT:     637270  MISS:       4350  HIT %:     99.322  MISS %:   0.677971   MPKI: 0.02175
L2C PREFETCH  REQUESTED:          0  ISSUED:          0  USEFUL:     208562  USELESS:     436668
L2C USEFUL LOAD PREFETCHES:     208562 PREFETCH ISSUED TO LOWER LEVEL:     647411  ACCURACY: 32.2148
L2C TIMELY PREFETCHES:     208562 LATE PREFETCHES: 10576 DROPPED PREFETCHES: 0
L2C PREFETCHES SAME FILL-ORIGIN LEVEL: 618752 DIFFERENT FILL-ORIGIN LEVEL: 0
L2C AVERAGE MISS LATENCY: 200.744 cycles
L2C RQ	ACCESS:   17133254	FORWARD:          0	MERGED:          0	TO_CACHE:   17133248
L2C WQ	ACCESS:     804036	FORWARD:         11	MERGED:          0	TO_CACHE:     804036
L2C PQ	ACCESS:    5852391	FORWARD:          0	MERGED:       8091	TO_CACHE:    5844295

L2C Instructions Evicting Data 4617
L2C Translations Evicting Data 43185
L2C Data Evicting Data 1359311
L2C Instructions Evicting Instructions 43
L2C Translations Evicting Instructions 181
L2C Data Evicting Instructions 4391
L2C Instructions Evicting Translations 162
L2C Translations Evicting Translations 1445
L2C Data Evicting Translations 40771
L2C Dense regions hint from L2: 0
PSCL5 TOTAL     ACCESS:   15349001  HIT:   15349001  MISS:          0  HIT %:        100  MISS %:          0   MPKI: 0
PSCL5 LOAD TRANSLATION ACCESS:   14709125  HIT:   14709125  MISS:          0  HIT %:        100  MISS %:          0   MPKI: 0
PSCL5 TRANSLATION FROM L1D PREFETCHER ACCESS:     639876  HIT:     639876  MISS:          0  HIT %:        100  MISS %:          0   MPKI: 0
PSCL5 PREFETCH  REQUESTED:          0  ISSUED:          0  USEFUL:          0  USELESS:          0
PSCL5 USEFUL LOAD PREFETCHES:          0 PREFETCH ISSUED TO LOWER LEVEL:          0  ACCURACY: -nan
PSCL5 TIMELY PREFETCHES:          0 LATE PREFETCHES: 0 DROPPED PREFETCHES: 0
PSCL5 PREFETCHES SAME FILL-ORIGIN LEVEL: 0 DIFFERENT FILL-ORIGIN LEVEL: 0

PSCL4 TOTAL     ACCESS:   15349001  HIT:   15349001  MISS:          0  HIT %:        100  MISS %:          0   MPKI: 0
PSCL4 LOAD TRANSLATION ACCESS:   14709125  HIT:   14709125  MISS:          0  HIT %:        100  MISS %:          0   MPKI: 0
PSCL4 TRANSLATION FROM L1D PREFETCHER ACCESS:     639876  HIT:     639876  MISS:          0  HIT %:        100  MISS %:          0   MPKI: 0
PSCL4 PREFETCH  REQUESTED:          0  ISSUED:          0  USEFUL:          0  USELESS:          0
PSCL4 USEFUL LOAD PREFETCHES:          0 PREFETCH ISSUED TO LOWER LEVEL:          0  ACCURACY: -nan
PSCL4 TIMELY PREFETCHES:          0 LATE PREFETCHES: 0 DROPPED PREFETCHES: 0
PSCL4 PREFETCHES SAME FILL-ORIGIN LEVEL: 0 DIFFERENT FILL-ORIGIN LEVEL: 0

PSCL3 TOTAL     ACCESS:   15348643  HIT:   15348583  MISS:         60  HIT %:    99.9996  MISS %: 0.000390914   MPKI: 0.0003
PSCL3 LOAD TRANSLATION ACCESS:   14708797  HIT:   14708737  MISS:         60  HIT %:    99.9996  MISS %: 0.000407919   MPKI: 0.0003
PSCL3 TRANSLATION FROM L1D PREFETCHER ACCESS:     639846  HIT:     639846  MISS:          0  HIT %:        100  MISS %:          0   MPKI: 0
PSCL3 PREFETCH  REQUESTED:          0  ISSUED:          0  USEFUL:          0  USELESS:          0
PSCL3 USEFUL LOAD PREFETCHES:          0 PREFETCH ISSUED TO LOWER LEVEL:          0  ACCURACY: -nan
PSCL3 TIMELY PREFETCHES:          0 LATE PREFETCHES: 0 DROPPED PREFETCHES: 0
PSCL3 PREFETCHES SAME FILL-ORIGIN LEVEL: 0 DIFFERENT FILL-ORIGIN LEVEL: 0

PSCL2 TOTAL     ACCESS:   15348485  HIT:   15211561  MISS:     136924  HIT %:    99.1079  MISS %:   0.892101   MPKI: 0.68462
PSCL2 LOAD TRANSLATION ACCESS:   14710377  HIT:   14573453  MISS:     136924  HIT %:    99.0692  MISS %:   0.930799   MPKI: 0.68462
PSCL2 TRANSLATION FROM L1D PREFETCHER ACCESS:     638108  HIT:     638108  MISS:          0  HIT %:        100  MISS %:          0   MPKI: 0
PSCL2 PREFETCH  REQUESTED:          0  ISSUED:          0  USEFUL:          0  USELESS:          0
PSCL2 USEFUL LOAD PREFETCHES:          0 PREFETCH ISSUED TO LOWER LEVEL:          0  ACCURACY: -nan
PSCL2 TIMELY PREFETCHES:          0 LATE PREFETCHES: 0 DROPPED PREFETCHES: 0
PSCL2 PREFETCHES SAME FILL-ORIGIN LEVEL: 0 DIFFERENT FILL-ORIGIN LEVEL: 0

LLC TOTAL     ACCESS:    2038373  HIT:    1004563  MISS:    1033810  HIT %:    49.2826  MISS %:    50.7174   MPKI: 5.16905
LLC LOAD      ACCESS:     590259  HIT:     169684  MISS:     420575  HIT %:    28.7474  MISS %:    71.2526   MPKI: 2.10288
LLC RFO       ACCESS:     145196  HIT:      20109  MISS:     125087  HIT %:    13.8496  MISS %:    86.1504   MPKI: 0.625435
LLC PREFETCH  ACCESS:     595057  HIT:     137976  MISS:     457081  HIT %:     23.187  MISS %:     76.813   MPKI: 2.2854
LLC WRITEBACK ACCESS:     665175  HIT:     643901  MISS:      21274  HIT %:    96.8017  MISS %:    3.19826   MPKI: 0.10637
LLC LOAD TRANSLATION ACCESS:      38336  HIT:      30163  MISS:       8173  HIT %:    78.6806  MISS %:    21.3194   MPKI: 0.040865
LLC TRANSLATION FROM L1D PREFETCHER ACCESS:       4350  HIT:       2730  MISS:       1620  HIT %:    62.7586  MISS %:    37.2414   MPKI: 0.0081
LLC PREFETCH  REQUESTED:          0  ISSUED:          0  USEFUL:     106990  USELESS:    1533211
LLC USEFUL LOAD PREFETCHES:     106990 PREFETCH ISSUED TO LOWER LEVEL:    1642428  ACCURACY: 6.51414
LLC TIMELY PREFETCHES:     106990 LATE PREFETCHES: 0 DROPPED PREFETCHES: 0
LLC PREFETCHES SAME FILL-ORIGIN LEVEL: 0 DIFFERENT FILL-ORIGIN LEVEL: 0
LLC AVERAGE MISS LATENCY: 584.389 cycles
LLC RQ	ACCESS:    2089565	FORWARD:          0	MERGED:          0	TO_CACHE:    2089559
LLC WQ	ACCESS:    2293675	FORWARD:         17	MERGED:          0	TO_CACHE:    2293675
LLC PQ	ACCESS:    2754811	FORWARD:          0	MERGED:          0	TO_CACHE:    2754800

LLC Dense regions hint to LLC: 0

RAW hits: 4760230
Loads Generated: 33721361
Loads sent to L1D: 28961128
Stores Generated: 14180245
Stores sent to L1D: 14180245
Major fault: 0 Minor fault: 10176
Allocated PAGES: 16255

CPU 2 cumulative IPC: 0.575198 instructions: 200000000 cycles: 347706300
ITLB TOTAL     ACCESS:   40831913  HIT:   30965507  MISS:    9866406  HIT %:    75.8365  MISS %:    24.1635   MPKI: 49.332
ITLB LOAD TRANSLATION ACCESS:   40831913  HIT:   30965507  MISS:    9866406  HIT %:    75.8365  MISS %:    24.1635   MPKI: 49.332
ITLB PREFETCH  REQUESTED:          0  ISSUED:          0  USEFUL:          0  USELESS:          0
ITLB USEFUL LOAD PREFETCHES:          0 PREFETCH ISSUED TO LOWER LEVEL:          0  ACCURACY: -nan
ITLB TIMELY PREFETCHES:          0 LATE PREFETCHES: 0 DROPPED PREFETCHES: 0
ITLB PREFETCHES SAME FILL-ORIGIN LEVEL: 0 DIFFERENT FILL-ORIGIN LEVEL: 0
ITLB AVERAGE MISS LATENCY: 36.9313 cycles
ITLB RQ	ACCESS:   48936737	FORWARD:          0	MERGED:    4353958	TO_CACHE:   44582779

DTLB TOTAL     ACCESS:   28726104  HIT:   17330209  MISS:   11395895  HIT %:    60.3291  MISS %:    39.6709   MPKI: 56.9795
DTLB LOAD TRANSLATION ACCESS:   28726104  HIT:   17330209  MISS:   11395895  HIT %:    60.3291  MISS %:    39.6709   MPKI: 56.9795
DTLB PREFETCH  REQUESTED:          0  ISSUED:          0  USEFUL:          0  USELESS:          0
DTLB USEFUL LOAD PREFETCHES:          0 PREFETCH ISSUED TO LOWER LEVEL:          0  ACCURACY: -nan
DTLB TIMELY PREFETCHES:          0 LATE PREFETCHES: 0 DROPPED PREFETCHES: 0
DTLB PREFETCHES SAME FILL-ORIGIN LEVEL: 0 DIFFERENT FILL-ORIGIN LEVEL: 0
DTLB AVERAGE MISS LATENCY: 35.8111 cycles
DTLB RQ	ACCESS:   33681165	FORWARD:          0	MERGED:    3639611	TO_CACHE:   30041554

STLB TOTAL     ACCESS:   28927638  HIT:    9447977  MISS:   19479661  HIT %:    32.6607  MISS %:    67.3393   MPKI: 97.3983
STLB LOAD TRANSLATION ACCESS:   21262301  HIT:    4545820  MISS:   16716481  HIT %:    21.3797  MISS %:    78.6203   MPKI: 83.5824
STLB TRANSLATION FROM L1D PREFETCHER ACCESS:    7665337  HIT:    4902157  MISS:    2763180  HIT %:    63.9523  MISS %:    36.0477   MPKI: 13.8159
STLB PREFETCH  REQUESTED:          0  ISSUED:          0  USEFUL:     993441  USELESS:    1773946
STLB USEFUL LOAD PREFETCHES:     993441 PREFETCH ISSUED TO LOWER LEVEL:          0  ACCURACY: inf
STLB TIMELY PREFETCHES:     993441 LATE PREFETCHES: 0 DROPPED PREFETCHES: 468588
STLB PREFETCHES SAME FILL-ORIGIN LEVEL: 0 DIFFERENT FILL-ORIGIN LEVEL: 0
STLB AVERAGE MISS LATENCY: 36.0838 cycles
STLB RQ	ACCESS:   49008943	FORWARD:          0	MERGED:   19431718	TO_CACHE:   29577225

STLB Hit, L1D data hit: 0
STLB Hit, L2C data hit: 0
STLB Hit, LLC data hit: 0
STLB Hit, LLC data miss: 0
STLB STLB hints to L2: 0
L1D TOTAL     ACCESS:   53156829  HIT:   51553608  MISS:    1603221  HIT %:     96.984  MISS %:    3.01602   MPKI: 8.0161
L1D LOAD      ACCESS:   20360307  HIT:   19490522  MISS:     869785  HIT %:     95.728  MISS %:    4.27196   MPKI: 4.34893
L1D RFO       ACCESS:   12919585  HIT:   12849560  MISS:      70025  HIT %:     99.458  MISS %:   0.542007   MPKI: 0.350125
L1D PREFETCH  ACCESS:   19876937  HIT:   19213526  MISS:     663411  HIT %:    96.6624  MISS %:    3.33759   MPKI: 3.31705
L1D PREFETCH  REQUESTED:   66480460  ISSUED:   64711172  USEFUL:     608648  USELESS:      55885
L1D USEFUL LOAD PREFETCHES:     608648 PREFETCH ISSUED TO LOWER LEVEL:    7464068  ACCURACY: 8.15437
L1D TIMELY PREFETCHES:     608648 LATE PREFETCHES: 441 DROPPED PREFETCHES: 987679
L1D PREFETCHES SAME FILL-ORIGIN LEVEL: 664979 DIFFERENT FILL-ORIGIN LEVEL: 6799089
L1D AVERAGE MISS LATENCY: 54.2329 cycles
L1D RQ	ACCESS:   30200856	FORWARD:          0	MERGED:    9231346	TO_CACHE:   20433580
L1D WQ	ACCESS:   15109139	FORWARD:     537459	MERGED:    1861554	TO_CACHE:   13247585
L1D PQ	ACCESS:   36993184	FORWARD:          0	MERGED:    9273667	TO_CACHE:   27717988

L1D UNIQUE REGIONS ACCESSED: 0
L1D REGIONS CONFLICTS: 0
L1D Cross Page Prefetch Requests: 12380139
L1D Same Page Prefetch Requests: 37154562
L1D ROI Sum of L1D PQ occupancy: 832952676
L1D PREFETCHES PUSHED FROM L2C: 0
L1I TOTAL     ACCESS:   48863990  HIT:   48847306  MISS:      16684  HIT %:    99.9659  MISS %:  0.0341438   MPKI: 0.08342
L1I LOAD      ACCESS:   48863990  HIT:   48847306  MISS:      16684  HIT %:    99.9659  MISS %:  0.0341438   MPKI: 0.08342
L1I PREFETCH  REQUESTED:          0  ISSUED:          0  USEFUL:          0  USELESS:          0
L1I USEFUL LOAD PREFETCHES:          0 PREFETCH ISSUED TO LOWER LEVEL:          0  ACCURACY: -nan
L1I TIMELY PREFETCHES:          0 LATE PREFETCHES: 0 DROPPED PREFETCHES: 0
L1I PREFETCHES SAME FILL-ORIGIN LEVEL: 0 DIFFERENT FILL-ORIGIN LEVEL: 0
L1I AVERAGE MISS LATENCY: 134.292 cycles
L1I RQ	ACCESS:   95491546	FORWARD:          0	MERGED:   46554809	TO_CACHE:   48936737

BTB BRANCH_DIRECT_JUMP	ACCESS:          0  HIT:          0  MISS:          0
BTB BRANCH_INDIRECT	ACCESS:          0  HIT:          0  MISS:          0
BTB BRANCH_CONDITIONAL	ACCESS:          0  HIT:          0  MISS:          0
BTB BRANCH_DIRECT_CALL	ACCESS:          0  HIT:          0  MISS:          0
BTB BRANCH_INDIRECT_CALL	ACCESS:          0  HIT:          0  MISS:          0
BTB BRANCH_RETURN	ACCESS:          0  HIT:          0  MISS:          0
BTB BRANCH_OTHER ACCESS:          0  HIT:          0  MISS:          0

L2C TOTAL     ACCESS:   29274968  HIT:   27860575  MISS:    1414393  HIT %:    95.1686  MISS %:    4.83141   MPKI: 7.07196
L2C LOAD      ACCESS:     886023  HIT:     425542  MISS:     460481  HIT %:    48.0283  MISS %:    51.9717   MPKI: 2.3024
L2C DATA LOAD MPKI: 2.26237
L2C INSTRUCTION LOAD MPKI: 0.040035
L2C RFO       ACCESS:      70021  HIT:      15425  MISS:      54596  HIT %:    22.0291  MISS %:    77.9709   MPKI: 0.27298
L2C PREFETCH  ACCESS:    7336772  HIT:    6500064  MISS:     836708  HIT %:    88.5957  MISS %:    11.4043   MPKI: 4.18354
L2C DATA PREFETCH MPKI: 4.18354
L2C INSTRUCTION PREFETCH MPKI: 0
L2C WRITEBACK ACCESS:     911587  HIT:     866810  MISS:      44777  HIT %:     95.088  MISS %:    4.91198   MPKI: 0.223885
L2C LOAD TRANSLATION ACCESS:   16836845  HIT:   16821128  MISS:      15717  HIT %:    99.9067  MISS %:  0.0933488   MPKI: 0.078585
L2C TRANSLATION FROM L1D PREFETCHER ACCESS:    3233720  HIT:    3231606  MISS:       2114  HIT %:    99.9346  MISS %:  0.0653736   MPKI: 0.01057
L2C PREFETCH  REQUESTED:          0  ISSUED:          0  USEFUL:     178952  USELESS:     661190
L2C USEFUL LOAD PREFETCHES:     178952 PREFETCH ISSUED TO LOWER LEVEL:     839193  ACCURACY: 21.3243
L2C TIMELY PREFETCHES:     178952 LATE PREFETCHES: 1399 DROPPED PREFETCHES: 0
L2C PREFETCHES SAME FILL-ORIGIN LEVEL: 738643 DIFFERENT FILL-ORIGIN LEVEL: 0
L2C AVERAGE MISS LATENCY: 119.619 cycles
L2C RQ	ACCESS:   21055400	FORWARD:          0	MERGED:          0	TO_CACHE:   21055393
L2C WQ	ACCESS:     912291	FORWARD:         26	MERGED:          0	TO_CACHE:     912291
L2C PQ	ACCESS:    7464068	FORWARD:          0	MERGED:       1381	TO_CACHE:    7462668

L2C Instructions Evicting Data 7682
L2C Translations Evicting Data 17548
L2C Data Evicting Data 1320771
L2C Instructions Evicting Instructions 209
L2C Translations Evicting Instructions 144
L2C Data Evicting Instructions 7421
L2C Instructions Evicting Translations 116
L2C Translations Evicting Translations 155
L2C Data Evicting Translations 16987
L2C Dense regions hint from L2: 0
PSCL5 TOTAL     ACCESS:   19947377  HIT:   19947377  MISS:          0  HIT %:        100  MISS %:          0   MPKI: 0
PSCL5 LOAD TRANSLATION ACCESS:   16716483  HIT:   16716483  MISS:          0  HIT %:        100  MISS %:          0   MPKI: 0
PSCL5 TRANSLATION FROM L1D PREFETCHER ACCESS:    3230894  HIT:    3230894  MISS:          0  HIT %:        100  MISS %:          0   MPKI: 0
PSCL5 PREFETCH  REQUESTED:          0  ISSUED:          0  USEFUL:          0  USELESS:          0
PSCL5 USEFUL LOAD PREFETCHES:          0 PREFETCH ISSUED TO LOWER LEVEL:          0  ACCURACY: -nan
PSCL5 TIMELY PREFETCHES:          0 LATE PREFETCHES: 0 DROPPED PREFETCHES: 0
PSCL5 PREFETCHES SAME FILL-ORIGIN LEVEL: 0 DIFFERENT FILL-ORIGIN LEVEL: 0

PSCL4 TOTAL     ACCESS:   19947377  HIT:   19947377  MISS:          0  HIT %:        100  MISS %:          0   MPKI: 0
PSCL4 LOAD TRANSLATION ACCESS:   16716483  HIT:   16716483  MISS:          0  HIT %:        100  MISS %:          0   MPKI: 0
PSCL4 TRANSLATION FROM L1D PREFETCHER ACCESS:    3230894  HIT:    3230894  MISS:          0  HIT %:        100  MISS %:          0   MPKI: 0
PSCL4 PREFETCH  REQUESTED:          0  ISSUED:          0  USEFUL:          0  USELESS:          0
PSCL4 USEFUL LOAD PREFETCHES:          0 PREFETCH ISSUED TO LOWER LEVEL:          0  ACCURACY: -nan
PSCL4 TIMELY PREFETCHES:          0 LATE PREFETCHES: 0 DROPPED PREFETCHES: 0
PSCL4 PREFETCHES SAME FILL-ORIGIN LEVEL: 0 DIFFERENT FILL-ORIGIN LEVEL: 0

PSCL3 TOTAL     ACCESS:   19947240  HIT:   19947190  MISS:         50  HIT %:    99.9997  MISS %: 0.000250661   MPKI: 0.00025
PSCL3 LOAD TRANSLATION ACCESS:   16716352  HIT:   16716302  MISS:         50  HIT %:    99.9997  MISS %: 0.000299108   MPKI: 0.00025
PSCL3 TRANSLATION FROM L1D PREFETCHER ACCESS:    3230888  HIT:    3230888  MISS:          0  HIT %:        100  MISS %:          0   MPKI: 0
PSCL3 PREFETCH  REQUESTED:          0  ISSUED:          0  USEFUL:          0  USELESS:          0
PSCL3 USEFUL LOAD PREFETCHES:          0 PREFETCH ISSUED TO LOWER LEVEL:          0  ACCURACY: -nan
PSCL3 TIMELY PREFETCHES:          0 LATE PREFETCHES: 0 DROPPED PREFETCHES: 0
PSCL3 PREFETCHES SAME FILL-ORIGIN LEVEL: 0 DIFFERENT FILL-ORIGIN LEVEL: 0

PSCL2 TOTAL     ACCESS:   19947070  HIT:   19824233  MISS:     122837  HIT %:    99.3842  MISS %:   0.615815   MPKI: 0.614185
PSCL2 LOAD TRANSLATION ACCESS:   16719001  HIT:   16596164  MISS:     122837  HIT %:    99.2653  MISS %:   0.734715   MPKI: 0.614185
PSCL2 TRANSLATION FROM L1D PREFETCHER ACCESS:    3228069  HIT:    3228069  MISS:          0  HIT %:        100  MISS %:          0   MPKI: 0
PSCL2 PREFETCH  REQUESTED:          0  ISSUED:          0  USEFUL:          0  USELESS:          0
PSCL2 USEFUL LOAD PREFETCHES:          0 PREFETCH ISSUED TO LOWER LEVEL:          0  ACCURACY: -nan
PSCL2 TIMELY PREFETCHES:          0 LATE PREFETCHES: 0 DROPPED PREFETCHES: 0
PSCL2 PREFETCHES SAME FILL-ORIGIN LEVEL: 0 DIFFERENT FILL-ORIGIN LEVEL: 0

LLC TOTAL     ACCESS:    2036640  HIT:    1401587  MISS:     635053  HIT %:    68.8186  MISS %:    31.1814   MPKI: 3.17527
LLC LOAD      ACCESS:     459163  HIT:     286128  MISS:     173035  HIT %:    62.3151  MISS %:    37.6849   MPKI: 0.865175
LLC RFO       ACCESS:      54514  HIT:      25683  MISS:      28831  HIT %:    47.1127  MISS %:    52.8873   MPKI: 0.144155
LLC PREFETCH  ACCESS:     838098  HIT:     420077  MISS:     418021  HIT %:    50.1227  MISS %:    49.8773   MPKI: 2.0901
LLC WRITEBACK ACCESS:     667034  HIT:     655255  MISS:      11779  HIT %:    98.2341  MISS %:    1.76588   MPKI: 0.058895
LLC LOAD TRANSLATION ACCESS:      15717  HIT:      12775  MISS:       2942  HIT %:    81.2814  MISS %:    18.7186   MPKI: 0.01471
LLC TRANSLATION FROM L1D PREFETCHER ACCESS:       2114  HIT:       1669  MISS:        445  HIT %:    78.9499  MISS %:    21.0501   MPKI: 0.002225
LLC PREFETCH  REQUESTED:          0  ISSUED:          0  USEFUL:     106990  USELESS:    1533211
LLC USEFUL LOAD PREFETCHES:     106990 PREFETCH ISSUED TO LOWER LEVEL:    1642428  ACCURACY: 6.51414
LLC TIMELY PREFETCHES:     106990 LATE PREFETCHES: 0 DROPPED PREFETCHES: 0
LLC PREFETCHES SAME FILL-ORIGIN LEVEL: 0 DIFFERENT FILL-ORIGIN LEVEL: 0
LLC AVERAGE MISS LATENCY: 951.333 cycles
LLC RQ	ACCESS:    2089565	FORWARD:          0	MERGED:          0	TO_CACHE:    2089559
LLC WQ	ACCESS:    2293675	FORWARD:         17	MERGED:          0	TO_CACHE:    2293675
LLC PQ	ACCESS:    2754811	FORWARD:          0	MERGED:          0	TO_CACHE:    2754800

LLC Dense regions hint to LLC: 0

RAW hits: 7193707
Loads Generated: 37354045
Loads sent to L1D: 30160338
Stores Generated: 15089238
Stores sent to L1D: 15089239
Major fault: 0 Minor fault: 1841
Allocated PAGES: 16255

CPU 3 cumulative IPC: 0.712361 instructions: 200000002 cycles: 280756648
ITLB TOTAL     ACCESS:   37748064  HIT:   28978348  MISS:    8769716  HIT %:    76.7678  MISS %:    23.2322   MPKI: 43.8486
ITLB LOAD TRANSLATION ACCESS:   37748064  HIT:   28978348  MISS:    8769716  HIT %:    76.7678  MISS %:    23.2322   MPKI: 43.8486
ITLB PREFETCH  REQUESTED:          0  ISSUED:          0  USEFUL:          0  USELESS:          0
ITLB USEFUL LOAD PREFETCHES:          0 PREFETCH ISSUED TO LOWER LEVEL:          0  ACCURACY: -nan
ITLB TIMELY PREFETCHES:          0 LATE PREFETCHES: 0 DROPPED PREFETCHES: 0
ITLB PREFETCHES SAME FILL-ORIGIN LEVEL: 0 DIFFERENT FILL-ORIGIN LEVEL: 0
ITLB AVERAGE MISS LATENCY: 41.8567 cycles
ITLB RQ	ACCESS:   56354119	FORWARD:          0	MERGED:    6822083	TO_CACHE:   49532036

DTLB TOTAL     ACCESS:   24599307  HIT:   14474824  MISS:   10124483  HIT %:    58.8424  MISS %:    41.1576   MPKI: 50.6224
DTLB LOAD TRANSLATION ACCESS:   24599307  HIT:   14474824  MISS:   10124483  HIT %:    58.8424  MISS %:    41.1576   MPKI: 50.6224
DTLB PREFETCH  REQUESTED:          0  ISSUED:          0  USEFUL:          0  USELESS:          0
DTLB USEFUL LOAD PREFETCHES:          0 PREFETCH ISSUED TO LOWER LEVEL:          0  ACCURACY: -nan
DTLB TIMELY PREFETCHES:          0 LATE PREFETCHES: 0 DROPPED PREFETCHES: 0
DTLB PREFETCHES SAME FILL-ORIGIN LEVEL: 0 DIFFERENT FILL-ORIGIN LEVEL: 0
DTLB AVERAGE MISS LATENCY: 40.613 cycles
DTLB RQ	ACCESS:   36800769	FORWARD:          0	MERGED:    4842171	TO_CACHE:   31958598

STLB TOTAL     ACCESS:   23002905  HIT:    7402517  MISS:   15600388  HIT %:    32.1808  MISS %:    67.8192   MPKI: 78.0019
STLB LOAD TRANSLATION ACCESS:   18894199  HIT:    4197364  MISS:   14696835  HIT %:    22.2151  MISS %:    77.7849   MPKI: 73.4842
STLB TRANSLATION FROM L1D PREFETCHER ACCESS:    4108706  HIT:    3205153  MISS:     903553  HIT %:    78.0088  MISS %:    21.9912   MPKI: 4.51776
STLB PREFETCH  REQUESTED:          0  ISSUED:          0  USEFUL:     707462  USELESS:     402056
STLB USEFUL LOAD PREFETCHES:     707462 PREFETCH ISSUED TO LOWER LEVEL:          0  ACCURACY: inf
STLB TIMELY PREFETCHES:     707462 LATE PREFETCHES: 0 DROPPED PREFETCHES: 166425
STLB PREFETCHES SAME FILL-ORIGIN LEVEL: 0 DIFFERENT FILL-ORIGIN LEVEL: 0
STLB AVERAGE MISS LATENCY: 38.8638 cycles
STLB RQ	ACCESS:   38988933	FORWARD:          0	MERGED:   10412451	TO_CACHE:   28576482

STLB Hit, L1D data hit: 0
STLB Hit, L2C data hit: 0
STLB Hit, LLC data hit: 0
STLB Hit, LLC data miss: 0
STLB STLB hints to L2: 0
L1D TOTAL     ACCESS:   37452598  HIT:   36962880  MISS:     489718  HIT %:    98.6924  MISS %:    1.30757   MPKI: 2.44859
L1D LOAD      ACCESS:   18139662  HIT:   17839120  MISS:     300542  HIT %:    98.3432  MISS %:    1.65682   MPKI: 1.50271
L1D RFO       ACCESS:   11752055  HIT:   11748003  MISS:       4052  HIT %:    99.9655  MISS %:  0.0344791   MPKI: 0.02026
L1D PREFETCH  ACCESS:    7560881  HIT:    7375757  MISS:     185124  HIT %:    97.5516  MISS %:    2.44844   MPKI: 0.92562
L1D PREFETCH  REQUESTED:   36753701  ISSUED:   35879126  USEFUL:     212787  USELESS:      15552
L1D USEFUL LOAD PREFETCHES:     212787 PREFETCH ISSUED TO LOWER LEVEL:    6307237  ACCURACY: 3.3737
L1D TIMELY PREFETCHES:     212787 LATE PREFETCHES: 139 DROPPED PREFETCHES: 254667
L1D PREFETCHES SAME FILL-ORIGIN LEVEL: 228449 DIFFERENT FILL-ORIGIN LEVEL: 6078788
L1D AVERAGE MISS LATENCY: 105.394 cycles
L1D RQ	ACCESS:   33913001	FORWARD:          0	MERGED:   11144026	TO_CACHE:   22342784
L1D WQ	ACCESS:   15762906	FORWARD:     426382	MERGED:    1304921	TO_CACHE:   14457985
L1D PQ	ACCESS:   20195241	FORWARD:          0	MERGED:    4511165	TO_CACHE:   15683885

L1D UNIQUE REGIONS ACCESSED: 0
L1D REGIONS CONFLICTS: 0
L1D Cross Page Prefetch Requests: 6691727
L1D Same Page Prefetch Requests: 20031833
L1D ROI Sum of L1D PQ occupancy: 374134320
L1D PREFETCHES PUSHED FROM L2C: 0
L1I TOTAL     ACCESS:   45772489  HIT:   45768263  MISS:       4226  HIT %:    99.9908  MISS %: 0.00923262   MPKI: 0.02113
L1I LOAD      ACCESS:   45772489  HIT:   45768263  MISS:       4226  HIT %:    99.9908  MISS %: 0.00923262   MPKI: 0.02113
L1I PREFETCH  REQUESTED:          0  ISSUED:          0  USEFUL:          0  USELESS:          0
L1I USEFUL LOAD PREFETCHES:          0 PREFETCH ISSUED TO LOWER LEVEL:          0  ACCURACY: -nan
L1I TIMELY PREFETCHES:          0 LATE PREFETCHES: 0 DROPPED PREFETCHES: 0
L1I PREFETCHES SAME FILL-ORIGIN LEVEL: 0 DIFFERENT FILL-ORIGIN LEVEL: 0
L1I AVERAGE MISS LATENCY: 346.093 cycles
L1I RQ	ACCESS:  110765423	FORWARD:          0	MERGED:   54411304	TO_CACHE:   56354119

BTB BRANCH_DIRECT_JUMP	ACCESS:          0  HIT:          0  MISS:          0
BTB BRANCH_INDIRECT	ACCESS:          0  HIT:          0  MISS:          0
BTB BRANCH_CONDITIONAL	ACCESS:          0  HIT:          0  MISS:          0
BTB BRANCH_DIRECT_CALL	ACCESS:          0  HIT:          0  MISS:          0
BTB BRANCH_INDIRECT_CALL	ACCESS:          0  HIT:          0  MISS:          0
BTB BRANCH_RETURN	ACCESS:          0  HIT:          0  MISS:          0
BTB BRANCH_OTHER ACCESS:          0  HIT:          0  MISS:          0

L2C TOTAL     ACCESS:   21246200  HIT:   20697902  MISS:     548298  HIT %:    97.4193  MISS %:    2.58069   MPKI: 2.74149
L2C LOAD      ACCESS:     304662  HIT:     121391  MISS:     183271  HIT %:    39.8445  MISS %:    60.1555   MPKI: 0.916355
L2C DATA LOAD MPKI: 0.895815
L2C INSTRUCTION LOAD MPKI: 0.02054
L2C RFO       ACCESS:       4052  HIT:       2006  MISS:       2046  HIT %:    49.5064  MISS %:    50.4936   MPKI: 0.01023
L2C PREFETCH  ACCESS:    4924179  HIT:    4595287  MISS:     328892  HIT %:    93.3209  MISS %:    6.67912   MPKI: 1.64446
L2C DATA PREFETCH MPKI: 1.64446
L2C INSTRUCTION PREFETCH MPKI: 0
L2C WRITEBACK ACCESS:     240403  HIT:     221476  MISS:      18927  HIT %:     92.127  MISS %:    7.87303   MPKI: 0.094635
L2C LOAD TRANSLATION ACCESS:   14733945  HIT:   14719406  MISS:      14539  HIT %:    99.9013  MISS %:  0.0986769   MPKI: 0.072695
L2C TRANSLATION FROM L1D PREFETCHER ACCESS:    1038959  HIT:    1038336  MISS:        623  HIT %:      99.94  MISS %:  0.0599639   MPKI: 0.003115
L2C PREFETCH  REQUESTED:          0  ISSUED:          0  USEFUL:     114584  USELESS:     293264
L2C USEFUL LOAD PREFETCHES:     114584 PREFETCH ISSUED TO LOWER LEVEL:     407919  ACCURACY: 28.0899
L2C TIMELY PREFETCHES:     114584 LATE PREFETCHES: 1110 DROPPED PREFETCHES: 0
L2C PREFETCHES SAME FILL-ORIGIN LEVEL: 383537 DIFFERENT FILL-ORIGIN LEVEL: 0
L2C AVERAGE MISS LATENCY: 218.933 cycles
L2C RQ	ACCESS:   19835162	FORWARD:          0	MERGED:          0	TO_CACHE:   19835162
L2C WQ	ACCESS:     308705	FORWARD:          8	MERGED:          0	TO_CACHE:     308705
L2C PQ	ACCESS:    6307232	FORWARD:          0	MERGED:       1904	TO_CACHE:    6305320

L2C Instructions Evicting Data 5101
L2C Translations Evicting Data 18052
L2C Data Evicting Data 617731
L2C Instructions Evicting Instructions 272
L2C Translations Evicting Instructions 178
L2C Data Evicting Instructions 4834
L2C Instructions Evicting Translations 151
L2C Translations Evicting Translations 589
L2C Data Evicting Translations 17416
L2C Dense regions hint from L2: 0
PSCL5 TOTAL     ACCESS:   15735364  HIT:   15735364  MISS:          0  HIT %:        100  MISS %:          0   MPKI: 0
PSCL5 LOAD TRANSLATION ACCESS:   14696834  HIT:   14696834  MISS:          0  HIT %:        100  MISS %:          0   MPKI: 0
PSCL5 TRANSLATION FROM L1D PREFETCHER ACCESS:    1038530  HIT:    1038530  MISS:          0  HIT %:        100  MISS %:          0   MPKI: 0
PSCL5 PREFETCH  REQUESTED:          0  ISSUED:          0  USEFUL:          0  USELESS:          0
PSCL5 USEFUL LOAD PREFETCHES:          0 PREFETCH ISSUED TO LOWER LEVEL:          0  ACCURACY: -nan
PSCL5 TIMELY PREFETCHES:          0 LATE PREFETCHES: 0 DROPPED PREFETCHES: 0
PSCL5 PREFETCHES SAME FILL-ORIGIN LEVEL: 0 DIFFERENT FILL-ORIGIN LEVEL: 0

PSCL4 TOTAL     ACCESS:   15735364  HIT:   15735364  MISS:          0  HIT %:        100  MISS %:          0   MPKI: 0
PSCL4 LOAD TRANSLATION ACCESS:   14696834  HIT:   14696834  MISS:          0  HIT %:        100  MISS %:          0   MPKI: 0
PSCL4 TRANSLATION FROM L1D PREFETCHER ACCESS:    1038530  HIT:    1038530  MISS:          0  HIT %:        100  MISS %:          0   MPKI: 0
PSCL4 PREFETCH  REQUESTED:          0  ISSUED:          0  USEFUL:          0  USELESS:          0
PSCL4 USEFUL LOAD PREFETCHES:          0 PREFETCH ISSUED TO LOWER LEVEL:          0  ACCURACY: -nan
PSCL4 TIMELY PREFETCHES:          0 LATE PREFETCHES: 0 DROPPED PREFETCHES: 0
PSCL4 PREFETCHES SAME FILL-ORIGIN LEVEL: 0 DIFFERENT FILL-ORIGIN LEVEL: 0

PSCL3 TOTAL     ACCESS:   15735177  HIT:   15735107  MISS:         70  HIT %:    99.9996  MISS %: 0.000444863   MPKI: 0.00035
PSCL3 LOAD TRANSLATION ACCESS:   14696663  HIT:   14696593  MISS:         70  HIT %:    99.9995  MISS %: 0.000476299   MPKI: 0.00035
PSCL3 TRANSLATION FROM L1D PREFETCHER ACCESS:    1038514  HIT:    1038514  MISS:          0  HIT %:        100  MISS %:          0   MPKI: 0
PSCL3 PREFETCH  REQUESTED:          0  ISSUED:          0  USEFUL:          0  USELESS:          0
PSCL3 USEFUL LOAD PREFETCHES:          0 PREFETCH ISSUED TO LOWER LEVEL:          0  ACCURACY: -nan
PSCL3 TIMELY PREFETCHES:          0 LATE PREFETCHES: 0 DROPPED PREFETCHES: 0
PSCL3 PREFETCHES SAME FILL-ORIGIN LEVEL: 0 DIFFERENT FILL-ORIGIN LEVEL: 0

PSCL2 TOTAL     ACCESS:   15735313  HIT:   15697884  MISS:      37429  HIT %:    99.7621  MISS %:   0.237866   MPKI: 0.187145
PSCL2 LOAD TRANSLATION ACCESS:   14697210  HIT:   14659781  MISS:      37429  HIT %:    99.7453  MISS %:   0.254667   MPKI: 0.187145
PSCL2 TRANSLATION FROM L1D PREFETCHER ACCESS:    1038103  HIT:    1038103  MISS:          0  HIT %:        100  MISS %:          0   MPKI: 0
PSCL2 PREFETCH  REQUESTED:          0  ISSUED:          0  USEFUL:          0  USELESS:          0
PSCL2 USEFUL LOAD PREFETCHES:          0 PREFETCH ISSUED TO LOWER LEVEL:          0  ACCURACY: -nan
PSCL2 TIMELY PREFETCHES:          0 LATE PREFETCHES: 0 DROPPED PREFETCHES: 0
PSCL2 PREFETCHES SAME FILL-ORIGIN LEVEL: 0 DIFFERENT FILL-ORIGIN LEVEL: 0

LLC TOTAL     ACCESS:     754204  HIT:     345252  MISS:     408952  HIT %:     45.777  MISS %:     54.223   MPKI: 2.04476
LLC LOAD      ACCESS:     182443  HIT:      55761  MISS:     126682  HIT %:    30.5635  MISS %:    69.4365   MPKI: 0.63341
LLC RFO       ACCESS:       2023  HIT:       1147  MISS:        876  HIT %:     56.698  MISS %:     43.302   MPKI: 0.00438
LLC PREFETCH  ACCESS:     329742  HIT:      76815  MISS:     252927  HIT %:    23.2955  MISS %:    76.7045   MPKI: 1.26463
LLC WRITEBACK ACCESS:     224834  HIT:     199810  MISS:      25024  HIT %:      88.87  MISS %:      11.13   MPKI: 0.12512
LLC LOAD TRANSLATION ACCESS:      14539  HIT:      11283  MISS:       3256  HIT %:    77.6051  MISS %:    22.3949   MPKI: 0.01628
LLC TRANSLATION FROM L1D PREFETCHER ACCESS:        623  HIT:        436  MISS:        187  HIT %:    69.9839  MISS %:    30.0161   MPKI: 0.000935
LLC PREFETCH  REQUESTED:          0  ISSUED:          0  USEFUL:     106990  USELESS:    1533211
LLC USEFUL LOAD PREFETCHES:     106990 PREFETCH ISSUED TO LOWER LEVEL:    1642428  ACCURACY: 6.51414
LLC TIMELY PREFETCHES:     106990 LATE PREFETCHES: 0 DROPPED PREFETCHES: 0
LLC PREFETCHES SAME FILL-ORIGIN LEVEL: 0 DIFFERENT FILL-ORIGIN LEVEL: 0
LLC AVERAGE MISS LATENCY: 1477.31 cycles
LLC RQ	ACCESS:    2089565	FORWARD:          0	MERGED:          0	TO_CACHE:    2089559
LLC WQ	ACCESS:    2293675	FORWARD:         17	MERGED:          0	TO_CACHE:    2293675
LLC PQ	ACCESS:    2754811	FORWARD:          0	MERGED:          0	TO_CACHE:    2754800

LLC Dense regions hint to LLC: 0

RAW hits: 6833898
Loads Generated: 34398401
Loads sent to L1D: 27564502
Stores Generated: 12825691
Stores sent to L1D: 12825691
Major fault: 0 Minor fault: 2232
Allocated PAGES: 16255

DRAM Statistics
 CHANNEL 0
 RQ ROW_BUFFER_HIT:     218127  ROW_BUFFER_MISS:    2582864
 DBUS_CONGESTED:        465
 WQ ROW_BUFFER_HIT:     253553  ROW_BUFFER_MISS:    1139261  FULL:          0

 AVG_CONGESTED_CYCLE: 4
 All warmup complete: 5
Channel 0 Bank busy for read cycles: 0
Channel 0 Bank busy for write cycles: 0
Channel 0
Rank 0
0banks busy for read cycles: 66417702
0banks busy for write cycles: 178707
1banks busy for read cycles: 93907995
1banks busy for write cycles: 22566067
2banks busy for read cycles: 52988636
2banks busy for write cycles: 14231103
3banks busy for read cycles: 26777283
3banks busy for write cycles: 10341525
4banks busy for read cycles: 12782360
4banks busy for write cycles: 8039203
5banks busy for read cycles: 5885080
5banks busy for write cycles: 6735229
6banks busy for read cycles: 2834217
6banks busy for write cycles: 6081729
7banks busy for read cycles: 1559994
7banks busy for write cycles: 6346817
8banks busy for read cycles: 1629800
8banks busy for write cycles: 8850559

CPU 0 Branch Prediction Accuracy: 99.8186% MPKI: 0.415665 Average ROB Occupancy at Mispredict: 131.227
Branch types
NOT_BRANCH: 0 0%
BRANCH_DIRECT_JUMP: 0 0%
BRANCH_INDIRECT: 0 0%
BRANCH_CONDITIONAL: 0 0%
BRANCH_DIRECT_CALL: 0 0%
BRANCH_INDIRECT_CALL: 0 0%
BRANCH_RETURN: 0 0%
BRANCH_OTHER: 0 0%


CPU 1 Branch Prediction Accuracy: 99.4912% MPKI: 1.02436 Average ROB Occupancy at Mispredict: 139.834
Branch types
NOT_BRANCH: 0 0%
BRANCH_DIRECT_JUMP: 0 0%
BRANCH_INDIRECT: 0 0%
BRANCH_CONDITIONAL: 0 0%
BRANCH_DIRECT_CALL: 0 0%
BRANCH_INDIRECT_CALL: 0 0%
BRANCH_RETURN: 0 0%
BRANCH_OTHER: 0 0%


CPU 2 Branch Prediction Accuracy: 99.7532% MPKI: 0.564993 Average ROB Occupancy at Mispredict: 121.475
Branch types
NOT_BRANCH: 0 0%
BRANCH_DIRECT_JUMP: 0 0%
BRANCH_INDIRECT: 0 0%
BRANCH_CONDITIONAL: 0 0%
BRANCH_DIRECT_CALL: 0 0%
BRANCH_INDIRECT_CALL: 0 0%
BRANCH_RETURN: 0 0%
BRANCH_OTHER: 0 0%


CPU 3 Branch Prediction Accuracy: 99.8575% MPKI: 0.29805 Average ROB Occupancy at Mispredict: 126.379
Branch types
NOT_BRANCH: 0 0%
BRANCH_DIRECT_JUMP: 0 0%
BRANCH_INDIRECT: 0 0%
BRANCH_CONDITIONAL: 0 0%
BRANCH_DIRECT_CALL: 0 0%
BRANCH_INDIRECT_CALL: 0 0%
BRANCH_RETURN: 0 0%
BRANCH_OTHER: 0 0%

DRAM PAGES: 1048576
Allocated PAGES: 16255
