
*** ChampSim Multicore Out-of-Order Simulator ***

Warmup Instructions: 50000000
Simulation Instructions: 200000000
Number of CPUs: 4
LLC sets: 8192
LLC ways: 16
Off-chip DRAM Size: 4096 MB Channels: 1 Width: 64-bit Data Rate: 6400 MT/s
CPU 0 runs ./traces/spec/657.xz_s-2302B.champsimtrace.xz
.xz
CPU 1 runs ./traces/ligra/ligra_CF.com-lj.ungraph.gcc_6.3.0_O3.drop_2500M.length_250M.champsimtrace.xz
.xz
CPU 2 runs ./traces/spec/607.cactuBSSN_s-2421B.champsimtrace.xz
.xz
CPU 3 runs ./traces/spec/482.sphinx3-1395B.champsimtrace.xz
.xz
BTB has LRU replacement policy
ITLB has LRU replacement policy
DTLB has LRU replacement policy
STLB has LRU replacement policy
L1I has LRU replacement policy
History Sets: 8
History Ways: 16
BERTI Size: 16
BERTI Stride Size: 8
L1D has LRU replacement policy
Initialize SRRIP state for L2C
Initialize DRRIP state for LLC
BTB has LRU replacement policy
ITLB has LRU replacement policy
DTLB has LRU replacement policy
STLB has LRU replacement policy
L1I has LRU replacement policy
History Sets: 8
History Ways: 16
BERTI Size: 16
BERTI Stride Size: 8
L1D has LRU replacement policy
Initialize SRRIP state for L2C
Initialize DRRIP state for LLC
BTB has LRU replacement policy
ITLB has LRU replacement policy
DTLB has LRU replacement policy
STLB has LRU replacement policy
L1I has LRU replacement policy
History Sets: 8
History Ways: 16
BERTI Size: 16
BERTI Stride Size: 8
L1D has LRU replacement policy
Initialize SRRIP state for L2C
Initialize DRRIP state for LLC
BTB has LRU replacement policy
ITLB has LRU replacement policy
DTLB has LRU replacement policy
STLB has LRU replacement policy
L1I has LRU replacement policy
History Sets: 8
History Ways: 16
BERTI Size: 16
BERTI Stride Size: 8
L1D has LRU replacement policy
Initialize SRRIP state for L2C
Initialize DRRIP state for LLC
Heartbeat CPU 0 instructions: 10000003 cycles: 2791206 heartbeat IPC: 3.58268 cumulative IPC: 3.58268 (Simulation time: 0 hr 2 min 43 sec) 
Heartbeat CPU 3 instructions: 10000002 cycles: 2867503 heartbeat IPC: 3.48736 cumulative IPC: 3.48736 (Simulation time: 0 hr 2 min 48 sec) 
Heartbeat CPU 1 instructions: 10000002 cycles: 3333346 heartbeat IPC: 2.99999 cumulative IPC: 2.99999 (Simulation time: 0 hr 3 min 16 sec) 
Heartbeat CPU 2 instructions: 10000002 cycles: 3581400 heartbeat IPC: 2.7922 cumulative IPC: 2.7922 (Simulation time: 0 hr 3 min 30 sec) 
Heartbeat CPU 0 instructions: 20000002 cycles: 5586442 heartbeat IPC: 3.57752 cumulative IPC: 3.5801 (Simulation time: 0 hr 5 min 29 sec) 
Heartbeat CPU 3 instructions: 20000000 cycles: 5716399 heartbeat IPC: 3.51013 cumulative IPC: 3.49871 (Simulation time: 0 hr 5 min 36 sec) 
Heartbeat CPU 1 instructions: 20000000 cycles: 6666679 heartbeat IPC: 3 cumulative IPC: 2.99999 (Simulation time: 0 hr 6 min 32 sec) 
Heartbeat CPU 2 instructions: 20000001 cycles: 7152291 heartbeat IPC: 2.80042 cumulative IPC: 2.79631 (Simulation time: 0 hr 7 min 2 sec) 
Heartbeat CPU 0 instructions: 30000000 cycles: 8412606 heartbeat IPC: 3.53836 cumulative IPC: 3.56608 (Simulation time: 0 hr 8 min 16 sec) 
Heartbeat CPU 3 instructions: 30000002 cycles: 8560811 heartbeat IPC: 3.51567 cumulative IPC: 3.50434 (Simulation time: 0 hr 8 min 25 sec) 
Heartbeat CPU 1 instructions: 30000000 cycles: 10000012 heartbeat IPC: 3 cumulative IPC: 3 (Simulation time: 0 hr 9 min 52 sec) 
Heartbeat CPU 2 instructions: 30000002 cycles: 10729122 heartbeat IPC: 2.79577 cumulative IPC: 2.79613 (Simulation time: 0 hr 10 min 36 sec) 
Heartbeat CPU 0 instructions: 40000003 cycles: 11199174 heartbeat IPC: 3.58864 cumulative IPC: 3.57169 (Simulation time: 0 hr 11 min 7 sec) 
Heartbeat CPU 3 instructions: 40000002 cycles: 11419088 heartbeat IPC: 3.49861 cumulative IPC: 3.50291 (Simulation time: 0 hr 11 min 21 sec) 
Heartbeat CPU 1 instructions: 40000003 cycles: 13333346 heartbeat IPC: 3 cumulative IPC: 3 (Simulation time: 0 hr 13 min 18 sec) 
Heartbeat CPU 0 instructions: 50000000 cycles: 13991614 heartbeat IPC: 3.5811 cumulative IPC: 3.57357 (Simulation time: 0 hr 14 min 0 sec) 
Heartbeat CPU 3 instructions: 50000003 cycles: 14252250 heartbeat IPC: 3.52963 cumulative IPC: 3.50822 (Simulation time: 0 hr 14 min 12 sec) 
Heartbeat CPU 2 instructions: 40000003 cycles: 14305977 heartbeat IPC: 2.79575 cumulative IPC: 2.79603 (Simulation time: 0 hr 14 min 15 sec) 
Heartbeat CPU 1 instructions: 50000001 cycles: 16666679 heartbeat IPC: 3 cumulative IPC: 3 (Simulation time: 0 hr 16 min 19 sec) 
Heartbeat CPU 3 instructions: 60000001 cycles: 17184904 heartbeat IPC: 3.40988 cumulative IPC: 0.581906 (Simulation time: 0 hr 16 min 45 sec) 
Heartbeat CPU 0 instructions: 60000002 cycles: 17646908 heartbeat IPC: 2.73576 cumulative IPC: 0.566672 (Simulation time: 0 hr 17 min 5 sec) 
Heartbeat CPU 2 instructions: 50000003 cycles: 17880203 heartbeat IPC: 2.79781 cumulative IPC: 2.79639 (Simulation time: 0 hr 17 min 16 sec) 

Warmup complete CPU 0 instructions: 60645830 cycles: 17880203 (Simulation time: 0 hr 17 min 16 sec) 
Warmup complete CPU 1 instructions: 52524910 cycles: 17880203 (Simulation time: 0 hr 17 min 16 sec) 
Warmup complete CPU 2 instructions: 50000003 cycles: 17880203 (Simulation time: 0 hr 17 min 16 sec) 
Warmup complete CPU 3 instructions: 62293780 cycles: 17880202 (Simulation time: 0 hr 17 min 16 sec) 

Heartbeat CPU 3 instructions: 70000000 cycles: 23311140 heartbeat IPC: 1.63232 cumulative IPC: 1.41895 (Simulation time: 0 hr 19 min 21 sec) 
Heartbeat CPU 1 instructions: 60000002 cycles: 26849370 heartbeat IPC: 0.982059 cumulative IPC: 0.833421 (Simulation time: 0 hr 20 min 43 sec) 
Heartbeat CPU 2 instructions: 60000000 cycles: 27560597 heartbeat IPC: 1.03302 cumulative IPC: 1.03302 (Simulation time: 0 hr 20 min 57 sec) 
Heartbeat CPU 3 instructions: 80000002 cycles: 30789079 heartbeat IPC: 1.33727 cumulative IPC: 1.37163 (Simulation time: 0 hr 22 min 8 sec) 
Heartbeat CPU 0 instructions: 70000000 cycles: 31684575 heartbeat IPC: 0.712369 cumulative IPC: 0.677624 (Simulation time: 0 hr 22 min 30 sec) 
Heartbeat CPU 2 instructions: 70000003 cycles: 36745187 heartbeat IPC: 1.08878 cumulative IPC: 1.06017 (Simulation time: 0 hr 24 min 27 sec) 
Heartbeat CPU 3 instructions: 90000001 cycles: 37227569 heartbeat IPC: 1.55316 cumulative IPC: 1.43204 (Simulation time: 0 hr 24 min 37 sec) 
Heartbeat CPU 1 instructions: 70000000 cycles: 38828563 heartbeat IPC: 0.834781 cumulative IPC: 0.834198 (Simulation time: 0 hr 25 min 11 sec) 
Heartbeat CPU 3 instructions: 100000001 cycles: 43112048 heartbeat IPC: 1.69939 cumulative IPC: 1.49439 (Simulation time: 0 hr 26 min 48 sec) 
Heartbeat CPU 2 instructions: 80000001 cycles: 45639004 heartbeat IPC: 1.12438 cumulative IPC: 1.08074 (Simulation time: 0 hr 27 min 37 sec) 
Heartbeat CPU 0 instructions: 80000003 cycles: 46899319 heartbeat IPC: 0.657257 cumulative IPC: 0.666946 (Simulation time: 0 hr 28 min 5 sec) 
Heartbeat CPU 3 instructions: 110000000 cycles: 50717507 heartbeat IPC: 1.31484 cumulative IPC: 1.45281 (Simulation time: 0 hr 29 min 28 sec) 
Heartbeat CPU 1 instructions: 80000000 cycles: 50833358 heartbeat IPC: 0.833 cumulative IPC: 0.833762 (Simulation time: 0 hr 29 min 30 sec) 
Heartbeat CPU 2 instructions: 90000000 cycles: 55096927 heartbeat IPC: 1.05731 cumulative IPC: 1.07479 (Simulation time: 0 hr 31 min 3 sec) 
Heartbeat CPU 3 instructions: 120000002 cycles: 57410066 heartbeat IPC: 1.4942 cumulative IPC: 1.45981 (Simulation time: 0 hr 31 min 50 sec) 
Heartbeat CPU 1 instructions: 90000003 cycles: 62833676 heartbeat IPC: 0.833311 cumulative IPC: 0.833642 (Simulation time: 0 hr 33 min 56 sec) 
Heartbeat CPU 0 instructions: 90000002 cycles: 62917355 heartbeat IPC: 0.624296 cumulative IPC: 0.651777 (Simulation time: 0 hr 33 min 58 sec) 
Heartbeat CPU 3 instructions: 130000002 cycles: 63541572 heartbeat IPC: 1.63092 cumulative IPC: 1.48279 (Simulation time: 0 hr 34 min 13 sec) 
Heartbeat CPU 2 instructions: 100000000 cycles: 64071532 heartbeat IPC: 1.11426 cumulative IPC: 1.08245 (Simulation time: 0 hr 34 min 26 sec) 
Heartbeat CPU 3 instructions: 140000002 cycles: 69300877 heartbeat IPC: 1.73632 cumulative IPC: 1.51119 (Simulation time: 0 hr 36 min 34 sec) 
Heartbeat CPU 2 instructions: 110000000 cycles: 72950790 heartbeat IPC: 1.12622 cumulative IPC: 1.08951 (Simulation time: 0 hr 38 min 2 sec) 
Heartbeat CPU 1 instructions: 100000000 cycles: 74830659 heartbeat IPC: 0.833543 cumulative IPC: 0.833621 (Simulation time: 0 hr 38 min 41 sec) 
Heartbeat CPU 3 instructions: 150000001 cycles: 75528053 heartbeat IPC: 1.60586 cumulative IPC: 1.52141 (Simulation time: 0 hr 38 min 56 sec) 
Heartbeat CPU 0 instructions: 100000001 cycles: 77166910 heartbeat IPC: 0.701776 cumulative IPC: 0.663794 (Simulation time: 0 hr 39 min 31 sec) 
Heartbeat CPU 3 instructions: 160000002 cycles: 81249700 heartbeat IPC: 1.74775 cumulative IPC: 1.54185 (Simulation time: 0 hr 41 min 11 sec) 
Heartbeat CPU 2 instructions: 120000000 cycles: 81760419 heartbeat IPC: 1.13512 cumulative IPC: 1.0958 (Simulation time: 0 hr 41 min 23 sec) 
Heartbeat CPU 1 instructions: 110000000 cycles: 86824735 heartbeat IPC: 0.833745 cumulative IPC: 0.833642 (Simulation time: 0 hr 43 min 20 sec) 
Heartbeat CPU 3 instructions: 170000000 cycles: 87143538 heartbeat IPC: 1.69669 cumulative IPC: 1.55502 (Simulation time: 0 hr 43 min 28 sec) 
Heartbeat CPU 2 instructions: 130000000 cycles: 90821154 heartbeat IPC: 1.10366 cumulative IPC: 1.09678 (Simulation time: 0 hr 44 min 55 sec) 
Heartbeat CPU 0 instructions: 110000000 cycles: 92381707 heartbeat IPC: 0.657255 cumulative IPC: 0.662459 (Simulation time: 0 hr 45 min 31 sec) 
Heartbeat CPU 3 instructions: 180000001 cycles: 94006574 heartbeat IPC: 1.45708 cumulative IPC: 1.5462 (Simulation time: 0 hr 46 min 1 sec) 
Heartbeat CPU 1 instructions: 120000001 cycles: 98820211 heartbeat IPC: 0.833648 cumulative IPC: 0.833643 (Simulation time: 0 hr 47 min 44 sec) 
Heartbeat CPU 2 instructions: 140000002 cycles: 100421482 heartbeat IPC: 1.04163 cumulative IPC: 1.09036 (Simulation time: 0 hr 48 min 18 sec) 
Heartbeat CPU 3 instructions: 190000000 cycles: 101260958 heartbeat IPC: 1.37848 cumulative IPC: 1.5316 (Simulation time: 0 hr 48 min 35 sec) 
Heartbeat CPU 3 instructions: 200000001 cycles: 108653466 heartbeat IPC: 1.35272 cumulative IPC: 1.51704 (Simulation time: 0 hr 51 min 11 sec) 
Heartbeat CPU 0 instructions: 120000003 cycles: 108934634 heartbeat IPC: 0.604123 cumulative IPC: 0.651854 (Simulation time: 0 hr 51 min 18 sec) 
Heartbeat CPU 2 instructions: 150000000 cycles: 109983621 heartbeat IPC: 1.04579 cumulative IPC: 1.08574 (Simulation time: 0 hr 51 min 37 sec) 
Heartbeat CPU 1 instructions: 130000000 cycles: 110817272 heartbeat IPC: 0.833537 cumulative IPC: 0.83363 (Simulation time: 0 hr 51 min 52 sec) 
Heartbeat CPU 3 instructions: 210000002 cycles: 116179895 heartbeat IPC: 1.32865 cumulative IPC: 1.50261 (Simulation time: 0 hr 53 min 39 sec) 
Heartbeat CPU 2 instructions: 160000002 cycles: 119194072 heartbeat IPC: 1.08572 cumulative IPC: 1.08573 (Simulation time: 0 hr 54 min 45 sec) 
Heartbeat CPU 1 instructions: 140000000 cycles: 122810547 heartbeat IPC: 0.833801 cumulative IPC: 0.833649 (Simulation time: 0 hr 56 min 5 sec) 
Heartbeat CPU 3 instructions: 220000000 cycles: 123405310 heartbeat IPC: 1.384 cumulative IPC: 1.49449 (Simulation time: 0 hr 56 min 18 sec) 
Heartbeat CPU 0 instructions: 130000001 cycles: 125697732 heartbeat IPC: 0.596548 cumulative IPC: 0.643255 (Simulation time: 0 hr 57 min 7 sec) 
Heartbeat CPU 2 instructions: 170000000 cycles: 128564963 heartbeat IPC: 1.06713 cumulative IPC: 1.08416 (Simulation time: 0 hr 58 min 6 sec) 
Heartbeat CPU 3 instructions: 230000003 cycles: 131287189 heartbeat IPC: 1.26873 cumulative IPC: 1.4788 (Simulation time: 0 hr 59 min 5 sec) 
Heartbeat CPU 1 instructions: 150000000 cycles: 134811425 heartbeat IPC: 0.833272 cumulative IPC: 0.83361 (Simulation time: 1 hr 0 min 17 sec) 
Heartbeat CPU 2 instructions: 180000001 cycles: 138006361 heartbeat IPC: 1.05917 cumulative IPC: 1.0822 (Simulation time: 1 hr 1 min 17 sec) 
Heartbeat CPU 3 instructions: 240000001 cycles: 139437377 heartbeat IPC: 1.22697 cumulative IPC: 1.46191 (Simulation time: 1 hr 1 min 46 sec) 
Heartbeat CPU 0 instructions: 140000000 cycles: 140032013 heartbeat IPC: 0.697628 cumulative IPC: 0.649636 (Simulation time: 1 hr 2 min 0 sec) 
Heartbeat CPU 1 instructions: 160000001 cycles: 146814199 heartbeat IPC: 0.833141 cumulative IPC: 0.833567 (Simulation time: 1 hr 4 min 26 sec) 
Heartbeat CPU 3 instructions: 250000000 cycles: 147473622 heartbeat IPC: 1.24436 cumulative IPC: 1.44842 (Simulation time: 1 hr 4 min 40 sec) 
Heartbeat CPU 2 instructions: 190000002 cycles: 147505738 heartbeat IPC: 1.0527 cumulative IPC: 1.08003 (Simulation time: 1 hr 4 min 41 sec) 
Heartbeat CPU 3 instructions: 260000000 cycles: 155574950 heartbeat IPC: 1.23437 cumulative IPC: 1.43583 (Simulation time: 1 hr 7 min 32 sec) 
Heartbeat CPU 0 instructions: 150000003 cycles: 157045688 heartbeat IPC: 0.587763 cumulative IPC: 0.642071 (Simulation time: 1 hr 8 min 1 sec) 
Heartbeat CPU 2 instructions: 200000001 cycles: 157144167 heartbeat IPC: 1.03751 cumulative IPC: 1.07709 (Simulation time: 1 hr 8 min 3 sec) 
Finished CPU 3 instructions: 200000000 cycles: 139427110 cumulative IPC: 1.43444 (Simulation time: 1 hr 8 min 8 sec) 
Heartbeat CPU 1 instructions: 170000001 cycles: 158815800 heartbeat IPC: 0.833222 cumulative IPC: 0.833537 (Simulation time: 1 hr 8 min 40 sec) 
Heartbeat CPU 3 instructions: 270000000 cycles: 163368326 heartbeat IPC: 1.28314 cumulative IPC: 1.42765 (Simulation time: 1 hr 10 min 21 sec) 
Heartbeat CPU 2 instructions: 210000003 cycles: 167075917 heartbeat IPC: 1.00687 cumulative IPC: 1.07242 (Simulation time: 1 hr 11 min 43 sec) 
Heartbeat CPU 1 instructions: 180000001 cycles: 167646239 heartbeat IPC: 1.13245 cumulative IPC: 0.851162 (Simulation time: 1 hr 11 min 53 sec) 
Heartbeat CPU 3 instructions: 280000001 cycles: 170948117 heartbeat IPC: 1.3193 cumulative IPC: 1.42229 (Simulation time: 1 hr 13 min 5 sec) 
Heartbeat CPU 0 instructions: 160000003 cycles: 174298626 heartbeat IPC: 0.579611 cumulative IPC: 0.635182 (Simulation time: 1 hr 14 min 25 sec) 
Heartbeat CPU 1 instructions: 190000001 cycles: 176050957 heartbeat IPC: 1.18981 cumulative IPC: 0.869156 (Simulation time: 1 hr 15 min 8 sec) 
Heartbeat CPU 2 instructions: 220000000 cycles: 176645405 heartbeat IPC: 1.04499 cumulative IPC: 1.07076 (Simulation time: 1 hr 15 min 24 sec) 
Heartbeat CPU 3 instructions: 290000002 cycles: 178074294 heartbeat IPC: 1.40328 cumulative IPC: 1.42144 (Simulation time: 1 hr 15 min 58 sec) 
Heartbeat CPU 1 instructions: 200000001 cycles: 184457357 heartbeat IPC: 1.18957 cumulative IPC: 0.885326 (Simulation time: 1 hr 18 min 35 sec) 
Heartbeat CPU 3 instructions: 300000003 cycles: 185020330 heartbeat IPC: 1.43967 cumulative IPC: 1.4222 (Simulation time: 1 hr 18 min 51 sec) 
Heartbeat CPU 2 instructions: 230000003 cycles: 186209464 heartbeat IPC: 1.04558 cumulative IPC: 1.06933 (Simulation time: 1 hr 19 min 21 sec) 
Heartbeat CPU 0 instructions: 170000000 cycles: 187544398 heartbeat IPC: 0.754958 cumulative IPC: 0.644533 (Simulation time: 1 hr 19 min 56 sec) 
Heartbeat CPU 3 instructions: 310000003 cycles: 191674489 heartbeat IPC: 1.50282 cumulative IPC: 1.42528 (Simulation time: 1 hr 21 min 40 sec) 
Heartbeat CPU 1 instructions: 210000000 cycles: 192855748 heartbeat IPC: 1.1907 cumulative IPC: 0.899983 (Simulation time: 1 hr 22 min 6 sec) 
Heartbeat CPU 2 instructions: 240000000 cycles: 195543711 heartbeat IPC: 1.07132 cumulative IPC: 1.06944 (Simulation time: 1 hr 23 min 10 sec) 
Heartbeat CPU 0 instructions: 180000001 cycles: 199281741 heartbeat IPC: 0.851982 cumulative IPC: 0.657956 (Simulation time: 1 hr 24 min 40 sec) 
Heartbeat CPU 3 instructions: 320000003 cycles: 199721022 heartbeat IPC: 1.24277 cumulative IPC: 1.41721 (Simulation time: 1 hr 24 min 51 sec) 
Heartbeat CPU 1 instructions: 220000000 cycles: 201263704 heartbeat IPC: 1.18935 cumulative IPC: 0.913251 (Simulation time: 1 hr 25 min 29 sec) 
Heartbeat CPU 2 instructions: 250000000 cycles: 205008146 heartbeat IPC: 1.05659 cumulative IPC: 1.06879 (Simulation time: 1 hr 26 min 58 sec) 
Finished CPU 2 instructions: 200000001 cycles: 187127944 cumulative IPC: 1.06879 (Simulation time: 1 hr 26 min 58 sec) 
Heartbeat CPU 3 instructions: 330000000 cycles: 208071115 heartbeat IPC: 1.19759 cumulative IPC: 1.40757 (Simulation time: 1 hr 28 min 12 sec) 
Heartbeat CPU 1 instructions: 230000001 cycles: 209672169 heartbeat IPC: 1.18928 cumulative IPC: 0.925352 (Simulation time: 1 hr 28 min 48 sec) 
Heartbeat CPU 0 instructions: 190000002 cycles: 210976442 heartbeat IPC: 0.855088 cumulative IPC: 0.669895 (Simulation time: 1 hr 29 min 16 sec) 
Heartbeat CPU 2 instructions: 260000000 cycles: 214435826 heartbeat IPC: 1.06071 cumulative IPC: 1.0684 (Simulation time: 1 hr 30 min 41 sec) 
Heartbeat CPU 3 instructions: 340000003 cycles: 216290258 heartbeat IPC: 1.21667 cumulative IPC: 1.39966 (Simulation time: 1 hr 31 min 26 sec) 
Heartbeat CPU 1 instructions: 240000002 cycles: 218076650 heartbeat IPC: 1.18984 cumulative IPC: 0.936456 (Simulation time: 1 hr 32 min 12 sec) 
Heartbeat CPU 0 instructions: 200000002 cycles: 222752593 heartbeat IPC: 0.849174 cumulative IPC: 0.6802 (Simulation time: 1 hr 33 min 57 sec) 
Heartbeat CPU 3 instructions: 350000000 cycles: 223712136 heartbeat IPC: 1.34737 cumulative IPC: 1.39777 (Simulation time: 1 hr 34 min 24 sec) 
Heartbeat CPU 2 instructions: 270000003 cycles: 223798442 heartbeat IPC: 1.06808 cumulative IPC: 1.06839 (Simulation time: 1 hr 34 min 26 sec) 
*** Reached end of trace for Core: 1 Repeating trace: ./traces/ligra/ligra_CF.com-lj.ungraph.gcc_6.3.0_O3.drop_2500M.length_250M.champsimtrace.xz
Heartbeat CPU 1 instructions: 250000000 cycles: 226478295 heartbeat IPC: 1.19024 cumulative IPC: 0.946677 (Simulation time: 1 hr 35 min 26 sec) 
Finished CPU 1 instructions: 200000001 cycles: 211604650 cumulative IPC: 0.945159 (Simulation time: 1 hr 36 min 36 sec) 
Heartbeat CPU 3 instructions: 360000000 cycles: 232081170 heartbeat IPC: 1.19488 cumulative IPC: 1.38985 (Simulation time: 1 hr 37 min 35 sec) 
Heartbeat CPU 2 instructions: 280000002 cycles: 233010624 heartbeat IPC: 1.08552 cumulative IPC: 1.06912 (Simulation time: 1 hr 37 min 58 sec) 
Heartbeat CPU 0 instructions: 210000000 cycles: 234563368 heartbeat IPC: 0.846684 cumulative IPC: 0.689274 (Simulation time: 1 hr 38 min 30 sec) 
Heartbeat CPU 1 instructions: 260000000 cycles: 238388636 heartbeat IPC: 0.839607 cumulative IPC: 0.940894 (Simulation time: 1 hr 39 min 54 sec) 
Heartbeat CPU 3 instructions: 370000000 cycles: 239736031 heartbeat IPC: 1.30636 cumulative IPC: 1.38696 (Simulation time: 1 hr 40 min 25 sec) 
Heartbeat CPU 2 instructions: 290000000 cycles: 242152513 heartbeat IPC: 1.09387 cumulative IPC: 1.07013 (Simulation time: 1 hr 41 min 15 sec) 
Heartbeat CPU 0 instructions: 220000000 cycles: 246444868 heartbeat IPC: 0.841645 cumulative IPC: 0.697195 (Simulation time: 1 hr 42 min 56 sec) 
Heartbeat CPU 3 instructions: 380000002 cycles: 247787231 heartbeat IPC: 1.24205 cumulative IPC: 1.38189 (Simulation time: 1 hr 43 min 24 sec) 
Heartbeat CPU 1 instructions: 270000002 cycles: 250298918 heartbeat IPC: 0.839611 cumulative IPC: 0.935704 (Simulation time: 1 hr 44 min 22 sec) 
Heartbeat CPU 2 instructions: 300000001 cycles: 251237377 heartbeat IPC: 1.10073 cumulative IPC: 1.07132 (Simulation time: 1 hr 44 min 41 sec) 
Heartbeat CPU 3 instructions: 390000000 cycles: 255755913 heartbeat IPC: 1.25491 cumulative IPC: 1.37764 (Simulation time: 1 hr 46 min 19 sec) 
Heartbeat CPU 0 instructions: 230000003 cycles: 258684046 heartbeat IPC: 0.817049 cumulative IPC: 0.703287 (Simulation time: 1 hr 47 min 23 sec) 
Heartbeat CPU 2 instructions: 310000002 cycles: 260385869 heartbeat IPC: 1.09308 cumulative IPC: 1.07214 (Simulation time: 1 hr 48 min 1 sec) 
Heartbeat CPU 1 instructions: 280000003 cycles: 262210992 heartbeat IPC: 0.839484 cumulative IPC: 0.931013 (Simulation time: 1 hr 48 min 38 sec) 
Heartbeat CPU 3 instructions: 400000000 cycles: 263216235 heartbeat IPC: 1.34042 cumulative IPC: 1.3765 (Simulation time: 1 hr 49 min 2 sec) 
Heartbeat CPU 2 instructions: 320000002 cycles: 269571952 heartbeat IPC: 1.0886 cumulative IPC: 1.07274 (Simulation time: 1 hr 51 min 22 sec) 
Heartbeat CPU 0 instructions: 240000001 cycles: 271012980 heartbeat IPC: 0.8111 cumulative IPC: 0.708538 (Simulation time: 1 hr 51 min 51 sec) 
Heartbeat CPU 3 instructions: 410000000 cycles: 271583907 heartbeat IPC: 1.19508 cumulative IPC: 1.37052 (Simulation time: 1 hr 52 min 4 sec) 
Heartbeat CPU 1 instructions: 290000002 cycles: 274120913 heartbeat IPC: 0.839636 cumulative IPC: 0.926766 (Simulation time: 1 hr 53 min 1 sec) 
Heartbeat CPU 2 instructions: 330000000 cycles: 278854174 heartbeat IPC: 1.07733 cumulative IPC: 1.0729 (Simulation time: 1 hr 54 min 50 sec) 
Heartbeat CPU 3 instructions: 420000000 cycles: 279263230 heartbeat IPC: 1.3022 cumulative IPC: 1.36851 (Simulation time: 1 hr 54 min 59 sec) 
Heartbeat CPU 0 instructions: 250000003 cycles: 283497040 heartbeat IPC: 0.801022 cumulative IPC: 0.712885 (Simulation time: 1 hr 56 min 33 sec) 
Heartbeat CPU 1 instructions: 300000001 cycles: 286025212 heartbeat IPC: 0.840033 cumulative IPC: 0.922915 (Simulation time: 1 hr 57 min 29 sec) 
Heartbeat CPU 3 instructions: 430000001 cycles: 287569662 heartbeat IPC: 1.20389 cumulative IPC: 1.36344 (Simulation time: 1 hr 58 min 2 sec) 
Heartbeat CPU 2 instructions: 340000000 cycles: 288118793 heartbeat IPC: 1.07938 cumulative IPC: 1.07313 (Simulation time: 1 hr 58 min 16 sec) 
Heartbeat CPU 3 instructions: 440000000 cycles: 294308927 heartbeat IPC: 1.48384 cumulative IPC: 1.36638 (Simulation time: 2 hr 0 min 42 sec) 
Heartbeat CPU 0 instructions: 260000000 cycles: 295612533 heartbeat IPC: 0.825389 cumulative IPC: 0.717792 (Simulation time: 2 hr 1 min 13 sec) 
Finished CPU 0 instructions: 200000000 cycles: 278570496 cumulative IPC: 0.717951 (Simulation time: 2 hr 1 min 36 sec) 

ChampSim completed all CPUs

Total Simulation Statistics (not including warmup)

CPU 0 cumulative IPC: 0.717951 instructions: 200000000 cycles: 278570496
ITLB TOTAL     ACCESS:   28589527  HIT:   28589527  MISS:          0  HIT %:        100  MISS %:          0   MPKI: 0
ITLB LOAD      ACCESS:          0  HIT:          0  MISS:          0  HIT %:       -nan  MISS %:       -nan   MPKI: 0
ITLB RFO       ACCESS:          0  HIT:          0  MISS:          0  HIT %:       -nan  MISS %:       -nan   MPKI: 0
ITLB PREFETCH  ACCESS:          0  HIT:          0  MISS:          0  HIT %:       -nan  MISS %:       -nan   MPKI: 0
ITLB WRITEBACK ACCESS:          0  HIT:          0  MISS:          0  HIT %:       -nan  MISS %:       -nan   MPKI: 0
DTLB TOTAL     ACCESS:   38019942  HIT:   37134470  MISS:     885472  HIT %:     97.671  MISS %:    2.32897   MPKI: 4.42736
DTLB LOAD      ACCESS:          0  HIT:          0  MISS:          0  HIT %:       -nan  MISS %:       -nan   MPKI: 0
DTLB RFO       ACCESS:          0  HIT:          0  MISS:          0  HIT %:       -nan  MISS %:       -nan   MPKI: 0
DTLB PREFETCH  ACCESS:          0  HIT:          0  MISS:          0  HIT %:       -nan  MISS %:       -nan   MPKI: 0
DTLB WRITEBACK ACCESS:          0  HIT:          0  MISS:          0  HIT %:       -nan  MISS %:       -nan   MPKI: 0
STLB TOTAL     ACCESS:    7703995  HIT:    7578482  MISS:     125513  HIT %:    98.3708  MISS %:    1.62919   MPKI: 0.627565
STLB LOAD      ACCESS:          0  HIT:          0  MISS:          0  HIT %:       -nan  MISS %:       -nan   MPKI: 0
STLB RFO       ACCESS:          0  HIT:          0  MISS:          0  HIT %:       -nan  MISS %:       -nan   MPKI: 0
STLB PREFETCH  ACCESS:          0  HIT:          0  MISS:          0  HIT %:       -nan  MISS %:       -nan   MPKI: 0
STLB WRITEBACK ACCESS:          0  HIT:          0  MISS:          0  HIT %:       -nan  MISS %:       -nan   MPKI: 0
L1D TOTAL     ACCESS:   58138919  HIT:   57050718  MISS:    1088201  HIT %:    98.1283  MISS %:    1.87173   MPKI: 5.441
L1D LOAD      ACCESS:   31103215  HIT:   30153221  MISS:     949994  HIT %:    96.9457  MISS %:    3.05433   MPKI: 4.74997
L1D RFO       ACCESS:   17086347  HIT:   16955952  MISS:     130395  HIT %:    99.2368  MISS %:   0.763153   MPKI: 0.651975
L1D PREFETCH  ACCESS:    9949357  HIT:    9941545  MISS:       7812  HIT %:    99.9215  MISS %:  0.0785176   MPKI: 0.03906
L1D WRITEBACK ACCESS:          0  HIT:          0  MISS:          0  HIT %:       -nan  MISS %:       -nan   MPKI: 0
L1I TOTAL     ACCESS:   34142964  HIT:   34142589  MISS:        375  HIT %:    99.9989  MISS %: 0.00109832   MPKI: 0.001875
L1I LOAD      ACCESS:   34142964  HIT:   34142589  MISS:        375  HIT %:    99.9989  MISS %: 0.00109832   MPKI: 0.001875
L1I RFO       ACCESS:          0  HIT:          0  MISS:          0  HIT %:       -nan  MISS %:       -nan   MPKI: 0
L1I PREFETCH  ACCESS:          0  HIT:          0  MISS:          0  HIT %:       -nan  MISS %:       -nan   MPKI: 0
L1I WRITEBACK ACCESS:          0  HIT:          0  MISS:          0  HIT %:       -nan  MISS %:       -nan   MPKI: 0
L2C TOTAL     ACCESS:    8826939  HIT:    8154567  MISS:     672372  HIT %:    92.3827  MISS %:    7.61727   MPKI: 3.36186
L2C LOAD      ACCESS:     950255  HIT:     484437  MISS:     465818  HIT %:    50.9797  MISS %:    49.0203   MPKI: 2.32909
L2C RFO       ACCESS:     130368  HIT:      82979  MISS:      47389  HIT %:    63.6498  MISS %:    36.3502   MPKI: 0.236945
L2C PREFETCH  ACCESS:    6740762  HIT:    6659834  MISS:      80928  HIT %:    98.7994  MISS %:    1.20058   MPKI: 0.40464
L2C WRITEBACK ACCESS:     744655  HIT:     706162  MISS:      38493  HIT %:    94.8308  MISS %:    5.16924   MPKI: 0.192465
PSCL5 TOTAL     ACCESS:     236791  HIT:     236791  MISS:          0  HIT %:        100  MISS %:          0   MPKI: 0
PSCL5 LOAD      ACCESS:          0  HIT:          0  MISS:          0  HIT %:       -nan  MISS %:       -nan   MPKI: 0
PSCL5 RFO       ACCESS:          0  HIT:          0  MISS:          0  HIT %:       -nan  MISS %:       -nan   MPKI: 0
PSCL5 PREFETCH  ACCESS:          0  HIT:          0  MISS:          0  HIT %:       -nan  MISS %:       -nan   MPKI: 0
PSCL5 WRITEBACK ACCESS:          0  HIT:          0  MISS:          0  HIT %:       -nan  MISS %:       -nan   MPKI: 0
PSCL4 TOTAL     ACCESS:     236791  HIT:     236791  MISS:          0  HIT %:        100  MISS %:          0   MPKI: 0
PSCL4 LOAD      ACCESS:          0  HIT:          0  MISS:          0  HIT %:       -nan  MISS %:       -nan   MPKI: 0
PSCL4 RFO       ACCESS:          0  HIT:          0  MISS:          0  HIT %:       -nan  MISS %:       -nan   MPKI: 0
PSCL4 PREFETCH  ACCESS:          0  HIT:          0  MISS:          0  HIT %:       -nan  MISS %:       -nan   MPKI: 0
PSCL4 WRITEBACK ACCESS:          0  HIT:          0  MISS:          0  HIT %:       -nan  MISS %:       -nan   MPKI: 0
PSCL3 TOTAL     ACCESS:     236791  HIT:     236791  MISS:          0  HIT %:        100  MISS %:          0   MPKI: 0
PSCL3 LOAD      ACCESS:          0  HIT:          0  MISS:          0  HIT %:       -nan  MISS %:       -nan   MPKI: 0
PSCL3 RFO       ACCESS:          0  HIT:          0  MISS:          0  HIT %:       -nan  MISS %:       -nan   MPKI: 0
PSCL3 PREFETCH  ACCESS:          0  HIT:          0  MISS:          0  HIT %:       -nan  MISS %:       -nan   MPKI: 0
PSCL3 WRITEBACK ACCESS:          0  HIT:          0  MISS:          0  HIT %:       -nan  MISS %:       -nan   MPKI: 0
PSCL2 TOTAL     ACCESS:     212775  HIT:     212683  MISS:         92  HIT %:    99.9568  MISS %:  0.0432382   MPKI: 0.00046
PSCL2 LOAD      ACCESS:          0  HIT:          0  MISS:          0  HIT %:       -nan  MISS %:       -nan   MPKI: 0
PSCL2 RFO       ACCESS:          0  HIT:          0  MISS:          0  HIT %:       -nan  MISS %:       -nan   MPKI: 0
PSCL2 PREFETCH  ACCESS:          0  HIT:          0  MISS:          0  HIT %:       -nan  MISS %:       -nan   MPKI: 0
PSCL2 WRITEBACK ACCESS:          0  HIT:          0  MISS:          0  HIT %:       -nan  MISS %:       -nan   MPKI: 0
LLC TOTAL     ACCESS:    1029571  HIT:     477590  MISS:     551981  HIT %:    46.3873  MISS %:    53.6127   MPKI: 2.7599
LLC LOAD      ACCESS:     465387  HIT:     138340  MISS:     327047  HIT %:    29.7258  MISS %:    70.2742   MPKI: 1.63523
LLC RFO       ACCESS:      47310  HIT:      13154  MISS:      34156  HIT %:    27.8038  MISS %:    72.1962   MPKI: 0.17078
LLC PREFETCH  ACCESS:      81438  HIT:      31687  MISS:      49751  HIT %:    38.9094  MISS %:    61.0906   MPKI: 0.248755
LLC WRITEBACK ACCESS:     395692  HIT:     268227  MISS:     127465  HIT %:    67.7868  MISS %:    32.2132   MPKI: 0.637325

RAW hits: 2693620
Loads Generated: 47374483
Loads sent to L1D: 44680863
Stores Generated: 17385874
Stores sent to L1D: 17385873

CPU 1 cumulative IPC: 0.919778 instructions: 256222934 cycles: 278570496
ITLB TOTAL     ACCESS:   40196454  HIT:   40196447  MISS:          7  HIT %:        100  MISS %: 1.74145e-05   MPKI: 2.732e-05
ITLB LOAD      ACCESS:          0  HIT:          0  MISS:          0  HIT %:       -nan  MISS %:       -nan   MPKI: 0
ITLB RFO       ACCESS:          0  HIT:          0  MISS:          0  HIT %:       -nan  MISS %:       -nan   MPKI: 0
ITLB PREFETCH  ACCESS:          0  HIT:          0  MISS:          0  HIT %:       -nan  MISS %:       -nan   MPKI: 0
ITLB WRITEBACK ACCESS:          0  HIT:          0  MISS:          0  HIT %:       -nan  MISS %:       -nan   MPKI: 0
DTLB TOTAL     ACCESS:   32912584  HIT:   32902729  MISS:       9855  HIT %:    99.9701  MISS %:   0.029943   MPKI: 0.0384626
DTLB LOAD      ACCESS:          0  HIT:          0  MISS:          0  HIT %:       -nan  MISS %:       -nan   MPKI: 0
DTLB RFO       ACCESS:          0  HIT:          0  MISS:          0  HIT %:       -nan  MISS %:       -nan   MPKI: 0
DTLB PREFETCH  ACCESS:          0  HIT:          0  MISS:          0  HIT %:       -nan  MISS %:       -nan   MPKI: 0
DTLB WRITEBACK ACCESS:          0  HIT:          0  MISS:          0  HIT %:       -nan  MISS %:       -nan   MPKI: 0
STLB TOTAL     ACCESS:   15770135  HIT:   15760273  MISS:       9862  HIT %:    99.9375  MISS %:  0.0625359   MPKI: 0.0384899
STLB LOAD      ACCESS:          0  HIT:          0  MISS:          0  HIT %:       -nan  MISS %:       -nan   MPKI: 0
STLB RFO       ACCESS:          0  HIT:          0  MISS:          0  HIT %:       -nan  MISS %:       -nan   MPKI: 0
STLB PREFETCH  ACCESS:          0  HIT:          0  MISS:          0  HIT %:       -nan  MISS %:       -nan   MPKI: 0
STLB WRITEBACK ACCESS:          0  HIT:          0  MISS:          0  HIT %:       -nan  MISS %:       -nan   MPKI: 0
L1D TOTAL     ACCESS:  116187009  HIT:  115557124  MISS:     629885  HIT %:    99.4579  MISS %:    0.54213   MPKI: 2.45835
L1D LOAD      ACCESS:   17862806  HIT:   17856622  MISS:       6184  HIT %:    99.9654  MISS %:  0.0346194   MPKI: 0.0241352
L1D RFO       ACCESS:   13082445  HIT:   12941884  MISS:     140561  HIT %:    98.9256  MISS %:    1.07442   MPKI: 0.548589
L1D PREFETCH  ACCESS:   85241758  HIT:   84758618  MISS:     483140  HIT %:    99.4332  MISS %:   0.566788   MPKI: 1.88562
L1D WRITEBACK ACCESS:          0  HIT:          0  MISS:          0  HIT %:       -nan  MISS %:       -nan   MPKI: 0
L1I TOTAL     ACCESS:   40196462  HIT:   40196417  MISS:         45  HIT %:    99.9999  MISS %: 0.00011195   MPKI: 0.000175628
L1I LOAD      ACCESS:   40196462  HIT:   40196417  MISS:         45  HIT %:    99.9999  MISS %: 0.00011195   MPKI: 0.000175628
L1I RFO       ACCESS:          0  HIT:          0  MISS:          0  HIT %:       -nan  MISS %:       -nan   MPKI: 0
L1I PREFETCH  ACCESS:          0  HIT:          0  MISS:          0  HIT %:       -nan  MISS %:       -nan   MPKI: 0
L1I WRITEBACK ACCESS:          0  HIT:          0  MISS:          0  HIT %:       -nan  MISS %:       -nan   MPKI: 0
L2C TOTAL     ACCESS:    5194888  HIT:    4527037  MISS:     667851  HIT %:    87.1441  MISS %:    12.8559   MPKI: 2.60652
L2C LOAD      ACCESS:       2963  HIT:          1  MISS:       2962  HIT %:  0.0337496  MISS %:    99.9663   MPKI: 0.0115602
L2C RFO       ACCESS:     140561  HIT:          3  MISS:     140558  HIT %:  0.0021343  MISS %:    99.9979   MPKI: 0.548577
L2C PREFETCH  ACCESS:    3950443  HIT:    3464034  MISS:     486409  HIT %:    87.6872  MISS %:    12.3128   MPKI: 1.89838
L2C WRITEBACK ACCESS:     489303  HIT:     452659  MISS:      36644  HIT %:     92.511  MISS %:    7.48902   MPKI: 0.143016
PSCL5 TOTAL     ACCESS:     611618  HIT:     611618  MISS:          0  HIT %:        100  MISS %:          0   MPKI: 0
PSCL5 LOAD      ACCESS:          0  HIT:          0  MISS:          0  HIT %:       -nan  MISS %:       -nan   MPKI: 0
PSCL5 RFO       ACCESS:          0  HIT:          0  MISS:          0  HIT %:       -nan  MISS %:       -nan   MPKI: 0
PSCL5 PREFETCH  ACCESS:          0  HIT:          0  MISS:          0  HIT %:       -nan  MISS %:       -nan   MPKI: 0
PSCL5 WRITEBACK ACCESS:          0  HIT:          0  MISS:          0  HIT %:       -nan  MISS %:       -nan   MPKI: 0
PSCL4 TOTAL     ACCESS:     611618  HIT:     611617  MISS:          1  HIT %:    99.9998  MISS %: 0.000163501   MPKI: 3.90285e-06
PSCL4 LOAD      ACCESS:          0  HIT:          0  MISS:          0  HIT %:       -nan  MISS %:       -nan   MPKI: 0
PSCL4 RFO       ACCESS:          0  HIT:          0  MISS:          0  HIT %:       -nan  MISS %:       -nan   MPKI: 0
PSCL4 PREFETCH  ACCESS:          0  HIT:          0  MISS:          0  HIT %:       -nan  MISS %:       -nan   MPKI: 0
PSCL4 WRITEBACK ACCESS:          0  HIT:          0  MISS:          0  HIT %:       -nan  MISS %:       -nan   MPKI: 0
PSCL3 TOTAL     ACCESS:     611618  HIT:     611616  MISS:          2  HIT %:    99.9997  MISS %: 0.000327001   MPKI: 7.8057e-06
PSCL3 LOAD      ACCESS:          0  HIT:          0  MISS:          0  HIT %:       -nan  MISS %:       -nan   MPKI: 0
PSCL3 RFO       ACCESS:          0  HIT:          0  MISS:          0  HIT %:       -nan  MISS %:       -nan   MPKI: 0
PSCL3 PREFETCH  ACCESS:          0  HIT:          0  MISS:          0  HIT %:       -nan  MISS %:       -nan   MPKI: 0
PSCL3 WRITEBACK ACCESS:          0  HIT:          0  MISS:          0  HIT %:       -nan  MISS %:       -nan   MPKI: 0
PSCL2 TOTAL     ACCESS:     610433  HIT:     610409  MISS:         24  HIT %:    99.9961  MISS %: 0.00393164   MPKI: 9.36684e-05
PSCL2 LOAD      ACCESS:          0  HIT:          0  MISS:          0  HIT %:       -nan  MISS %:       -nan   MPKI: 0
PSCL2 RFO       ACCESS:          0  HIT:          0  MISS:          0  HIT %:       -nan  MISS %:       -nan   MPKI: 0
PSCL2 PREFETCH  ACCESS:          0  HIT:          0  MISS:          0  HIT %:       -nan  MISS %:       -nan   MPKI: 0
PSCL2 WRITEBACK ACCESS:          0  HIT:          0  MISS:          0  HIT %:       -nan  MISS %:       -nan   MPKI: 0
LLC TOTAL     ACCESS:    1120433  HIT:     267966  MISS:     852467  HIT %:    23.9163  MISS %:    76.0837   MPKI: 3.32705
LLC LOAD      ACCESS:       2962  HIT:          0  MISS:       2962  HIT %:          0  MISS %:        100   MPKI: 0.0115602
LLC RFO       ACCESS:     140558  HIT:          0  MISS:     140558  HIT %:          0  MISS %:        100   MPKI: 0.548577
LLC PREFETCH  ACCESS:     486409  HIT:          0  MISS:     486409  HIT %:          0  MISS %:        100   MPKI: 1.89838
LLC WRITEBACK ACCESS:     489226  HIT:     267949  MISS:     221277  HIT %:      54.77  MISS %:      45.23   MPKI: 0.863611

RAW hits: 0
Loads Generated: 39285920
Loads sent to L1D: 39285919
Stores Generated: 17675217
Stores sent to L1D: 17675216

CPU 2 cumulative IPC: 1.07474 instructions: 299390841 cycles: 278570496
ITLB TOTAL     ACCESS:   40363868  HIT:   40363814  MISS:         54  HIT %:    99.9999  MISS %: 0.000133783   MPKI: 0.000180366
ITLB LOAD      ACCESS:          0  HIT:          0  MISS:          0  HIT %:       -nan  MISS %:       -nan   MPKI: 0
ITLB RFO       ACCESS:          0  HIT:          0  MISS:          0  HIT %:       -nan  MISS %:       -nan   MPKI: 0
ITLB PREFETCH  ACCESS:          0  HIT:          0  MISS:          0  HIT %:       -nan  MISS %:       -nan   MPKI: 0
ITLB WRITEBACK ACCESS:          0  HIT:          0  MISS:          0  HIT %:       -nan  MISS %:       -nan   MPKI: 0
DTLB TOTAL     ACCESS:   57721308  HIT:   35221113  MISS:   22500195  HIT %:    61.0193  MISS %:    38.9807   MPKI: 75.1533
DTLB LOAD      ACCESS:          0  HIT:          0  MISS:          0  HIT %:       -nan  MISS %:       -nan   MPKI: 0
DTLB RFO       ACCESS:          0  HIT:          0  MISS:          0  HIT %:       -nan  MISS %:       -nan   MPKI: 0
DTLB PREFETCH  ACCESS:          0  HIT:          0  MISS:          0  HIT %:       -nan  MISS %:       -nan   MPKI: 0
DTLB WRITEBACK ACCESS:          0  HIT:          0  MISS:          0  HIT %:       -nan  MISS %:       -nan   MPKI: 0
STLB TOTAL     ACCESS:   43999310  HIT:   43962605  MISS:      36705  HIT %:    99.9166  MISS %:  0.0834218   MPKI: 0.122599
STLB LOAD      ACCESS:          0  HIT:          0  MISS:          0  HIT %:       -nan  MISS %:       -nan   MPKI: 0
STLB RFO       ACCESS:          0  HIT:          0  MISS:          0  HIT %:       -nan  MISS %:       -nan   MPKI: 0
STLB PREFETCH  ACCESS:          0  HIT:          0  MISS:          0  HIT %:       -nan  MISS %:       -nan   MPKI: 0
STLB WRITEBACK ACCESS:          0  HIT:          0  MISS:          0  HIT %:       -nan  MISS %:       -nan   MPKI: 0
L1D TOTAL     ACCESS:  119332692  HIT:   84708352  MISS:   34624340  HIT %:     70.985  MISS %:     29.015   MPKI: 115.649
L1D LOAD      ACCESS:   51533063  HIT:   19581826  MISS:   31951237  HIT %:    37.9986  MISS %:    62.0014   MPKI: 106.721
L1D RFO       ACCESS:   33916109  HIT:   31546728  MISS:    2369381  HIT %:     93.014  MISS %:      6.986   MPKI: 7.91401
L1D PREFETCH  ACCESS:   33883520  HIT:   33579798  MISS:     303722  HIT %:    99.1036  MISS %:   0.896371   MPKI: 1.01447
L1D WRITEBACK ACCESS:          0  HIT:          0  MISS:          0  HIT %:       -nan  MISS %:       -nan   MPKI: 0
L1I TOTAL     ACCESS:   52896084  HIT:   52846427  MISS:      49657  HIT %:    99.9061  MISS %:  0.0938765   MPKI: 0.16586
L1I LOAD      ACCESS:   52896084  HIT:   52846427  MISS:      49657  HIT %:    99.9061  MISS %:  0.0938765   MPKI: 0.16586
L1I RFO       ACCESS:          0  HIT:          0  MISS:          0  HIT %:       -nan  MISS %:       -nan   MPKI: 0
L1I PREFETCH  ACCESS:          0  HIT:          0  MISS:          0  HIT %:       -nan  MISS %:       -nan   MPKI: 0
L1I WRITEBACK ACCESS:          0  HIT:          0  MISS:          0  HIT %:       -nan  MISS %:       -nan   MPKI: 0
L2C TOTAL     ACCESS:   82616130  HIT:   77628228  MISS:    4987902  HIT %:    93.9626  MISS %:    6.03744   MPKI: 16.6602
L2C LOAD      ACCESS:   31463921  HIT:   28869866  MISS:    2594055  HIT %:    91.7555  MISS %:    8.24454   MPKI: 8.66444
L2C RFO       ACCESS:    2364169  HIT:    2295139  MISS:      69030  HIT %:    97.0802  MISS %:    2.91984   MPKI: 0.230568
L2C PREFETCH  ACCESS:   45289738  HIT:   43025052  MISS:    2264686  HIT %:    94.9996  MISS %:    5.00044   MPKI: 7.56431
L2C WRITEBACK ACCESS:    2609309  HIT:    2601378  MISS:       7931  HIT %:     99.696  MISS %:    0.30395   MPKI: 0.0264905
PSCL5 TOTAL     ACCESS:     679136  HIT:     679136  MISS:          0  HIT %:        100  MISS %:          0   MPKI: 0
PSCL5 LOAD      ACCESS:          0  HIT:          0  MISS:          0  HIT %:       -nan  MISS %:       -nan   MPKI: 0
PSCL5 RFO       ACCESS:          0  HIT:          0  MISS:          0  HIT %:       -nan  MISS %:       -nan   MPKI: 0
PSCL5 PREFETCH  ACCESS:          0  HIT:          0  MISS:          0  HIT %:       -nan  MISS %:       -nan   MPKI: 0
PSCL5 WRITEBACK ACCESS:          0  HIT:          0  MISS:          0  HIT %:       -nan  MISS %:       -nan   MPKI: 0
PSCL4 TOTAL     ACCESS:     679136  HIT:     679136  MISS:          0  HIT %:        100  MISS %:          0   MPKI: 0
PSCL4 LOAD      ACCESS:          0  HIT:          0  MISS:          0  HIT %:       -nan  MISS %:       -nan   MPKI: 0
PSCL4 RFO       ACCESS:          0  HIT:          0  MISS:          0  HIT %:       -nan  MISS %:       -nan   MPKI: 0
PSCL4 PREFETCH  ACCESS:          0  HIT:          0  MISS:          0  HIT %:       -nan  MISS %:       -nan   MPKI: 0
PSCL4 WRITEBACK ACCESS:          0  HIT:          0  MISS:          0  HIT %:       -nan  MISS %:       -nan   MPKI: 0
PSCL3 TOTAL     ACCESS:     675274  HIT:     675270  MISS:          4  HIT %:    99.9994  MISS %: 0.000592352   MPKI: 1.33605e-05
PSCL3 LOAD      ACCESS:          0  HIT:          0  MISS:          0  HIT %:       -nan  MISS %:       -nan   MPKI: 0
PSCL3 RFO       ACCESS:          0  HIT:          0  MISS:          0  HIT %:       -nan  MISS %:       -nan   MPKI: 0
PSCL3 PREFETCH  ACCESS:          0  HIT:          0  MISS:          0  HIT %:       -nan  MISS %:       -nan   MPKI: 0
PSCL3 WRITEBACK ACCESS:          0  HIT:          0  MISS:          0  HIT %:       -nan  MISS %:       -nan   MPKI: 0
PSCL2 TOTAL     ACCESS:     493600  HIT:     473062  MISS:      20538  HIT %:    95.8391  MISS %:    4.16086   MPKI: 0.0685993
PSCL2 LOAD      ACCESS:          0  HIT:          0  MISS:          0  HIT %:       -nan  MISS %:       -nan   MPKI: 0
PSCL2 RFO       ACCESS:          0  HIT:          0  MISS:          0  HIT %:       -nan  MISS %:       -nan   MPKI: 0
PSCL2 PREFETCH  ACCESS:          0  HIT:          0  MISS:          0  HIT %:       -nan  MISS %:       -nan   MPKI: 0
PSCL2 WRITEBACK ACCESS:          0  HIT:          0  MISS:          0  HIT %:       -nan  MISS %:       -nan   MPKI: 0
LLC TOTAL     ACCESS:    5296894  HIT:    2970206  MISS:    2326688  HIT %:    56.0745  MISS %:    43.9255   MPKI: 7.77141
LLC LOAD      ACCESS:    2570011  HIT:     574001  MISS:    1996010  HIT %:    22.3346  MISS %:    77.6654   MPKI: 6.6669
LLC RFO       ACCESS:      67937  HIT:      66824  MISS:       1113  HIT %:    98.3617  MISS %:    1.63828   MPKI: 0.00371755
LLC PREFETCH  ACCESS:    2288689  HIT:    1967106  MISS:     321583  HIT %:     85.949  MISS %:     14.051   MPKI: 1.07412
LLC WRITEBACK ACCESS:     318057  HIT:     315681  MISS:       2376  HIT %:     99.253  MISS %:   0.747036   MPKI: 0.00793611

RAW hits: 204858
Loads Generated: 85663268
Loads sent to L1D: 85458410
Stores Generated: 34140586
Stores sent to L1D: 34140587

CPU 3 cumulative IPC: 1.3675 instructions: 380944242 cycles: 278570497
ITLB TOTAL     ACCESS:   60241832  HIT:   60241805  MISS:         27  HIT %:        100  MISS %: 4.48194e-05   MPKI: 7.08765e-05
ITLB LOAD      ACCESS:          0  HIT:          0  MISS:          0  HIT %:       -nan  MISS %:       -nan   MPKI: 0
ITLB RFO       ACCESS:          0  HIT:          0  MISS:          0  HIT %:       -nan  MISS %:       -nan   MPKI: 0
ITLB PREFETCH  ACCESS:          0  HIT:          0  MISS:          0  HIT %:       -nan  MISS %:       -nan   MPKI: 0
ITLB WRITEBACK ACCESS:          0  HIT:          0  MISS:          0  HIT %:       -nan  MISS %:       -nan   MPKI: 0
DTLB TOTAL     ACCESS:   55416158  HIT:   54903578  MISS:     512580  HIT %:     99.075  MISS %:   0.924965   MPKI: 1.34555
DTLB LOAD      ACCESS:          0  HIT:          0  MISS:          0  HIT %:       -nan  MISS %:       -nan   MPKI: 0
DTLB RFO       ACCESS:          0  HIT:          0  MISS:          0  HIT %:       -nan  MISS %:       -nan   MPKI: 0
DTLB PREFETCH  ACCESS:          0  HIT:          0  MISS:          0  HIT %:       -nan  MISS %:       -nan   MPKI: 0
DTLB WRITEBACK ACCESS:          0  HIT:          0  MISS:          0  HIT %:       -nan  MISS %:       -nan   MPKI: 0
STLB TOTAL     ACCESS:   32070901  HIT:   31908046  MISS:     162855  HIT %:    99.4922  MISS %:   0.507797   MPKI: 0.427504
STLB LOAD      ACCESS:          0  HIT:          0  MISS:          0  HIT %:       -nan  MISS %:       -nan   MPKI: 0
STLB RFO       ACCESS:          0  HIT:          0  MISS:          0  HIT %:       -nan  MISS %:       -nan   MPKI: 0
STLB PREFETCH  ACCESS:          0  HIT:          0  MISS:          0  HIT %:       -nan  MISS %:       -nan   MPKI: 0
STLB WRITEBACK ACCESS:          0  HIT:          0  MISS:          0  HIT %:       -nan  MISS %:       -nan   MPKI: 0
L1D TOTAL     ACCESS:  178246853  HIT:  172259720  MISS:    5987133  HIT %:    96.6411  MISS %:     3.3589   MPKI: 15.7166
L1D LOAD      ACCESS:   59810434  HIT:   58079304  MISS:    1731130  HIT %:    97.1056  MISS %:    2.89436   MPKI: 4.54431
L1D RFO       ACCESS:    6633186  HIT:    6186053  MISS:     447133  HIT %:    93.2592  MISS %:    6.74085   MPKI: 1.17375
L1D PREFETCH  ACCESS:  111803233  HIT:  107994363  MISS:    3808870  HIT %:    96.5932  MISS %:    3.40676   MPKI: 9.9985
L1D WRITEBACK ACCESS:          0  HIT:          0  MISS:          0  HIT %:       -nan  MISS %:       -nan   MPKI: 0
L1I TOTAL     ACCESS:   71050058  HIT:   71048915  MISS:       1143  HIT %:    99.9984  MISS %: 0.00160872   MPKI: 0.00300044
L1I LOAD      ACCESS:   71050058  HIT:   71048915  MISS:       1143  HIT %:    99.9984  MISS %: 0.00160872   MPKI: 0.00300044
L1I RFO       ACCESS:          0  HIT:          0  MISS:          0  HIT %:       -nan  MISS %:       -nan   MPKI: 0
L1I PREFETCH  ACCESS:          0  HIT:          0  MISS:          0  HIT %:       -nan  MISS %:       -nan   MPKI: 0
L1I WRITEBACK ACCESS:          0  HIT:          0  MISS:          0  HIT %:       -nan  MISS %:       -nan   MPKI: 0
L2C TOTAL     ACCESS:   29658559  HIT:   22978481  MISS:    6680078  HIT %:    77.4767  MISS %:    22.5233   MPKI: 17.5356
L2C LOAD      ACCESS:    1720226  HIT:    1039555  MISS:     680671  HIT %:    60.4313  MISS %:    39.5687   MPKI: 1.7868
L2C RFO       ACCESS:     447103  HIT:      52717  MISS:     394386  HIT %:    11.7908  MISS %:    88.2092   MPKI: 1.03529
L2C PREFETCH  ACCESS:   26558425  HIT:   21033729  MISS:    5524696  HIT %:     79.198  MISS %:     20.802   MPKI: 14.5026
L2C WRITEBACK ACCESS:     586842  HIT:     548667  MISS:      38175  HIT %:    93.4948  MISS %:    6.50516   MPKI: 0.100212
PSCL5 TOTAL     ACCESS:     345963  HIT:     345963  MISS:          0  HIT %:        100  MISS %:          0   MPKI: 0
PSCL5 LOAD      ACCESS:          0  HIT:          0  MISS:          0  HIT %:       -nan  MISS %:       -nan   MPKI: 0
PSCL5 RFO       ACCESS:          0  HIT:          0  MISS:          0  HIT %:       -nan  MISS %:       -nan   MPKI: 0
PSCL5 PREFETCH  ACCESS:          0  HIT:          0  MISS:          0  HIT %:       -nan  MISS %:       -nan   MPKI: 0
PSCL5 WRITEBACK ACCESS:          0  HIT:          0  MISS:          0  HIT %:       -nan  MISS %:       -nan   MPKI: 0
PSCL4 TOTAL     ACCESS:     345963  HIT:     345963  MISS:          0  HIT %:        100  MISS %:          0   MPKI: 0
PSCL4 LOAD      ACCESS:          0  HIT:          0  MISS:          0  HIT %:       -nan  MISS %:       -nan   MPKI: 0
PSCL4 RFO       ACCESS:          0  HIT:          0  MISS:          0  HIT %:       -nan  MISS %:       -nan   MPKI: 0
PSCL4 PREFETCH  ACCESS:          0  HIT:          0  MISS:          0  HIT %:       -nan  MISS %:       -nan   MPKI: 0
PSCL4 WRITEBACK ACCESS:          0  HIT:          0  MISS:          0  HIT %:       -nan  MISS %:       -nan   MPKI: 0
PSCL3 TOTAL     ACCESS:     345963  HIT:     345963  MISS:          0  HIT %:        100  MISS %:          0   MPKI: 0
PSCL3 LOAD      ACCESS:          0  HIT:          0  MISS:          0  HIT %:       -nan  MISS %:       -nan   MPKI: 0
PSCL3 RFO       ACCESS:          0  HIT:          0  MISS:          0  HIT %:       -nan  MISS %:       -nan   MPKI: 0
PSCL3 PREFETCH  ACCESS:          0  HIT:          0  MISS:          0  HIT %:       -nan  MISS %:       -nan   MPKI: 0
PSCL3 WRITEBACK ACCESS:          0  HIT:          0  MISS:          0  HIT %:       -nan  MISS %:       -nan   MPKI: 0
PSCL2 TOTAL     ACCESS:     345963  HIT:     345961  MISS:          2  HIT %:    99.9994  MISS %: 0.000578097   MPKI: 5.25011e-06
PSCL2 LOAD      ACCESS:          0  HIT:          0  MISS:          0  HIT %:       -nan  MISS %:       -nan   MPKI: 0
PSCL2 RFO       ACCESS:          0  HIT:          0  MISS:          0  HIT %:       -nan  MISS %:       -nan   MPKI: 0
PSCL2 PREFETCH  ACCESS:          0  HIT:          0  MISS:          0  HIT %:       -nan  MISS %:       -nan   MPKI: 0
PSCL2 WRITEBACK ACCESS:          0  HIT:          0  MISS:          0  HIT %:       -nan  MISS %:       -nan   MPKI: 0
LLC TOTAL     ACCESS:    7169358  HIT:    5968186  MISS:    1201172  HIT %:    83.2458  MISS %:    16.7542   MPKI: 3.15314
LLC LOAD      ACCESS:     657750  HIT:     531730  MISS:     126020  HIT %:    80.8407  MISS %:    19.1593   MPKI: 0.33081
LLC RFO       ACCESS:     394363  HIT:     313419  MISS:      80944  HIT %:    79.4747  MISS %:    20.5253   MPKI: 0.212483
LLC PREFETCH  ACCESS:    5547620  HIT:    4561255  MISS:     986365  HIT %:      82.22  MISS %:      17.78   MPKI: 2.58926
LLC WRITEBACK ACCESS:     527475  HIT:     525598  MISS:       1877  HIT %:    99.6442  MISS %:   0.355846   MPKI: 0.00492723

RAW hits: 524826
Loads Generated: 97150504
Loads sent to L1D: 96625676
Stores Generated: 8866750
Stores sent to L1D: 8866750

Region of Interest Statistics

CPU 0 cumulative IPC: 0.717951 instructions: 200000000 cycles: 278570496
ITLB TOTAL     ACCESS:   28589527  HIT:   28589527  MISS:          0  HIT %:        100  MISS %:          0   MPKI: 0
ITLB LOAD TRANSLATION ACCESS:   28589527  HIT:   28589527  MISS:          0  HIT %:        100  MISS %:          0   MPKI: 0
ITLB PREFETCH  REQUESTED:          0  ISSUED:          0  USEFUL:          0  USELESS:          0
ITLB USEFUL LOAD PREFETCHES:          0 PREFETCH ISSUED TO LOWER LEVEL:          0  ACCURACY: -nan
ITLB TIMELY PREFETCHES:          0 LATE PREFETCHES: 0 DROPPED PREFETCHES: 0
ITLB PREFETCHES SAME FILL-ORIGIN LEVEL: 0 DIFFERENT FILL-ORIGIN LEVEL: 0
ITLB AVERAGE MISS LATENCY: -nan cycles
ITLB RQ	ACCESS:   34143167	FORWARD:          0	MERGED:    5553641	TO_CACHE:   28589526

DTLB TOTAL     ACCESS:   38019942  HIT:   37134470  MISS:     885472  HIT %:     97.671  MISS %:    2.32897   MPKI: 4.42736
DTLB LOAD TRANSLATION ACCESS:   38019942  HIT:   37134470  MISS:     885472  HIT %:     97.671  MISS %:    2.32897   MPKI: 4.42736
DTLB PREFETCH  REQUESTED:          0  ISSUED:          0  USEFUL:          0  USELESS:          0
DTLB USEFUL LOAD PREFETCHES:          0 PREFETCH ISSUED TO LOWER LEVEL:          0  ACCURACY: -nan
DTLB TIMELY PREFETCHES:          0 LATE PREFETCHES: 0 DROPPED PREFETCHES: 0
DTLB PREFETCHES SAME FILL-ORIGIN LEVEL: 0 DIFFERENT FILL-ORIGIN LEVEL: 0
DTLB AVERAGE MISS LATENCY: 17.7656 cycles
DTLB RQ	ACCESS:   48347827	FORWARD:          0	MERGED:   10319434	TO_CACHE:   38028393

STLB TOTAL     ACCESS:    7703995  HIT:    7578482  MISS:     125513  HIT %:    98.3708  MISS %:    1.62919   MPKI: 0.627565
STLB LOAD TRANSLATION ACCESS:     885472  HIT:     760454  MISS:     125018  HIT %:    85.8812  MISS %:    14.1188   MPKI: 0.62509
STLB TRANSLATION FROM L1D PREFETCHER ACCESS:    6818523  HIT:    6818028  MISS:        495  HIT %:    99.9927  MISS %: 0.00725964   MPKI: 0.002475
STLB PREFETCH  REQUESTED:          0  ISSUED:          0  USEFUL:        394  USELESS:        100
STLB USEFUL LOAD PREFETCHES:        394 PREFETCH ISSUED TO LOWER LEVEL:          0  ACCURACY: inf
STLB TIMELY PREFETCHES:        394 LATE PREFETCHES: 13 DROPPED PREFETCHES: 111266
STLB PREFETCHES SAME FILL-ORIGIN LEVEL: 0 DIFFERENT FILL-ORIGIN LEVEL: 0
STLB AVERAGE MISS LATENCY: 62.0288 cycles
STLB RQ	ACCESS:   17838518	FORWARD:          0	MERGED:   10004220	TO_CACHE:    7834298

STLB Hit, L1D data hit: 0
STLB Hit, L2C data hit: 0
STLB Hit, LLC data hit: 0
STLB Hit, LLC data miss: 0
STLB STLB hints to L2: 0
L1D TOTAL     ACCESS:   58138919  HIT:   57050718  MISS:    1088201  HIT %:    98.1283  MISS %:    1.87173   MPKI: 5.441
L1D LOAD      ACCESS:   31103215  HIT:   30153221  MISS:     949994  HIT %:    96.9457  MISS %:    3.05433   MPKI: 4.74997
L1D RFO       ACCESS:   17086347  HIT:   16955952  MISS:     130395  HIT %:    99.2368  MISS %:   0.763153   MPKI: 0.651975
L1D PREFETCH  ACCESS:    9949357  HIT:    9941545  MISS:       7812  HIT %:    99.9215  MISS %:  0.0785176   MPKI: 0.03906
L1D PREFETCH  REQUESTED:   37891212  ISSUED:   37552426  USEFUL:       6406  USELESS:       1406
L1D USEFUL LOAD PREFETCHES:       6406 PREFETCH ISSUED TO LOWER LEVEL:    6776400  ACCURACY: 0.094534
L1D TIMELY PREFETCHES:       6406 LATE PREFETCHES: 103 DROPPED PREFETCHES: 198187
L1D PREFETCHES SAME FILL-ORIGIN LEVEL: 7921 DIFFERENT FILL-ORIGIN LEVEL: 6768479
L1D AVERAGE MISS LATENCY: 108.665 cycles
L1D RQ	ACCESS:   44680863	FORWARD:          0	MERGED:   13414772	TO_CACHE:   31204789
L1D WQ	ACCESS:   17385873	FORWARD:      67800	MERGED:     242835	TO_CACHE:   17143038
L1D PQ	ACCESS:   20599380	FORWARD:          0	MERGED:    3639836	TO_CACHE:   16953046

L1D UNIQUE REGIONS ACCESSED: 0
L1D REGIONS CONFLICTS: 0
L1D Cross Page Prefetch Requests: 2402434
L1D Same Page Prefetch Requests: 22540933
L1D ROI Sum of L1D PQ occupancy: 206549954
L1D PREFETCHES PUSHED FROM L2C: 0
L1I TOTAL     ACCESS:   34142964  HIT:   34142589  MISS:        375  HIT %:    99.9989  MISS %: 0.00109832   MPKI: 0.001875
L1I LOAD      ACCESS:   34142964  HIT:   34142589  MISS:        375  HIT %:    99.9989  MISS %: 0.00109832   MPKI: 0.001875
L1I PREFETCH  REQUESTED:          0  ISSUED:          0  USEFUL:          0  USELESS:          0
L1I USEFUL LOAD PREFETCHES:          0 PREFETCH ISSUED TO LOWER LEVEL:          0  ACCURACY: -nan
L1I TIMELY PREFETCHES:          0 LATE PREFETCHES: 0 DROPPED PREFETCHES: 0
L1I PREFETCHES SAME FILL-ORIGIN LEVEL: 0 DIFFERENT FILL-ORIGIN LEVEL: 0
L1I AVERAGE MISS LATENCY: 288.611 cycles
L1I RQ	ACCESS:   50614622	FORWARD:          0	MERGED:   16471455	TO_CACHE:   34143167

BTB TOTAL     ACCESS:   23308110  HIT:   23058632  MISS:     249478  HIT %:    98.9297  MISS %:    1.07035   MPKI: 1.24739
BTB BRANCH_DIRECT_JUMP	ACCESS:    2848501  HIT:    2848499  MISS:          2
BTB BRANCH_INDIRECT	ACCESS:     454190  HIT:     212673  MISS:     241517
BTB BRANCH_CONDITIONAL	ACCESS:   19407588  HIT:   19407575  MISS:         13
BTB BRANCH_DIRECT_CALL	ACCESS:     195073  HIT:     195073  MISS:          0
BTB BRANCH_INDIRECT_CALL	ACCESS:     103842  HIT:     103842  MISS:          0
BTB BRANCH_RETURN	ACCESS:     298916  HIT:     290970  MISS:       7946
BTB BRANCH_OTHER ACCESS:          0  HIT:          0  MISS:          0

L2C TOTAL     ACCESS:    8826939  HIT:    8154567  MISS:     672372  HIT %:    92.3827  MISS %:    7.61727   MPKI: 3.36186
L2C LOAD      ACCESS:     950255  HIT:     484437  MISS:     465818  HIT %:    50.9797  MISS %:    49.0203   MPKI: 2.32909
L2C DATA LOAD MPKI: 2.32725
L2C INSTRUCTION LOAD MPKI: 0.00184
L2C RFO       ACCESS:     130368  HIT:      82979  MISS:      47389  HIT %:    63.6498  MISS %:    36.3502   MPKI: 0.236945
L2C PREFETCH  ACCESS:    6740762  HIT:    6659834  MISS:      80928  HIT %:    98.7994  MISS %:    1.20058   MPKI: 0.40464
L2C DATA PREFETCH MPKI: 0.40464
L2C INSTRUCTION PREFETCH MPKI: 0
L2C WRITEBACK ACCESS:     744655  HIT:     706162  MISS:      38493  HIT %:    94.8308  MISS %:    5.16924   MPKI: 0.192465
L2C LOAD TRANSLATION ACCESS:     125102  HIT:      85683  MISS:      39419  HIT %:    68.4905  MISS %:    31.5095   MPKI: 0.197095
L2C TRANSLATION FROM L1D PREFETCHER ACCESS:     135797  HIT:     135472  MISS:        325  HIT %:    99.7607  MISS %:   0.239328   MPKI: 0.001625
L2C PREFETCH  REQUESTED:          0  ISSUED:          0  USEFUL:      29373  USELESS:      52093
L2C USEFUL LOAD PREFETCHES:      29373 PREFETCH ISSUED TO LOWER LEVEL:      81438  ACCURACY: 36.0679
L2C TIMELY PREFETCHES:      29373 LATE PREFETCHES: 510 DROPPED PREFETCHES: 0
L2C PREFETCHES SAME FILL-ORIGIN LEVEL: 76948 DIFFERENT FILL-ORIGIN LEVEL: 0
L2C AVERAGE MISS LATENCY: 181.724 cycles
L2C RQ	ACCESS:    1341554	FORWARD:          0	MERGED:          0	TO_CACHE:    1341522
L2C WQ	ACCESS:     744655	FORWARD:         35	MERGED:          0	TO_CACHE:     744655
L2C PQ	ACCESS:    6776025	FORWARD:          0	MERGED:       8572	TO_CACHE:    6767450

L2C Instructions Evicting Data 340
L2C Translations Evicting Data 37103
L2C Data Evicting Data 558405
L2C Instructions Evicting Instructions 5
L2C Translations Evicting Instructions 22
L2C Data Evicting Instructions 311
L2C Instructions Evicting Translations 23
L2C Translations Evicting Translations 2617
L2C Data Evicting Translations 35017
L2C Dense regions hint from L2: 0
PSCL5 TOTAL     ACCESS:     236791  HIT:     236791  MISS:          0  HIT %:        100  MISS %:          0   MPKI: 0
PSCL5 LOAD TRANSLATION ACCESS:     125017  HIT:     125017  MISS:          0  HIT %:        100  MISS %:          0   MPKI: 0
PSCL5 TRANSLATION FROM L1D PREFETCHER ACCESS:     111774  HIT:     111774  MISS:          0  HIT %:        100  MISS %:          0   MPKI: 0
PSCL5 PREFETCH  REQUESTED:          0  ISSUED:          0  USEFUL:          0  USELESS:          0
PSCL5 USEFUL LOAD PREFETCHES:          0 PREFETCH ISSUED TO LOWER LEVEL:          0  ACCURACY: -nan
PSCL5 TIMELY PREFETCHES:          0 LATE PREFETCHES: 0 DROPPED PREFETCHES: 0
PSCL5 PREFETCHES SAME FILL-ORIGIN LEVEL: 0 DIFFERENT FILL-ORIGIN LEVEL: 0

PSCL4 TOTAL     ACCESS:     236791  HIT:     236791  MISS:          0  HIT %:        100  MISS %:          0   MPKI: 0
PSCL4 LOAD TRANSLATION ACCESS:     125017  HIT:     125017  MISS:          0  HIT %:        100  MISS %:          0   MPKI: 0
PSCL4 TRANSLATION FROM L1D PREFETCHER ACCESS:     111774  HIT:     111774  MISS:          0  HIT %:        100  MISS %:          0   MPKI: 0
PSCL4 PREFETCH  REQUESTED:          0  ISSUED:          0  USEFUL:          0  USELESS:          0
PSCL4 USEFUL LOAD PREFETCHES:          0 PREFETCH ISSUED TO LOWER LEVEL:          0  ACCURACY: -nan
PSCL4 TIMELY PREFETCHES:          0 LATE PREFETCHES: 0 DROPPED PREFETCHES: 0
PSCL4 PREFETCHES SAME FILL-ORIGIN LEVEL: 0 DIFFERENT FILL-ORIGIN LEVEL: 0

PSCL3 TOTAL     ACCESS:     236791  HIT:     236791  MISS:          0  HIT %:        100  MISS %:          0   MPKI: 0
PSCL3 LOAD TRANSLATION ACCESS:     125017  HIT:     125017  MISS:          0  HIT %:        100  MISS %:          0   MPKI: 0
PSCL3 TRANSLATION FROM L1D PREFETCHER ACCESS:     111774  HIT:     111774  MISS:          0  HIT %:        100  MISS %:          0   MPKI: 0
PSCL3 PREFETCH  REQUESTED:          0  ISSUED:          0  USEFUL:          0  USELESS:          0
PSCL3 USEFUL LOAD PREFETCHES:          0 PREFETCH ISSUED TO LOWER LEVEL:          0  ACCURACY: -nan
PSCL3 TIMELY PREFETCHES:          0 LATE PREFETCHES: 0 DROPPED PREFETCHES: 0
PSCL3 PREFETCHES SAME FILL-ORIGIN LEVEL: 0 DIFFERENT FILL-ORIGIN LEVEL: 0

PSCL2 TOTAL     ACCESS:     212775  HIT:     212683  MISS:         92  HIT %:    99.9568  MISS %:  0.0432382   MPKI: 0.00046
PSCL2 LOAD TRANSLATION ACCESS:     125024  HIT:     124932  MISS:         92  HIT %:    99.9264  MISS %:  0.0735859   MPKI: 0.00046
PSCL2 TRANSLATION FROM L1D PREFETCHER ACCESS:      87751  HIT:      87751  MISS:          0  HIT %:        100  MISS %:          0   MPKI: 0
PSCL2 PREFETCH  REQUESTED:          0  ISSUED:          0  USEFUL:          0  USELESS:          0
PSCL2 USEFUL LOAD PREFETCHES:          0 PREFETCH ISSUED TO LOWER LEVEL:          0  ACCURACY: -nan
PSCL2 TIMELY PREFETCHES:          0 LATE PREFETCHES: 0 DROPPED PREFETCHES: 0
PSCL2 PREFETCHES SAME FILL-ORIGIN LEVEL: 0 DIFFERENT FILL-ORIGIN LEVEL: 0

LLC TOTAL     ACCESS:    1029571  HIT:     477590  MISS:     551981  HIT %:    46.3873  MISS %:    53.6127   MPKI: 2.7599
LLC LOAD      ACCESS:     465387  HIT:     138340  MISS:     327047  HIT %:    29.7258  MISS %:    70.2742   MPKI: 1.63523
LLC RFO       ACCESS:      47310  HIT:      13154  MISS:      34156  HIT %:    27.8038  MISS %:    72.1962   MPKI: 0.17078
LLC PREFETCH  ACCESS:      81438  HIT:      31687  MISS:      49751  HIT %:    38.9094  MISS %:    61.0906   MPKI: 0.248755
LLC WRITEBACK ACCESS:     395692  HIT:     268227  MISS:     127465  HIT %:    67.7868  MISS %:    32.2132   MPKI: 0.637325
LLC LOAD TRANSLATION ACCESS:      39419  HIT:      26024  MISS:      13395  HIT %:    66.0189  MISS %:    33.9811   MPKI: 0.066975
LLC TRANSLATION FROM L1D PREFETCHER ACCESS:        325  HIT:        158  MISS:        167  HIT %:    48.6154  MISS %:    51.3846   MPKI: 0.000835
LLC PREFETCH  REQUESTED:          0  ISSUED:          0  USEFUL:     213016  USELESS:    1642191
LLC USEFUL LOAD PREFETCHES:     213016 PREFETCH ISSUED TO LOWER LEVEL:    1844109  ACCURACY: 11.5512
LLC TIMELY PREFETCHES:     213016 LATE PREFETCHES: 0 DROPPED PREFETCHES: 0
LLC PREFETCHES SAME FILL-ORIGIN LEVEL: 0 DIFFERENT FILL-ORIGIN LEVEL: 0
LLC AVERAGE MISS LATENCY: 2582.86 cycles
LLC RQ	ACCESS:    4482801	FORWARD:          0	MERGED:          0	TO_CACHE:    4481657
LLC WQ	ACCESS:    1730450	FORWARD:       1154	MERGED:          0	TO_CACHE:    1730450
LLC PQ	ACCESS:    8404168	FORWARD:          0	MERGED:          0	TO_CACHE:    8404158

LLC Dense regions hint to LLC: 0

RAW hits: 2693620
Loads Generated: 47374483
Loads sent to L1D: 44680863
Stores Generated: 17385874
Stores sent to L1D: 17385873
Major fault: 0 Minor fault: 8210
Allocated PAGES: 41541

CPU 1 cumulative IPC: 0.945159 instructions: 200000001 cycles: 211604650
ITLB TOTAL     ACCESS:   31621170  HIT:   31621163  MISS:          7  HIT %:        100  MISS %: 2.21371e-05   MPKI: 3.5e-05
ITLB LOAD TRANSLATION ACCESS:   31621170  HIT:   31621163  MISS:          7  HIT %:        100  MISS %: 2.21371e-05   MPKI: 3.5e-05
ITLB PREFETCH  REQUESTED:          0  ISSUED:          0  USEFUL:          0  USELESS:          0
ITLB USEFUL LOAD PREFETCHES:          0 PREFETCH ISSUED TO LOWER LEVEL:          0  ACCURACY: -nan
ITLB TIMELY PREFETCHES:          0 LATE PREFETCHES: 0 DROPPED PREFETCHES: 0
ITLB PREFETCHES SAME FILL-ORIGIN LEVEL: 0 DIFFERENT FILL-ORIGIN LEVEL: 0
ITLB AVERAGE MISS LATENCY: 235.714 cycles
ITLB RQ	ACCESS:   40196468	FORWARD:          0	MERGED:         14	TO_CACHE:   40196454

DTLB TOTAL     ACCESS:   26690112  HIT:   26681985  MISS:       8127  HIT %:    99.9696  MISS %:  0.0304495   MPKI: 0.040635
DTLB LOAD TRANSLATION ACCESS:   26690112  HIT:   26681985  MISS:       8127  HIT %:    99.9696  MISS %:  0.0304495   MPKI: 0.040635
DTLB PREFETCH  REQUESTED:          0  ISSUED:          0  USEFUL:          0  USELESS:          0
DTLB USEFUL LOAD PREFETCHES:          0 PREFETCH ISSUED TO LOWER LEVEL:          0  ACCURACY: -nan
DTLB TIMELY PREFETCHES:          0 LATE PREFETCHES: 0 DROPPED PREFETCHES: 0
DTLB PREFETCHES SAME FILL-ORIGIN LEVEL: 0 DIFFERENT FILL-ORIGIN LEVEL: 0
DTLB AVERAGE MISS LATENCY: 130.75 cycles
DTLB RQ	ACCESS:   35572395	FORWARD:          0	MERGED:    2645615	TO_CACHE:   32926780

STLB TOTAL     ACCESS:   11850600  HIT:   11842466  MISS:       8134  HIT %:    99.9314  MISS %:  0.0686379   MPKI: 0.04067
STLB LOAD TRANSLATION ACCESS:       8134  HIT:         77  MISS:       8057  HIT %:   0.946644  MISS %:    99.0534   MPKI: 0.040285
STLB TRANSLATION FROM L1D PREFETCHER ACCESS:   11842466  HIT:   11842389  MISS:         77  HIT %:    99.9993  MISS %: 0.000650202   MPKI: 0.000385
STLB PREFETCH  REQUESTED:          0  ISSUED:          0  USEFUL:       1805  USELESS:          0
STLB USEFUL LOAD PREFETCHES:       1805 PREFETCH ISSUED TO LOWER LEVEL:          0  ACCURACY: inf
STLB TIMELY PREFETCHES:       1805 LATE PREFETCHES: 974 DROPPED PREFETCHES: 600782
STLB PREFETCHES SAME FILL-ORIGIN LEVEL: 0 DIFFERENT FILL-ORIGIN LEVEL: 0
STLB AVERAGE MISS LATENCY: 131.312 cycles
STLB RQ	ACCESS:   96277855	FORWARD:          0	MERGED:   79868569	TO_CACHE:   16409286

STLB Hit, L1D data hit: 0
STLB Hit, L2C data hit: 0
STLB Hit, LLC data hit: 0
STLB Hit, LLC data miss: 0
STLB STLB hints to L2: 0
L1D TOTAL     ACCESS:   87832208  HIT:   87312901  MISS:     519307  HIT %:    99.4088  MISS %:   0.591249   MPKI: 2.59653
L1D LOAD      ACCESS:   13705914  HIT:   13699730  MISS:       6184  HIT %:    99.9549  MISS %:  0.0451192   MPKI: 0.03092
L1D RFO       ACCESS:   10330308  HIT:   10189747  MISS:     140561  HIT %:    98.6393  MISS %:    1.36067   MPKI: 0.702805
L1D PREFETCH  ACCESS:   63795986  HIT:   63423424  MISS:     372562  HIT %:     99.416  MISS %:    0.58399   MPKI: 1.86281
L1D PREFETCH  REQUESTED:  343840623  ISSUED:  343840623  USEFUL:     483128  USELESS:         13
L1D USEFUL LOAD PREFETCHES:     483128 PREFETCH ISSUED TO LOWER LEVEL:    4790768  ACCURACY: 10.0846
L1D TIMELY PREFETCHES:     483128 LATE PREFETCHES: 3266 DROPPED PREFETCHES: 2700190
L1D PREFETCHES SAME FILL-ORIGIN LEVEL: 486407 DIFFERENT FILL-ORIGIN LEVEL: 4304361
L1D AVERAGE MISS LATENCY: 284.977 cycles
L1D RQ	ACCESS:   39285919	FORWARD:          0	MERGED:   21388740	TO_CACHE:   17897179
L1D WQ	ACCESS:   17675216	FORWARD:          0	MERGED:          0	TO_CACHE:   17675216
L1D PQ	ACCESS:  247572630	FORWARD:          0	MERGED:  151304637	TO_CACHE:   96267993

L1D UNIQUE REGIONS ACCESSED: 0
L1D REGIONS CONFLICTS: 0
L1D Cross Page Prefetch Requests: 21823286
L1D Same Page Prefetch Requests: 317093346
L1D ROI Sum of L1D PQ occupancy: 1255803434
L1D PREFETCHES PUSHED FROM L2C: 0
L1I TOTAL     ACCESS:   31621177  HIT:   31621132  MISS:         45  HIT %:    99.9999  MISS %: 0.00014231   MPKI: 0.000225
L1I LOAD      ACCESS:   31621177  HIT:   31621132  MISS:         45  HIT %:    99.9999  MISS %: 0.00014231   MPKI: 0.000225
L1I PREFETCH  REQUESTED:          0  ISSUED:          0  USEFUL:          0  USELESS:          0
L1I USEFUL LOAD PREFETCHES:          0 PREFETCH ISSUED TO LOWER LEVEL:          0  ACCURACY: -nan
L1I TIMELY PREFETCHES:          0 LATE PREFETCHES: 0 DROPPED PREFETCHES: 0
L1I PREFETCHES SAME FILL-ORIGIN LEVEL: 0 DIFFERENT FILL-ORIGIN LEVEL: 0
L1I AVERAGE MISS LATENCY: 314.467 cycles
L1I RQ	ACCESS:   84591391	FORWARD:          0	MERGED:   44394923	TO_CACHE:   40196468

BTB TOTAL     ACCESS:   48474768  HIT:   48474722  MISS:         46  HIT %:    99.9999  MISS %: 9.48947e-05   MPKI: 0.00023
BTB BRANCH_DIRECT_JUMP	ACCESS:          7  HIT:          0  MISS:          7
BTB BRANCH_INDIRECT	ACCESS:          0  HIT:          0  MISS:          0
BTB BRANCH_CONDITIONAL	ACCESS:   48474749  HIT:   48474722  MISS:         27
BTB BRANCH_DIRECT_CALL	ACCESS:          5  HIT:          0  MISS:          5
BTB BRANCH_INDIRECT_CALL	ACCESS:          1  HIT:          0  MISS:          1
BTB BRANCH_RETURN	ACCESS:          6  HIT:          0  MISS:          6
BTB BRANCH_OTHER ACCESS:          0  HIT:          0  MISS:          0

L2C TOTAL     ACCESS:    4026445  HIT:    3480153  MISS:     546292  HIT %:    86.4324  MISS %:    13.5676   MPKI: 2.73146
L2C LOAD      ACCESS:       2963  HIT:          1  MISS:       2962  HIT %:  0.0337496  MISS %:    99.9663   MPKI: 0.01481
L2C DATA LOAD MPKI: 0.014585
L2C INSTRUCTION LOAD MPKI: 0.000225
L2C RFO       ACCESS:     140561  HIT:          3  MISS:     140558  HIT %:  0.0021343  MISS %:    99.9979   MPKI: 0.70279
L2C PREFETCH  ACCESS:    2894306  HIT:    2518474  MISS:     375832  HIT %:    87.0148  MISS %:    12.9852   MPKI: 1.87916
L2C DATA PREFETCH MPKI: 1.87916
L2C INSTRUCTION PREFETCH MPKI: 0
L2C WRITEBACK ACCESS:     378725  HIT:     352841  MISS:      25884  HIT %:    93.1655  MISS %:    6.83451   MPKI: 0.12942
L2C LOAD TRANSLATION ACCESS:       8057  HIT:       7758  MISS:        299  HIT %:    96.2889  MISS %:    3.71106   MPKI: 0.001495
L2C TRANSLATION FROM L1D PREFETCHER ACCESS:     601833  HIT:     601076  MISS:        757  HIT %:    99.8742  MISS %:   0.125782   MPKI: 0.003785
L2C PREFETCH  REQUESTED:          0  ISSUED:          0  USEFUL:        982  USELESS:     486358
L2C USEFUL LOAD PREFETCHES:        982 PREFETCH ISSUED TO LOWER LEVEL:     486410  ACCURACY: 0.201887
L2C TIMELY PREFETCHES:        982 LATE PREFETCHES: 0 DROPPED PREFETCHES: 0
L2C PREFETCHES SAME FILL-ORIGIN LEVEL: 85746 DIFFERENT FILL-ORIGIN LEVEL: 0
L2C AVERAGE MISS LATENCY: 298.37 cycles
L2C RQ	ACCESS:     755142	FORWARD:          0	MERGED:          0	TO_CACHE:     755142
L2C WQ	ACCESS:     489303	FORWARD:          0	MERGED:          0	TO_CACHE:     489303
L2C PQ	ACCESS:    4790768	FORWARD:          0	MERGED:       2319	TO_CACHE:    4788449

L2C Instructions Evicting Data 45
L2C Translations Evicting Data 1278
L2C Data Evicting Data 628553
L2C Instructions Evicting Instructions 0
L2C Translations Evicting Instructions 0
L2C Data Evicting Instructions 43
L2C Instructions Evicting Translations 0
L2C Translations Evicting Translations 0
L2C Data Evicting Translations 1232
L2C Dense regions hint from L2: 0
PSCL5 TOTAL     ACCESS:     609890  HIT:     609890  MISS:          0  HIT %:        100  MISS %:          0   MPKI: 0
PSCL5 LOAD TRANSLATION ACCESS:       8057  HIT:       8057  MISS:          0  HIT %:        100  MISS %:          0   MPKI: 0
PSCL5 TRANSLATION FROM L1D PREFETCHER ACCESS:     601833  HIT:     601833  MISS:          0  HIT %:        100  MISS %:          0   MPKI: 0
PSCL5 PREFETCH  REQUESTED:          0  ISSUED:          0  USEFUL:          0  USELESS:          0
PSCL5 USEFUL LOAD PREFETCHES:          0 PREFETCH ISSUED TO LOWER LEVEL:          0  ACCURACY: -nan
PSCL5 TIMELY PREFETCHES:          0 LATE PREFETCHES: 0 DROPPED PREFETCHES: 0
PSCL5 PREFETCHES SAME FILL-ORIGIN LEVEL: 0 DIFFERENT FILL-ORIGIN LEVEL: 0

PSCL4 TOTAL     ACCESS:     609890  HIT:     609889  MISS:          1  HIT %:    99.9998  MISS %: 0.000163964   MPKI: 5e-06
PSCL4 LOAD TRANSLATION ACCESS:       8057  HIT:       8056  MISS:          1  HIT %:    99.9876  MISS %:  0.0124116   MPKI: 5e-06
PSCL4 TRANSLATION FROM L1D PREFETCHER ACCESS:     601833  HIT:     601833  MISS:          0  HIT %:        100  MISS %:          0   MPKI: 0
PSCL4 PREFETCH  REQUESTED:          0  ISSUED:          0  USEFUL:          0  USELESS:          0
PSCL4 USEFUL LOAD PREFETCHES:          0 PREFETCH ISSUED TO LOWER LEVEL:          0  ACCURACY: -nan
PSCL4 TIMELY PREFETCHES:          0 LATE PREFETCHES: 0 DROPPED PREFETCHES: 0
PSCL4 PREFETCHES SAME FILL-ORIGIN LEVEL: 0 DIFFERENT FILL-ORIGIN LEVEL: 0

PSCL3 TOTAL     ACCESS:     609890  HIT:     609888  MISS:          2  HIT %:    99.9997  MISS %: 0.000327928   MPKI: 1e-05
PSCL3 LOAD TRANSLATION ACCESS:       8057  HIT:       8055  MISS:          2  HIT %:    99.9752  MISS %:  0.0248231   MPKI: 1e-05
PSCL3 TRANSLATION FROM L1D PREFETCHER ACCESS:     601833  HIT:     601833  MISS:          0  HIT %:        100  MISS %:          0   MPKI: 0
PSCL3 PREFETCH  REQUESTED:          0  ISSUED:          0  USEFUL:          0  USELESS:          0
PSCL3 USEFUL LOAD PREFETCHES:          0 PREFETCH ISSUED TO LOWER LEVEL:          0  ACCURACY: -nan
PSCL3 TIMELY PREFETCHES:          0 LATE PREFETCHES: 0 DROPPED PREFETCHES: 0
PSCL3 PREFETCHES SAME FILL-ORIGIN LEVEL: 0 DIFFERENT FILL-ORIGIN LEVEL: 0

PSCL2 TOTAL     ACCESS:     608705  HIT:     608681  MISS:         24  HIT %:    99.9961  MISS %:  0.0039428   MPKI: 0.00012
PSCL2 LOAD TRANSLATION ACCESS:       8057  HIT:       8033  MISS:         24  HIT %:    99.7021  MISS %:   0.297878   MPKI: 0.00012
PSCL2 TRANSLATION FROM L1D PREFETCHER ACCESS:     600648  HIT:     600648  MISS:          0  HIT %:        100  MISS %:          0   MPKI: 0
PSCL2 PREFETCH  REQUESTED:          0  ISSUED:          0  USEFUL:          0  USELESS:          0
PSCL2 USEFUL LOAD PREFETCHES:          0 PREFETCH ISSUED TO LOWER LEVEL:          0  ACCURACY: -nan
PSCL2 TIMELY PREFETCHES:          0 LATE PREFETCHES: 0 DROPPED PREFETCHES: 0
PSCL2 PREFETCHES SAME FILL-ORIGIN LEVEL: 0 DIFFERENT FILL-ORIGIN LEVEL: 0

LLC TOTAL     ACCESS:     901101  HIT:     223309  MISS:     677792  HIT %:    24.7818  MISS %:    75.2182   MPKI: 3.38896
LLC LOAD      ACCESS:       2962  HIT:          0  MISS:       2962  HIT %:          0  MISS %:        100   MPKI: 0.01481
LLC RFO       ACCESS:     140558  HIT:          0  MISS:     140558  HIT %:          0  MISS %:        100   MPKI: 0.70279
LLC PREFETCH  ACCESS:     375832  HIT:          0  MISS:     375832  HIT %:          0  MISS %:        100   MPKI: 1.87916
LLC WRITEBACK ACCESS:     380693  HIT:     223298  MISS:     157395  HIT %:    58.6557  MISS %:    41.3443   MPKI: 0.786975
LLC LOAD TRANSLATION ACCESS:        299  HIT:          6  MISS:        293  HIT %:    2.00669  MISS %:    97.9933   MPKI: 0.001465
LLC TRANSLATION FROM L1D PREFETCHER ACCESS:        757  HIT:          5  MISS:        752  HIT %:   0.660502  MISS %:    99.3395   MPKI: 0.00376
LLC PREFETCH  REQUESTED:          0  ISSUED:          0  USEFUL:     213016  USELESS:    1642191
LLC USEFUL LOAD PREFETCHES:     213016 PREFETCH ISSUED TO LOWER LEVEL:    1844109  ACCURACY: 11.5512
LLC TIMELY PREFETCHES:     213016 LATE PREFETCHES: 0 DROPPED PREFETCHES: 0
LLC PREFETCHES SAME FILL-ORIGIN LEVEL: 0 DIFFERENT FILL-ORIGIN LEVEL: 0
LLC AVERAGE MISS LATENCY: 2103.44 cycles
LLC RQ	ACCESS:    4482801	FORWARD:          0	MERGED:          0	TO_CACHE:    4481657
LLC WQ	ACCESS:    1730450	FORWARD:       1154	MERGED:          0	TO_CACHE:    1730450
LLC PQ	ACCESS:    8404168	FORWARD:          0	MERGED:          0	TO_CACHE:    8404158

LLC Dense regions hint to LLC: 0

RAW hits: 0
Loads Generated: 32208879
Loads sent to L1D: 32208878
Stores Generated: 14923080
Stores sent to L1D: 14923079
Major fault: 0 Minor fault: 9708
Allocated PAGES: 41541

CPU 2 cumulative IPC: 1.06879 instructions: 200000001 cycles: 187127944
ITLB TOTAL     ACCESS:   26971588  HIT:   26971534  MISS:         54  HIT %:    99.9998  MISS %: 0.000200211   MPKI: 0.00027
ITLB LOAD TRANSLATION ACCESS:   26971588  HIT:   26971534  MISS:         54  HIT %:    99.9998  MISS %: 0.000200211   MPKI: 0.00027
ITLB PREFETCH  REQUESTED:          0  ISSUED:          0  USEFUL:          0  USELESS:          0
ITLB USEFUL LOAD PREFETCHES:          0 PREFETCH ISSUED TO LOWER LEVEL:          0  ACCURACY: -nan
ITLB TIMELY PREFETCHES:          0 LATE PREFETCHES: 0 DROPPED PREFETCHES: 0
ITLB PREFETCHES SAME FILL-ORIGIN LEVEL: 0 DIFFERENT FILL-ORIGIN LEVEL: 0
ITLB AVERAGE MISS LATENCY: 363.389 cycles
ITLB RQ	ACCESS:   52921578	FORWARD:          0	MERGED:   12557701	TO_CACHE:   40363877

DTLB TOTAL     ACCESS:   38602094  HIT:   23597042  MISS:   15005052  HIT %:    61.1289  MISS %:    38.8711   MPKI: 75.0253
DTLB LOAD TRANSLATION ACCESS:   38602094  HIT:   23597042  MISS:   15005052  HIT %:    61.1289  MISS %:    38.8711   MPKI: 75.0253
DTLB PREFETCH  REQUESTED:          0  ISSUED:          0  USEFUL:          0  USELESS:          0
DTLB USEFUL LOAD PREFETCHES:          0 PREFETCH ISSUED TO LOWER LEVEL:          0  ACCURACY: -nan
DTLB TIMELY PREFETCHES:          0 LATE PREFETCHES: 0 DROPPED PREFETCHES: 0
DTLB PREFETCHES SAME FILL-ORIGIN LEVEL: 0 DIFFERENT FILL-ORIGIN LEVEL: 0
DTLB AVERAGE MISS LATENCY: 15.1232 cycles
DTLB RQ	ACCESS:   86353143	FORWARD:          0	MERGED:   25449952	TO_CACHE:   60903191

STLB TOTAL     ACCESS:   29090179  HIT:   29065603  MISS:      24576  HIT %:    99.9155  MISS %:  0.0844821   MPKI: 0.12288
STLB LOAD TRANSLATION ACCESS:   15005106  HIT:   14982222  MISS:      22884  HIT %:    99.8475  MISS %:   0.152508   MPKI: 0.11442
STLB TRANSLATION FROM L1D PREFETCHER ACCESS:   14085073  HIT:   14083381  MISS:       1692  HIT %:     99.988  MISS %:  0.0120127   MPKI: 0.00846
STLB PREFETCH  REQUESTED:          0  ISSUED:          0  USEFUL:       3266  USELESS:          0
STLB USEFUL LOAD PREFETCHES:       3266 PREFETCH ISSUED TO LOWER LEVEL:          0  ACCURACY: inf
STLB TIMELY PREFETCHES:       3266 LATE PREFETCHES: 358 DROPPED PREFETCHES: 642085
STLB PREFETCHES SAME FILL-ORIGIN LEVEL: 0 DIFFERENT FILL-ORIGIN LEVEL: 0
STLB AVERAGE MISS LATENCY: 527.969 cycles
STLB RQ	ACCESS:  109147987	FORWARD:          0	MERGED:   64389259	TO_CACHE:   44758728

STLB Hit, L1D data hit: 0
STLB Hit, L2C data hit: 0
STLB Hit, LLC data hit: 0
STLB Hit, LLC data miss: 0
STLB STLB hints to L2: 0
L1D TOTAL     ACCESS:   80141104  HIT:   57051608  MISS:   23089496  HIT %:    71.1889  MISS %:    28.8111   MPKI: 115.447
L1D LOAD      ACCESS:   34518990  HIT:   13201480  MISS:   21317510  HIT %:    38.2441  MISS %:    61.7559   MPKI: 106.588
L1D RFO       ACCESS:   22635375  HIT:   21054634  MISS:    1580741  HIT %:    93.0165  MISS %:     6.9835   MPKI: 7.9037
L1D PREFETCH  ACCESS:   22986739  HIT:   22795494  MISS:     191245  HIT %:     99.168  MISS %:    0.83198   MPKI: 0.956225
L1D PREFETCH  REQUESTED:  259151618  ISSUED:  205848930  USEFUL:      24929  USELESS:     278777
L1D USEFUL LOAD PREFETCHES:      24929 PREFETCH ISSUED TO LOWER LEVEL:   45934424  ACCURACY: 0.0542708
L1D TIMELY PREFETCHES:      24929 LATE PREFETCHES: 24498 DROPPED PREFETCHES: 1546380
L1D PREFETCHES SAME FILL-ORIGIN LEVEL: 328675 DIFFERENT FILL-ORIGIN LEVEL: 45605749
L1D AVERAGE MISS LATENCY: 57.597 cycles
L1D RQ	ACCESS:   85458410	FORWARD:          0	MERGED:   33152863	TO_CACHE:   52230383
L1D WQ	ACCESS:   34123797	FORWARD:     501627	MERGED:       1037	TO_CACHE:   34122760
L1D PQ	ACCESS:  119201192	FORWARD:          0	MERGED:   32126991	TO_CACHE:   86647738

L1D UNIQUE REGIONS ACCESSED: 0
L1D REGIONS CONFLICTS: 0
L1D Cross Page Prefetch Requests: 72583399
L1D Same Page Prefetch Requests: 61621631
L1D ROI Sum of L1D PQ occupancy: 1325175067
L1D PREFETCHES PUSHED FROM L2C: 0
L1I TOTAL     ACCESS:   35324500  HIT:   35274843  MISS:      49657  HIT %:    99.8594  MISS %:   0.140574   MPKI: 0.248285
L1I LOAD      ACCESS:   35324500  HIT:   35274843  MISS:      49657  HIT %:    99.8594  MISS %:   0.140574   MPKI: 0.248285
L1I PREFETCH  REQUESTED:          0  ISSUED:          0  USEFUL:          0  USELESS:          0
L1I USEFUL LOAD PREFETCHES:          0 PREFETCH ISSUED TO LOWER LEVEL:          0  ACCURACY: -nan
L1I TIMELY PREFETCHES:          0 LATE PREFETCHES: 0 DROPPED PREFETCHES: 0
L1I PREFETCHES SAME FILL-ORIGIN LEVEL: 0 DIFFERENT FILL-ORIGIN LEVEL: 0
L1I AVERAGE MISS LATENCY: 16.3332 cycles
L1I RQ	ACCESS:   77578974	FORWARD:          0	MERGED:   24657396	TO_CACHE:   52921578

BTB TOTAL     ACCESS:     207305  HIT:     204093  MISS:       3212  HIT %:    98.4506  MISS %:    1.54941   MPKI: 0.01606
BTB BRANCH_DIRECT_JUMP	ACCESS:      61458  HIT:      61423  MISS:         35
BTB BRANCH_INDIRECT	ACCESS:      58898  HIT:      58820  MISS:         78
BTB BRANCH_CONDITIONAL	ACCESS:      74915  HIT:      74516  MISS:        399
BTB BRANCH_DIRECT_CALL	ACCESS:       6013  HIT:       5388  MISS:        625
BTB BRANCH_INDIRECT_CALL	ACCESS:          3  HIT:          0  MISS:          3
BTB BRANCH_RETURN	ACCESS:       6018  HIT:       3946  MISS:       2072
BTB BRANCH_OTHER ACCESS:          0  HIT:          0  MISS:          0

L2C TOTAL     ACCESS:   54589338  HIT:   51382214  MISS:    3207124  HIT %:     94.125  MISS %:      5.875   MPKI: 16.0356
L2C LOAD      ACCESS:   21008964  HIT:   19302713  MISS:    1706251  HIT %:    91.8785  MISS %:    8.12154   MPKI: 8.53125
L2C DATA LOAD MPKI: 8.52703
L2C INSTRUCTION LOAD MPKI: 0.004225
L2C RFO       ACCESS:    1577257  HIT:    1536625  MISS:      40632  HIT %:    97.4239  MISS %:    2.57612   MPKI: 0.20316
L2C PREFETCH  ACCESS:   29488790  HIT:   28068140  MISS:    1420650  HIT %:    95.1824  MISS %:    4.81759   MPKI: 7.10325
L2C DATA PREFETCH MPKI: 7.10325
L2C INSTRUCTION PREFETCH MPKI: 0
L2C WRITEBACK ACCESS:    1740359  HIT:    1735480  MISS:       4879  HIT %:    99.7197  MISS %:   0.280344   MPKI: 0.024395
L2C LOAD TRANSLATION ACCESS:      36430  HIT:       7084  MISS:      29346  HIT %:    19.4455  MISS %:    80.5545   MPKI: 0.14673
L2C TRANSLATION FROM L1D PREFETCHER ACCESS:     737538  HIT:     732172  MISS:       5366  HIT %:    99.2724  MISS %:   0.727556   MPKI: 0.02683
L2C PREFETCH  REQUESTED:          0  ISSUED:          0  USEFUL:     929653  USELESS:    1342164
[...]
L2C RQ	ACCESS:   35234777	FORWARD:          0	MERGED:          0	TO_CACHE:   34717090
L2C WQ	ACCESS:    2609309	FORWARD:     521027	MERGED:          0	TO_CACHE:    2609309
L2C PQ	ACCESS:   45851229	FORWARD:          0	MERGED:     496517	TO_CACHE:   45351372

L2C Instructions Evicting Data 784
L2C Translations Evicting Data 52039
L2C Data Evicting Data 4873991
L2C Instructions Evicting Instructions 40
L2C Translations Evicting Instructions 25
L2C Data Evicting Instructions 922
L2C Instructions Evicting Translations 21
L2C Translations Evicting Translations 136
L2C Data Evicting Translations 52013
L2C Dense regions hint from L2: 0
PSCL5 TOTAL     ACCESS:     613465  HIT:     613465  MISS:          0  HIT %:        100  MISS %:          0   MPKI: 0
PSCL5 LOAD TRANSLATION ACCESS:      22874  HIT:      22874  MISS:          0  HIT %:        100  MISS %:          0   MPKI: 0
PSCL5 TRANSLATION FROM L1D PREFETCHER ACCESS:     590591  HIT:     590591  MISS:          0  HIT %:        100  MISS %:          0   MPKI: 0
PSCL5 PREFETCH  REQUESTED:          0  ISSUED:          0  USEFUL:          0  USELESS:          0
PSCL5 USEFUL LOAD PREFETCHES:          0 PREFETCH ISSUED TO LOWER LEVEL:          0  ACCURACY: -nan
PSCL5 TIMELY PREFETCHES:          0 LATE PREFETCHES: 0 DROPPED PREFETCHES: 0
PSCL5 PREFETCHES SAME FILL-ORIGIN LEVEL: 0 DIFFERENT FILL-ORIGIN LEVEL: 0

PSCL4 TOTAL     ACCESS:     613465  HIT:     613465  MISS:          0  HIT %:        100  MISS %:          0   MPKI: 0
PSCL4 LOAD TRANSLATION ACCESS:      22874  HIT:      22874  MISS:          0  HIT %:        100  MISS %:          0   MPKI: 0
PSCL4 TRANSLATION FROM L1D PREFETCHER ACCESS:     590591  HIT:     590591  MISS:          0  HIT %:        100  MISS %:          0   MPKI: 0
PSCL4 PREFETCH  REQUESTED:          0  ISSUED:          0  USEFUL:          0  USELESS:          0
PSCL4 USEFUL LOAD PREFETCHES:          0 PREFETCH ISSUED TO LOWER LEVEL:          0  ACCURACY: -nan
PSCL4 TIMELY PREFETCHES:          0 LATE PREFETCHES: 0 DROPPED PREFETCHES: 0
PSCL4 PREFETCHES SAME FILL-ORIGIN LEVEL: 0 DIFFERENT FILL-ORIGIN LEVEL: 0

PSCL3 TOTAL     ACCESS:     609603  HIT:     609599  MISS:          4  HIT %:    99.9993  MISS %: 0.000656165   MPKI: 2e-05
PSCL3 LOAD TRANSLATION ACCESS:      22872  HIT:      22868  MISS:          4  HIT %:    99.9825  MISS %:  0.0174886   MPKI: 2e-05
PSCL3 TRANSLATION FROM L1D PREFETCHER ACCESS:     586731  HIT:     586731  MISS:          0  HIT %:        100  MISS %:          0   MPKI: 0
PSCL3 PREFETCH  REQUESTED:          0  ISSUED:          0  USEFUL:          0  USELESS:          0
PSCL3 USEFUL LOAD PREFETCHES:          0 PREFETCH ISSUED TO LOWER LEVEL:          0  ACCURACY: -nan
PSCL3 TIMELY PREFETCHES:          0 LATE PREFETCHES: 0 DROPPED PREFETCHES: 0
PSCL3 PREFETCHES SAME FILL-ORIGIN LEVEL: 0 DIFFERENT FILL-ORIGIN LEVEL: 0

PSCL2 TOTAL     ACCESS:     470913  HIT:     456751  MISS:      14162  HIT %:    96.9927  MISS %:    3.00735   MPKI: 0.07081
PSCL2 LOAD TRANSLATION ACCESS:      23410  HIT:       9248  MISS:      14162  HIT %:    39.5045  MISS %:    60.4955   MPKI: 0.07081
PSCL2 TRANSLATION FROM L1D PREFETCHER ACCESS:     447503  HIT:     447503  MISS:          0  HIT %:        100  MISS %:          0   MPKI: 0
PSCL2 PREFETCH  REQUESTED:          0  ISSUED:          0  USEFUL:          0  USELESS:          0
PSCL2 USEFUL LOAD PREFETCHES:          0 PREFETCH ISSUED TO LOWER LEVEL:          0  ACCURACY: -nan
PSCL2 TIMELY PREFETCHES:          0 LATE PREFETCHES: 0 DROPPED PREFETCHES: 0
PSCL2 PREFETCHES SAME FILL-ORIGIN LEVEL: 0 DIFFERENT FILL-ORIGIN LEVEL: 0

LLC TOTAL     ACCESS:    3410964  HIT:    1857962  MISS:    1553002  HIT %:    54.4703  MISS %:    45.5297   MPKI: 7.76501
LLC LOAD      ACCESS:    1691712  HIT:     358791  MISS:    1332921  HIT %:    21.2088  MISS %:    78.7912   MPKI: 6.6646
LLC RFO       ACCESS:      40041  HIT:      38932  MISS:       1109  HIT %:    97.2303  MISS %:    2.76966   MPKI: 0.005545
LLC PREFETCH  ACCESS:    1435165  HIT:    1221527  MISS:     213638  HIT %:     85.114  MISS %:     14.886   MPKI: 1.06819
LLC WRITEBACK ACCESS:     209334  HIT:     207830  MISS:       1504  HIT %:    99.2815  MISS %:   0.718469   MPKI: 0.00752
LLC LOAD TRANSLATION ACCESS:      29346  HIT:      26042  MISS:       3304  HIT %:    88.7412  MISS %:    11.2588   MPKI: 0.01652
LLC TRANSLATION FROM L1D PREFETCHER ACCESS:       5366  HIT:       4840  MISS:        526  HIT %:    90.1975  MISS %:    9.80246   MPKI: 0.00263
LLC PREFETCH  REQUESTED:          0  ISSUED:          0  USEFUL:     213016  USELESS:    1642191
LLC USEFUL LOAD PREFETCHES:     213016 PREFETCH ISSUED TO LOWER LEVEL:    1844109  ACCURACY: 11.5512
LLC TIMELY PREFETCHES:     213016 LATE PREFETCHES: 0 DROPPED PREFETCHES: 0
LLC PREFETCHES SAME FILL-ORIGIN LEVEL: 0 DIFFERENT FILL-ORIGIN LEVEL: 0
LLC AVERAGE MISS LATENCY: 918.023 cycles
LLC RQ	ACCESS:    4482801	FORWARD:          0	MERGED:          0	TO_CACHE:    4481657
LLC WQ	ACCESS:    1730450	FORWARD:       1154	MERGED:          0	TO_CACHE:    1730450
LLC PQ	ACCESS:    8404168	FORWARD:          0	MERGED:          0	TO_CACHE:    8404158

LLC Dense regions hint to LLC: 0

RAW hits: 138850
Loads Generated: 57291777
Loads sent to L1D: 57152921
Stores Generated: 22785116
Stores sent to L1D: 22785114
Major fault: 0 Minor fault: 20356
Allocated PAGES: 41541

CPU 3 cumulative IPC: 1.43444 instructions: 200000000 cycles: 139427110
ITLB TOTAL     ACCESS:   31049783  HIT:   31049783  MISS:          0  HIT %:        100  MISS %:          0   MPKI: 0
ITLB LOAD TRANSLATION ACCESS:   31049783  HIT:   31049783  MISS:          0  HIT %:        100  MISS %:          0   MPKI: 0
ITLB PREFETCH  REQUESTED:          0  ISSUED:          0  USEFUL:          0  USELESS:          0
ITLB USEFUL LOAD PREFETCHES:          0 PREFETCH ISSUED TO LOWER LEVEL:          0  ACCURACY: -nan
ITLB TIMELY PREFETCHES:          0 LATE PREFETCHES: 0 DROPPED PREFETCHES: 0
ITLB PREFETCHES SAME FILL-ORIGIN LEVEL: 0 DIFFERENT FILL-ORIGIN LEVEL: 0
ITLB AVERAGE MISS LATENCY: inf cycles
ITLB RQ	ACCESS:   71050425	FORWARD:          0	MERGED:   10808588	TO_CACHE:   60241837

DTLB TOTAL     ACCESS:   28716444  HIT:   28498570  MISS:     217874  HIT %:    99.2413  MISS %:   0.758708   MPKI: 1.08937
DTLB LOAD TRANSLATION ACCESS:   28716444  HIT:   28498570  MISS:     217874  HIT %:    99.2413  MISS %:   0.758708   MPKI: 1.08937
DTLB PREFETCH  REQUESTED:          0  ISSUED:          0  USEFUL:          0  USELESS:          0
DTLB USEFUL LOAD PREFETCHES:          0 PREFETCH ISSUED TO LOWER LEVEL:          0  ACCURACY: -nan
DTLB TIMELY PREFETCHES:          0 LATE PREFETCHES: 0 DROPPED PREFETCHES: 0
DTLB PREFETCHES SAME FILL-ORIGIN LEVEL: 0 DIFFERENT FILL-ORIGIN LEVEL: 0
DTLB AVERAGE MISS LATENCY: 42.2507 cycles
DTLB RQ	ACCESS:   69040257	FORWARD:          0	MERGED:   13518307	TO_CACHE:   55521950

STLB TOTAL     ACCESS:   16699754  HIT:   16635678  MISS:      64076  HIT %:    99.6163  MISS %:   0.383694   MPKI: 0.32038
STLB LOAD TRANSLATION ACCESS:     217874  HIT:     185301  MISS:      32573  HIT %:    85.0496  MISS %:    14.9504   MPKI: 0.162865
STLB TRANSLATION FROM L1D PREFETCHER ACCESS:   16481880  HIT:   16450377  MISS:      31503  HIT %:    99.8089  MISS %:   0.191137   MPKI: 0.157515
STLB PREFETCH  REQUESTED:          0  ISSUED:          0  USEFUL:      80492  USELESS:        652
STLB USEFUL LOAD PREFETCHES:      80492 PREFETCH ISSUED TO LOWER LEVEL:          0  ACCURACY: inf
STLB TIMELY PREFETCHES:      80492 LATE PREFETCHES: 122 DROPPED PREFETCHES: 183100
STLB PREFETCHES SAME FILL-ORIGIN LEVEL: 0 DIFFERENT FILL-ORIGIN LEVEL: 0
STLB AVERAGE MISS LATENCY: 112.192 cycles
STLB RQ	ACCESS:  139522004	FORWARD:          0	MERGED:  107247975	TO_CACHE:   32274029

STLB Hit, L1D data hit: 0
STLB Hit, L2C data hit: 0
STLB Hit, LLC data hit: 0
STLB Hit, LLC data miss: 0
STLB STLB hints to L2: 0
L1D TOTAL     ACCESS:   96765139  HIT:   93772683  MISS:    2992456  HIT %:    96.9075  MISS %:    3.09249   MPKI: 14.9623
L1D LOAD      ACCESS:   31490700  HIT:   30788896  MISS:     701804  HIT %:    97.7714  MISS %:    2.22861   MPKI: 3.50902
L1D RFO       ACCESS:    3176494  HIT:    2942130  MISS:     234364  HIT %:    92.6219  MISS %:    7.37807   MPKI: 1.17182
L1D PREFETCH  ACCESS:   62097945  HIT:   60041657  MISS:    2056288  HIT %:    96.6886  MISS %:    3.31136   MPKI: 10.2814
L1D PREFETCH  REQUESTED:  626333430  ISSUED:  421649421  USEFUL:    3625228  USELESS:     183649
L1D USEFUL LOAD PREFETCHES:    3625228 PREFETCH ISSUED TO LOWER LEVEL:   28872443  ACCURACY: 12.556
L1D TIMELY PREFETCHES:    3625228 LATE PREFETCHES: 12042 DROPPED PREFETCHES: 292604
L1D PREFETCHES SAME FILL-ORIGIN LEVEL: 3821831 DIFFERENT FILL-ORIGIN LEVEL: 25050612
L1D AVERAGE MISS LATENCY: 92.6967 cycles
L1D RQ	ACCESS:   96625676	FORWARD:          0	MERGED:   36311640	TO_CACHE:   60210906
L1D WQ	ACCESS:    8866750	FORWARD:     103432	MERGED:      37399	TO_CACHE:    8829351
L1D PQ	ACCESS:  282640024	FORWARD:          0	MERGED:  143630325	TO_CACHE:  139009397

L1D UNIQUE REGIONS ACCESSED: 0
L1D REGIONS CONFLICTS: 0
L1D Cross Page Prefetch Requests: 42135973
L1D Same Page Prefetch Requests: 280927541
L1D ROI Sum of L1D PQ occupancy: 1883774908
L1D PREFETCHES PUSHED FROM L2C: 0
L1I TOTAL     ACCESS:   37001951  HIT:   37001681  MISS:        270  HIT %:    99.9993  MISS %: 0.000729691   MPKI: 0.00135
L1I LOAD      ACCESS:   37001951  HIT:   37001681  MISS:        270  HIT %:    99.9993  MISS %: 0.000729691   MPKI: 0.00135
L1I PREFETCH  REQUESTED:          0  ISSUED:          0  USEFUL:          0  USELESS:          0
L1I USEFUL LOAD PREFETCHES:          0 PREFETCH ISSUED TO LOWER LEVEL:          0  ACCURACY: -nan
L1I TIMELY PREFETCHES:          0 LATE PREFETCHES: 0 DROPPED PREFETCHES: 0
L1I PREFETCHES SAME FILL-ORIGIN LEVEL: 0 DIFFERENT FILL-ORIGIN LEVEL: 0
L1I AVERAGE MISS LATENCY: 1202.09 cycles
L1I RQ	ACCESS:   95444535	FORWARD:          0	MERGED:   24394110	TO_CACHE:   71050425

BTB TOTAL     ACCESS:   16644468  HIT:   16575378  MISS:      69090  HIT %:    99.5849  MISS %:   0.415093   MPKI: 0.34545
BTB BRANCH_DIRECT_JUMP	ACCESS:     457493  HIT:     457483  MISS:         10
BTB BRANCH_INDIRECT	ACCESS:          0  HIT:          0  MISS:          0
BTB BRANCH_CONDITIONAL	ACCESS:   15748539  HIT:   15748491  MISS:         48
BTB BRANCH_DIRECT_CALL	ACCESS:     219165  HIT:     219148  MISS:         17
BTB BRANCH_INDIRECT_CALL	ACCESS:         53  HIT:         53  MISS:          0
BTB BRANCH_RETURN	ACCESS:     219218  HIT:     150203  MISS:      69015
BTB BRANCH_OTHER ACCESS:          0  HIT:          0  MISS:          0

L2C TOTAL     ACCESS:   13507568  HIT:   10284066  MISS:    3223502  HIT %:    76.1356  MISS %:    23.8644   MPKI: 16.1175
L2C LOAD      ACCESS:     697503  HIT:     417748  MISS:     279755  HIT %:    59.8919  MISS %:    40.1081   MPKI: 1.39878
L2C DATA LOAD MPKI: 1.39742
L2C INSTRUCTION LOAD MPKI: 0.00135
L2C RFO       ACCESS:     234347  HIT:      24479  MISS:     209868  HIT %:    10.4456  MISS %:    89.5544   MPKI: 1.04934
L2C PREFETCH  ACCESS:   12151805  HIT:    9452746  MISS:    2699059  HIT %:    77.7888  MISS %:    22.2112   MPKI: 13.4953
L2C DATA PREFETCH MPKI: 13.4953
L2C INSTRUCTION PREFETCH MPKI: 0
L2C WRITEBACK ACCESS:     283557  HIT:     266039  MISS:      17518  HIT %:    93.8221  MISS %:    6.17795   MPKI: 0.08759
L2C LOAD TRANSLATION ACCESS:      32523  HIT:      21386  MISS:      11137  HIT %:    65.7565  MISS %:    34.2435   MPKI: 0.055685
L2C TRANSLATION FROM L1D PREFETCHER ACCESS:     107833  HIT:     101668  MISS:       6165  HIT %:    94.2828  MISS %:    5.71717   MPKI: 0.030825
L2C PREFETCH  REQUESTED:          0  ISSUED:          0  USEFUL:     549150  USELESS:    4988114
L2C USEFUL LOAD PREFETCHES:     549150 PREFETCH ISSUED TO LOWER LEVEL:    5547622  ACCURACY: 9.89884
L2C TIMELY PREFETCHES:     549150 LATE PREFETCHES: 22925 DROPPED PREFETCHES: 0
L2C PREFETCHES SAME FILL-ORIGIN LEVEL: 2993807 DIFFERENT FILL-ORIGIN LEVEL: 0
L2C AVERAGE MISS LATENCY: 159.712 cycles
L2C RQ	ACCESS:    2513311	FORWARD:          0	MERGED:          0	TO_CACHE:    2513292
L2C WQ	ACCESS:     586842	FORWARD:         25	MERGED:          0	TO_CACHE:     586842
L2C PQ	ACCESS:   28839791	FORWARD:          0	MERGED:     150836	TO_CACHE:   28688949

L2C Instructions Evicting Data 1114
L2C Translations Evicting Data 41927
L2C Data Evicting Data 6555792
L2C Instructions Evicting Instructions 14
L2C Translations Evicting Instructions 4
L2C Data Evicting Instructions 1108
L2C Instructions Evicting Translations 13
L2C Translations Evicting Translations 219
L2C Data Evicting Translations 41691
L2C Dense regions hint from L2: 0
PSCL5 TOTAL     ACCESS:     140356  HIT:     140356  MISS:          0  HIT %:        100  MISS %:          0   MPKI: 0
PSCL5 LOAD TRANSLATION ACCESS:      32523  HIT:      32523  MISS:          0  HIT %:        100  MISS %:          0   MPKI: 0
PSCL5 TRANSLATION FROM L1D PREFETCHER ACCESS:     107833  HIT:     107833  MISS:          0  HIT %:        100  MISS %:          0   MPKI: 0
PSCL5 PREFETCH  REQUESTED:          0  ISSUED:          0  USEFUL:          0  USELESS:          0
PSCL5 USEFUL LOAD PREFETCHES:          0 PREFETCH ISSUED TO LOWER LEVEL:          0  ACCURACY: -nan
PSCL5 TIMELY PREFETCHES:          0 LATE PREFETCHES: 0 DROPPED PREFETCHES: 0
PSCL5 PREFETCHES SAME FILL-ORIGIN LEVEL: 0 DIFFERENT FILL-ORIGIN LEVEL: 0

PSCL4 TOTAL     ACCESS:     140356  HIT:     140356  MISS:          0  HIT %:        100  MISS %:          0   MPKI: 0
PSCL4 LOAD TRANSLATION ACCESS:      32523  HIT:      32523  MISS:          0  HIT %:        100  MISS %:          0   MPKI: 0
PSCL4 TRANSLATION FROM L1D PREFETCHER ACCESS:     107833  HIT:     107833  MISS:          0  HIT %:        100  MISS %:          0   MPKI: 0
PSCL4 PREFETCH  REQUESTED:          0  ISSUED:          0  USEFUL:          0  USELESS:          0
PSCL4 USEFUL LOAD PREFETCHES:          0 PREFETCH ISSUED TO LOWER LEVEL:          0  ACCURACY: -nan
PSCL4 TIMELY PREFETCHES:          0 LATE PREFETCHES: 0 DROPPED PREFETCHES: 0
PSCL4 PREFETCHES SAME FILL-ORIGIN LEVEL: 0 DIFFERENT FILL-ORIGIN LEVEL: 0

PSCL3 TOTAL     ACCESS:     140356  HIT:     140356  MISS:          0  HIT %:        100  MISS %:          0   MPKI: 0
PSCL3 LOAD TRANSLATION ACCESS:      32523  HIT:      32523  MISS:          0  HIT %:        100  MISS %:          0   MPKI: 0
PSCL3 TRANSLATION FROM L1D PREFETCHER ACCESS:     107833  HIT:     107833  MISS:          0  HIT %:        100  MISS %:          0   MPKI: 0
PSCL3 PREFETCH  REQUESTED:          0  ISSUED:          0  USEFUL:          0  USELESS:          0
PSCL3 USEFUL LOAD PREFETCHES:          0 PREFETCH ISSUED TO LOWER LEVEL:          0  ACCURACY: -nan
PSCL3 TIMELY PREFETCHES:          0 LATE PREFETCHES: 0 DROPPED PREFETCHES: 0
PSCL3 PREFETCHES SAME FILL-ORIGIN LEVEL: 0 DIFFERENT FILL-ORIGIN LEVEL: 0

PSCL2 TOTAL     ACCESS:     140356  HIT:     140356  MISS:          0  HIT %:        100  MISS %:          0   MPKI: 0
PSCL2 LOAD TRANSLATION ACCESS:      32523  HIT:      32523  MISS:          0  HIT %:        100  MISS %:          0   MPKI: 0
PSCL2 TRANSLATION FROM L1D PREFETCHER ACCESS:     107833  HIT:     107833  MISS:          0  HIT %:        100  MISS %:          0   MPKI: 0
PSCL2 PREFETCH  REQUESTED:          0  ISSUED:          0  USEFUL:          0  USELESS:          0
PSCL2 USEFUL LOAD PREFETCHES:          0 PREFETCH ISSUED TO LOWER LEVEL:          0  ACCURACY: -nan
PSCL2 TIMELY PREFETCHES:          0 LATE PREFETCHES: 0 DROPPED PREFETCHES: 0
PSCL2 PREFETCHES SAME FILL-ORIGIN LEVEL: 0 DIFFERENT FILL-ORIGIN LEVEL: 0

LLC TOTAL     ACCESS:    3466811  HIT:    3014133  MISS:     452678  HIT %:    86.9425  MISS %:    13.0575   MPKI: 2.26339
LLC LOAD      ACCESS:     270357  HIT:     217056  MISS:      53301  HIT %:     80.285  MISS %:     19.715   MPKI: 0.266505
LLC RFO       ACCESS:     209865  HIT:     182163  MISS:      27702  HIT %:    86.8001  MISS %:    13.1999   MPKI: 0.13851
LLC PREFETCH  ACCESS:    2708455  HIT:    2340699  MISS:     367756  HIT %:    86.4219  MISS %:    13.5781   MPKI: 1.83878
LLC WRITEBACK ACCESS:     260832  HIT:     260212  MISS:        620  HIT %:    99.7623  MISS %:   0.237701   MPKI: 0.0031
LLC LOAD TRANSLATION ACCESS:      11137  HIT:       8915  MISS:       2222  HIT %:    80.0485  MISS %:    19.9515   MPKI: 0.01111
LLC TRANSLATION FROM L1D PREFETCHER ACCESS:       6165  HIT:       5088  MISS:       1077  HIT %:    82.5304  MISS %:    17.4696   MPKI: 0.005385
LLC PREFETCH  REQUESTED:          0  ISSUED:          0  USEFUL:     213016  USELESS:    1642191
LLC USEFUL LOAD PREFETCHES:     213016 PREFETCH ISSUED TO LOWER LEVEL:    1844109  ACCURACY: 11.5512
LLC TIMELY PREFETCHES:     213016 LATE PREFETCHES: 0 DROPPED PREFETCHES: 0
LLC PREFETCHES SAME FILL-ORIGIN LEVEL: 0 DIFFERENT FILL-ORIGIN LEVEL: 0
LLC AVERAGE MISS LATENCY: 3149.46 cycles
LLC RQ	ACCESS:    4482801	FORWARD:          0	MERGED:          0	TO_CACHE:    4481657
LLC WQ	ACCESS:    1730450	FORWARD:       1154	MERGED:          0	TO_CACHE:    1730450
LLC PQ	ACCESS:    8404168	FORWARD:          0	MERGED:          0	TO_CACHE:    8404158

LLC Dense regions hint to LLC: 0

RAW hits: 252174
Loads Generated: 50677486
Loads sent to L1D: 50425308
Stores Generated: 4351596
Stores sent to L1D: 4351596
Major fault: 0 Minor fault: 3267
Allocated PAGES: 41541

DRAM Statistics
 CHANNEL 0
 RQ ROW_BUFFER_HIT:    1448900  ROW_BUFFER_MISS:    3129866
 DBUS_CONGESTED:       1439
 WQ ROW_BUFFER_HIT:     260517  ROW_BUFFER_MISS:     936564  FULL:          0

 AVG_CONGESTED_CYCLE: 4
 All warmup complete: 5
Channel 0 Bank busy for read cycles: 0
Channel 0 Bank busy for write cycles: 0
Channel 0
Rank 0
0banks busy for read cycles: 14544467
0banks busy for write cycles: 47747
1banks busy for read cycles: 61577744
1banks busy for write cycles: 7833369
2banks busy for read cycles: 42488188
2banks busy for write cycles: 5964839
3banks busy for read cycles: 53103771
3banks busy for write cycles: 7470580
4banks busy for read cycles: 27453510
4banks busy for write cycles: 7478356
5banks busy for read cycles: 12267573
5banks busy for write cycles: 5555027
6banks busy for read cycles: 5762045
6banks busy for write cycles: 5570187
7banks busy for read cycles: 3057783
7banks busy for write cycles: 7504440
8banks busy for read cycles: 2112368
8banks busy for write cycles: 8778503

CPU 0 Branch Prediction Accuracy: 92.5151% MPKI: 8.82498 Average ROB Occupancy at Mispredict: 47.8155
Branch types
NOT_BRANCH: 175164063 87.582%
BRANCH_DIRECT_JUMP: 2848501 1.42425%
BRANCH_INDIRECT: 454190 0.227095%
BRANCH_CONDITIONAL: 20935449 10.4677%
BRANCH_DIRECT_CALL: 195073 0.0975365%
BRANCH_INDIRECT_CALL: 103842 0.051921%
BRANCH_RETURN: 298916 0.149458%
BRANCH_OTHER: 0 0%


CPU 1 Branch Prediction Accuracy: 94.7826% MPKI: 14.3786 Average ROB Occupancy at Mispredict: 11.7308
Branch types
NOT_BRANCH: 184914522 72.1694%
BRANCH_DIRECT_JUMP: 7 2.732e-06%
BRANCH_INDIRECT: 0 0%
BRANCH_CONDITIONAL: 71308402 27.8306%
BRANCH_DIRECT_CALL: 5 1.95143e-06%
BRANCH_INDIRECT_CALL: 1 3.90285e-07%
BRANCH_RETURN: 6 2.34171e-06%
BRANCH_OTHER: 0 0%


CPU 2 Branch Prediction Accuracy: 99.6251% MPKI: 0.00496341 Average ROB Occupancy at Mispredict: 41.0182
Branch types
NOT_BRANCH: 298994456 99.8676%
BRANCH_DIRECT_JUMP: 90967 0.030384%
BRANCH_INDIRECT: 88230 0.0294698%
BRANCH_CONDITIONAL: 205168 0.0685285%
BRANCH_DIRECT_CALL: 6013 0.00200841%
BRANCH_INDIRECT_CALL: 3 1.00203e-06%
BRANCH_RETURN: 6018 0.00201008%
BRANCH_OTHER: 0 0%


CPU 3 Branch Prediction Accuracy: 99.0625% MPKI: 0.820912 Average ROB Occupancy at Mispredict: 82.6234
Branch types
NOT_BRANCH: 346512286 90.9614%
BRANCH_DIRECT_JUMP: 882813 0.231743%
BRANCH_INDIRECT: 268 7.03515e-05%
BRANCH_CONDITIONAL: 32580721 8.55262%
BRANCH_DIRECT_CALL: 483442 0.126906%
BRANCH_INDIRECT_CALL: 488 0.000128103%
BRANCH_RETURN: 483930 0.127034%
BRANCH_OTHER: 0 0%

DRAM PAGES: 1048576
Allocated PAGES: 41541
