
*** ChampSim Multicore Out-of-Order Simulator ***

Warmup Instructions: 50000000
Simulation Instructions: 200000000
Number of CPUs: 4
LLC sets: 8192
LLC ways: 16
Off-chip DRAM Size: 4096 MB Channels: 1 Width: 64-bit Data Rate: 6400 MT/s
CPU 0 runs ./traces/cs/classification_phase4_core0.trace.xz
.xz
CPU 1 runs ./traces/cs/classification_phase4_core1.trace.xz
.xz
CPU 2 runs ./traces/cs/classification_phase4_core2.trace.xz
.xz
CPU 3 runs ./traces/cs/classification_phase4_core3.trace.xz
.xz
BTB has LRU replacement policy
ITLB has LRU replacement policy
DTLB has LRU replacement policy
STLB has LRU replacement policy
L1I has LRU replacement policy
History Sets: 8
History Ways: 16
BERTI Size: 16
BERTI Stride Size: 8
L1D has LRU replacement policy
Initialize SRRIP state for L2C
Initialize DRRIP state for LLC
BTB has LRU replacement policy
ITLB has LRU replacement policy
DTLB has LRU replacement policy
STLB has LRU replacement policy
L1I has LRU replacement policy
History Sets: 8
History Ways: 16
BERTI Size: 16
BERTI Stride Size: 8
L1D has LRU replacement policy
Initialize SRRIP state for L2C
Initialize DRRIP state for LLC
BTB has LRU replacement policy
ITLB has LRU replacement policy
DTLB has LRU replacement policy
STLB has LRU replacement policy
L1I has LRU replacement policy
History Sets: 8
History Ways: 16
BERTI Size: 16
BERTI Stride Size: 8
L1D has LRU replacement policy
Initialize SRRIP state for L2C
Initialize DRRIP state for LLC
BTB has LRU replacement policy
ITLB has LRU replacement policy
DTLB has LRU replacement policy
STLB has LRU replacement policy
L1I has LRU replacement policy
History Sets: 8
History Ways: 16
BERTI Size: 16
BERTI Stride Size: 8
L1D has LRU replacement policy
Initialize SRRIP state for L2C
Initialize DRRIP state for LLC
UNIQUE_ASID[0] = 
UNIQUE_ASID[1] = €
Heartbeat CPU 0 instructions: 10000000 cycles: 2630792 heartbeat IPC: 3.80114 cumulative IPC: 3.80114 (Simulation time: 0 hr 2 min 9 sec) 
Heartbeat CPU 1 instructions: 10000002 cycles: 2647914 heartbeat IPC: 3.77656 cumulative IPC: 3.77656 (Simulation time: 0 hr 2 min 10 sec) 
Heartbeat CPU 2 instructions: 10000001 cycles: 2648133 heartbeat IPC: 3.77625 cumulative IPC: 3.77625 (Simulation time: 0 hr 2 min 10 sec) 
Heartbeat CPU 3 instructions: 10000001 cycles: 2654279 heartbeat IPC: 3.7675 cumulative IPC: 3.7675 (Simulation time: 0 hr 2 min 11 sec) 
Heartbeat CPU 1 instructions: 20000000 cycles: 5300995 heartbeat IPC: 3.7692 cumulative IPC: 3.77288 (Simulation time: 0 hr 4 min 37 sec) 
Heartbeat CPU 2 instructions: 20000001 cycles: 5309192 heartbeat IPC: 3.7579 cumulative IPC: 3.76705 (Simulation time: 0 hr 4 min 38 sec) 
Heartbeat CPU 0 instructions: 20000002 cycles: 5363636 heartbeat IPC: 3.65919 cumulative IPC: 3.72881 (Simulation time: 0 hr 4 min 41 sec) 
Heartbeat CPU 3 instructions: 20000002 cycles: 5379536 heartbeat IPC: 3.66938 cumulative IPC: 3.71779 (Simulation time: 0 hr 4 min 41 sec) 
Heartbeat CPU 1 instructions: 30000002 cycles: 7946701 heartbeat IPC: 3.77971 cumulative IPC: 3.77515 (Simulation time: 0 hr 6 min 53 sec) 
Heartbeat CPU 2 instructions: 30000003 cycles: 7956458 heartbeat IPC: 3.77748 cumulative IPC: 3.77052 (Simulation time: 0 hr 6 min 54 sec) 
Heartbeat CPU 0 instructions: 30000000 cycles: 8007345 heartbeat IPC: 3.78256 cumulative IPC: 3.74656 (Simulation time: 0 hr 6 min 56 sec) 
Heartbeat CPU 3 instructions: 30000003 cycles: 8080428 heartbeat IPC: 3.70248 cumulative IPC: 3.71268 (Simulation time: 0 hr 7 min 0 sec) 
Heartbeat CPU 1 instructions: 40000000 cycles: 10609339 heartbeat IPC: 3.75567 cumulative IPC: 3.77026 (Simulation time: 0 hr 8 min 56 sec) 
Heartbeat CPU 2 instructions: 40000002 cycles: 10612948 heartbeat IPC: 3.76437 cumulative IPC: 3.76898 (Simulation time: 0 hr 8 min 56 sec) 
Heartbeat CPU 0 instructions: 40000003 cycles: 10657461 heartbeat IPC: 3.77342 cumulative IPC: 3.75324 (Simulation time: 0 hr 8 min 59 sec) 
Heartbeat CPU 3 instructions: 40000003 cycles: 10747674 heartbeat IPC: 3.74919 cumulative IPC: 3.72174 (Simulation time: 0 hr 9 min 4 sec) 
Heartbeat CPU 1 instructions: 50000000 cycles: 13252509 heartbeat IPC: 3.78334 cumulative IPC: 3.77287 (Simulation time: 0 hr 11 min 19 sec) 
Heartbeat CPU 2 instructions: 50000001 cycles: 13274408 heartbeat IPC: 3.75734 cumulative IPC: 3.76665 (Simulation time: 0 hr 11 min 20 sec) 
Heartbeat CPU 0 instructions: 50000001 cycles: 13314203 heartbeat IPC: 3.76401 cumulative IPC: 3.75539 (Simulation time: 0 hr 11 min 22 sec) 
Heartbeat CPU 3 instructions: 50000001 cycles: 13407396 heartbeat IPC: 3.75979 cumulative IPC: 3.72929 (Simulation time: 0 hr 11 min 25 sec) 

Warmup complete CPU 0 instructions: 50348341 cycles: 13407396 (Simulation time: 0 hr 11 min 25 sec) 
Warmup complete CPU 1 instructions: 50567706 cycles: 13407396 (Simulation time: 0 hr 11 min 25 sec) 
Warmup complete CPU 2 instructions: 50488363 cycles: 13407396 (Simulation time: 0 hr 11 min 25 sec) 
Warmup complete CPU 3 instructions: 50000001 cycles: 13407396 (Simulation time: 0 hr 11 min 25 sec) 

Heartbeat CPU 1 instructions: 60000002 cycles: 24524477 heartbeat IPC: 0.887157 cumulative IPC: 0.848451 (Simulation time: 0 hr 14 min 9 sec) 
Heartbeat CPU 2 instructions: 60000002 cycles: 25084171 heartbeat IPC: 0.846757 cumulative IPC: 0.814578 (Simulation time: 0 hr 14 min 17 sec) 
Heartbeat CPU 0 instructions: 60000003 cycles: 25098266 heartbeat IPC: 0.848604 cumulative IPC: 0.825573 (Simulation time: 0 hr 14 min 17 sec) 
Heartbeat CPU 3 instructions: 60000003 cycles: 26455429 heartbeat IPC: 0.766399 cumulative IPC: 0.766399 (Simulation time: 0 hr 14 min 36 sec) 
Heartbeat CPU 2 instructions: 70000001 cycles: 36750499 heartbeat IPC: 0.857168 cumulative IPC: 0.835863 (Simulation time: 0 hr 17 min 14 sec) 
Heartbeat CPU 0 instructions: 70000001 cycles: 37167189 heartbeat IPC: 0.828574 cumulative IPC: 0.827097 (Simulation time: 0 hr 17 min 21 sec) 
Heartbeat CPU 1 instructions: 70000003 cycles: 37418282 heartbeat IPC: 0.775566 cumulative IPC: 0.809312 (Simulation time: 0 hr 17 min 24 sec) 
Heartbeat CPU 3 instructions: 70000000 cycles: 40544368 heartbeat IPC: 0.709776 cumulative IPC: 0.737002 (Simulation time: 0 hr 18 min 15 sec) 
Heartbeat CPU 0 instructions: 80000003 cycles: 48653612 heartbeat IPC: 0.870593 cumulative IPC: 0.841272 (Simulation time: 0 hr 20 min 31 sec) 
Heartbeat CPU 2 instructions: 80000003 cycles: 49072511 heartbeat IPC: 0.811556 cumulative IPC: 0.827465 (Simulation time: 0 hr 20 min 39 sec) 
Heartbeat CPU 1 instructions: 80000003 cycles: 49572606 heartbeat IPC: 0.822752 cumulative IPC: 0.813829 (Simulation time: 0 hr 20 min 50 sec) 
Heartbeat CPU 3 instructions: 80000002 cycles: 53270764 heartbeat IPC: 0.785769 cumulative IPC: 0.752571 (Simulation time: 0 hr 21 min 54 sec) 
Heartbeat CPU 0 instructions: 90000002 cycles: 60345275 heartbeat IPC: 0.85531 cumulative IPC: 0.844769 (Simulation time: 0 hr 23 min 28 sec) 
Heartbeat CPU 2 instructions: 90000000 cycles: 61126452 heartbeat IPC: 0.829604 cumulative IPC: 0.828005 (Simulation time: 0 hr 23 min 39 sec) 
Heartbeat CPU 1 instructions: 90000002 cycles: 62180659 heartbeat IPC: 0.793144 cumulative IPC: 0.808482 (Simulation time: 0 hr 23 min 53 sec) 
Heartbeat CPU 3 instructions: 90000001 cycles: 67507706 heartbeat IPC: 0.702398 cumulative IPC: 0.739367 (Simulation time: 0 hr 25 min 4 sec) 
Heartbeat CPU 0 instructions: 100000002 cycles: 72121836 heartbeat IPC: 0.849144 cumulative IPC: 0.845647 (Simulation time: 0 hr 26 min 4 sec) 
Heartbeat CPU 2 instructions: 100000000 cycles: 72945410 heartbeat IPC: 0.846098 cumulative IPC: 0.831597 (Simulation time: 0 hr 26 min 19 sec) 
Heartbeat CPU 1 instructions: 100000000 cycles: 75236930 heartbeat IPC: 0.765915 cumulative IPC: 0.799493 (Simulation time: 0 hr 26 min 53 sec) 
Heartbeat CPU 3 instructions: 100000000 cycles: 80076550 heartbeat IPC: 0.795618 cumulative IPC: 0.749972 (Simulation time: 0 hr 28 min 19 sec) 
Heartbeat CPU 0 instructions: 110000000 cycles: 80199216 heartbeat IPC: 1.23802 cumulative IPC: 0.893098 (Simulation time: 0 hr 28 min 21 sec) 
Heartbeat CPU 2 instructions: 110000000 cycles: 85177262 heartbeat IPC: 0.817538 cumulative IPC: 0.829201 (Simulation time: 0 hr 29 min 40 sec) 
Heartbeat CPU 1 instructions: 110000000 cycles: 89339478 heartbeat IPC: 0.709092 cumulative IPC: 0.782703 (Simulation time: 0 hr 30 min 40 sec) 
Heartbeat CPU 0 instructions: 120000002 cycles: 89840287 heartbeat IPC: 1.03723 cumulative IPC: 0.911279 (Simulation time: 0 hr 30 min 45 sec) 
Heartbeat CPU 3 instructions: 110000000 cycles: 95052717 heartbeat IPC: 0.667728 cumulative IPC: 0.734886 (Simulation time: 0 hr 31 min 52 sec) 
Heartbeat CPU 2 instructions: 120000002 cycles: 96233409 heartbeat IPC: 0.904474 cumulative IPC: 0.839249 (Simulation time: 0 hr 32 min 16 sec) 
Heartbeat CPU 1 instructions: 120000000 cycles: 101624382 heartbeat IPC: 0.814007 cumulative IPC: 0.787063 (Simulation time: 0 hr 33 min 30 sec) 
Heartbeat CPU 0 instructions: 130000001 cycles: 103178413 heartbeat IPC: 0.74973 cumulative IPC: 0.887276 (Simulation time: 0 hr 33 min 53 sec) 
Heartbeat CPU 2 instructions: 130000000 cycles: 107476512 heartbeat IPC: 0.889434 cumulative IPC: 0.845247 (Simulation time: 0 hr 34 min 58 sec) 
Heartbeat CPU 3 instructions: 120000001 cycles: 110131208 heartbeat IPC: 0.663196 cumulative IPC: 0.72371 (Simulation time: 0 hr 35 min 31 sec) 
Heartbeat CPU 1 instructions: 130000000 cycles: 115050207 heartbeat IPC: 0.744833 cumulative IPC: 0.781485 (Simulation time: 0 hr 37 min 7 sec) 
Heartbeat CPU 0 instructions: 140000000 cycles: 115393160 heartbeat IPC: 0.818682 cumulative IPC: 0.879061 (Simulation time: 0 hr 37 min 13 sec) 
Heartbeat CPU 2 instructions: 140000000 cycles: 118684589 heartbeat IPC: 0.892214 cumulative IPC: 0.850247 (Simulation time: 0 hr 37 min 56 sec) 
Heartbeat CPU 3 instructions: 130000001 cycles: 119961475 heartbeat IPC: 1.01727 cumulative IPC: 0.750792 (Simulation time: 0 hr 38 min 9 sec) 
Heartbeat CPU 1 instructions: 140000000 cycles: 126808385 heartbeat IPC: 0.850472 cumulative IPC: 0.788638 (Simulation time: 0 hr 39 min 54 sec) 
Heartbeat CPU 0 instructions: 150000003 cycles: 127003051 heartbeat IPC: 0.861335 cumulative IPC: 0.877249 (Simulation time: 0 hr 39 min 57 sec) 
Heartbeat CPU 2 instructions: 150000001 cycles: 129554808 heartbeat IPC: 0.919945 cumulative IPC: 0.85677 (Simulation time: 0 hr 40 min 42 sec) 
Heartbeat CPU 3 instructions: 140000003 cycles: 133853034 heartbeat IPC: 0.719862 cumulative IPC: 0.747225 (Simulation time: 0 hr 41 min 46 sec) 
Heartbeat CPU 0 instructions: 160000000 cycles: 138648618 heartbeat IPC: 0.858696 cumulative IPC: 0.875524 (Simulation time: 0 hr 42 min 47 sec) 
Heartbeat CPU 1 instructions: 150000000 cycles: 140141880 heartbeat IPC: 0.749991 cumulative IPC: 0.784572 (Simulation time: 0 hr 43 min 10 sec) 
Heartbeat CPU 2 instructions: 160000003 cycles: 140916375 heartbeat IPC: 0.88016 cumulative IPC: 0.858854 (Simulation time: 0 hr 43 min 22 sec) 
Heartbeat CPU 3 instructions: 150000000 cycles: 148019202 heartbeat IPC: 0.705907 cumulative IPC: 0.742877 (Simulation time: 0 hr 45 min 3 sec) 
Heartbeat CPU 0 instructions: 170000002 cycles: 150279859 heartbeat IPC: 0.859754 cumulative IPC: 0.874184 (Simulation time: 0 hr 45 min 32 sec) 
Heartbeat CPU 2 instructions: 170000002 cycles: 151826334 heartbeat IPC: 0.916594 cumulative IPC: 0.863405 (Simulation time: 0 hr 45 min 54 sec) 
Heartbeat CPU 1 instructions: 160000003 cycles: 152101850 heartbeat IPC: 0.836123 cumulative IPC: 0.789017 (Simulation time: 0 hr 45 min 59 sec) 
Heartbeat CPU 3 instructions: 160000000 cycles: 160917589 heartbeat IPC: 0.775291 cumulative IPC: 0.745711 (Simulation time: 0 hr 47 min 58 sec) 
Heartbeat CPU 0 instructions: 180000001 cycles: 161360088 heartbeat IPC: 0.902508 cumulative IPC: 0.876305 (Simulation time: 0 hr 48 min 3 sec) 
Heartbeat CPU 2 instructions: 180000000 cycles: 163271254 heartbeat IPC: 0.87375 cumulative IPC: 0.864195 (Simulation time: 0 hr 48 min 35 sec) 
Heartbeat CPU 1 instructions: 170000003 cycles: 165146115 heartbeat IPC: 0.76662 cumulative IPC: 0.787092 (Simulation time: 0 hr 49 min 7 sec) 
Heartbeat CPU 0 instructions: 190000001 cycles: 172633112 heartbeat IPC: 0.887073 cumulative IPC: 0.877067 (Simulation time: 0 hr 51 min 0 sec) 
Heartbeat CPU 2 instructions: 190000003 cycles: 174550930 heartbeat IPC: 0.886551 cumulative IPC: 0.86576 (Simulation time: 0 hr 51 min 25 sec) 
Heartbeat CPU 3 instructions: 170000000 cycles: 174947637 heartbeat IPC: 0.712756 cumulative IPC: 0.742849 (Simulation time: 0 hr 51 min 29 sec) 
Heartbeat CPU 1 instructions: 180000000 cycles: 177366673 heartbeat IPC: 0.818293 cumulative IPC: 0.789417 (Simulation time: 0 hr 51 min 58 sec) 
Heartbeat CPU 0 instructions: 200000001 cycles: 184022431 heartbeat IPC: 0.878016 cumulative IPC: 0.877131 (Simulation time: 0 hr 53 min 16 sec) 
Heartbeat CPU 2 instructions: 200000001 cycles: 185612058 heartbeat IPC: 0.904067 cumulative IPC: 0.868221 (Simulation time: 0 hr 53 min 37 sec) 
Heartbeat CPU 3 instructions: 180000003 cycles: 187607594 heartbeat IPC: 0.789892 cumulative IPC: 0.746268 (Simulation time: 0 hr 54 min 8 sec) 
Heartbeat CPU 1 instructions: 190000002 cycles: 190116537 heartbeat IPC: 0.784322 cumulative IPC: 0.78905 (Simulation time: 0 hr 54 min 40 sec) 
Heartbeat CPU 0 instructions: 210000000 cycles: 192047941 heartbeat IPC: 1.24603 cumulative IPC: 0.893703 (Simulation time: 0 hr 55 min 5 sec) 
Heartbeat CPU 2 instructions: 210000000 cycles: 197219054 heartbeat IPC: 0.861549 cumulative IPC: 0.867799 (Simulation time: 0 hr 56 min 43 sec) 
Heartbeat CPU 0 instructions: 220000000 cycles: 201564308 heartbeat IPC: 1.05082 cumulative IPC: 0.90165 (Simulation time: 0 hr 57 min 49 sec) 
Heartbeat CPU 3 instructions: 190000003 cycles: 201567000 heartbeat IPC: 0.716363 cumulative IPC: 0.744049 (Simulation time: 0 hr 57 min 49 sec) 
Heartbeat CPU 1 instructions: 200000001 cycles: 202649159 heartbeat IPC: 0.797918 cumulative IPC: 0.789637 (Simulation time: 0 hr 58 min 1 sec) 
Heartbeat CPU 2 instructions: 220000000 cycles: 207726643 heartbeat IPC: 0.951693 cumulative IPC: 0.872336 (Simulation time: 0 hr 59 min 20 sec) 
Heartbeat CPU 3 instructions: 200000001 cycles: 213965629 heartbeat IPC: 0.806541 cumulative IPC: 0.747912 (Simulation time: 1 hr 0 min 53 sec) 
Heartbeat CPU 0 instructions: 230000000 cycles: 214818860 heartbeat IPC: 0.754458 cumulative IPC: 0.891963 (Simulation time: 1 hr 1 min 8 sec) 
Heartbeat CPU 1 instructions: 210000000 cycles: 216510142 heartbeat IPC: 0.721449 cumulative IPC: 0.784983 (Simulation time: 1 hr 1 min 37 sec) 
Heartbeat CPU 2 instructions: 230000001 cycles: 218692676 heartbeat IPC: 0.911907 cumulative IPC: 0.87445 (Simulation time: 1 hr 2 min 10 sec) 
Heartbeat CPU 0 instructions: 240000002 cycles: 227405456 heartbeat IPC: 0.794496 cumulative IPC: 0.886231 (Simulation time: 1 hr 4 min 14 sec) 
Heartbeat CPU 1 instructions: 220000000 cycles: 228728893 heartbeat IPC: 0.818414 cumulative IPC: 0.786881 (Simulation time: 1 hr 4 min 28 sec) 
Heartbeat CPU 3 instructions: 210000000 cycles: 228952355 heartbeat IPC: 0.667257 cumulative IPC: 0.742305 (Simulation time: 1 hr 4 min 31 sec) 
Heartbeat CPU 2 instructions: 240000002 cycles: 229578039 heartbeat IPC: 0.918665 cumulative IPC: 0.876676 (Simulation time: 1 hr 4 min 39 sec) 
Heartbeat CPU 0 instructions: 250000002 cycles: 239118571 heartbeat IPC: 0.853744 cumulative IPC: 0.884545 (Simulation time: 1 hr 6 min 49 sec) 
Finished CPU 0 instructions: 200000002 cycles: 226168946 cumulative IPC: 0.884295 (Simulation time: 1 hr 6 min 57 sec) 
Heartbeat CPU 2 instructions: 250000003 cycles: 240082727 heartbeat IPC: 0.951956 cumulative IPC: 0.880165 (Simulation time: 1 hr 7 min 5 sec) 
Finished CPU 2 instructions: 200000001 cycles: 227264394 cumulative IPC: 0.880032 (Simulation time: 1 hr 7 min 14 sec) 
Heartbeat CPU 1 instructions: 230000003 cycles: 242160842 heartbeat IPC: 0.744494 cumulative IPC: 0.784392 (Simulation time: 1 hr 7 min 37 sec) 
Heartbeat CPU 3 instructions: 220000000 cycles: 243954247 heartbeat IPC: 0.666583 cumulative IPC: 0.737377 (Simulation time: 1 hr 8 min 11 sec) 
Heartbeat CPU 0 instructions: 260000001 cycles: 250715978 heartbeat IPC: 0.862262 cumulative IPC: 0.883456 (Simulation time: 1 hr 10 min 25 sec) 
Heartbeat CPU 2 instructions: 260000002 cycles: 251020022 heartbeat IPC: 0.914303 cumulative IPC: 0.881736 (Simulation time: 1 hr 10 min 30 sec) 
Heartbeat CPU 3 instructions: 230000002 cycles: 253629831 heartbeat IPC: 1.03353 cumulative IPC: 0.749306 (Simulation time: 1 hr 11 min 12 sec) 
Heartbeat CPU 1 instructions: 240000003 cycles: 253848735 heartbeat IPC: 0.855586 cumulative IPC: 0.787852 (Simulation time: 1 hr 11 min 15 sec) 
Heartbeat CPU 2 instructions: 270000001 cycles: 261555763 heartbeat IPC: 0.94915 cumulative IPC: 0.884598 (Simulation time: 1 hr 13 min 10 sec) 
Heartbeat CPU 0 instructions: 270000000 cycles: 262351468 heartbeat IPC: 0.859439 cumulative IPC: 0.882333 (Simulation time: 1 hr 13 min 22 sec) 
Heartbeat CPU 1 instructions: 250000001 cycles: 267146555 heartbeat IPC: 0.752003 cumulative IPC: 0.785974 (Simulation time: 1 hr 14 min 27 sec) 
Heartbeat CPU 3 instructions: 240000000 cycles: 267476816 heartbeat IPC: 0.722179 cumulative IPC: 0.747827 (Simulation time: 1 hr 14 min 31 sec) 
Finished CPU 1 instructions: 200000000 cycles: 254526806 cumulative IPC: 0.785772 (Simulation time: 1 hr 14 min 38 sec) 
Heartbeat CPU 2 instructions: 280000002 cycles: 272608880 heartbeat IPC: 0.904722 cumulative IPC: 0.885457 (Simulation time: 1 hr 15 min 54 sec) 
Heartbeat CPU 0 instructions: 280000002 cycles: 273305484 heartbeat IPC: 0.912907 cumulative IPC: 0.883622 (Simulation time: 1 hr 16 min 8 sec) 
Heartbeat CPU 1 instructions: 260000000 cycles: 279003438 heartbeat IPC: 0.843392 cumulative IPC: 0.788537 (Simulation time: 1 hr 17 min 33 sec) 
Heartbeat CPU 3 instructions: 250000000 cycles: 281561769 heartbeat IPC: 0.709978 cumulative IPC: 0.745839 (Simulation time: 1 hr 18 min 10 sec) 
Finished CPU 3 instructions: 200000002 cycles: 268154374 cumulative IPC: 0.745839 (Simulation time: 1 hr 18 min 10 sec) 

ChampSim completed all CPUs

Total Simulation Statistics (not including warmup)

CPU 0 cumulative IPC: 0.883511 instructions: 236917359 cycles: 268154374
ITLB TOTAL     ACCESS:   33660810  HIT:   32220804  MISS:    1440006  HIT %:     95.722  MISS %:    4.27799   MPKI: 6.07809
ITLB LOAD      ACCESS:          0  HIT:          0  MISS:          0  HIT %:       -nan  MISS %:       -nan   MPKI: 0
ITLB RFO       ACCESS:          0  HIT:          0  MISS:          0  HIT %:       -nan  MISS %:       -nan   MPKI: 0
ITLB PREFETCH  ACCESS:          0  HIT:          0  MISS:          0  HIT %:       -nan  MISS %:       -nan   MPKI: 0
ITLB WRITEBACK ACCESS:          0  HIT:          0  MISS:          0  HIT %:       -nan  MISS %:       -nan   MPKI: 0
DTLB TOTAL     ACCESS:   18130204  HIT:    8367846  MISS:    9762358  HIT %:    46.1542  MISS %:    53.8458   MPKI: 41.2058
DTLB LOAD      ACCESS:          0  HIT:          0  MISS:          0  HIT %:       -nan  MISS %:       -nan   MPKI: 0
DTLB RFO       ACCESS:          0  HIT:          0  MISS:          0  HIT %:       -nan  MISS %:       -nan   MPKI: 0
DTLB PREFETCH  ACCESS:          0  HIT:          0  MISS:          0  HIT %:       -nan  MISS %:       -nan   MPKI: 0
DTLB WRITEBACK ACCESS:          0  HIT:          0  MISS:          0  HIT %:       -nan  MISS %:       -nan   MPKI: 0
STLB TOTAL     ACCESS:   15394932  HIT:    9072000  MISS:    6322932  HIT %:    58.9285  MISS %:    41.0715   MPKI: 26.6883
STLB LOAD      ACCESS:          0  HIT:          0  MISS:          0  HIT %:       -nan  MISS %:       -nan   MPKI: 0
STLB RFO       ACCESS:          0  HIT:          0  MISS:          0  HIT %:       -nan  MISS %:       -nan   MPKI: 0
STLB PREFETCH  ACCESS:          0  HIT:          0  MISS:          0  HIT %:       -nan  MISS %:       -nan   MPKI: 0
STLB WRITEBACK ACCESS:          0  HIT:          0  MISS:          0  HIT %:       -nan  MISS %:       -nan   MPKI: 0
L1D TOTAL     ACCESS:   29332741  HIT:   27619151  MISS:    1713590  HIT %:    94.1581  MISS %:     5.8419   MPKI: 7.23286
L1D LOAD      ACCESS:   16402013  HIT:   15009121  MISS:    1392892  HIT %:    91.5078  MISS %:     8.4922   MPKI: 5.87923
L1D RFO       ACCESS:    3459244  HIT:    3329007  MISS:     130237  HIT %:    96.2351  MISS %:     3.7649   MPKI: 0.549715
L1D PREFETCH  ACCESS:    9471484  HIT:    9281023  MISS:     190461  HIT %:    97.9891  MISS %:    2.01089   MPKI: 0.803913
L1D WRITEBACK ACCESS:          0  HIT:          0  MISS:          0  HIT %:       -nan  MISS %:       -nan   MPKI: 0
L1I TOTAL     ACCESS:   44677429  HIT:   44666569  MISS:      10860  HIT %:    99.9757  MISS %:  0.0243076   MPKI: 0.0458388
L1I LOAD      ACCESS:   44677429  HIT:   44666569  MISS:      10860  HIT %:    99.9757  MISS %:  0.0243076   MPKI: 0.0458388
L1I RFO       ACCESS:          0  HIT:          0  MISS:          0  HIT %:       -nan  MISS %:       -nan   MPKI: 0
L1I PREFETCH  ACCESS:          0  HIT:          0  MISS:          0  HIT %:       -nan  MISS %:       -nan   MPKI: 0
L1I WRITEBACK ACCESS:          0  HIT:          0  MISS:          0  HIT %:       -nan  MISS %:       -nan   MPKI: 0
L2C TOTAL     ACCESS:   14035924  HIT:   12529293  MISS:    1506631  HIT %:    89.2659  MISS %:    10.7341   MPKI: 6.35931
L2C LOAD      ACCESS:    1402445  HIT:     515885  MISS:     886560  HIT %:    36.7847  MISS %:    63.2153   MPKI: 3.74206
L2C RFO       ACCESS:     130124  HIT:      82669  MISS:      47455  HIT %:    63.5309  MISS %:    36.4691   MPKI: 0.200302
L2C PREFETCH  ACCESS:    5390197  HIT:    4996682  MISS:     393515  HIT %:    92.6994  MISS %:    7.30057   MPKI: 1.66098
L2C WRITEBACK ACCESS:     171690  HIT:     165310  MISS:       6380  HIT %:     96.284  MISS %:      3.716   MPKI: 0.0269292
PSCL5 TOTAL     ACCESS:    6360252  HIT:    6360252  MISS:          0  HIT %:        100  MISS %:          0   MPKI: 0
PSCL5 LOAD      ACCESS:          0  HIT:          0  MISS:          0  HIT %:       -nan  MISS %:       -nan   MPKI: 0
PSCL5 RFO       ACCESS:          0  HIT:          0  MISS:          0  HIT %:       -nan  MISS %:       -nan   MPKI: 0
PSCL5 PREFETCH  ACCESS:          0  HIT:          0  MISS:          0  HIT %:       -nan  MISS %:       -nan   MPKI: 0
PSCL5 WRITEBACK ACCESS:          0  HIT:          0  MISS:          0  HIT %:       -nan  MISS %:       -nan   MPKI: 0
PSCL4 TOTAL     ACCESS:    6360252  HIT:    6360252  MISS:          0  HIT %:        100  MISS %:          0   MPKI: 0
PSCL4 LOAD      ACCESS:          0  HIT:          0  MISS:          0  HIT %:       -nan  MISS %:       -nan   MPKI: 0
PSCL4 RFO       ACCESS:          0  HIT:          0  MISS:          0  HIT %:       -nan  MISS %:       -nan   MPKI: 0
PSCL4 PREFETCH  ACCESS:          0  HIT:          0  MISS:          0  HIT %:       -nan  MISS %:       -nan   MPKI: 0
PSCL4 WRITEBACK ACCESS:          0  HIT:          0  MISS:          0  HIT %:       -nan  MISS %:       -nan   MPKI: 0
PSCL3 TOTAL     ACCESS:    6360084  HIT:    6359974  MISS:        110  HIT %:    99.9983  MISS %: 0.00172954   MPKI: 0.000464297
PSCL3 LOAD      ACCESS:          0  HIT:          0  MISS:          0  HIT %:       -nan  MISS %:       -nan   MPKI: 0
PSCL3 RFO       ACCESS:          0  HIT:          0  MISS:          0  HIT %:       -nan  MISS %:       -nan   MPKI: 0
PSCL3 PREFETCH  ACCESS:          0  HIT:          0  MISS:          0  HIT %:       -nan  MISS %:       -nan   MPKI: 0
PSCL3 WRITEBACK ACCESS:          0  HIT:          0  MISS:          0  HIT %:       -nan  MISS %:       -nan   MPKI: 0
PSCL2 TOTAL     ACCESS:    6360126  HIT:    5779145  MISS:     580981  HIT %:    90.8653  MISS %:    9.13474   MPKI: 2.45225
PSCL2 LOAD      ACCESS:          0  HIT:          0  MISS:          0  HIT %:       -nan  MISS %:       -nan   MPKI: 0
PSCL2 RFO       ACCESS:          0  HIT:          0  MISS:          0  HIT %:       -nan  MISS %:       -nan   MPKI: 0
PSCL2 PREFETCH  ACCESS:          0  HIT:          0  MISS:          0  HIT %:       -nan  MISS %:       -nan   MPKI: 0
PSCL2 WRITEBACK ACCESS:          0  HIT:          0  MISS:          0  HIT %:       -nan  MISS %:       -nan   MPKI: 0
LLC TOTAL     ACCESS:    1581768  HIT:     916484  MISS:     665284  HIT %:    57.9405  MISS %:    42.0595   MPKI: 2.80808
LLC LOAD      ACCESS:     885696  HIT:     423438  MISS:     462258  HIT %:    47.8085  MISS %:    52.1915   MPKI: 1.95114
LLC RFO       ACCESS:      47449  HIT:       2580  MISS:      44869  HIT %:    5.43742  MISS %:    94.5626   MPKI: 0.189387
LLC PREFETCH  ACCESS:     394385  HIT:     286134  MISS:     108251  HIT %:    72.5519  MISS %:    27.4481   MPKI: 0.456915
LLC WRITEBACK ACCESS:      81517  HIT:      72584  MISS:       8933  HIT %:    89.0415  MISS %:    10.9585   MPKI: 0.0377051

RAW hits: 478303
Loads Generated: 26369428
Loads sent to L1D: 25891125
Stores Generated: 3873216
Stores sent to L1D: 3873216

CPU 1 cumulative IPC: 0.787781 instructions: 211246926 cycles: 268154374
ITLB TOTAL     ACCESS:   30438612  HIT:   29044270  MISS:    1394342  HIT %:    95.4192  MISS %:    4.58083   MPKI: 6.60053
ITLB LOAD      ACCESS:          0  HIT:          0  MISS:          0  HIT %:       -nan  MISS %:       -nan   MPKI: 0
ITLB RFO       ACCESS:          0  HIT:          0  MISS:          0  HIT %:       -nan  MISS %:       -nan   MPKI: 0
ITLB PREFETCH  ACCESS:          0  HIT:          0  MISS:          0  HIT %:       -nan  MISS %:       -nan   MPKI: 0
ITLB WRITEBACK ACCESS:          0  HIT:          0  MISS:          0  HIT %:       -nan  MISS %:       -nan   MPKI: 0
DTLB TOTAL     ACCESS:   16581019  HIT:    7259888  MISS:    9321131  HIT %:    43.7843  MISS %:    56.2157   MPKI: 44.1243
DTLB LOAD      ACCESS:          0  HIT:          0  MISS:          0  HIT %:       -nan  MISS %:       -nan   MPKI: 0
DTLB RFO       ACCESS:          0  HIT:          0  MISS:          0  HIT %:       -nan  MISS %:       -nan   MPKI: 0
DTLB PREFETCH  ACCESS:          0  HIT:          0  MISS:          0  HIT %:       -nan  MISS %:       -nan   MPKI: 0
DTLB WRITEBACK ACCESS:          0  HIT:          0  MISS:          0  HIT %:       -nan  MISS %:       -nan   MPKI: 0
STLB TOTAL     ACCESS:   14338749  HIT:    8281544  MISS:    6057205  HIT %:    57.7564  MISS %:    42.2436   MPKI: 28.6736
STLB LOAD      ACCESS:          0  HIT:          0  MISS:          0  HIT %:       -nan  MISS %:       -nan   MPKI: 0
STLB RFO       ACCESS:          0  HIT:          0  MISS:          0  HIT %:       -nan  MISS %:       -nan   MPKI: 0
STLB PREFETCH  ACCESS:          0  HIT:          0  MISS:          0  HIT %:       -nan  MISS %:       -nan   MPKI: 0
STLB WRITEBACK ACCESS:          0  HIT:          0  MISS:          0  HIT %:       -nan  MISS %:       -nan   MPKI: 0
L1D TOTAL     ACCESS:   26513170  HIT:   24780827  MISS:    1732343  HIT %:    93.4661  MISS %:     6.5339   MPKI: 8.20056
L1D LOAD      ACCESS:   15099905  HIT:   13726283  MISS:    1373622  HIT %:    90.9031  MISS %:    9.09689   MPKI: 6.50245
L1D RFO       ACCESS:    3198612  HIT:    3081792  MISS:     116820  HIT %:    96.3478  MISS %:    3.65221   MPKI: 0.553002
L1D PREFETCH  ACCESS:    8214653  HIT:    7972752  MISS:     241901  HIT %:    97.0552  MISS %:    2.94475   MPKI: 1.14511
L1D WRITEBACK ACCESS:          0  HIT:          0  MISS:          0  HIT %:       -nan  MISS %:       -nan   MPKI: 0
L1I TOTAL     ACCESS:   40281002  HIT:   40265280  MISS:      15722  HIT %:     99.961  MISS %:  0.0390308   MPKI: 0.0744248
L1I LOAD      ACCESS:   40281002  HIT:   40265280  MISS:      15722  HIT %:     99.961  MISS %:  0.0390308   MPKI: 0.0744248
L1I RFO       ACCESS:          0  HIT:          0  MISS:          0  HIT %:       -nan  MISS %:       -nan   MPKI: 0
L1I PREFETCH  ACCESS:          0  HIT:          0  MISS:          0  HIT %:       -nan  MISS %:       -nan   MPKI: 0
L1I WRITEBACK ACCESS:          0  HIT:          0  MISS:          0  HIT %:       -nan  MISS %:       -nan   MPKI: 0
L2C TOTAL     ACCESS:   13612304  HIT:   11867246  MISS:    1745058  HIT %:    87.1803  MISS %:    12.8197   MPKI: 8.26075
L2C LOAD      ACCESS:    1388516  HIT:     413617  MISS:     974899  HIT %:    29.7884  MISS %:    70.2116   MPKI: 4.61497
L2C RFO       ACCESS:     116730  HIT:      79877  MISS:      36853  HIT %:    68.4289  MISS %:    31.5711   MPKI: 0.174455
L2C PREFETCH  ACCESS:    5274181  HIT:    4724974  MISS:     549207  HIT %:    89.5869  MISS %:    10.4131   MPKI: 2.59983
L2C WRITEBACK ACCESS:     175612  HIT:     167767  MISS:       7845  HIT %:    95.5328  MISS %:    4.46723   MPKI: 0.0371366
PSCL5 TOTAL     ACCESS:    6099245  HIT:    6099245  MISS:          0  HIT %:        100  MISS %:          0   MPKI: 0
PSCL5 LOAD      ACCESS:          0  HIT:          0  MISS:          0  HIT %:       -nan  MISS %:       -nan   MPKI: 0
PSCL5 RFO       ACCESS:          0  HIT:          0  MISS:          0  HIT %:       -nan  MISS %:       -nan   MPKI: 0
PSCL5 PREFETCH  ACCESS:          0  HIT:          0  MISS:          0  HIT %:       -nan  MISS %:       -nan   MPKI: 0
PSCL5 WRITEBACK ACCESS:          0  HIT:          0  MISS:          0  HIT %:       -nan  MISS %:       -nan   MPKI: 0
PSCL4 TOTAL     ACCESS:    6099245  HIT:    6099245  MISS:          0  HIT %:        100  MISS %:          0   MPKI: 0
PSCL4 LOAD      ACCESS:          0  HIT:          0  MISS:          0  HIT %:       -nan  MISS %:       -nan   MPKI: 0
PSCL4 RFO       ACCESS:          0  HIT:          0  MISS:          0  HIT %:       -nan  MISS %:       -nan   MPKI: 0
PSCL4 PREFETCH  ACCESS:          0  HIT:          0  MISS:          0  HIT %:       -nan  MISS %:       -nan   MPKI: 0
PSCL4 WRITEBACK ACCESS:          0  HIT:          0  MISS:          0  HIT %:       -nan  MISS %:       -nan   MPKI: 0
PSCL3 TOTAL     ACCESS:    6098887  HIT:    6098777  MISS:        110  HIT %:    99.9982  MISS %: 0.00180361   MPKI: 0.000520718
PSCL3 LOAD      ACCESS:          0  HIT:          0  MISS:          0  HIT %:       -nan  MISS %:       -nan   MPKI: 0
PSCL3 RFO       ACCESS:          0  HIT:          0  MISS:          0  HIT %:       -nan  MISS %:       -nan   MPKI: 0
PSCL3 PREFETCH  ACCESS:          0  HIT:          0  MISS:          0  HIT %:       -nan  MISS %:       -nan   MPKI: 0
PSCL3 WRITEBACK ACCESS:          0  HIT:          0  MISS:          0  HIT %:       -nan  MISS %:       -nan   MPKI: 0
PSCL2 TOTAL     ACCESS:    6099050  HIT:    5541305  MISS:     557745  HIT %:    90.8552  MISS %:    9.14478   MPKI: 2.64025
PSCL2 LOAD      ACCESS:          0  HIT:          0  MISS:          0  HIT %:       -nan  MISS %:       -nan   MPKI: 0
PSCL2 RFO       ACCESS:          0  HIT:          0  MISS:          0  HIT %:       -nan  MISS %:       -nan   MPKI: 0
PSCL2 PREFETCH  ACCESS:          0  HIT:          0  MISS:          0  HIT %:       -nan  MISS %:       -nan   MPKI: 0
PSCL2 WRITEBACK ACCESS:          0  HIT:          0  MISS:          0  HIT %:       -nan  MISS %:       -nan   MPKI: 0
LLC TOTAL     ACCESS:    1804360  HIT:     906634  MISS:     897726  HIT %:    50.2468  MISS %:    49.7532   MPKI: 4.24965
LLC LOAD      ACCESS:     973577  HIT:     429362  MISS:     544215  HIT %:    44.1015  MISS %:    55.8985   MPKI: 2.5762
LLC RFO       ACCESS:      36849  HIT:       3176  MISS:      33673  HIT %:    8.61896  MISS %:     91.381   MPKI: 0.159401
LLC PREFETCH  ACCESS:     550533  HIT:     274174  MISS:     276359  HIT %:    49.8016  MISS %:    50.1984   MPKI: 1.30823
LLC WRITEBACK ACCESS:      67147  HIT:      61440  MISS:       5707  HIT %:    91.5007  MISS %:    8.49926   MPKI: 0.0270158

RAW hits: 489906
Loads Generated: 24426740
Loads sent to L1D: 23936831
Stores Generated: 3521329
Stores sent to L1D: 3521327

CPU 2 cumulative IPC: 0.887407 instructions: 237962169 cycles: 268154374
ITLB TOTAL     ACCESS:   34155746  HIT:   32686944  MISS:    1468802  HIT %:    95.6997  MISS %:    4.30031   MPKI: 6.17242
ITLB LOAD      ACCESS:          0  HIT:          0  MISS:          0  HIT %:       -nan  MISS %:       -nan   MPKI: 0
ITLB RFO       ACCESS:          0  HIT:          0  MISS:          0  HIT %:       -nan  MISS %:       -nan   MPKI: 0
ITLB PREFETCH  ACCESS:          0  HIT:          0  MISS:          0  HIT %:       -nan  MISS %:       -nan   MPKI: 0
ITLB WRITEBACK ACCESS:          0  HIT:          0  MISS:          0  HIT %:       -nan  MISS %:       -nan   MPKI: 0
DTLB TOTAL     ACCESS:   18110742  HIT:    7911589  MISS:   10199153  HIT %:    43.6845  MISS %:    56.3155   MPKI: 42.8604
DTLB LOAD      ACCESS:          0  HIT:          0  MISS:          0  HIT %:       -nan  MISS %:       -nan   MPKI: 0
DTLB RFO       ACCESS:          0  HIT:          0  MISS:          0  HIT %:       -nan  MISS %:       -nan   MPKI: 0
DTLB PREFETCH  ACCESS:          0  HIT:          0  MISS:          0  HIT %:       -nan  MISS %:       -nan   MPKI: 0
DTLB WRITEBACK ACCESS:          0  HIT:          0  MISS:          0  HIT %:       -nan  MISS %:       -nan   MPKI: 0
STLB TOTAL     ACCESS:   15107434  HIT:    8480978  MISS:    6626456  HIT %:    56.1378  MISS %:    43.8622   MPKI: 27.8467
STLB LOAD      ACCESS:          0  HIT:          0  MISS:          0  HIT %:       -nan  MISS %:       -nan   MPKI: 0
STLB RFO       ACCESS:          0  HIT:          0  MISS:          0  HIT %:       -nan  MISS %:       -nan   MPKI: 0
STLB PREFETCH  ACCESS:          0  HIT:          0  MISS:          0  HIT %:       -nan  MISS %:       -nan   MPKI: 0
STLB WRITEBACK ACCESS:          0  HIT:          0  MISS:          0  HIT %:       -nan  MISS %:       -nan   MPKI: 0
L1D TOTAL     ACCESS:   27154427  HIT:   25251006  MISS:    1903421  HIT %:    92.9904  MISS %:    7.00962   MPKI: 7.99884
L1D LOAD      ACCESS:   16662328  HIT:   15079139  MISS:    1583189  HIT %:    90.4984  MISS %:    9.50161   MPKI: 6.65311
L1D RFO       ACCESS:    3151981  HIT:    3005832  MISS:     146149  HIT %:    95.3633  MISS %:    4.63673   MPKI: 0.614169
L1D PREFETCH  ACCESS:    7340118  HIT:    7166035  MISS:     174083  HIT %:    97.6283  MISS %:    2.37166   MPKI: 0.731557
L1D WRITEBACK ACCESS:          0  HIT:          0  MISS:          0  HIT %:       -nan  MISS %:       -nan   MPKI: 0
L1I TOTAL     ACCESS:   45185399  HIT:   45178944  MISS:       6455  HIT %:    99.9857  MISS %:  0.0142856   MPKI: 0.0271262
L1I LOAD      ACCESS:   45185399  HIT:   45178944  MISS:       6455  HIT %:    99.9857  MISS %:  0.0142856   MPKI: 0.0271262
L1I RFO       ACCESS:          0  HIT:          0  MISS:          0  HIT %:       -nan  MISS %:       -nan   MPKI: 0
L1I PREFETCH  ACCESS:          0  HIT:          0  MISS:          0  HIT %:       -nan  MISS %:       -nan   MPKI: 0
L1I WRITEBACK ACCESS:          0  HIT:          0  MISS:          0  HIT %:       -nan  MISS %:       -nan   MPKI: 0
L2C TOTAL     ACCESS:   13638101  HIT:   11851562  MISS:    1786539  HIT %:    86.9004  MISS %:    13.0996   MPKI: 7.50766
L2C LOAD      ACCESS:    1589532  HIT:     453333  MISS:    1136199  HIT %:    28.5199  MISS %:    71.4801   MPKI: 4.7747
L2C RFO       ACCESS:     146137  HIT:      97799  MISS:      48338  HIT %:    66.9228  MISS %:    33.0772   MPKI: 0.203133
L2C PREFETCH  ACCESS:    4411637  HIT:    4026104  MISS:     385533  HIT %:     91.261  MISS %:      8.739   MPKI: 1.62014
L2C WRITEBACK ACCESS:     165815  HIT:     157952  MISS:       7863  HIT %:     95.258  MISS %:    4.74203   MPKI: 0.0330431
PSCL5 TOTAL     ACCESS:    6662322  HIT:    6662322  MISS:          0  HIT %:        100  MISS %:          0   MPKI: 0
PSCL5 LOAD      ACCESS:          0  HIT:          0  MISS:          0  HIT %:       -nan  MISS %:       -nan   MPKI: 0
PSCL5 RFO       ACCESS:          0  HIT:          0  MISS:          0  HIT %:       -nan  MISS %:       -nan   MPKI: 0
PSCL5 PREFETCH  ACCESS:          0  HIT:          0  MISS:          0  HIT %:       -nan  MISS %:       -nan   MPKI: 0
PSCL5 WRITEBACK ACCESS:          0  HIT:          0  MISS:          0  HIT %:       -nan  MISS %:       -nan   MPKI: 0
PSCL4 TOTAL     ACCESS:    6662322  HIT:    6662322  MISS:          0  HIT %:        100  MISS %:          0   MPKI: 0
PSCL4 LOAD      ACCESS:          0  HIT:          0  MISS:          0  HIT %:       -nan  MISS %:       -nan   MPKI: 0
PSCL4 RFO       ACCESS:          0  HIT:          0  MISS:          0  HIT %:       -nan  MISS %:       -nan   MPKI: 0
PSCL4 PREFETCH  ACCESS:          0  HIT:          0  MISS:          0  HIT %:       -nan  MISS %:       -nan   MPKI: 0
PSCL4 WRITEBACK ACCESS:          0  HIT:          0  MISS:          0  HIT %:       -nan  MISS %:       -nan   MPKI: 0
PSCL3 TOTAL     ACCESS:    6656908  HIT:    6656834  MISS:         74  HIT %:    99.9989  MISS %: 0.00111163   MPKI: 0.000310974
PSCL3 LOAD      ACCESS:          0  HIT:          0  MISS:          0  HIT %:       -nan  MISS %:       -nan   MPKI: 0
PSCL3 RFO       ACCESS:          0  HIT:          0  MISS:          0  HIT %:       -nan  MISS %:       -nan   MPKI: 0
PSCL3 PREFETCH  ACCESS:          0  HIT:          0  MISS:          0  HIT %:       -nan  MISS %:       -nan   MPKI: 0
PSCL3 WRITEBACK ACCESS:          0  HIT:          0  MISS:          0  HIT %:       -nan  MISS %:       -nan   MPKI: 0
PSCL2 TOTAL     ACCESS:    6661128  HIT:    5998673  MISS:     662455  HIT %:    90.0549  MISS %:    9.94509   MPKI: 2.78387
PSCL2 LOAD      ACCESS:          0  HIT:          0  MISS:          0  HIT %:       -nan  MISS %:       -nan   MPKI: 0
PSCL2 RFO       ACCESS:          0  HIT:          0  MISS:          0  HIT %:       -nan  MISS %:       -nan   MPKI: 0
PSCL2 PREFETCH  ACCESS:          0  HIT:          0  MISS:          0  HIT %:       -nan  MISS %:       -nan   MPKI: 0
PSCL2 WRITEBACK ACCESS:          0  HIT:          0  MISS:          0  HIT %:       -nan  MISS %:       -nan   MPKI: 0
LLC TOTAL     ACCESS:    1835456  HIT:    1304644  MISS:     530812  HIT %:    71.0801  MISS %:    28.9199   MPKI: 2.23066
LLC LOAD      ACCESS:    1135731  HIT:     753921  MISS:     381810  HIT %:     66.382  MISS %:     33.618   MPKI: 1.6045
LLC RFO       ACCESS:      48338  HIT:       3042  MISS:      45296  HIT %:    6.29319  MISS %:    93.7068   MPKI: 0.19035
LLC PREFETCH  ACCESS:     386000  HIT:     311607  MISS:      74393  HIT %:    80.7272  MISS %:    19.2728   MPKI: 0.312625
LLC WRITEBACK ACCESS:      56781  HIT:      51692  MISS:       5089  HIT %:    91.0375  MISS %:    8.96251   MPKI: 0.0213858

RAW hits: 447105
Loads Generated: 26634015
Loads sent to L1D: 26186910
Stores Generated: 3521949
Stores sent to L1D: 3521948

CPU 3 cumulative IPC: 0.745839 instructions: 200000002 cycles: 268154374
ITLB TOTAL     ACCESS:   28924320  HIT:   27758249  MISS:    1166071  HIT %:    95.9685  MISS %:    4.03146   MPKI: 5.83035
ITLB LOAD      ACCESS:          0  HIT:          0  MISS:          0  HIT %:       -nan  MISS %:       -nan   MPKI: 0
ITLB RFO       ACCESS:          0  HIT:          0  MISS:          0  HIT %:       -nan  MISS %:       -nan   MPKI: 0
ITLB PREFETCH  ACCESS:          0  HIT:          0  MISS:          0  HIT %:       -nan  MISS %:       -nan   MPKI: 0
ITLB WRITEBACK ACCESS:          0  HIT:          0  MISS:          0  HIT %:       -nan  MISS %:       -nan   MPKI: 0
DTLB TOTAL     ACCESS:   16474488  HIT:    7567828  MISS:    8906660  HIT %:    45.9367  MISS %:    54.0633   MPKI: 44.5333
DTLB LOAD      ACCESS:          0  HIT:          0  MISS:          0  HIT %:       -nan  MISS %:       -nan   MPKI: 0
DTLB RFO       ACCESS:          0  HIT:          0  MISS:          0  HIT %:       -nan  MISS %:       -nan   MPKI: 0
DTLB PREFETCH  ACCESS:          0  HIT:          0  MISS:          0  HIT %:       -nan  MISS %:       -nan   MPKI: 0
DTLB WRITEBACK ACCESS:          0  HIT:          0  MISS:          0  HIT %:       -nan  MISS %:       -nan   MPKI: 0
STLB TOTAL     ACCESS:   13693127  HIT:    8318890  MISS:    5374237  HIT %:    60.7523  MISS %:    39.2477   MPKI: 26.8712
STLB LOAD      ACCESS:          0  HIT:          0  MISS:          0  HIT %:       -nan  MISS %:       -nan   MPKI: 0
STLB RFO       ACCESS:          0  HIT:          0  MISS:          0  HIT %:       -nan  MISS %:       -nan   MPKI: 0
STLB PREFETCH  ACCESS:          0  HIT:          0  MISS:          0  HIT %:       -nan  MISS %:       -nan   MPKI: 0
STLB WRITEBACK ACCESS:          0  HIT:          0  MISS:          0  HIT %:       -nan  MISS %:       -nan   MPKI: 0
L1D TOTAL     ACCESS:   27057422  HIT:   25329261  MISS:    1728161  HIT %:     93.613  MISS %:    6.38701   MPKI: 8.6408
L1D LOAD      ACCESS:   14797507  HIT:   13441546  MISS:    1355961  HIT %:    90.8366  MISS %:    9.16344   MPKI: 6.7798
L1D RFO       ACCESS:    3506269  HIT:    3378714  MISS:     127555  HIT %:    96.3621  MISS %:    3.63791   MPKI: 0.637775
L1D PREFETCH  ACCESS:    8753646  HIT:    8509001  MISS:     244645  HIT %:    97.2052  MISS %:    2.79478   MPKI: 1.22322
L1D WRITEBACK ACCESS:          0  HIT:          0  MISS:          0  HIT %:       -nan  MISS %:       -nan   MPKI: 0
L1I TOTAL     ACCESS:   38212412  HIT:   38197707  MISS:      14705  HIT %:    99.9615  MISS %:  0.0384823   MPKI: 0.073525
L1I LOAD      ACCESS:   38212412  HIT:   38197707  MISS:      14705  HIT %:    99.9615  MISS %:  0.0384823   MPKI: 0.073525
L1I RFO       ACCESS:          0  HIT:          0  MISS:          0  HIT %:       -nan  MISS %:       -nan   MPKI: 0
L1I PREFETCH  ACCESS:          0  HIT:          0  MISS:          0  HIT %:       -nan  MISS %:       -nan   MPKI: 0
L1I WRITEBACK ACCESS:          0  HIT:          0  MISS:          0  HIT %:       -nan  MISS %:       -nan   MPKI: 0
L2C TOTAL     ACCESS:   13414256  HIT:   11784767  MISS:    1629489  HIT %:    87.8526  MISS %:    12.1474   MPKI: 8.14744
L2C LOAD      ACCESS:    1368111  HIT:     428706  MISS:     939405  HIT %:    31.3356  MISS %:    68.6644   MPKI: 4.69702
L2C RFO       ACCESS:     127449  HIT:      87859  MISS:      39590  HIT %:    68.9366  MISS %:    31.0634   MPKI: 0.19795
L2C PREFETCH  ACCESS:    5765151  HIT:    5292040  MISS:     473111  HIT %:    91.7936  MISS %:    8.20639   MPKI: 2.36555
L2C WRITEBACK ACCESS:     206304  HIT:     198813  MISS:       7491  HIT %:     96.369  MISS %:    3.63105   MPKI: 0.037455
PSCL5 TOTAL     ACCESS:    5471230  HIT:    5471230  MISS:          0  HIT %:        100  MISS %:          0   MPKI: 0
PSCL5 LOAD      ACCESS:          0  HIT:          0  MISS:          0  HIT %:       -nan  MISS %:       -nan   MPKI: 0
PSCL5 RFO       ACCESS:          0  HIT:          0  MISS:          0  HIT %:       -nan  MISS %:       -nan   MPKI: 0
PSCL5 PREFETCH  ACCESS:          0  HIT:          0  MISS:          0  HIT %:       -nan  MISS %:       -nan   MPKI: 0
PSCL5 WRITEBACK ACCESS:          0  HIT:          0  MISS:          0  HIT %:       -nan  MISS %:       -nan   MPKI: 0
PSCL4 TOTAL     ACCESS:    5471230  HIT:    5471230  MISS:          0  HIT %:        100  MISS %:          0   MPKI: 0
PSCL4 LOAD      ACCESS:          0  HIT:          0  MISS:          0  HIT %:       -nan  MISS %:       -nan   MPKI: 0
PSCL4 RFO       ACCESS:          0  HIT:          0  MISS:          0  HIT %:       -nan  MISS %:       -nan   MPKI: 0
PSCL4 PREFETCH  ACCESS:          0  HIT:          0  MISS:          0  HIT %:       -nan  MISS %:       -nan   MPKI: 0
PSCL4 WRITEBACK ACCESS:          0  HIT:          0  MISS:          0  HIT %:       -nan  MISS %:       -nan   MPKI: 0
PSCL3 TOTAL     ACCESS:    5469335  HIT:    5469218  MISS:        117  HIT %:    99.9979  MISS %:  0.0021392   MPKI: 0.000585
PSCL3 LOAD      ACCESS:          0  HIT:          0  MISS:          0  HIT %:       -nan  MISS %:       -nan   MPKI: 0
PSCL3 RFO       ACCESS:          0  HIT:          0  MISS:          0  HIT %:       -nan  MISS %:       -nan   MPKI: 0
PSCL3 PREFETCH  ACCESS:          0  HIT:          0  MISS:          0  HIT %:       -nan  MISS %:       -nan   MPKI: 0
PSCL3 WRITEBACK ACCESS:          0  HIT:          0  MISS:          0  HIT %:       -nan  MISS %:       -nan   MPKI: 0
PSCL2 TOTAL     ACCESS:    5470821  HIT:    4995336  MISS:     475485  HIT %:    91.3087  MISS %:    8.69129   MPKI: 2.37742
PSCL2 LOAD      ACCESS:          0  HIT:          0  MISS:          0  HIT %:       -nan  MISS %:       -nan   MPKI: 0
PSCL2 RFO       ACCESS:          0  HIT:          0  MISS:          0  HIT %:       -nan  MISS %:       -nan   MPKI: 0
PSCL2 PREFETCH  ACCESS:          0  HIT:          0  MISS:          0  HIT %:       -nan  MISS %:       -nan   MPKI: 0
PSCL2 WRITEBACK ACCESS:          0  HIT:          0  MISS:          0  HIT %:       -nan  MISS %:       -nan   MPKI: 0
LLC TOTAL     ACCESS:    1705828  HIT:     787137  MISS:     918691  HIT %:     46.144  MISS %:     53.856   MPKI: 4.59345
LLC LOAD      ACCESS:     936800  HIT:     315172  MISS:     621628  HIT %:    33.6435  MISS %:    66.3565   MPKI: 3.10814
LLC RFO       ACCESS:      39584  HIT:       3003  MISS:      36581  HIT %:     7.5864  MISS %:    92.4136   MPKI: 0.182905
LLC PREFETCH  ACCESS:     475721  HIT:     263881  MISS:     211840  HIT %:    55.4697  MISS %:    44.5303   MPKI: 1.0592
LLC WRITEBACK ACCESS:      83831  HIT:      77663  MISS:       6168  HIT %:    92.6423  MISS %:    7.35766   MPKI: 0.03084

RAW hits: 536751
Loads Generated: 23956151
Loads sent to L1D: 23419400
Stores Generated: 3874816
Stores sent to L1D: 3874816

Region of Interest Statistics

CPU 0 cumulative IPC: 0.884295 instructions: 200000002 cycles: 226168946
ITLB TOTAL     ACCESS:   28404854  HIT:   27191730  MISS:    1213124  HIT %:    95.7292  MISS %:    4.27083   MPKI: 6.06562
ITLB LOAD TRANSLATION ACCESS:   28404854  HIT:   27191730  MISS:    1213124  HIT %:    95.7292  MISS %:    4.27083   MPKI: 6.06562
ITLB PREFETCH  REQUESTED:          0  ISSUED:          0  USEFUL:          0  USELESS:          0
ITLB USEFUL LOAD PREFETCHES:          0 PREFETCH ISSUED TO LOWER LEVEL:          0  ACCURACY: -nan
ITLB TIMELY PREFETCHES:          0 LATE PREFETCHES: 0 DROPPED PREFETCHES: 0
ITLB PREFETCHES SAME FILL-ORIGIN LEVEL: 0 DIFFERENT FILL-ORIGIN LEVEL: 0
ITLB AVERAGE MISS LATENCY: 40.1216 cycles
ITLB RQ	ACCESS:   44681485	FORWARD:          0	MERGED:   10317289	TO_CACHE:   34364196

DTLB TOTAL     ACCESS:   15399998  HIT:    7183388  MISS:    8216610  HIT %:    46.6454  MISS %:    53.3546   MPKI: 41.083
DTLB LOAD TRANSLATION ACCESS:   15399998  HIT:    7183388  MISS:    8216610  HIT %:    46.6454  MISS %:    53.3546   MPKI: 41.083
DTLB PREFETCH  REQUESTED:          0  ISSUED:          0  USEFUL:          0  USELESS:          0
DTLB USEFUL LOAD PREFETCHES:          0 PREFETCH ISSUED TO LOWER LEVEL:          0  ACCURACY: -nan
DTLB TIMELY PREFETCHES:          0 LATE PREFETCHES: 0 DROPPED PREFETCHES: 0
DTLB PREFETCHES SAME FILL-ORIGIN LEVEL: 0 DIFFERENT FILL-ORIGIN LEVEL: 0
DTLB AVERAGE MISS LATENCY: 29.1227 cycles
DTLB RQ	ACCESS:   20245505	FORWARD:          0	MERGED:    1342772	TO_CACHE:   18902733

STLB TOTAL     ACCESS:   13069024  HIT:    7760158  MISS:    5308866  HIT %:    59.3783  MISS %:    40.6217   MPKI: 26.5443
STLB LOAD TRANSLATION ACCESS:    9429733  HIT:    4256281  MISS:    5173452  HIT %:    45.1368  MISS %:    54.8632   MPKI: 25.8673
STLB TRANSLATION FROM L1D PREFETCHER ACCESS:    3639291  HIT:    3503877  MISS:     135414  HIT %:    96.2791  MISS %:    3.72089   MPKI: 0.67707
STLB PREFETCH  REQUESTED:          0  ISSUED:          0  USEFUL:     102704  USELESS:      63809
STLB USEFUL LOAD PREFETCHES:     102704 PREFETCH ISSUED TO LOWER LEVEL:          0  ACCURACY: inf
STLB TIMELY PREFETCHES:     102704 LATE PREFETCHES: 0 DROPPED PREFETCHES: 37320
STLB PREFETCHES SAME FILL-ORIGIN LEVEL: 0 DIFFERENT FILL-ORIGIN LEVEL: 0
STLB AVERAGE MISS LATENCY: 36.0012 cycles
STLB RQ	ACCESS:   26048063	FORWARD:          0	MERGED:   10606650	TO_CACHE:   15441413

STLB Hit, L1D data hit: 0
STLB Hit, L2C data hit: 0
STLB Hit, LLC data hit: 0
STLB Hit, LLC data miss: 0
STLB STLB hints to L2: 0
L1D TOTAL     ACCESS:   25306164  HIT:   23864408  MISS:    1441756  HIT %:    94.3027  MISS %:    5.69725   MPKI: 7.20878
L1D LOAD      ACCESS:   13899355  HIT:   12729528  MISS:    1169827  HIT %:    91.5836  MISS %:    8.41641   MPKI: 5.84913
L1D RFO       ACCESS:    3002357  HIT:    2892943  MISS:     109414  HIT %:    96.3557  MISS %:    3.64427   MPKI: 0.54707
L1D PREFETCH  ACCESS:    8404452  HIT:    8241937  MISS:     162515  HIT %:    98.0663  MISS %:    1.93368   MPKI: 0.812575
L1D PREFETCH  REQUESTED:   35801871  ISSUED:   33251586  USEFUL:     143879  USELESS:      46570
L1D USEFUL LOAD PREFETCHES:     143879 PREFETCH ISSUED TO LOWER LEVEL:    5451744  ACCURACY: 2.63914
L1D TIMELY PREFETCHES:     143879 LATE PREFETCHES: 1293 DROPPED PREFETCHES: 87479
L1D PREFETCHES SAME FILL-ORIGIN LEVEL: 191755 DIFFERENT FILL-ORIGIN LEVEL: 5259989
L1D AVERAGE MISS LATENCY: 99.0634 cycles
L1D RQ	ACCESS:   25891125	FORWARD:          0	MERGED:    9432708	TO_CACHE:   16436909
L1D WQ	ACCESS:    3873216	FORWARD:      23028	MERGED:      64620	TO_CACHE:    3808596
L1D PQ	ACCESS:   18405887	FORWARD:          0	MERGED:    3558668	TO_CACHE:   14845699

L1D UNIQUE REGIONS ACCESSED: 0
L1D REGIONS CONFLICTS: 0
L1D Cross Page Prefetch Requests: 5632976
L1D Same Page Prefetch Requests: 18562218
L1D ROI Sum of L1D PQ occupancy: 211833098
L1D PREFETCHES PUSHED FROM L2C: 0
L1I TOTAL     ACCESS:   37712520  HIT:   37701860  MISS:      10660  HIT %:    99.9717  MISS %:  0.0282665   MPKI: 0.0533
L1I LOAD      ACCESS:   37712520  HIT:   37701860  MISS:      10660  HIT %:    99.9717  MISS %:  0.0282665   MPKI: 0.0533
L1I PREFETCH  REQUESTED:          0  ISSUED:          0  USEFUL:          0  USELESS:          0
L1I USEFUL LOAD PREFETCHES:          0 PREFETCH ISSUED TO LOWER LEVEL:          0  ACCURACY: -nan
L1I TIMELY PREFETCHES:          0 LATE PREFETCHES: 0 DROPPED PREFETCHES: 0
L1I PREFETCHES SAME FILL-ORIGIN LEVEL: 0 DIFFERENT FILL-ORIGIN LEVEL: 0
L1I AVERAGE MISS LATENCY: 122.275 cycles
L1I RQ	ACCESS:   68826114	FORWARD:          0	MERGED:   24144629	TO_CACHE:   44681485

BTB BRANCH_DIRECT_JUMP	ACCESS:          0  HIT:          0  MISS:          0
BTB BRANCH_INDIRECT	ACCESS:          0  HIT:          0  MISS:          0
BTB BRANCH_CONDITIONAL	ACCESS:          0  HIT:          0  MISS:          0
BTB BRANCH_DIRECT_CALL	ACCESS:          0  HIT:          0  MISS:          0
BTB BRANCH_INDIRECT_CALL	ACCESS:          0  HIT:          0  MISS:          0
BTB BRANCH_RETURN	ACCESS:          0  HIT:          0  MISS:          0
BTB BRANCH_OTHER ACCESS:          0  HIT:          0  MISS:          0

L2C TOTAL     ACCESS:   11912668  HIT:   10666027  MISS:    1246641  HIT %:    89.5352  MISS %:    10.4648   MPKI: 6.2332
L2C LOAD      ACCESS:    1179205  HIT:     448194  MISS:     731011  HIT %:    38.0081  MISS %:    61.9919   MPKI: 3.65505
L2C DATA LOAD MPKI: 3.62697
L2C INSTRUCTION LOAD MPKI: 0.02808
L2C RFO       ACCESS:     109316  HIT:      68758  MISS:      40558  HIT %:    62.8984  MISS %:    37.1016   MPKI: 0.20279
L2C PREFETCH  ACCESS:    4645199  HIT:    4317688  MISS:     327511  HIT %:    92.9495  MISS %:    7.05053   MPKI: 1.63755
L2C DATA PREFETCH MPKI: 1.63755
L2C INSTRUCTION PREFETCH MPKI: 0
L2C WRITEBACK ACCESS:     148127  HIT:     142666  MISS:       5461  HIT %:    96.3133  MISS %:     3.6867   MPKI: 0.027305
L2C LOAD TRANSLATION ACCESS:    5658183  HIT:    5516447  MISS:     141736  HIT %:     97.495  MISS %:    2.50497   MPKI: 0.70868
L2C TRANSLATION FROM L1D PREFETCHER ACCESS:     172638  HIT:     172274  MISS:        364  HIT %:    99.7892  MISS %:   0.210846   MPKI: 0.00182
L2C PREFETCH  REQUESTED:          0  ISSUED:          0  USEFUL:     125902  USELESS:     268149
L2C USEFUL LOAD PREFETCHES:     125902 PREFETCH ISSUED TO LOWER LEVEL:     394391  ACCURACY: 31.9231
L2C TIMELY PREFETCHES:     125902 LATE PREFETCHES: 870 DROPPED PREFETCHES: 0
L2C PREFETCHES SAME FILL-ORIGIN LEVEL: 356255 DIFFERENT FILL-ORIGIN LEVEL: 0
L2C AVERAGE MISS LATENCY: 130.073 cycles
L2C RQ	ACCESS:    8474163	FORWARD:          0	MERGED:          0	TO_CACHE:    8474037
L2C WQ	ACCESS:     171690	FORWARD:        129	MERGED:          0	TO_CACHE:     171690
L2C PQ	ACCESS:    5451714	FORWARD:          0	MERGED:       6787	TO_CACHE:    5444924

L2C Instructions Evicting Data 4920
L2C Translations Evicting Data 151427
L2C Data Evicting Data 1166081
L2C Instructions Evicting Instructions 368
L2C Translations Evicting Instructions 318
L2C Data Evicting Instructions 5048
L2C Instructions Evicting Translations 528
L2C Translations Evicting Translations 20976
L2C Data Evicting Translations 150581
L2C Dense regions hint from L2: 0
PSCL5 TOTAL     ACCESS:    5345375  HIT:    5345375  MISS:          0  HIT %:        100  MISS %:          0   MPKI: 0
PSCL5 LOAD TRANSLATION ACCESS:    5173453  HIT:    5173453  MISS:          0  HIT %:        100  MISS %:          0   MPKI: 0
PSCL5 TRANSLATION FROM L1D PREFETCHER ACCESS:     171922  HIT:     171922  MISS:          0  HIT %:        100  MISS %:          0   MPKI: 0
PSCL5 PREFETCH  REQUESTED:          0  ISSUED:          0  USEFUL:          0  USELESS:          0
PSCL5 USEFUL LOAD PREFETCHES:          0 PREFETCH ISSUED TO LOWER LEVEL:          0  ACCURACY: -nan
PSCL5 TIMELY PREFETCHES:          0 LATE PREFETCHES: 0 DROPPED PREFETCHES: 0
PSCL5 PREFETCHES SAME FILL-ORIGIN LEVEL: 0 DIFFERENT FILL-ORIGIN LEVEL: 0

PSCL4 TOTAL     ACCESS:    5345375  HIT:    5345375  MISS:          0  HIT %:        100  MISS %:          0   MPKI: 0
PSCL4 LOAD TRANSLATION ACCESS:    5173453  HIT:    5173453  MISS:          0  HIT %:        100  MISS %:          0   MPKI: 0
PSCL4 TRANSLATION FROM L1D PREFETCHER ACCESS:     171922  HIT:     171922  MISS:          0  HIT %:        100  MISS %:          0   MPKI: 0
PSCL4 PREFETCH  REQUESTED:          0  ISSUED:          0  USEFUL:          0  USELESS:          0
PSCL4 USEFUL LOAD PREFETCHES:          0 PREFETCH ISSUED TO LOWER LEVEL:          0  ACCURACY: -nan
PSCL4 TIMELY PREFETCHES:          0 LATE PREFETCHES: 0 DROPPED PREFETCHES: 0
PSCL4 PREFETCHES SAME FILL-ORIGIN LEVEL: 0 DIFFERENT FILL-ORIGIN LEVEL: 0

PSCL3 TOTAL     ACCESS:    5345210  HIT:    5345110  MISS:        100  HIT %:    99.9981  MISS %: 0.00187083   MPKI: 0.0005
PSCL3 LOAD TRANSLATION ACCESS:    5173290  HIT:    5173190  MISS:        100  HIT %:    99.9981  MISS %: 0.00193301   MPKI: 0.0005
PSCL3 TRANSLATION FROM L1D PREFETCHER ACCESS:     171920  HIT:     171920  MISS:          0  HIT %:        100  MISS %:          0   MPKI: 0
PSCL3 PREFETCH  REQUESTED:          0  ISSUED:          0  USEFUL:          0  USELESS:          0
PSCL3 USEFUL LOAD PREFETCHES:          0 PREFETCH ISSUED TO LOWER LEVEL:          0  ACCURACY: -nan
PSCL3 TIMELY PREFETCHES:          0 LATE PREFETCHES: 0 DROPPED PREFETCHES: 0
PSCL3 PREFETCHES SAME FILL-ORIGIN LEVEL: 0 DIFFERENT FILL-ORIGIN LEVEL: 0

PSCL2 TOTAL     ACCESS:    5345272  HIT:    4860028  MISS:     485244  HIT %:     90.922  MISS %:      9.078   MPKI: 2.42622
PSCL2 LOAD TRANSLATION ACCESS:    5174066  HIT:    4688822  MISS:     485244  HIT %:    90.6216  MISS %:    9.37839   MPKI: 2.42622
PSCL2 TRANSLATION FROM L1D PREFETCHER ACCESS:     171206  HIT:     171206  MISS:          0  HIT %:        100  MISS %:          0   MPKI: 0
PSCL2 PREFETCH  REQUESTED:          0  ISSUED:          0  USEFUL:          0  USELESS:          0
PSCL2 USEFUL LOAD PREFETCHES:          0 PREFETCH ISSUED TO LOWER LEVEL:          0  ACCURACY: -nan
PSCL2 TIMELY PREFETCHES:          0 LATE PREFETCHES: 0 DROPPED PREFETCHES: 0
PSCL2 PREFETCHES SAME FILL-ORIGIN LEVEL: 0 DIFFERENT FILL-ORIGIN LEVEL: 0

LLC TOTAL     ACCESS:    1314021  HIT:     749610  MISS:     564411  HIT %:     57.047  MISS %:     42.953   MPKI: 2.82205
LLC LOAD      ACCESS:     730216  HIT:     339520  MISS:     390696  HIT %:    46.4958  MISS %:    53.5042   MPKI: 1.95348
LLC RFO       ACCESS:      40552  HIT:       2032  MISS:      38520  HIT %:    5.01085  MISS %:    94.9891   MPKI: 0.1926
LLC PREFETCH  ACCESS:     328312  HIT:     236096  MISS:      92216  HIT %:    71.9121  MISS %:    28.0879   MPKI: 0.46108
LLC WRITEBACK ACCESS:      72841  HIT:      64886  MISS:       7955  HIT %:     89.079  MISS %:     10.921   MPKI: 0.039775
LLC LOAD TRANSLATION ACCESS:     141736  HIT:     106862  MISS:      34874  HIT %:    75.3951  MISS %:    24.6049   MPKI: 0.17437
LLC TRANSLATION FROM L1D PREFETCHER ACCESS:        364  HIT:        214  MISS:        150  HIT %:    58.7912  MISS %:    41.2088   MPKI: 0.00075
LLC PREFETCH  REQUESTED:          0  ISSUED:          0  USEFUL:      30338  USELESS:     638981
LLC USEFUL LOAD PREFETCHES:      30338 PREFETCH ISSUED TO LOWER LEVEL:     670849  ACCURACY: 4.52233
LLC TIMELY PREFETCHES:      30338 LATE PREFETCHES: 0 DROPPED PREFETCHES: 0
LLC PREFETCHES SAME FILL-ORIGIN LEVEL: 0 DIFFERENT FILL-ORIGIN LEVEL: 0
LLC AVERAGE MISS LATENCY: 941.901 cycles
LLC RQ	ACCESS:    4831499	FORWARD:          0	MERGED:          0	TO_CACHE:    4831498
LLC WQ	ACCESS:     289276	FORWARD:          2	MERGED:          0	TO_CACHE:     289276
LLC PQ	ACCESS:    1806646	FORWARD:          0	MERGED:          0	TO_CACHE:    1806645

LLC Dense regions hint to LLC: 0

RAW hits: 418613
Loads Generated: 22360540
Loads sent to L1D: 21941922
Stores Generated: 3360879
Stores sent to L1D: 3360879
Major fault: 0 Minor fault: 9199
Allocated PAGES: 47422

CPU 1 cumulative IPC: 0.785772 instructions: 200000000 cycles: 254526806
ITLB TOTAL     ACCESS:   28819754  HIT:   27493505  MISS:    1326249  HIT %:    95.3981  MISS %:    4.60187   MPKI: 6.63124
ITLB LOAD TRANSLATION ACCESS:   28819754  HIT:   27493505  MISS:    1326249  HIT %:    95.3981  MISS %:    4.60187   MPKI: 6.63124
ITLB PREFETCH  REQUESTED:          0  ISSUED:          0  USEFUL:          0  USELESS:          0
ITLB USEFUL LOAD PREFETCHES:          0 PREFETCH ISSUED TO LOWER LEVEL:          0  ACCURACY: -nan
ITLB TIMELY PREFETCHES:          0 LATE PREFETCHES: 0 DROPPED PREFETCHES: 0
ITLB PREFETCHES SAME FILL-ORIGIN LEVEL: 0 DIFFERENT FILL-ORIGIN LEVEL: 0
ITLB AVERAGE MISS LATENCY: 39.83 cycles
ITLB RQ	ACCESS:   40286576	FORWARD:          0	MERGED:    9301963	TO_CACHE:   30984613

DTLB TOTAL     ACCESS:   15702523  HIT:    6895783  MISS:    8806740  HIT %:    43.9151  MISS %:    56.0849   MPKI: 44.0337
DTLB LOAD TRANSLATION ACCESS:   15702523  HIT:    6895783  MISS:    8806740  HIT %:    43.9151  MISS %:    56.0849   MPKI: 44.0337
DTLB PREFETCH  REQUESTED:          0  ISSUED:          0  USEFUL:          0  USELESS:          0
DTLB USEFUL LOAD PREFETCHES:          0 PREFETCH ISSUED TO LOWER LEVEL:          0  ACCURACY: -nan
DTLB TIMELY PREFETCHES:          0 LATE PREFETCHES: 0 DROPPED PREFETCHES: 0
DTLB PREFETCHES SAME FILL-ORIGIN LEVEL: 0 DIFFERENT FILL-ORIGIN LEVEL: 0
DTLB AVERAGE MISS LATENCY: 25.8231 cycles
DTLB RQ	ACCESS:   18585260	FORWARD:          0	MERGED:    1263705	TO_CACHE:   17321555

STLB TOTAL     ACCESS:   13565786  HIT:    7819365  MISS:    5746421  HIT %:    57.6403  MISS %:    42.3597   MPKI: 28.7321
STLB LOAD TRANSLATION ACCESS:   10132988  HIT:    4540195  MISS:    5592793  HIT %:    44.8061  MISS %:    55.1939   MPKI: 27.964
STLB TRANSLATION FROM L1D PREFETCHER ACCESS:    3432798  HIT:    3279170  MISS:     153628  HIT %:    95.5247  MISS %:     4.4753   MPKI: 0.76814
STLB PREFETCH  REQUESTED:          0  ISSUED:          0  USEFUL:      95218  USELESS:      68695
STLB USEFUL LOAD PREFETCHES:      95218 PREFETCH ISSUED TO LOWER LEVEL:          0  ACCURACY: inf
STLB TIMELY PREFETCHES:      95218 LATE PREFETCHES: 0 DROPPED PREFETCHES: 42040
STLB PREFETCHES SAME FILL-ORIGIN LEVEL: 0 DIFFERENT FILL-ORIGIN LEVEL: 0
STLB AVERAGE MISS LATENCY: 32.5487 cycles
STLB RQ	ACCESS:   24266005	FORWARD:          0	MERGED:    9867184	TO_CACHE:   14398821

STLB Hit, L1D data hit: 0
STLB Hit, L2C data hit: 0
STLB Hit, LLC data hit: 0
STLB Hit, LLC data miss: 0
STLB STLB hints to L2: 0
L1D TOTAL     ACCESS:   25163070  HIT:   23526551  MISS:    1636519  HIT %:    93.4963  MISS %:    6.50365   MPKI: 8.18259
L1D LOAD      ACCESS:   14286851  HIT:   12986976  MISS:    1299875  HIT %:    90.9016  MISS %:     9.0984   MPKI: 6.49937
L1D RFO       ACCESS:    3049196  HIT:    2939967  MISS:     109229  HIT %:    96.4178  MISS %:    3.58222   MPKI: 0.546145
L1D PREFETCH  ACCESS:    7827023  HIT:    7599608  MISS:     227415  HIT %:    97.0945  MISS %:    2.90551   MPKI: 1.13708
L1D PREFETCH  REQUESTED:   33078872  ISSUED:   30903262  USEFUL:     196349  USELESS:      45552
L1D USEFUL LOAD PREFETCHES:     196349 PREFETCH ISSUED TO LOWER LEVEL:    5466777  ACCURACY: 3.59168
L1D TIMELY PREFETCHES:     196349 LATE PREFETCHES: 815 DROPPED PREFETCHES: 68458
L1D PREFETCHES SAME FILL-ORIGIN LEVEL: 242723 DIFFERENT FILL-ORIGIN LEVEL: 5224054
L1D AVERAGE MISS LATENCY: 96.518 cycles
L1D RQ	ACCESS:   23936831	FORWARD:          0	MERGED:    8783472	TO_CACHE:   15135334
L1D WQ	ACCESS:    3521327	FORWARD:      19612	MERGED:      71401	TO_CACHE:    3449926
L1D PQ	ACCESS:   17352731	FORWARD:          0	MERGED:    3800613	TO_CACHE:   13550531

L1D UNIQUE REGIONS ACCESSED: 0
L1D REGIONS CONFLICTS: 0
L1D Cross Page Prefetch Requests: 4170140
L1D Same Page Prefetch Requests: 16848747
L1D ROI Sum of L1D PQ occupancy: 194564499
L1D PREFETCHES PUSHED FROM L2C: 0
L1I TOTAL     ACCESS:   38144672  HIT:   38128950  MISS:      15722  HIT %:    99.9588  MISS %:  0.0412168   MPKI: 0.07861
L1I LOAD      ACCESS:   38144672  HIT:   38128950  MISS:      15722  HIT %:    99.9588  MISS %:  0.0412168   MPKI: 0.07861
L1I PREFETCH  REQUESTED:          0  ISSUED:          0  USEFUL:          0  USELESS:          0
L1I USEFUL LOAD PREFETCHES:          0 PREFETCH ISSUED TO LOWER LEVEL:          0  ACCURACY: -nan
L1I TIMELY PREFETCHES:          0 LATE PREFETCHES: 0 DROPPED PREFETCHES: 0
L1I PREFETCHES SAME FILL-ORIGIN LEVEL: 0 DIFFERENT FILL-ORIGIN LEVEL: 0
L1I AVERAGE MISS LATENCY: 152.626 cycles
L1I RQ	ACCESS:   62600424	FORWARD:          0	MERGED:   22313848	TO_CACHE:   40286576

BTB BRANCH_DIRECT_JUMP	ACCESS:          0  HIT:          0  MISS:          0
BTB BRANCH_INDIRECT	ACCESS:          0  HIT:          0  MISS:          0
BTB BRANCH_CONDITIONAL	ACCESS:          0  HIT:          0  MISS:          0
BTB BRANCH_DIRECT_CALL	ACCESS:          0  HIT:          0  MISS:          0
BTB BRANCH_INDIRECT_CALL	ACCESS:          0  HIT:          0  MISS:          0
BTB BRANCH_RETURN	ACCESS:          0  HIT:          0  MISS:          0
BTB BRANCH_OTHER ACCESS:          0  HIT:          0  MISS:          0

L2C TOTAL     ACCESS:   12866575  HIT:   11216404  MISS:    1650171  HIT %:    87.1747  MISS %:    12.8253   MPKI: 8.25085
L2C LOAD      ACCESS:    1314770  HIT:     387938  MISS:     926832  HIT %:    29.5061  MISS %:    70.4939   MPKI: 4.63416
L2C DATA LOAD MPKI: 4.58155
L2C INSTRUCTION LOAD MPKI: 0.052615
L2C RFO       ACCESS:     109146  HIT:      74379  MISS:      34767  HIT %:    68.1463  MISS %:    31.8537   MPKI: 0.173835
L2C PREFETCH  ACCESS:    4961243  HIT:    4447240  MISS:     514003  HIT %:    89.6396  MISS %:    10.3604   MPKI: 2.57002
L2C DATA PREFETCH MPKI: 2.57002
L2C INSTRUCTION PREFETCH MPKI: 0
L2C WRITEBACK ACCESS:     165564  HIT:     158103  MISS:       7461  HIT %:    95.4936  MISS %:    4.50641   MPKI: 0.037305
L2C LOAD TRANSLATION ACCESS:    6120086  HIT:    5953751  MISS:     166335  HIT %:    97.2821  MISS %:    2.71785   MPKI: 0.831675
L2C TRANSLATION FROM L1D PREFETCHER ACCESS:     195766  HIT:     194993  MISS:        773  HIT %:    99.6051  MISS %:   0.394859   MPKI: 0.003865
L2C PREFETCH  REQUESTED:          0  ISSUED:          0  USEFUL:     138394  USELESS:     410790
L2C USEFUL LOAD PREFETCHES:     138394 PREFETCH ISSUED TO LOWER LEVEL:     550533  ACCURACY: 25.1382
L2C TIMELY PREFETCHES:     138394 LATE PREFETCHES: 1326 DROPPED PREFETCHES: 0
L2C PREFETCHES SAME FILL-ORIGIN LEVEL: 512846 DIFFERENT FILL-ORIGIN LEVEL: 0
L2C AVERAGE MISS LATENCY: 127.398 cycles
L2C RQ	ACCESS:    8162609	FORWARD:          0	MERGED:          0	TO_CACHE:    8162512
L2C WQ	ACCESS:     175612	FORWARD:        106	MERGED:          0	TO_CACHE:     175612
L2C PQ	ACCESS:    5466744	FORWARD:          0	MERGED:       8278	TO_CACHE:    5458457

L2C Instructions Evicting Data 8850
L2C Translations Evicting Data 156386
L2C Data Evicting Data 1385763
L2C Instructions Evicting Instructions 457
L2C Translations Evicting Instructions 589
L2C Data Evicting Instructions 9266
L2C Instructions Evicting Translations 1216
L2C Translations Evicting Translations 19277
L2C Data Evicting Translations 155406
L2C Dense regions hint from L2: 0
PSCL5 TOTAL     ACCESS:    5788204  HIT:    5788204  MISS:          0  HIT %:        100  MISS %:          0   MPKI: 0
PSCL5 LOAD TRANSLATION ACCESS:    5592792  HIT:    5592792  MISS:          0  HIT %:        100  MISS %:          0   MPKI: 0
PSCL5 TRANSLATION FROM L1D PREFETCHER ACCESS:     195412  HIT:     195412  MISS:          0  HIT %:        100  MISS %:          0   MPKI: 0
PSCL5 PREFETCH  REQUESTED:          0  ISSUED:          0  USEFUL:          0  USELESS:          0
PSCL5 USEFUL LOAD PREFETCHES:          0 PREFETCH ISSUED TO LOWER LEVEL:          0  ACCURACY: -nan
PSCL5 TIMELY PREFETCHES:          0 LATE PREFETCHES: 0 DROPPED PREFETCHES: 0
PSCL5 PREFETCHES SAME FILL-ORIGIN LEVEL: 0 DIFFERENT FILL-ORIGIN LEVEL: 0

PSCL4 TOTAL     ACCESS:    5788204  HIT:    5788204  MISS:          0  HIT %:        100  MISS %:          0   MPKI: 0
PSCL4 LOAD TRANSLATION ACCESS:    5592792  HIT:    5592792  MISS:          0  HIT %:        100  MISS %:          0   MPKI: 0
PSCL4 TRANSLATION FROM L1D PREFETCHER ACCESS:     195412  HIT:     195412  MISS:          0  HIT %:        100  MISS %:          0   MPKI: 0
PSCL4 PREFETCH  REQUESTED:          0  ISSUED:          0  USEFUL:          0  USELESS:          0
PSCL4 USEFUL LOAD PREFETCHES:          0 PREFETCH ISSUED TO LOWER LEVEL:          0  ACCURACY: -nan
PSCL4 TIMELY PREFETCHES:          0 LATE PREFETCHES: 0 DROPPED PREFETCHES: 0
PSCL4 PREFETCHES SAME FILL-ORIGIN LEVEL: 0 DIFFERENT FILL-ORIGIN LEVEL: 0

PSCL3 TOTAL     ACCESS:    5787846  HIT:    5787736  MISS:        110  HIT %:    99.9981  MISS %: 0.00190053   MPKI: 0.00055
PSCL3 LOAD TRANSLATION ACCESS:    5592441  HIT:    5592331  MISS:        110  HIT %:     99.998  MISS %: 0.00196694   MPKI: 0.00055
PSCL3 TRANSLATION FROM L1D PREFETCHER ACCESS:     195405  HIT:     195405  MISS:          0  HIT %:        100  MISS %:          0   MPKI: 0
PSCL3 PREFETCH  REQUESTED:          0  ISSUED:          0  USEFUL:          0  USELESS:          0
PSCL3 USEFUL LOAD PREFETCHES:          0 PREFETCH ISSUED TO LOWER LEVEL:          0  ACCURACY: -nan
PSCL3 TIMELY PREFETCHES:          0 LATE PREFETCHES: 0 DROPPED PREFETCHES: 0
PSCL3 PREFETCHES SAME FILL-ORIGIN LEVEL: 0 DIFFERENT FILL-ORIGIN LEVEL: 0

PSCL2 TOTAL     ACCESS:    5788009  HIT:    5260637  MISS:     527372  HIT %:    90.8885  MISS %:    9.11146   MPKI: 2.63686
PSCL2 LOAD TRANSLATION ACCESS:    5592951  HIT:    5065579  MISS:     527372  HIT %:    90.5708  MISS %:    9.42923   MPKI: 2.63686
PSCL2 TRANSLATION FROM L1D PREFETCHER ACCESS:     195058  HIT:     195058  MISS:          0  HIT %:        100  MISS %:          0   MPKI: 0
PSCL2 PREFETCH  REQUESTED:          0  ISSUED:          0  USEFUL:          0  USELESS:          0
PSCL2 USEFUL LOAD PREFETCHES:          0 PREFETCH ISSUED TO LOWER LEVEL:          0  ACCURACY: -nan
PSCL2 TIMELY PREFETCHES:          0 LATE PREFETCHES: 0 DROPPED PREFETCHES: 0
PSCL2 PREFETCHES SAME FILL-ORIGIN LEVEL: 0 DIFFERENT FILL-ORIGIN LEVEL: 0

LLC TOTAL     ACCESS:    1707577  HIT:     856062  MISS:     851515  HIT %:    50.1331  MISS %:    49.8669   MPKI: 4.25758
LLC LOAD      ACCESS:     925576  HIT:     406674  MISS:     518902  HIT %:    43.9374  MISS %:    56.0626   MPKI: 2.59451
LLC RFO       ACCESS:      34763  HIT:       3056  MISS:      31707  HIT %:    8.79096  MISS %:     91.209   MPKI: 0.158535
LLC PREFETCH  ACCESS:     515263  HIT:     255848  MISS:     259415  HIT %:    49.6539  MISS %:    50.3461   MPKI: 1.29707
LLC WRITEBACK ACCESS:      64867  HIT:      59411  MISS:       5456  HIT %:    91.5889  MISS %:    8.41106   MPKI: 0.02728
LLC LOAD TRANSLATION ACCESS:     166335  HIT:     130491  MISS:      35844  HIT %:    78.4507  MISS %:    21.5493   MPKI: 0.17922
LLC TRANSLATION FROM L1D PREFETCHER ACCESS:        773  HIT:        582  MISS:        191  HIT %:    75.2911  MISS %:    24.7089   MPKI: 0.000955
LLC PREFETCH  REQUESTED:          0  ISSUED:          0  USEFUL:      30338  USELESS:     638981
LLC USEFUL LOAD PREFETCHES:      30338 PREFETCH ISSUED TO LOWER LEVEL:     670849  ACCURACY: 4.52233
LLC TIMELY PREFETCHES:      30338 LATE PREFETCHES: 0 DROPPED PREFETCHES: 0
LLC PREFETCHES SAME FILL-ORIGIN LEVEL: 0 DIFFERENT FILL-ORIGIN LEVEL: 0
LLC AVERAGE MISS LATENCY: 624.322 cycles
LLC RQ	ACCESS:    4831499	FORWARD:          0	MERGED:          0	TO_CACHE:    4831498
LLC WQ	ACCESS:     289276	FORWARD:          2	MERGED:          0	TO_CACHE:     289276
LLC PQ	ACCESS:    1806646	FORWARD:          0	MERGED:          0	TO_CACHE:    1806645

LLC Dense regions hint to LLC: 0

RAW hits: 471105
Loads Generated: 23135581
Loads sent to L1D: 22664475
Stores Generated: 3355657
Stores sent to L1D: 3355657
Major fault: 0 Minor fault: 12297
Allocated PAGES: 47422

CPU 2 cumulative IPC: 0.880032 instructions: 200000001 cycles: 227264394
ITLB TOTAL     ACCESS:   28710979  HIT:   27475553  MISS:    1235426  HIT %:     95.697  MISS %:    4.30297   MPKI: 6.17713
ITLB LOAD TRANSLATION ACCESS:   28710979  HIT:   27475553  MISS:    1235426  HIT %:     95.697  MISS %:    4.30297   MPKI: 6.17713
ITLB PREFETCH  REQUESTED:          0  ISSUED:          0  USEFUL:          0  USELESS:          0
ITLB USEFUL LOAD PREFETCHES:          0 PREFETCH ISSUED TO LOWER LEVEL:          0  ACCURACY: -nan
ITLB TIMELY PREFETCHES:          0 LATE PREFETCHES: 0 DROPPED PREFETCHES: 0
ITLB PREFETCHES SAME FILL-ORIGIN LEVEL: 0 DIFFERENT FILL-ORIGIN LEVEL: 0
ITLB AVERAGE MISS LATENCY: 44.9189 cycles
ITLB RQ	ACCESS:   45187817	FORWARD:          0	MERGED:   10416008	TO_CACHE:   34771809

DTLB TOTAL     ACCESS:   15221234  HIT:    6642364  MISS:    8578870  HIT %:    43.6388  MISS %:    56.3612   MPKI: 42.8943
DTLB LOAD TRANSLATION ACCESS:   15221234  HIT:    6642364  MISS:    8578870  HIT %:    43.6388  MISS %:    56.3612   MPKI: 42.8943
DTLB PREFETCH  REQUESTED:          0  ISSUED:          0  USEFUL:          0  USELESS:          0
DTLB USEFUL LOAD PREFETCHES:          0 PREFETCH ISSUED TO LOWER LEVEL:          0  ACCURACY: -nan
DTLB TIMELY PREFETCHES:          0 LATE PREFETCHES: 0 DROPPED PREFETCHES: 0
DTLB PREFETCHES SAME FILL-ORIGIN LEVEL: 0 DIFFERENT FILL-ORIGIN LEVEL: 0
DTLB AVERAGE MISS LATENCY: 28.7346 cycles
DTLB RQ	ACCESS:   20202872	FORWARD:          0	MERGED:    1406692	TO_CACHE:   18796180

STLB TOTAL     ACCESS:   12691040  HIT:    7116843  MISS:    5574197  HIT %:    56.0777  MISS %:    43.9223   MPKI: 27.871
STLB LOAD TRANSLATION ACCESS:    9814296  HIT:    4366102  MISS:    5448194  HIT %:    44.4872  MISS %:    55.5128   MPKI: 27.241
STLB TRANSLATION FROM L1D PREFETCHER ACCESS:    2876744  HIT:    2750741  MISS:     126003  HIT %:    95.6199  MISS %:    4.38006   MPKI: 0.630015
STLB PREFETCH  REQUESTED:          0  ISSUED:          0  USEFUL:      93474  USELESS:      57065
STLB USEFUL LOAD PREFETCHES:      93474 PREFETCH ISSUED TO LOWER LEVEL:          0  ACCURACY: inf
STLB TIMELY PREFETCHES:      93474 LATE PREFETCHES: 0 DROPPED PREFETCHES: 35865
STLB PREFETCHES SAME FILL-ORIGIN LEVEL: 0 DIFFERENT FILL-ORIGIN LEVEL: 0
STLB AVERAGE MISS LATENCY: 35.887 cycles
STLB RQ	ACCESS:   23404874	FORWARD:          0	MERGED:    8252883	TO_CACHE:   15151991

STLB Hit, L1D data hit: 0
STLB Hit, L2C data hit: 0
STLB Hit, LLC data hit: 0
STLB Hit, LLC data miss: 0
STLB STLB hints to L2: 0
L1D TOTAL     ACCESS:   22830539  HIT:   21228769  MISS:    1601770  HIT %:    92.9841  MISS %:    7.01591   MPKI: 8.00885
L1D LOAD      ACCESS:   13992370  HIT:   12659506  MISS:    1332864  HIT %:    90.4744  MISS %:    9.52565   MPKI: 6.66432
L1D RFO       ACCESS:    2650255  HIT:    2527631  MISS:     122624  HIT %:    95.3731  MISS %:    4.62688   MPKI: 0.61312
L1D PREFETCH  ACCESS:    6187914  HIT:    6041632  MISS:     146282  HIT %:     97.636  MISS %:      2.364   MPKI: 0.73141
L1D PREFETCH  REQUESTED:   28514669  ISSUED:   26161424  USEFUL:     137358  USELESS:      36725
L1D USEFUL LOAD PREFETCHES:     137358 PREFETCH ISSUED TO LOWER LEVEL:    4470684  ACCURACY: 3.07242
L1D TIMELY PREFETCHES:     137358 LATE PREFETCHES: 104 DROPPED PREFETCHES: 84488
L1D PREFETCHES SAME FILL-ORIGIN LEVEL: 174187 DIFFERENT FILL-ORIGIN LEVEL: 4296497
L1D AVERAGE MISS LATENCY: 85.7135 cycles
L1D RQ	ACCESS:   26186910	FORWARD:          0	MERGED:    9476232	TO_CACHE:   16698063
L1D WQ	ACCESS:    3521948	FORWARD:      12649	MERGED:      17139	TO_CACHE:    3504809
L1D PQ	ACCESS:   14424506	FORWARD:          0	MERGED:    2687554	TO_CACHE:   11736918

L1D UNIQUE REGIONS ACCESSED: 0
L1D REGIONS CONFLICTS: 0
L1D Cross Page Prefetch Requests: 4899170
L1D Same Page Prefetch Requests: 12982228
L1D ROI Sum of L1D PQ occupancy: 174246947
L1D PREFETCHES PUSHED FROM L2C: 0
L1I TOTAL     ACCESS:   37987415  HIT:   37982005  MISS:       5410  HIT %:    99.9858  MISS %:  0.0142416   MPKI: 0.02705
L1I LOAD      ACCESS:   37987415  HIT:   37982005  MISS:       5410  HIT %:    99.9858  MISS %:  0.0142416   MPKI: 0.02705
L1I PREFETCH  REQUESTED:          0  ISSUED:          0  USEFUL:          0  USELESS:          0
L1I USEFUL LOAD PREFETCHES:          0 PREFETCH ISSUED TO LOWER LEVEL:          0  ACCURACY: -nan
L1I TIMELY PREFETCHES:          0 LATE PREFETCHES: 0 DROPPED PREFETCHES: 0
L1I PREFETCHES SAME FILL-ORIGIN LEVEL: 0 DIFFERENT FILL-ORIGIN LEVEL: 0
L1I AVERAGE MISS LATENCY: 262.458 cycles
L1I RQ	ACCESS:   70171844	FORWARD:          0	MERGED:   24984027	TO_CACHE:   45187817

BTB BRANCH_DIRECT_JUMP	ACCESS:          0  HIT:          0  MISS:          0
BTB BRANCH_INDIRECT	ACCESS:          0  HIT:          0  MISS:          0
BTB BRANCH_CONDITIONAL	ACCESS:          0  HIT:          0  MISS:          0
BTB BRANCH_DIRECT_CALL	ACCESS:          0  HIT:          0  MISS:          0
BTB BRANCH_INDIRECT_CALL	ACCESS:          0  HIT:          0  MISS:          0
BTB BRANCH_RETURN	ACCESS:          0  HIT:          0  MISS:          0
BTB BRANCH_OTHER ACCESS:          0  HIT:          0  MISS:          0

L2C TOTAL     ACCESS:   11432679  HIT:    9928329  MISS:    1504350  HIT %:    86.8417  MISS %:    13.1583   MPKI: 7.52175
L2C LOAD      ACCESS:    1338175  HIT:     381283  MISS:     956892  HIT %:    28.4928  MISS %:    71.5072   MPKI: 4.78446
L2C DATA LOAD MPKI: 4.75794
L2C INSTRUCTION LOAD MPKI: 0.02652
L2C RFO       ACCESS:     122615  HIT:      81769  MISS:      40846  HIT %:    66.6876  MISS %:    33.3124   MPKI: 0.20423
L2C PREFETCH  ACCESS:    3666584  HIT:    3342179  MISS:     324405  HIT %:    91.1524  MISS %:    8.84761   MPKI: 1.62202
L2C DATA PREFETCH MPKI: 1.62202
L2C INSTRUCTION PREFETCH MPKI: 0
L2C WRITEBACK ACCESS:     139168  HIT:     132458  MISS:       6710  HIT %:    95.1785  MISS %:    4.82151   MPKI: 0.03355
L2C LOAD TRANSLATION ACCESS:    6004727  HIT:    5829785  MISS:     174942  HIT %:    97.0866  MISS %:     2.9134   MPKI: 0.87471
L2C TRANSLATION FROM L1D PREFETCHER ACCESS:     161410  HIT:     160855  MISS:        555  HIT %:    99.6562  MISS %:   0.343845   MPKI: 0.002775
L2C PREFETCH  REQUESTED:          0  ISSUED:          0  USEFUL:     130722  USELESS:     255672
L2C USEFUL LOAD PREFETCHES:     130722 PREFETCH ISSUED TO LOWER LEVEL:     386001  ACCURACY: 33.8657
L2C TIMELY PREFETCHES:     130722 LATE PREFETCHES: 468 DROPPED PREFETCHES: 0
L2C PREFETCHES SAME FILL-ORIGIN LEVEL: 356150 DIFFERENT FILL-ORIGIN LEVEL: 0
L2C AVERAGE MISS LATENCY: 98.0419 cycles
L2C RQ	ACCESS:    9060670	FORWARD:          0	MERGED:          0	TO_CACHE:    9060650
L2C WQ	ACCESS:     165815	FORWARD:         29	MERGED:          0	TO_CACHE:     165815
L2C PQ	ACCESS:    4470676	FORWARD:          0	MERGED:       3318	TO_CACHE:    4467349

L2C Instructions Evicting Data 5435
L2C Translations Evicting Data 184497
L2C Data Evicting Data 1374702
L2C Instructions Evicting Instructions 191
L2C Translations Evicting Instructions 607
L2C Data Evicting Instructions 5453
L2C Instructions Evicting Translations 710
L2C Translations Evicting Translations 23502
L2C Data Evicting Translations 183577
L2C Dense regions hint from L2: 0
PSCL5 TOTAL     ACCESS:    5609181  HIT:    5609181  MISS:          0  HIT %:        100  MISS %:          0   MPKI: 0
PSCL5 LOAD TRANSLATION ACCESS:    5448194  HIT:    5448194  MISS:          0  HIT %:        100  MISS %:          0   MPKI: 0
PSCL5 TRANSLATION FROM L1D PREFETCHER ACCESS:     160987  HIT:     160987  MISS:          0  HIT %:        100  MISS %:          0   MPKI: 0
PSCL5 PREFETCH  REQUESTED:          0  ISSUED:          0  USEFUL:          0  USELESS:          0
PSCL5 USEFUL LOAD PREFETCHES:          0 PREFETCH ISSUED TO LOWER LEVEL:          0  ACCURACY: -nan
PSCL5 TIMELY PREFETCHES:          0 LATE PREFETCHES: 0 DROPPED PREFETCHES: 0
PSCL5 PREFETCHES SAME FILL-ORIGIN LEVEL: 0 DIFFERENT FILL-ORIGIN LEVEL: 0

PSCL4 TOTAL     ACCESS:    5609181  HIT:    5609181  MISS:          0  HIT %:        100  MISS %:          0   MPKI: 0
PSCL4 LOAD TRANSLATION ACCESS:    5448194  HIT:    5448194  MISS:          0  HIT %:        100  MISS %:          0   MPKI: 0
PSCL4 TRANSLATION FROM L1D PREFETCHER ACCESS:     160987  HIT:     160987  MISS:          0  HIT %:        100  MISS %:          0   MPKI: 0
PSCL4 PREFETCH  REQUESTED:          0  ISSUED:          0  USEFUL:          0  USELESS:          0
PSCL4 USEFUL LOAD PREFETCHES:          0 PREFETCH ISSUED TO LOWER LEVEL:          0  ACCURACY: -nan
PSCL4 TIMELY PREFETCHES:          0 LATE PREFETCHES: 0 DROPPED PREFETCHES: 0
PSCL4 PREFETCHES SAME FILL-ORIGIN LEVEL: 0 DIFFERENT FILL-ORIGIN LEVEL: 0

PSCL3 TOTAL     ACCESS:    5603827  HIT:    5603763  MISS:         64  HIT %:    99.9989  MISS %: 0.00114208   MPKI: 0.00032
PSCL3 LOAD TRANSLATION ACCESS:    5442844  HIT:    5442780  MISS:         64  HIT %:    99.9988  MISS %: 0.00117586   MPKI: 0.00032
PSCL3 TRANSLATION FROM L1D PREFETCHER ACCESS:     160983  HIT:     160983  MISS:          0  HIT %:        100  MISS %:          0   MPKI: 0
PSCL3 PREFETCH  REQUESTED:          0  ISSUED:          0  USEFUL:          0  USELESS:          0
PSCL3 USEFUL LOAD PREFETCHES:          0 PREFETCH ISSUED TO LOWER LEVEL:          0  ACCURACY: -nan
PSCL3 TIMELY PREFETCHES:          0 LATE PREFETCHES: 0 DROPPED PREFETCHES: 0
PSCL3 PREFETCHES SAME FILL-ORIGIN LEVEL: 0 DIFFERENT FILL-ORIGIN LEVEL: 0

PSCL2 TOTAL     ACCESS:    5608208  HIT:    5051399  MISS:     556809  HIT %:    90.0715  MISS %:    9.92847   MPKI: 2.78404
PSCL2 LOAD TRANSLATION ACCESS:    5448520  HIT:    4891711  MISS:     556809  HIT %:    89.7805  MISS %:    10.2195   MPKI: 2.78404
PSCL2 TRANSLATION FROM L1D PREFETCHER ACCESS:     159688  HIT:     159688  MISS:          0  HIT %:        100  MISS %:          0   MPKI: 0
PSCL2 PREFETCH  REQUESTED:          0  ISSUED:          0  USEFUL:          0  USELESS:          0
PSCL2 USEFUL LOAD PREFETCHES:          0 PREFETCH ISSUED TO LOWER LEVEL:          0  ACCURACY: -nan
PSCL2 TIMELY PREFETCHES:          0 LATE PREFETCHES: 0 DROPPED PREFETCHES: 0
PSCL2 PREFETCHES SAME FILL-ORIGIN LEVEL: 0 DIFFERENT FILL-ORIGIN LEVEL: 0

LLC TOTAL     ACCESS:    1545469  HIT:    1083297  MISS:     462172  HIT %:     70.095  MISS %:     29.905   MPKI: 2.31086
LLC LOAD      ACCESS:     956488  HIT:     622296  MISS:     334192  HIT %:    65.0605  MISS %:    34.9395   MPKI: 1.67096
LLC RFO       ACCESS:      40846  HIT:       2526  MISS:      38320  HIT %:     6.1842  MISS %:    93.8158   MPKI: 0.1916
LLC PREFETCH  ACCESS:     324808  HIT:     260665  MISS:      64143  HIT %:     80.252  MISS %:     19.748   MPKI: 0.320715
LLC WRITEBACK ACCESS:      47830  HIT:      43494  MISS:       4336  HIT %:    90.9346  MISS %:    9.06544   MPKI: 0.02168
LLC LOAD TRANSLATION ACCESS:     174942  HIT:     153938  MISS:      21004  HIT %:    87.9937  MISS %:    12.0063   MPKI: 0.10502
LLC TRANSLATION FROM L1D PREFETCHER ACCESS:        555  HIT:        378  MISS:        177  HIT %:    68.1081  MISS %:    31.8919   MPKI: 0.000885
LLC PREFETCH  REQUESTED:          0  ISSUED:          0  USEFUL:      30338  USELESS:     638981
LLC USEFUL LOAD PREFETCHES:      30338 PREFETCH ISSUED TO LOWER LEVEL:     670849  ACCURACY: 4.52233
LLC TIMELY PREFETCHES:      30338 LATE PREFETCHES: 0 DROPPED PREFETCHES: 0
LLC PREFETCHES SAME FILL-ORIGIN LEVEL: 0 DIFFERENT FILL-ORIGIN LEVEL: 0
LLC AVERAGE MISS LATENCY: 1150.26 cycles
LLC RQ	ACCESS:    4831499	FORWARD:          0	MERGED:          0	TO_CACHE:    4831498
LLC WQ	ACCESS:     289276	FORWARD:          2	MERGED:          0	TO_CACHE:     289276
LLC PQ	ACCESS:    1806646	FORWARD:          0	MERGED:          0	TO_CACHE:    1806645

LLC Dense regions hint to LLC: 0

RAW hits: 374958
Loads Generated: 22377610
Loads sent to L1D: 22002651
Stores Generated: 2962095
Stores sent to L1D: 2962095
Major fault: 0 Minor fault: 9566
Allocated PAGES: 47422

CPU 3 cumulative IPC: 0.745839 instructions: 200000002 cycles: 268154374
ITLB TOTAL     ACCESS:   28924320  HIT:   27758249  MISS:    1166071  HIT %:    95.9685  MISS %:    4.03146   MPKI: 5.83035
ITLB LOAD TRANSLATION ACCESS:   28924320  HIT:   27758249  MISS:    1166071  HIT %:    95.9685  MISS %:    4.03146   MPKI: 5.83035
ITLB PREFETCH  REQUESTED:          0  ISSUED:          0  USEFUL:          0  USELESS:          0
ITLB USEFUL LOAD PREFETCHES:          0 PREFETCH ISSUED TO LOWER LEVEL:          0  ACCURACY: -nan
ITLB TIMELY PREFETCHES:          0 LATE PREFETCHES: 0 DROPPED PREFETCHES: 0
ITLB PREFETCHES SAME FILL-ORIGIN LEVEL: 0 DIFFERENT FILL-ORIGIN LEVEL: 0
ITLB AVERAGE MISS LATENCY: 36.1993 cycles
ITLB RQ	ACCESS:   38217667	FORWARD:          0	MERGED:    8759406	TO_CACHE:   29458261

DTLB TOTAL     ACCESS:   16474488  HIT:    7567828  MISS:    8906660  HIT %:    45.9367  MISS %:    54.0633   MPKI: 44.5333
DTLB LOAD TRANSLATION ACCESS:   16474488  HIT:    7567828  MISS:    8906660  HIT %:    45.9367  MISS %:    54.0633   MPKI: 44.5333
DTLB PREFETCH  REQUESTED:          0  ISSUED:          0  USEFUL:          0  USELESS:          0
DTLB USEFUL LOAD PREFETCHES:          0 PREFETCH ISSUED TO LOWER LEVEL:          0  ACCURACY: -nan
DTLB TIMELY PREFETCHES:          0 LATE PREFETCHES: 0 DROPPED PREFETCHES: 0
DTLB PREFETCHES SAME FILL-ORIGIN LEVEL: 0 DIFFERENT FILL-ORIGIN LEVEL: 0
DTLB AVERAGE MISS LATENCY: 23.8119 cycles
DTLB RQ	ACCESS:   18606154	FORWARD:          0	MERGED:    1460716	TO_CACHE:   17145438

STLB TOTAL     ACCESS:   13693127  HIT:    8318890  MISS:    5374237  HIT %:    60.7523  MISS %:    39.2477   MPKI: 26.8712
STLB LOAD TRANSLATION ACCESS:   10072731  HIT:    4845895  MISS:    5226836  HIT %:     48.109  MISS %:     51.891   MPKI: 26.1342
STLB TRANSLATION FROM L1D PREFETCHER ACCESS:    3620396  HIT:    3472995  MISS:     147401  HIT %:    95.9286  MISS %:    4.07141   MPKI: 0.737005
STLB PREFETCH  REQUESTED:          0  ISSUED:          0  USEFUL:      88605  USELESS:      58796
STLB USEFUL LOAD PREFETCHES:      88605 PREFETCH ISSUED TO LOWER LEVEL:          0  ACCURACY: inf
STLB TIMELY PREFETCHES:      88605 LATE PREFETCHES: 0 DROPPED PREFETCHES: 96993
STLB PREFETCHES SAME FILL-ORIGIN LEVEL: 0 DIFFERENT FILL-ORIGIN LEVEL: 0
STLB AVERAGE MISS LATENCY: 30.9344 cycles
STLB RQ	ACCESS:   24640368	FORWARD:          0	MERGED:   10834306	TO_CACHE:   13806062

STLB Hit, L1D data hit: 0
STLB Hit, L2C data hit: 0
STLB Hit, LLC data hit: 0
STLB Hit, LLC data miss: 0
STLB STLB hints to L2: 0
L1D TOTAL     ACCESS:   27057422  HIT:   25329261  MISS:    1728161  HIT %:     93.613  MISS %:    6.38701   MPKI: 8.6408
L1D LOAD      ACCESS:   14797507  HIT:   13441546  MISS:    1355961  HIT %:    90.8366  MISS %:    9.16344   MPKI: 6.7798
L1D RFO       ACCESS:    3506269  HIT:    3378714  MISS:     127555  HIT %:    96.3621  MISS %:    3.63791   MPKI: 0.637775
L1D PREFETCH  ACCESS:    8753646  HIT:    8509001  MISS:     244645  HIT %:    97.2052  MISS %:    2.79478   MPKI: 1.22322
L1D PREFETCH  REQUESTED:   36251831  ISSUED:   33545456  USEFUL:     195130  USELESS:      49515
L1D USEFUL LOAD PREFETCHES:     195130 PREFETCH ISSUED TO LOWER LEVEL:    5883068  ACCURACY: 3.31681
L1D TIMELY PREFETCHES:     195130 LATE PREFETCHES: 2542 DROPPED PREFETCHES: 130354
L1D PREFETCHES SAME FILL-ORIGIN LEVEL: 247193 DIFFERENT FILL-ORIGIN LEVEL: 5635875
L1D AVERAGE MISS LATENCY: 100.496 cycles
L1D RQ	ACCESS:   23419400	FORWARD:          0	MERGED:    8564369	TO_CACHE:   14834638
L1D WQ	ACCESS:    3874816	FORWARD:      24277	MERGED:     103300	TO_CACHE:    3771516
L1D PQ	ACCESS:   18977818	FORWARD:          0	MERGED:    4406296	TO_CACHE:   14567638

L1D UNIQUE REGIONS ACCESSED: 0
L1D REGIONS CONFLICTS: 0
L1D Cross Page Prefetch Requests: 3585039
L1D Same Page Prefetch Requests: 22128670
L1D ROI Sum of L1D PQ occupancy: 213810524
L1D PREFETCHES PUSHED FROM L2C: 0
L1I TOTAL     ACCESS:   38212412  HIT:   38197707  MISS:      14705  HIT %:    99.9615  MISS %:  0.0384823   MPKI: 0.073525
L1I LOAD      ACCESS:   38212412  HIT:   38197707  MISS:      14705  HIT %:    99.9615  MISS %:  0.0384823   MPKI: 0.073525
L1I PREFETCH  REQUESTED:          0  ISSUED:          0  USEFUL:          0  USELESS:          0
L1I USEFUL LOAD PREFETCHES:          0 PREFETCH ISSUED TO LOWER LEVEL:          0  ACCURACY: -nan
L1I TIMELY PREFETCHES:          0 LATE PREFETCHES: 0 DROPPED PREFETCHES: 0
L1I PREFETCHES SAME FILL-ORIGIN LEVEL: 0 DIFFERENT FILL-ORIGIN LEVEL: 0
L1I AVERAGE MISS LATENCY: 117.102 cycles
L1I RQ	ACCESS:   59153741	FORWARD:          0	MERGED:   20936074	TO_CACHE:   38217667

BTB BRANCH_DIRECT_JUMP	ACCESS:          0  HIT:          0  MISS:          0
BTB BRANCH_INDIRECT	ACCESS:          0  HIT:          0  MISS:          0
BTB BRANCH_CONDITIONAL	ACCESS:          0  HIT:          0  MISS:          0
BTB BRANCH_DIRECT_CALL	ACCESS:          0  HIT:          0  MISS:          0
BTB BRANCH_INDIRECT_CALL	ACCESS:          0  HIT:          0  MISS:          0
BTB BRANCH_RETURN	ACCESS:          0  HIT:          0  MISS:          0
BTB BRANCH_OTHER ACCESS:          0  HIT:          0  MISS:          0

L2C TOTAL     ACCESS:   13414256  HIT:   11784767  MISS:    1629489  HIT %:    87.8526  MISS %:    12.1474   MPKI: 8.14744
L2C LOAD      ACCESS:    1368111  HIT:     428706  MISS:     939405  HIT %:    31.3356  MISS %:    68.6644   MPKI: 4.69702
L2C DATA LOAD MPKI: 4.6578
L2C INSTRUCTION LOAD MPKI: 0.039225
L2C RFO       ACCESS:     127449  HIT:      87859  MISS:      39590  HIT %:    68.9366  MISS %:    31.0634   MPKI: 0.19795
L2C PREFETCH  ACCESS:    5765151  HIT:    5292040  MISS:     473111  HIT %:    91.7936  MISS %:    8.20639   MPKI: 2.36555
L2C DATA PREFETCH MPKI: 2.36555
L2C INSTRUCTION PREFETCH MPKI: 0
L2C WRITEBACK ACCESS:     206304  HIT:     198813  MISS:       7491  HIT %:     96.369  MISS %:    3.63105   MPKI: 0.037455
L2C LOAD TRANSLATION ACCESS:    5702285  HIT:    5533386  MISS:     168899  HIT %:     97.038  MISS %:    2.96195   MPKI: 0.844495
L2C TRANSLATION FROM L1D PREFETCHER ACCESS:     244956  HIT:     243963  MISS:        993  HIT %:    99.5946  MISS %:   0.405379   MPKI: 0.004965
L2C PREFETCH  REQUESTED:          0  ISSUED:          0  USEFUL:     146438  USELESS:     327706
L2C USEFUL LOAD PREFETCHES:     146438 PREFETCH ISSUED TO LOWER LEVEL:     475721  ACCURACY: 30.7823
L2C TIMELY PREFETCHES:     146438 LATE PREFETCHES: 2610 DROPPED PREFETCHES: 0
L2C PREFETCHES SAME FILL-ORIGIN LEVEL: 431709 DIFFERENT FILL-ORIGIN LEVEL: 0
L2C AVERAGE MISS LATENCY: 129.328 cycles
L2C RQ	ACCESS:    7442915	FORWARD:          0	MERGED:          0	TO_CACHE:    7442804
L2C WQ	ACCESS:     206304	FORWARD:        119	MERGED:          0	TO_CACHE:     206304
L2C PQ	ACCESS:    5883027	FORWARD:          0	MERGED:      12145	TO_CACHE:    5870874

L2C Instructions Evicting Data 6533
L2C Translations Evicting Data 150990
L2C Data Evicting Data 1287414
L2C Instructions Evicting Instructions 410
L2C Translations Evicting Instructions 498
L2C Data Evicting Instructions 6755
L2C Instructions Evicting Translations 902
L2C Translations Evicting Translations 18404
L2C Data Evicting Translations 150088
L2C Dense regions hint from L2: 0
PSCL5 TOTAL     ACCESS:    5471230  HIT:    5471230  MISS:          0  HIT %:        100  MISS %:          0   MPKI: 0
PSCL5 LOAD TRANSLATION ACCESS:    5226836  HIT:    5226836  MISS:          0  HIT %:        100  MISS %:          0   MPKI: 0
PSCL5 TRANSLATION FROM L1D PREFETCHER ACCESS:     244394  HIT:     244394  MISS:          0  HIT %:        100  MISS %:          0   MPKI: 0
PSCL5 PREFETCH  REQUESTED:          0  ISSUED:          0  USEFUL:          0  USELESS:          0
PSCL5 USEFUL LOAD PREFETCHES:          0 PREFETCH ISSUED TO LOWER LEVEL:          0  ACCURACY: -nan
PSCL5 TIMELY PREFETCHES:          0 LATE PREFETCHES: 0 DROPPED PREFETCHES: 0
PSCL5 PREFETCHES SAME FILL-ORIGIN LEVEL: 0 DIFFERENT FILL-ORIGIN LEVEL: 0

PSCL4 TOTAL     ACCESS:    5471230  HIT:    5471230  MISS:          0  HIT %:        100  MISS %:          0   MPKI: 0
PSCL4 LOAD TRANSLATION ACCESS:    5226836  HIT:    5226836  MISS:          0  HIT %:        100  MISS %:          0   MPKI: 0
PSCL4 TRANSLATION FROM L1D PREFETCHER ACCESS:     244394  HIT:     244394  MISS:          0  HIT %:        100  MISS %:          0   MPKI: 0
PSCL4 PREFETCH  REQUESTED:          0  ISSUED:          0  USEFUL:          0  USELESS:          0
PSCL4 USEFUL LOAD PREFETCHES:          0 PREFETCH ISSUED TO LOWER LEVEL:          0  ACCURACY: -nan
PSCL4 TIMELY PREFETCHES:          0 LATE PREFETCHES: 0 DROPPED PREFETCHES: 0
PSCL4 PREFETCHES SAME FILL-ORIGIN LEVEL: 0 DIFFERENT FILL-ORIGIN LEVEL: 0

PSCL3 TOTAL     ACCESS:    5469335  HIT:    5469218  MISS:        117  HIT %:    99.9979  MISS %:  0.0021392   MPKI: 0.000585
PSCL3 LOAD TRANSLATION ACCESS:    5224959  HIT:    5224842  MISS:        117  HIT %:    99.9978  MISS %: 0.00223925   MPKI: 0.000585
PSCL3 TRANSLATION FROM L1D PREFETCHER ACCESS:     244376  HIT:     244376  MISS:          0  HIT %:        100  MISS %:          0   MPKI: 0
PSCL3 PREFETCH  REQUESTED:          0  ISSUED:          0  USEFUL:          0  USELESS:          0
PSCL3 USEFUL LOAD PREFETCHES:          0 PREFETCH ISSUED TO LOWER LEVEL:          0  ACCURACY: -nan
PSCL3 TIMELY PREFETCHES:          0 LATE PREFETCHES: 0 DROPPED PREFETCHES: 0
PSCL3 PREFETCHES SAME FILL-ORIGIN LEVEL: 0 DIFFERENT FILL-ORIGIN LEVEL: 0

PSCL2 TOTAL     ACCESS:    5470821  HIT:    4995336  MISS:     475485  HIT %:    91.3087  MISS %:    8.69129   MPKI: 2.37742
PSCL2 LOAD TRANSLATION ACCESS:    5226987  HIT:    4751502  MISS:     475485  HIT %:    90.9033  MISS %:    9.09673   MPKI: 2.37742
PSCL2 TRANSLATION FROM L1D PREFETCHER ACCESS:     243834  HIT:     243834  MISS:          0  HIT %:        100  MISS %:          0   MPKI: 0
PSCL2 PREFETCH  REQUESTED:          0  ISSUED:          0  USEFUL:          0  USELESS:          0
PSCL2 USEFUL LOAD PREFETCHES:          0 PREFETCH ISSUED TO LOWER LEVEL:          0  ACCURACY: -nan
PSCL2 TIMELY PREFETCHES:          0 LATE PREFETCHES: 0 DROPPED PREFETCHES: 0
PSCL2 PREFETCHES SAME FILL-ORIGIN LEVEL: 0 DIFFERENT FILL-ORIGIN LEVEL: 0

LLC TOTAL     ACCESS:    1705828  HIT:     787137  MISS:     918691  HIT %:     46.144  MISS %:     53.856   MPKI: 4.59345
LLC LOAD      ACCESS:     936800  HIT:     315172  MISS:     621628  HIT %:    33.6435  MISS %:    66.3565   MPKI: 3.10814
LLC RFO       ACCESS:      39584  HIT:       3003  MISS:      36581  HIT %:     7.5864  MISS %:    92.4136   MPKI: 0.182905
LLC PREFETCH  ACCESS:     475721  HIT:     263881  MISS:     211840  HIT %:    55.4697  MISS %:    44.5303   MPKI: 1.0592
LLC WRITEBACK ACCESS:      83831  HIT:      77663  MISS:       6168  HIT %:    92.6423  MISS %:    7.35766   MPKI: 0.03084
LLC LOAD TRANSLATION ACCESS:     168899  HIT:     126589  MISS:      42310  HIT %:    74.9495  MISS %:    25.0505   MPKI: 0.21155
LLC TRANSLATION FROM L1D PREFETCHER ACCESS:        993  HIT:        829  MISS:        164  HIT %:    83.4844  MISS %:    16.5156   MPKI: 0.00082
LLC PREFETCH  REQUESTED:          0  ISSUED:          0  USEFUL:      30338  USELESS:     638981
LLC USEFUL LOAD PREFETCHES:      30338 PREFETCH ISSUED TO LOWER LEVEL:     670849  ACCURACY: 4.52233
LLC TIMELY PREFETCHES:      30338 LATE PREFETCHES: 0 DROPPED PREFETCHES: 0
LLC PREFETCHES SAME FILL-ORIGIN LEVEL: 0 DIFFERENT FILL-ORIGIN LEVEL: 0
LLC AVERAGE MISS LATENCY: 578.67 cycles
LLC RQ	ACCESS:    4831499	FORWARD:          0	MERGED:          0	TO_CACHE:    4831498
LLC WQ	ACCESS:     289276	FORWARD:          2	MERGED:          0	TO_CACHE:     289276
LLC PQ	ACCESS:    1806646	FORWARD:          0	MERGED:          0	TO_CACHE:    1806645

LLC Dense regions hint to LLC: 0

RAW hits: 536751
Loads Generated: 23956151
Loads sent to L1D: 23419400
Stores Generated: 3874816
Stores sent to L1D: 3874816
Major fault: 0 Minor fault: 16360
Allocated PAGES: 47422

DRAM Statistics
 CHANNEL 0
 RQ ROW_BUFFER_HIT:     403410  ROW_BUFFER_MISS:    2583129
 DBUS_CONGESTED:       1763
 WQ ROW_BUFFER_HIT:      85170  ROW_BUFFER_MISS:     172593  FULL:          0

 AVG_CONGESTED_CYCLE: 4
 All warmup complete: 5
Channel 0 Bank busy for read cycles: 0
Channel 0 Bank busy for write cycles: 0
Channel 0
Rank 0
0banks busy for read cycles: 27941498
0banks busy for write cycles: 60670
1banks busy for read cycles: 92530619
1banks busy for write cycles: 12570457
2banks busy for read cycles: 64577338
2banks busy for write cycles: 7104969
3banks busy for read cycles: 30549169
3banks busy for write cycles: 4182910
4banks busy for read cycles: 12903642
4banks busy for write cycles: 2488366
5banks busy for read cycles: 4775139
5banks busy for write cycles: 1550072
6banks busy for read cycles: 1768413
6banks busy for write cycles: 1103934
7banks busy for read cycles: 708186
7banks busy for write cycles: 998947
8banks busy for read cycles: 432224
8banks busy for write cycles: 1907822

CPU 0 Branch Prediction Accuracy: 99.1028% MPKI: 1.19752 Average ROB Occupancy at Mispredict: 109.47
Branch types
NOT_BRANCH: 0 0%
BRANCH_DIRECT_JUMP: 0 0%
BRANCH_INDIRECT: 0 0%
BRANCH_CONDITIONAL: 0 0%
BRANCH_DIRECT_CALL: 0 0%
BRANCH_INDIRECT_CALL: 0 0%
BRANCH_RETURN: 0 0%
BRANCH_OTHER: 0 0%


CPU 1 Branch Prediction Accuracy: 98.8656% MPKI: 1.55095 Average ROB Occupancy at Mispredict: 116.402
Branch types
NOT_BRANCH: 0 0%
BRANCH_DIRECT_JUMP: 0 0%
BRANCH_INDIRECT: 0 0%
BRANCH_CONDITIONAL: 0 0%
BRANCH_DIRECT_CALL: 0 0%
BRANCH_INDIRECT_CALL: 0 0%
BRANCH_RETURN: 0 0%
BRANCH_OTHER: 0 0%


CPU 2 Branch Prediction Accuracy: 99.0934% MPKI: 1.22219 Average ROB Occupancy at Mispredict: 124.443
Branch types
NOT_BRANCH: 0 0%
BRANCH_DIRECT_JUMP: 0 0%
BRANCH_INDIRECT: 0 0%
BRANCH_CONDITIONAL: 0 0%
BRANCH_DIRECT_CALL: 0 0%
BRANCH_INDIRECT_CALL: 0 0%
BRANCH_RETURN: 0 0%
BRANCH_OTHER: 0 0%


CPU 3 Branch Prediction Accuracy: 98.686% MPKI: 1.82548 Average ROB Occupancy at Mispredict: 112.616
Branch types
NOT_BRANCH: 0 0%
BRANCH_DIRECT_JUMP: 0 0%
BRANCH_INDIRECT: 0 0%
BRANCH_CONDITIONAL: 0 0%
BRANCH_DIRECT_CALL: 0 0%
BRANCH_INDIRECT_CALL: 0 0%
BRANCH_RETURN: 0 0%
BRANCH_OTHER: 0 0%

DRAM PAGES: 1048576
Allocated PAGES: 47422
