
*** ChampSim Multicore Out-of-Order Simulator ***

Warmup Instructions: 50000000
Simulation Instructions: 200000000
Number of CPUs: 4
LLC sets: 8192
LLC ways: 16
Off-chip DRAM Size: 4096 MB Channels: 1 Width: 64-bit Data Rate: 6400 MT/s
CPU 0 runs ./traces/ligra/ligra_BFSCC.com-lj.ungraph.gcc_6.3.0_O3.drop_11250M.length_250M.champsimtrace.xz
.xz
CPU 1 runs ./traces/ligra/ligra_BFSCC.com-lj.ungraph.gcc_6.3.0_O3.drop_11250M.length_250M.champsimtrace.xz
.xz
CPU 2 runs ./traces/ligra/ligra_BFSCC.com-lj.ungraph.gcc_6.3.0_O3.drop_11250M.length_250M.champsimtrace.xz
.xz
CPU 3 runs ./traces/ligra/ligra_BFSCC.com-lj.ungraph.gcc_6.3.0_O3.drop_11250M.length_250M.champsimtrace.xz
.xz
BTB has LRU replacement policy
ITLB has LRU replacement policy
DTLB has LRU replacement policy
STLB has LRU replacement policy
L1I has LRU replacement policy
History Sets: 8
History Ways: 16
BERTI Size: 16
BERTI Stride Size: 8
L1D has LRU replacement policy
Initialize SRRIP state for L2C
Initialize DRRIP state for LLC
BTB has LRU replacement policy
ITLB has LRU replacement policy
DTLB has LRU replacement policy
STLB has LRU replacement policy
L1I has LRU replacement policy
History Sets: 8
History Ways: 16
BERTI Size: 16
BERTI Stride Size: 8
L1D has LRU replacement policy
Initialize SRRIP state for L2C
Initialize DRRIP state for LLC
BTB has LRU replacement policy
ITLB has LRU replacement policy
DTLB has LRU replacement policy
STLB has LRU replacement policy
L1I has LRU replacement policy
History Sets: 8
History Ways: 16
BERTI Size: 16
BERTI Stride Size: 8
L1D has LRU replacement policy
Initialize SRRIP state for L2C
Initialize DRRIP state for LLC
BTB has LRU replacement policy
ITLB has LRU replacement policy
DTLB has LRU replacement policy
STLB has LRU replacement policy
L1I has LRU replacement policy
History Sets: 8
History Ways: 16
BERTI Size: 16
BERTI Stride Size: 8
L1D has LRU replacement policy
Initialize SRRIP state for L2C
Initialize DRRIP state for LLC
Heartbeat CPU 0 instructions: 10000000 cycles: 2927920 heartbeat IPC: 3.41539 cumulative IPC: 3.41539 (Simulation time: 0 hr 2 min 28 sec) 
Heartbeat CPU 1 instructions: 10000000 cycles: 2927930 heartbeat IPC: 3.41538 cumulative IPC: 3.41538 (Simulation time: 0 hr 2 min 28 sec) 
Heartbeat CPU 3 instructions: 10000000 cycles: 2927936 heartbeat IPC: 3.41538 cumulative IPC: 3.41538 (Simulation time: 0 hr 2 min 28 sec) 
Heartbeat CPU 2 instructions: 10000000 cycles: 2927956 heartbeat IPC: 3.41535 cumulative IPC: 3.41535 (Simulation time: 0 hr 2 min 28 sec) 
Heartbeat CPU 0 instructions: 20000001 cycles: 5855203 heartbeat IPC: 3.41614 cumulative IPC: 3.41577 (Simulation time: 0 hr 4 min 54 sec) 
Heartbeat CPU 1 instructions: 20000001 cycles: 5855213 heartbeat IPC: 3.41614 cumulative IPC: 3.41576 (Simulation time: 0 hr 4 min 54 sec) 
Heartbeat CPU 3 instructions: 20000001 cycles: 5855218 heartbeat IPC: 3.41614 cumulative IPC: 3.41576 (Simulation time: 0 hr 4 min 54 sec) 
Heartbeat CPU 2 instructions: 20000001 cycles: 5855239 heartbeat IPC: 3.41614 cumulative IPC: 3.41574 (Simulation time: 0 hr 4 min 54 sec) 
Heartbeat CPU 0 instructions: 30000001 cycles: 8782179 heartbeat IPC: 3.4165 cumulative IPC: 3.41601 (Simulation time: 0 hr 7 min 42 sec) 
Heartbeat CPU 1 instructions: 30000001 cycles: 8782189 heartbeat IPC: 3.4165 cumulative IPC: 3.416 (Simulation time: 0 hr 7 min 42 sec) 
Heartbeat CPU 3 instructions: 30000001 cycles: 8782197 heartbeat IPC: 3.41649 cumulative IPC: 3.416 (Simulation time: 0 hr 7 min 42 sec) 
Heartbeat CPU 2 instructions: 30000001 cycles: 8782212 heartbeat IPC: 3.4165 cumulative IPC: 3.416 (Simulation time: 0 hr 7 min 42 sec) 
Heartbeat CPU 0 instructions: 40000001 cycles: 11709374 heartbeat IPC: 3.41624 cumulative IPC: 3.41607 (Simulation time: 0 hr 10 min 11 sec) 
Heartbeat CPU 1 instructions: 40000001 cycles: 11709384 heartbeat IPC: 3.41624 cumulative IPC: 3.41606 (Simulation time: 0 hr 10 min 11 sec) 
Heartbeat CPU 3 instructions: 40000001 cycles: 11709395 heartbeat IPC: 3.41624 cumulative IPC: 3.41606 (Simulation time: 0 hr 10 min 11 sec) 
Heartbeat CPU 2 instructions: 40000001 cycles: 11709408 heartbeat IPC: 3.41624 cumulative IPC: 3.41606 (Simulation time: 0 hr 10 min 11 sec) 
Heartbeat CPU 0 instructions: 50000002 cycles: 14637562 heartbeat IPC: 3.41508 cumulative IPC: 3.41587 (Simulation time: 0 hr 12 min 48 sec) 
Heartbeat CPU 1 instructions: 50000002 cycles: 14637572 heartbeat IPC: 3.41508 cumulative IPC: 3.41587 (Simulation time: 0 hr 12 min 48 sec) 
Heartbeat CPU 3 instructions: 50000002 cycles: 14637583 heartbeat IPC: 3.41508 cumulative IPC: 3.41586 (Simulation time: 0 hr 12 min 48 sec) 
Heartbeat CPU 2 instructions: 50000002 cycles: 14637596 heartbeat IPC: 3.41508 cumulative IPC: 3.41586 (Simulation time: 0 hr 12 min 48 sec) 

Warmup complete CPU 0 instructions: 50000138 cycles: 14637596 (Simulation time: 0 hr 12 min 48 sec) 
Warmup complete CPU 1 instructions: 50000098 cycles: 14637596 (Simulation time: 0 hr 12 min 48 sec) 
Warmup complete CPU 2 instructions: 50000002 cycles: 14637596 (Simulation time: 0 hr 12 min 48 sec) 
Warmup complete CPU 3 instructions: 50000050 cycles: 14637595 (Simulation time: 0 hr 12 min 48 sec) 

Heartbeat CPU 0 instructions: 60000001 cycles: 26622705 heartbeat IPC: 0.834366 cumulative IPC: 0.834357 (Simulation time: 0 hr 16 min 7 sec) 
Heartbeat CPU 1 instructions: 60000001 cycles: 26623325 heartbeat IPC: 0.834324 cumulative IPC: 0.834317 (Simulation time: 0 hr 16 min 7 sec) 
Heartbeat CPU 3 instructions: 60000001 cycles: 26625616 heartbeat IPC: 0.834165 cumulative IPC: 0.834162 (Simulation time: 0 hr 16 min 8 sec) 
Heartbeat CPU 2 instructions: 60000001 cycles: 26626695 heartbeat IPC: 0.834091 cumulative IPC: 0.834091 (Simulation time: 0 hr 16 min 8 sec) 
Heartbeat CPU 0 instructions: 70000001 cycles: 38667618 heartbeat IPC: 0.830226 cumulative IPC: 0.832286 (Simulation time: 0 hr 19 min 35 sec) 
Heartbeat CPU 1 instructions: 70000001 cycles: 38672289 heartbeat IPC: 0.829947 cumulative IPC: 0.832126 (Simulation time: 0 hr 19 min 35 sec) 
Heartbeat CPU 3 instructions: 70000001 cycles: 38673115 heartbeat IPC: 0.830048 cumulative IPC: 0.8321 (Simulation time: 0 hr 19 min 35 sec) 
Heartbeat CPU 2 instructions: 70000001 cycles: 38673217 heartbeat IPC: 0.830115 cumulative IPC: 0.832098 (Simulation time: 0 hr 19 min 35 sec) 
Heartbeat CPU 0 instructions: 80000000 cycles: 50563138 heartbeat IPC: 0.840653 cumulative IPC: 0.835057 (Simulation time: 0 hr 23 min 1 sec) 
Heartbeat CPU 1 instructions: 80000000 cycles: 50568776 heartbeat IPC: 0.840584 cumulative IPC: 0.834927 (Simulation time: 0 hr 23 min 2 sec) 
Heartbeat CPU 2 instructions: 80000000 cycles: 50568880 heartbeat IPC: 0.840642 cumulative IPC: 0.834927 (Simulation time: 0 hr 23 min 2 sec) 
Heartbeat CPU 3 instructions: 80000000 cycles: 50568980 heartbeat IPC: 0.840628 cumulative IPC: 0.834923 (Simulation time: 0 hr 23 min 2 sec) 
Heartbeat CPU 0 instructions: 90000002 cycles: 62262487 heartbeat IPC: 0.854749 cumulative IPC: 0.839894 (Simulation time: 0 hr 26 min 10 sec) 
Heartbeat CPU 1 instructions: 90000002 cycles: 62269688 heartbeat IPC: 0.854634 cumulative IPC: 0.839768 (Simulation time: 0 hr 26 min 10 sec) 
Heartbeat CPU 2 instructions: 90000002 cycles: 62269869 heartbeat IPC: 0.854629 cumulative IPC: 0.839767 (Simulation time: 0 hr 26 min 10 sec) 
Heartbeat CPU 3 instructions: 90000002 cycles: 62269971 heartbeat IPC: 0.854629 cumulative IPC: 0.839764 (Simulation time: 0 hr 26 min 10 sec) 
Heartbeat CPU 0 instructions: 100000000 cycles: 72001949 heartbeat IPC: 1.02675 cumulative IPC: 0.871619 (Simulation time: 0 hr 29 min 51 sec) 
Heartbeat CPU 1 instructions: 100000000 cycles: 72009718 heartbeat IPC: 1.02669 cumulative IPC: 0.871502 (Simulation time: 0 hr 29 min 51 sec) 
Heartbeat CPU 2 instructions: 100000000 cycles: 72010231 heartbeat IPC: 1.02666 cumulative IPC: 0.871496 (Simulation time: 0 hr 29 min 51 sec) 
Heartbeat CPU 3 instructions: 100000000 cycles: 72010669 heartbeat IPC: 1.02662 cumulative IPC: 0.871488 (Simulation time: 0 hr 29 min 51 sec) 
Heartbeat CPU 0 instructions: 110000000 cycles: 82533663 heartbeat IPC: 0.949513 cumulative IPC: 0.883702 (Simulation time: 0 hr 33 min 21 sec) 
Heartbeat CPU 1 instructions: 110000000 cycles: 82541468 heartbeat IPC: 0.94951 cumulative IPC: 0.883601 (Simulation time: 0 hr 33 min 22 sec) 
Heartbeat CPU 2 instructions: 110000000 cycles: 82541570 heartbeat IPC: 0.949547 cumulative IPC: 0.883601 (Simulation time: 0 hr 33 min 22 sec) 
Heartbeat CPU 3 instructions: 110000000 cycles: 82545720 heartbeat IPC: 0.949212 cumulative IPC: 0.883546 (Simulation time: 0 hr 33 min 22 sec) 
Heartbeat CPU 0 instructions: 120000001 cycles: 94375236 heartbeat IPC: 0.844482 cumulative IPC: 0.877877 (Simulation time: 0 hr 36 min 27 sec) 
Heartbeat CPU 1 instructions: 120000001 cycles: 94384201 heartbeat IPC: 0.8444 cumulative IPC: 0.877779 (Simulation time: 0 hr 36 min 27 sec) 
Heartbeat CPU 2 instructions: 120000001 cycles: 94384303 heartbeat IPC: 0.8444 cumulative IPC: 0.877779 (Simulation time: 0 hr 36 min 27 sec) 
Heartbeat CPU 3 instructions: 120000001 cycles: 94389138 heartbeat IPC: 0.844351 cumulative IPC: 0.877725 (Simulation time: 0 hr 36 min 28 sec) 
Heartbeat CPU 0 instructions: 130000000 cycles: 106099198 heartbeat IPC: 0.852954 cumulative IPC: 0.874682 (Simulation time: 0 hr 39 min 46 sec) 
Heartbeat CPU 1 instructions: 130000000 cycles: 106109393 heartbeat IPC: 0.852864 cumulative IPC: 0.874585 (Simulation time: 0 hr 39 min 46 sec) 
Heartbeat CPU 2 instructions: 130000000 cycles: 106109595 heartbeat IPC: 0.852857 cumulative IPC: 0.874585 (Simulation time: 0 hr 39 min 46 sec) 
Heartbeat CPU 3 instructions: 130000000 cycles: 106116247 heartbeat IPC: 0.852725 cumulative IPC: 0.87452 (Simulation time: 0 hr 39 min 46 sec) 
Heartbeat CPU 0 instructions: 140000002 cycles: 117933221 heartbeat IPC: 0.845021 cumulative IPC: 0.871284 (Simulation time: 0 hr 42 min 55 sec) 
Heartbeat CPU 1 instructions: 140000002 cycles: 117942851 heartbeat IPC: 0.845062 cumulative IPC: 0.871204 (Simulation time: 0 hr 42 min 55 sec) 
Heartbeat CPU 2 instructions: 140000002 cycles: 117942953 heartbeat IPC: 0.845069 cumulative IPC: 0.871204 (Simulation time: 0 hr 42 min 55 sec) 
Heartbeat CPU 3 instructions: 140000002 cycles: 117950837 heartbeat IPC: 0.844981 cumulative IPC: 0.871137 (Simulation time: 0 hr 42 min 56 sec) 
Heartbeat CPU 0 instructions: 150000000 cycles: 129872226 heartbeat IPC: 0.837591 cumulative IPC: 0.867794 (Simulation time: 0 hr 46 min 20 sec) 
Heartbeat CPU 1 instructions: 150000000 cycles: 129882553 heartbeat IPC: 0.837542 cumulative IPC: 0.867716 (Simulation time: 0 hr 46 min 20 sec) 
Heartbeat CPU 2 instructions: 150000000 cycles: 129882655 heartbeat IPC: 0.837542 cumulative IPC: 0.867716 (Simulation time: 0 hr 46 min 20 sec) 
Heartbeat CPU 3 instructions: 150000000 cycles: 129890976 heartbeat IPC: 0.837511 cumulative IPC: 0.867653 (Simulation time: 0 hr 46 min 20 sec) 
Heartbeat CPU 0 instructions: 160000000 cycles: 141804242 heartbeat IPC: 0.838081 cumulative IPC: 0.865006 (Simulation time: 0 hr 49 min 53 sec) 
Heartbeat CPU 1 instructions: 160000000 cycles: 141813882 heartbeat IPC: 0.83813 cumulative IPC: 0.86494 (Simulation time: 0 hr 49 min 53 sec) 
Heartbeat CPU 2 instructions: 160000000 cycles: 141813984 heartbeat IPC: 0.83813 cumulative IPC: 0.86494 (Simulation time: 0 hr 49 min 53 sec) 
Heartbeat CPU 3 instructions: 160000000 cycles: 141823203 heartbeat IPC: 0.838067 cumulative IPC: 0.864877 (Simulation time: 0 hr 49 min 53 sec) 
Heartbeat CPU 0 instructions: 170000001 cycles: 153725945 heartbeat IPC: 0.838806 cumulative IPC: 0.86276 (Simulation time: 0 hr 53 min 7 sec) 
Heartbeat CPU 1 instructions: 170000001 cycles: 153735820 heartbeat IPC: 0.83879 cumulative IPC: 0.862699 (Simulation time: 0 hr 53 min 7 sec) 
Heartbeat CPU 2 instructions: 170000001 cycles: 153735922 heartbeat IPC: 0.83879 cumulative IPC: 0.862699 (Simulation time: 0 hr 53 min 7 sec) 
Heartbeat CPU 3 instructions: 170000001 cycles: 153745255 heartbeat IPC: 0.838782 cumulative IPC: 0.862641 (Simulation time: 0 hr 53 min 7 sec) 
Heartbeat CPU 0 instructions: 180000001 cycles: 165576392 heartbeat IPC: 0.84385 cumulative IPC: 0.861275 (Simulation time: 0 hr 56 min 25 sec) 
Heartbeat CPU 1 instructions: 180000001 cycles: 165588664 heartbeat IPC: 0.843679 cumulative IPC: 0.861206 (Simulation time: 0 hr 56 min 25 sec) 
Heartbeat CPU 2 instructions: 180000001 cycles: 165588817 heartbeat IPC: 0.843676 cumulative IPC: 0.861205 (Simulation time: 0 hr 56 min 25 sec) 
Heartbeat CPU 3 instructions: 180000001 cycles: 165597343 heartbeat IPC: 0.843733 cumulative IPC: 0.861156 (Simulation time: 0 hr 56 min 25 sec) 
Heartbeat CPU 0 instructions: 190000002 cycles: 177585524 heartbeat IPC: 0.8327 cumulative IPC: 0.859169 (Simulation time: 0 hr 59 min 51 sec) 
Heartbeat CPU 1 instructions: 190000002 cycles: 177598540 heartbeat IPC: 0.832648 cumulative IPC: 0.859101 (Simulation time: 0 hr 59 min 51 sec) 
Heartbeat CPU 2 instructions: 190000002 cycles: 177598642 heartbeat IPC: 0.832652 cumulative IPC: 0.859101 (Simulation time: 0 hr 59 min 51 sec) 
Heartbeat CPU 3 instructions: 190000002 cycles: 177605727 heartbeat IPC: 0.832752 cumulative IPC: 0.859063 (Simulation time: 0 hr 59 min 51 sec) 
Heartbeat CPU 0 instructions: 200000003 cycles: 189623397 heartbeat IPC: 0.830712 cumulative IPC: 0.857212 (Simulation time: 1 hr 3 min 25 sec) 
Heartbeat CPU 1 instructions: 200000003 cycles: 189637204 heartbeat IPC: 0.830657 cumulative IPC: 0.857144 (Simulation time: 1 hr 3 min 25 sec) 
Heartbeat CPU 2 instructions: 200000003 cycles: 189637406 heartbeat IPC: 0.83065 cumulative IPC: 0.857144 (Simulation time: 1 hr 3 min 25 sec) 
Heartbeat CPU 3 instructions: 200000003 cycles: 189642906 heartbeat IPC: 0.83076 cumulative IPC: 0.857117 (Simulation time: 1 hr 3 min 25 sec) 
Heartbeat CPU 0 instructions: 210000002 cycles: 201598816 heartbeat IPC: 0.835044 cumulative IPC: 0.855792 (Simulation time: 1 hr 7 min 11 sec) 
Heartbeat CPU 1 instructions: 210000002 cycles: 201612646 heartbeat IPC: 0.835042 cumulative IPC: 0.855729 (Simulation time: 1 hr 7 min 12 sec) 
Heartbeat CPU 2 instructions: 210000002 cycles: 201612748 heartbeat IPC: 0.835049 cumulative IPC: 0.855729 (Simulation time: 1 hr 7 min 12 sec) 
Heartbeat CPU 3 instructions: 210000002 cycles: 201618869 heartbeat IPC: 0.835006 cumulative IPC: 0.8557 (Simulation time: 1 hr 7 min 12 sec) 
Heartbeat CPU 0 instructions: 220000000 cycles: 213516298 heartbeat IPC: 0.839103 cumulative IPC: 0.854792 (Simulation time: 1 hr 10 min 57 sec) 
Heartbeat CPU 1 instructions: 220000000 cycles: 213531759 heartbeat IPC: 0.838988 cumulative IPC: 0.854725 (Simulation time: 1 hr 10 min 58 sec) 
Heartbeat CPU 2 instructions: 220000000 cycles: 213531861 heartbeat IPC: 0.838988 cumulative IPC: 0.854725 (Simulation time: 1 hr 10 min 58 sec) 
Heartbeat CPU 3 instructions: 220000000 cycles: 213538224 heartbeat IPC: 0.838971 cumulative IPC: 0.854698 (Simulation time: 1 hr 10 min 58 sec) 
Heartbeat CPU 0 instructions: 230000000 cycles: 225363590 heartbeat IPC: 0.844075 cumulative IPC: 0.854189 (Simulation time: 1 hr 14 min 46 sec) 
Heartbeat CPU 1 instructions: 230000000 cycles: 225379299 heartbeat IPC: 0.844057 cumulative IPC: 0.854126 (Simulation time: 1 hr 14 min 46 sec) 
Heartbeat CPU 2 instructions: 230000000 cycles: 225379401 heartbeat IPC: 0.844057 cumulative IPC: 0.854126 (Simulation time: 1 hr 14 min 46 sec) 
Heartbeat CPU 3 instructions: 230000000 cycles: 225387007 heartbeat IPC: 0.843969 cumulative IPC: 0.854095 (Simulation time: 1 hr 14 min 46 sec) 
Heartbeat CPU 0 instructions: 240000002 cycles: 237156156 heartbeat IPC: 0.847992 cumulative IPC: 0.853861 (Simulation time: 1 hr 18 min 12 sec) 
Heartbeat CPU 1 instructions: 240000002 cycles: 237172213 heartbeat IPC: 0.847967 cumulative IPC: 0.853799 (Simulation time: 1 hr 18 min 13 sec) 
Heartbeat CPU 2 instructions: 240000002 cycles: 237172315 heartbeat IPC: 0.847967 cumulative IPC: 0.853799 (Simulation time: 1 hr 18 min 13 sec) 
Heartbeat CPU 3 instructions: 240000002 cycles: 237180822 heartbeat IPC: 0.847902 cumulative IPC: 0.853767 (Simulation time: 1 hr 18 min 13 sec) 
*** Reached end of trace for Core: 0 Repeating trace: ./traces/ligra/ligra_BFSCC.com-lj.ungraph.gcc_6.3.0_O3.drop_11250M.length_250M.champsimtrace.xz
Heartbeat CPU 0 instructions: 250000001 cycles: 249061853 heartbeat IPC: 0.839934 cumulative IPC: 0.853153 (Simulation time: 1 hr 21 min 54 sec) 
Finished CPU 0 instructions: 200000000 cycles: 234424765 cumulative IPC: 0.853152 (Simulation time: 1 hr 21 min 54 sec) 
*** Reached end of trace for Core: 1 Repeating trace: ./traces/ligra/ligra_BFSCC.com-lj.ungraph.gcc_6.3.0_O3.drop_11250M.length_250M.champsimtrace.xz
*** Reached end of trace for Core: 2 Repeating trace: ./traces/ligra/ligra_BFSCC.com-lj.ungraph.gcc_6.3.0_O3.drop_11250M.length_250M.champsimtrace.xz
Heartbeat CPU 1 instructions: 250000001 cycles: 249078102 heartbeat IPC: 0.83992 cumulative IPC: 0.853094 (Simulation time: 1 hr 21 min 54 sec) 
Heartbeat CPU 2 instructions: 250000001 cycles: 249078204 heartbeat IPC: 0.83992 cumulative IPC: 0.853095 (Simulation time: 1 hr 21 min 54 sec) 
Finished CPU 2 instructions: 200000000 cycles: 234440609 cumulative IPC: 0.853095 (Simulation time: 1 hr 21 min 54 sec) 
Finished CPU 1 instructions: 200000000 cycles: 234441004 cumulative IPC: 0.853093 (Simulation time: 1 hr 21 min 54 sec) 
*** Reached end of trace for Core: 3 Repeating trace: ./traces/ligra/ligra_BFSCC.com-lj.ungraph.gcc_6.3.0_O3.drop_11250M.length_250M.champsimtrace.xz
Heartbeat CPU 3 instructions: 250000001 cycles: 249085895 heartbeat IPC: 0.839978 cumulative IPC: 0.853066 (Simulation time: 1 hr 21 min 54 sec) 
Finished CPU 3 instructions: 200000000 cycles: 234448786 cumulative IPC: 0.853065 (Simulation time: 1 hr 21 min 54 sec) 

ChampSim completed all CPUs

Total Simulation Statistics (not including warmup)

CPU 0 cumulative IPC: 0.853149 instructions: 200019643 cycles: 234448785
ITLB TOTAL     ACCESS:   36097856  HIT:   36097856  MISS:          0  HIT %:        100  MISS %:          0   MPKI: 0
ITLB LOAD      ACCESS:          0  HIT:          0  MISS:          0  HIT %:       -nan  MISS %:       -nan   MPKI: 0
ITLB RFO       ACCESS:          0  HIT:          0  MISS:          0  HIT %:       -nan  MISS %:       -nan   MPKI: 0
ITLB PREFETCH  ACCESS:          0  HIT:          0  MISS:          0  HIT %:       -nan  MISS %:       -nan   MPKI: 0
ITLB WRITEBACK ACCESS:          0  HIT:          0  MISS:          0  HIT %:       -nan  MISS %:       -nan   MPKI: 0
DTLB TOTAL     ACCESS:   26121375  HIT:   26117308  MISS:       4067  HIT %:    99.9844  MISS %:  0.0155696   MPKI: 0.020333
DTLB LOAD      ACCESS:          0  HIT:          0  MISS:          0  HIT %:       -nan  MISS %:       -nan   MPKI: 0
DTLB RFO       ACCESS:          0  HIT:          0  MISS:          0  HIT %:       -nan  MISS %:       -nan   MPKI: 0
DTLB PREFETCH  ACCESS:          0  HIT:          0  MISS:          0  HIT %:       -nan  MISS %:       -nan   MPKI: 0
DTLB WRITEBACK ACCESS:          0  HIT:          0  MISS:          0  HIT %:       -nan  MISS %:       -nan   MPKI: 0
STLB TOTAL     ACCESS:    5179014  HIT:    5174946  MISS:       4068  HIT %:    99.9215  MISS %:  0.0785478   MPKI: 0.020338
STLB LOAD      ACCESS:          0  HIT:          0  MISS:          0  HIT %:       -nan  MISS %:       -nan   MPKI: 0
STLB RFO       ACCESS:          0  HIT:          0  MISS:          0  HIT %:       -nan  MISS %:       -nan   MPKI: 0
STLB PREFETCH  ACCESS:          0  HIT:          0  MISS:          0  HIT %:       -nan  MISS %:       -nan   MPKI: 0
STLB WRITEBACK ACCESS:          0  HIT:          0  MISS:          0  HIT %:       -nan  MISS %:       -nan   MPKI: 0
L1D TOTAL     ACCESS:   59010977  HIT:   58750846  MISS:     260131  HIT %:    99.5592  MISS %:   0.440818   MPKI: 1.30053
L1D LOAD      ACCESS:   19216999  HIT:   19213750  MISS:       3249  HIT %:    99.9831  MISS %:  0.0169069   MPKI: 0.0162434
L1D RFO       ACCESS:   10243094  HIT:   10189715  MISS:      53379  HIT %:    99.4789  MISS %:   0.521122   MPKI: 0.266869
L1D PREFETCH  ACCESS:   29550884  HIT:   29347381  MISS:     203503  HIT %:    99.3113  MISS %:   0.688653   MPKI: 1.01742
L1D WRITEBACK ACCESS:          0  HIT:          0  MISS:          0  HIT %:       -nan  MISS %:       -nan   MPKI: 0
L1I TOTAL     ACCESS:   38605394  HIT:   38605394  MISS:          0  HIT %:        100  MISS %:          0   MPKI: 0
L1I LOAD      ACCESS:   38605394  HIT:   38605394  MISS:          0  HIT %:        100  MISS %:          0   MPKI: 0
L1I RFO       ACCESS:          0  HIT:          0  MISS:          0  HIT %:       -nan  MISS %:       -nan   MPKI: 0
L1I PREFETCH  ACCESS:          0  HIT:          0  MISS:          0  HIT %:       -nan  MISS %:       -nan   MPKI: 0
L1I WRITEBACK ACCESS:          0  HIT:          0  MISS:          0  HIT %:       -nan  MISS %:       -nan   MPKI: 0
L2C TOTAL     ACCESS:    7740752  HIT:    7468438  MISS:     272314  HIT %:    96.4821  MISS %:    3.51793   MPKI: 1.36144
L2C LOAD      ACCESS:       2622  HIT:         14  MISS:       2608  HIT %:   0.533944  MISS %:    99.4661   MPKI: 0.0130387
L2C RFO       ACCESS:      53379  HIT:          0  MISS:      53379  HIT %:          0  MISS %:        100   MPKI: 0.266869
L2C PREFETCH  ACCESS:    7095305  HIT:    6891154  MISS:     204151  HIT %:    97.1227  MISS %:    2.87727   MPKI: 1.02065
L2C WRITEBACK ACCESS:      53366  HIT:      41710  MISS:      11656  HIT %:    78.1584  MISS %:    21.8416   MPKI: 0.0582743
PSCL5 TOTAL     ACCESS:     536080  HIT:     536080  MISS:          0  HIT %:        100  MISS %:          0   MPKI: 0
PSCL5 LOAD      ACCESS:          0  HIT:          0  MISS:          0  HIT %:       -nan  MISS %:       -nan   MPKI: 0
PSCL5 RFO       ACCESS:          0  HIT:          0  MISS:          0  HIT %:       -nan  MISS %:       -nan   MPKI: 0
PSCL5 PREFETCH  ACCESS:          0  HIT:          0  MISS:          0  HIT %:       -nan  MISS %:       -nan   MPKI: 0
PSCL5 WRITEBACK ACCESS:          0  HIT:          0  MISS:          0  HIT %:       -nan  MISS %:       -nan   MPKI: 0
PSCL4 TOTAL     ACCESS:     536080  HIT:     536080  MISS:          0  HIT %:        100  MISS %:          0   MPKI: 0
PSCL4 LOAD      ACCESS:          0  HIT:          0  MISS:          0  HIT %:       -nan  MISS %:       -nan   MPKI: 0
PSCL4 RFO       ACCESS:          0  HIT:          0  MISS:          0  HIT %:       -nan  MISS %:       -nan   MPKI: 0
PSCL4 PREFETCH  ACCESS:          0  HIT:          0  MISS:          0  HIT %:       -nan  MISS %:       -nan   MPKI: 0
PSCL4 WRITEBACK ACCESS:          0  HIT:          0  MISS:          0  HIT %:       -nan  MISS %:       -nan   MPKI: 0
PSCL3 TOTAL     ACCESS:     536080  HIT:     536080  MISS:          0  HIT %:        100  MISS %:          0   MPKI: 0
PSCL3 LOAD      ACCESS:          0  HIT:          0  MISS:          0  HIT %:       -nan  MISS %:       -nan   MPKI: 0
PSCL3 RFO       ACCESS:          0  HIT:          0  MISS:          0  HIT %:       -nan  MISS %:       -nan   MPKI: 0
PSCL3 PREFETCH  ACCESS:          0  HIT:          0  MISS:          0  HIT %:       -nan  MISS %:       -nan   MPKI: 0
PSCL3 WRITEBACK ACCESS:          0  HIT:          0  MISS:          0  HIT %:       -nan  MISS %:       -nan   MPKI: 0
PSCL2 TOTAL     ACCESS:     535194  HIT:     535186  MISS:          8  HIT %:    99.9985  MISS %: 0.00149479   MPKI: 3.99961e-05
PSCL2 LOAD      ACCESS:          0  HIT:          0  MISS:          0  HIT %:       -nan  MISS %:       -nan   MPKI: 0
PSCL2 RFO       ACCESS:          0  HIT:          0  MISS:          0  HIT %:       -nan  MISS %:       -nan   MPKI: 0
PSCL2 PREFETCH  ACCESS:          0  HIT:          0  MISS:          0  HIT %:       -nan  MISS %:       -nan   MPKI: 0
PSCL2 WRITEBACK ACCESS:          0  HIT:          0  MISS:          0  HIT %:       -nan  MISS %:       -nan   MPKI: 0
LLC TOTAL     ACCESS:     314989  HIT:      49960  MISS:     265029  HIT %:    15.8609  MISS %:    84.1391   MPKI: 1.32501
LLC LOAD      ACCESS:       2608  HIT:          0  MISS:       2608  HIT %:          0  MISS %:        100   MPKI: 0.0130387
LLC RFO       ACCESS:      53379  HIT:          0  MISS:      53379  HIT %:          0  MISS %:        100   MPKI: 0.266869
LLC PREFETCH  ACCESS:     204151  HIT:          0  MISS:     204151  HIT %:          0  MISS %:        100   MPKI: 1.02065
LLC WRITEBACK ACCESS:      54331  HIT:      49960  MISS:       4371  HIT %:    91.9549  MISS %:    8.04513   MPKI: 0.0218529

RAW hits: 2742773
Loads Generated: 28171225
Loads sent to L1D: 25428451
Stores Generated: 10248335
Stores sent to L1D: 10248335

CPU 1 cumulative IPC: 0.85309 instructions: 200005976 cycles: 234448785
ITLB TOTAL     ACCESS:   36095400  HIT:   36095400  MISS:          0  HIT %:        100  MISS %:          0   MPKI: 0
ITLB LOAD      ACCESS:          0  HIT:          0  MISS:          0  HIT %:       -nan  MISS %:       -nan   MPKI: 0
ITLB RFO       ACCESS:          0  HIT:          0  MISS:          0  HIT %:       -nan  MISS %:       -nan   MPKI: 0
ITLB PREFETCH  ACCESS:          0  HIT:          0  MISS:          0  HIT %:       -nan  MISS %:       -nan   MPKI: 0
ITLB WRITEBACK ACCESS:          0  HIT:          0  MISS:          0  HIT %:       -nan  MISS %:       -nan   MPKI: 0
DTLB TOTAL     ACCESS:   26119527  HIT:   26115460  MISS:       4067  HIT %:    99.9844  MISS %:  0.0155707   MPKI: 0.0203344
DTLB LOAD      ACCESS:          0  HIT:          0  MISS:          0  HIT %:       -nan  MISS %:       -nan   MPKI: 0
DTLB RFO       ACCESS:          0  HIT:          0  MISS:          0  HIT %:       -nan  MISS %:       -nan   MPKI: 0
DTLB PREFETCH  ACCESS:          0  HIT:          0  MISS:          0  HIT %:       -nan  MISS %:       -nan   MPKI: 0
DTLB WRITEBACK ACCESS:          0  HIT:          0  MISS:          0  HIT %:       -nan  MISS %:       -nan   MPKI: 0
STLB TOTAL     ACCESS:    5171561  HIT:    5167493  MISS:       4068  HIT %:    99.9213  MISS %:   0.078661   MPKI: 0.0203394
STLB LOAD      ACCESS:          0  HIT:          0  MISS:          0  HIT %:       -nan  MISS %:       -nan   MPKI: 0
STLB RFO       ACCESS:          0  HIT:          0  MISS:          0  HIT %:       -nan  MISS %:       -nan   MPKI: 0
STLB PREFETCH  ACCESS:          0  HIT:          0  MISS:          0  HIT %:       -nan  MISS %:       -nan   MPKI: 0
STLB WRITEBACK ACCESS:          0  HIT:          0  MISS:          0  HIT %:       -nan  MISS %:       -nan   MPKI: 0
L1D TOTAL     ACCESS:   58958109  HIT:   58698000  MISS:     260109  HIT %:    99.5588  MISS %:   0.441176   MPKI: 1.30051
L1D LOAD      ACCESS:   19215641  HIT:   19212403  MISS:       3238  HIT %:    99.9831  MISS %:  0.0168509   MPKI: 0.0161895
L1D RFO       ACCESS:   10242594  HIT:   10189219  MISS:      53375  HIT %:    99.4789  MISS %:   0.521108   MPKI: 0.266867
L1D PREFETCH  ACCESS:   29499874  HIT:   29296378  MISS:     203496  HIT %:    99.3102  MISS %:    0.68982   MPKI: 1.01745
L1D WRITEBACK ACCESS:          0  HIT:          0  MISS:          0  HIT %:       -nan  MISS %:       -nan   MPKI: 0
L1I TOTAL     ACCESS:   38602762  HIT:   38602762  MISS:          0  HIT %:        100  MISS %:          0   MPKI: 0
L1I LOAD      ACCESS:   38602762  HIT:   38602762  MISS:          0  HIT %:        100  MISS %:          0   MPKI: 0
L1I RFO       ACCESS:          0  HIT:          0  MISS:          0  HIT %:       -nan  MISS %:       -nan   MPKI: 0
L1I PREFETCH  ACCESS:          0  HIT:          0  MISS:          0  HIT %:       -nan  MISS %:       -nan   MPKI: 0
L1I WRITEBACK ACCESS:          0  HIT:          0  MISS:          0  HIT %:       -nan  MISS %:       -nan   MPKI: 0
L2C TOTAL     ACCESS:    7687077  HIT:    7414195  MISS:     272882  HIT %:    96.4501  MISS %:    3.54988   MPKI: 1.36437
L2C LOAD      ACCESS:       2622  HIT:          5  MISS:       2617  HIT %:   0.190694  MISS %:    99.8093   MPKI: 0.0130846
L2C RFO       ACCESS:      53375  HIT:          0  MISS:      53375  HIT %:          0  MISS %:        100   MPKI: 0.266867
L2C PREFETCH  ACCESS:    7027393  HIT:    6823269  MISS:     204124  HIT %:    97.0953  MISS %:    2.90469   MPKI: 1.02059
L2C WRITEBACK ACCESS:      53365  HIT:      41121  MISS:      12244  HIT %:    77.0561  MISS %:    22.9439   MPKI: 0.0612182
PSCL5 TOTAL     ACCESS:     550322  HIT:     550322  MISS:          0  HIT %:        100  MISS %:          0   MPKI: 0
PSCL5 LOAD      ACCESS:          0  HIT:          0  MISS:          0  HIT %:       -nan  MISS %:       -nan   MPKI: 0
PSCL5 RFO       ACCESS:          0  HIT:          0  MISS:          0  HIT %:       -nan  MISS %:       -nan   MPKI: 0
PSCL5 PREFETCH  ACCESS:          0  HIT:          0  MISS:          0  HIT %:       -nan  MISS %:       -nan   MPKI: 0
PSCL5 WRITEBACK ACCESS:          0  HIT:          0  MISS:          0  HIT %:       -nan  MISS %:       -nan   MPKI: 0
PSCL4 TOTAL     ACCESS:     550322  HIT:     550322  MISS:          0  HIT %:        100  MISS %:          0   MPKI: 0
PSCL4 LOAD      ACCESS:          0  HIT:          0  MISS:          0  HIT %:       -nan  MISS %:       -nan   MPKI: 0
PSCL4 RFO       ACCESS:          0  HIT:          0  MISS:          0  HIT %:       -nan  MISS %:       -nan   MPKI: 0
PSCL4 PREFETCH  ACCESS:          0  HIT:          0  MISS:          0  HIT %:       -nan  MISS %:       -nan   MPKI: 0
PSCL4 WRITEBACK ACCESS:          0  HIT:          0  MISS:          0  HIT %:       -nan  MISS %:       -nan   MPKI: 0
PSCL3 TOTAL     ACCESS:     550322  HIT:     550322  MISS:          0  HIT %:        100  MISS %:          0   MPKI: 0
PSCL3 LOAD      ACCESS:          0  HIT:          0  MISS:          0  HIT %:       -nan  MISS %:       -nan   MPKI: 0
PSCL3 RFO       ACCESS:          0  HIT:          0  MISS:          0  HIT %:       -nan  MISS %:       -nan   MPKI: 0
PSCL3 PREFETCH  ACCESS:          0  HIT:          0  MISS:          0  HIT %:       -nan  MISS %:       -nan   MPKI: 0
PSCL3 WRITEBACK ACCESS:          0  HIT:          0  MISS:          0  HIT %:       -nan  MISS %:       -nan   MPKI: 0
PSCL2 TOTAL     ACCESS:     548991  HIT:     548983  MISS:          8  HIT %:    99.9985  MISS %: 0.00145722   MPKI: 3.99988e-05
PSCL2 LOAD      ACCESS:          0  HIT:          0  MISS:          0  HIT %:       -nan  MISS %:       -nan   MPKI: 0
PSCL2 RFO       ACCESS:          0  HIT:          0  MISS:          0  HIT %:       -nan  MISS %:       -nan   MPKI: 0
PSCL2 PREFETCH  ACCESS:          0  HIT:          0  MISS:          0  HIT %:       -nan  MISS %:       -nan   MPKI: 0
PSCL2 WRITEBACK ACCESS:          0  HIT:          0  MISS:          0  HIT %:       -nan  MISS %:       -nan   MPKI: 0
LLC TOTAL     ACCESS:     314895  HIT:      49776  MISS:     265119  HIT %:    15.8072  MISS %:    84.1928   MPKI: 1.32556
LLC LOAD      ACCESS:       2617  HIT:          0  MISS:       2617  HIT %:          0  MISS %:        100   MPKI: 0.0130846
LLC RFO       ACCESS:      53375  HIT:          0  MISS:      53375  HIT %:          0  MISS %:        100   MPKI: 0.266867
LLC PREFETCH  ACCESS:     204124  HIT:          0  MISS:     204124  HIT %:          0  MISS %:        100   MPKI: 1.02059
LLC WRITEBACK ACCESS:      54257  HIT:      49774  MISS:       4483  HIT %:    91.7375  MISS %:    8.26253   MPKI: 0.0224143

RAW hits: 2742585
Loads Generated: 28169283
Loads sent to L1D: 25426697
Stores Generated: 10247615
Stores sent to L1D: 10247615

CPU 2 cumulative IPC: 0.85309 instructions: 200005869 cycles: 234448785
ITLB TOTAL     ACCESS:   36095386  HIT:   36095386  MISS:          0  HIT %:        100  MISS %:          0   MPKI: 0
ITLB LOAD      ACCESS:          0  HIT:          0  MISS:          0  HIT %:       -nan  MISS %:       -nan   MPKI: 0
ITLB RFO       ACCESS:          0  HIT:          0  MISS:          0  HIT %:       -nan  MISS %:       -nan   MPKI: 0
ITLB PREFETCH  ACCESS:          0  HIT:          0  MISS:          0  HIT %:       -nan  MISS %:       -nan   MPKI: 0
ITLB WRITEBACK ACCESS:          0  HIT:          0  MISS:          0  HIT %:       -nan  MISS %:       -nan   MPKI: 0
DTLB TOTAL     ACCESS:   26119552  HIT:   26115485  MISS:       4067  HIT %:    99.9844  MISS %:  0.0155707   MPKI: 0.0203344
DTLB LOAD      ACCESS:          0  HIT:          0  MISS:          0  HIT %:       -nan  MISS %:       -nan   MPKI: 0
DTLB RFO       ACCESS:          0  HIT:          0  MISS:          0  HIT %:       -nan  MISS %:       -nan   MPKI: 0
DTLB PREFETCH  ACCESS:          0  HIT:          0  MISS:          0  HIT %:       -nan  MISS %:       -nan   MPKI: 0
DTLB WRITEBACK ACCESS:          0  HIT:          0  MISS:          0  HIT %:       -nan  MISS %:       -nan   MPKI: 0
STLB TOTAL     ACCESS:    5170538  HIT:    5166470  MISS:       4068  HIT %:    99.9213  MISS %:  0.0786765   MPKI: 0.0203394
STLB LOAD      ACCESS:          0  HIT:          0  MISS:          0  HIT %:       -nan  MISS %:       -nan   MPKI: 0
STLB RFO       ACCESS:          0  HIT:          0  MISS:          0  HIT %:       -nan  MISS %:       -nan   MPKI: 0
STLB PREFETCH  ACCESS:          0  HIT:          0  MISS:          0  HIT %:       -nan  MISS %:       -nan   MPKI: 0
STLB WRITEBACK ACCESS:          0  HIT:          0  MISS:          0  HIT %:       -nan  MISS %:       -nan   MPKI: 0
L1D TOTAL     ACCESS:   58905714  HIT:   58645603  MISS:     260111  HIT %:    99.5584  MISS %:   0.441572   MPKI: 1.30052
L1D LOAD      ACCESS:   19215644  HIT:   19212405  MISS:       3239  HIT %:    99.9831  MISS %:  0.0168561   MPKI: 0.0161945
L1D RFO       ACCESS:   10245123  HIT:   10191748  MISS:      53375  HIT %:     99.479  MISS %:    0.52098   MPKI: 0.266867
L1D PREFETCH  ACCESS:   29444947  HIT:   29241450  MISS:     203497  HIT %:    99.3089  MISS %:    0.69111   MPKI: 1.01746
L1D WRITEBACK ACCESS:          0  HIT:          0  MISS:          0  HIT %:       -nan  MISS %:       -nan   MPKI: 0
L1I TOTAL     ACCESS:   38602750  HIT:   38602750  MISS:          0  HIT %:        100  MISS %:          0   MPKI: 0
L1I LOAD      ACCESS:   38602750  HIT:   38602750  MISS:          0  HIT %:        100  MISS %:          0   MPKI: 0
L1I RFO       ACCESS:          0  HIT:          0  MISS:          0  HIT %:       -nan  MISS %:       -nan   MPKI: 0
L1I PREFETCH  ACCESS:          0  HIT:          0  MISS:          0  HIT %:       -nan  MISS %:       -nan   MPKI: 0
L1I WRITEBACK ACCESS:          0  HIT:          0  MISS:          0  HIT %:       -nan  MISS %:       -nan   MPKI: 0
L2C TOTAL     ACCESS:    7768940  HIT:    7496155  MISS:     272785  HIT %:    96.4888  MISS %:    3.51123   MPKI: 1.36388
L2C LOAD      ACCESS:       2614  HIT:          6  MISS:       2608  HIT %:   0.229533  MISS %:    99.7705   MPKI: 0.0130396
L2C RFO       ACCESS:      53375  HIT:          0  MISS:      53375  HIT %:          0  MISS %:        100   MPKI: 0.266867
L2C PREFETCH  ACCESS:    7109002  HIT:    6904868  MISS:     204134  HIT %:    97.1285  MISS %:    2.87149   MPKI: 1.02064
L2C WRITEBACK ACCESS:      53365  HIT:      41218  MISS:      12147  HIT %:    77.2379  MISS %:    22.7621   MPKI: 0.0607332
PSCL5 TOTAL     ACCESS:     550584  HIT:     550584  MISS:          0  HIT %:        100  MISS %:          0   MPKI: 0
PSCL5 LOAD      ACCESS:          0  HIT:          0  MISS:          0  HIT %:       -nan  MISS %:       -nan   MPKI: 0
PSCL5 RFO       ACCESS:          0  HIT:          0  MISS:          0  HIT %:       -nan  MISS %:       -nan   MPKI: 0
PSCL5 PREFETCH  ACCESS:          0  HIT:          0  MISS:          0  HIT %:       -nan  MISS %:       -nan   MPKI: 0
PSCL5 WRITEBACK ACCESS:          0  HIT:          0  MISS:          0  HIT %:       -nan  MISS %:       -nan   MPKI: 0
PSCL4 TOTAL     ACCESS:     550584  HIT:     550584  MISS:          0  HIT %:        100  MISS %:          0   MPKI: 0
PSCL4 LOAD      ACCESS:          0  HIT:          0  MISS:          0  HIT %:       -nan  MISS %:       -nan   MPKI: 0
PSCL4 RFO       ACCESS:          0  HIT:          0  MISS:          0  HIT %:       -nan  MISS %:       -nan   MPKI: 0
PSCL4 PREFETCH  ACCESS:          0  HIT:          0  MISS:          0  HIT %:       -nan  MISS %:       -nan   MPKI: 0
PSCL4 WRITEBACK ACCESS:          0  HIT:          0  MISS:          0  HIT %:       -nan  MISS %:       -nan   MPKI: 0
PSCL3 TOTAL     ACCESS:     550584  HIT:     550584  MISS:          0  HIT %:        100  MISS %:          0   MPKI: 0
PSCL3 LOAD      ACCESS:          0  HIT:          0  MISS:          0  HIT %:       -nan  MISS %:       -nan   MPKI: 0
PSCL3 RFO       ACCESS:          0  HIT:          0  MISS:          0  HIT %:       -nan  MISS %:       -nan   MPKI: 0
PSCL3 PREFETCH  ACCESS:          0  HIT:          0  MISS:          0  HIT %:       -nan  MISS %:       -nan   MPKI: 0
PSCL3 WRITEBACK ACCESS:          0  HIT:          0  MISS:          0  HIT %:       -nan  MISS %:       -nan   MPKI: 0
PSCL2 TOTAL     ACCESS:     549387  HIT:     549379  MISS:          8  HIT %:    99.9985  MISS %: 0.00145617   MPKI: 3.99988e-05
PSCL2 LOAD      ACCESS:          0  HIT:          0  MISS:          0  HIT %:       -nan  MISS %:       -nan   MPKI: 0
PSCL2 RFO       ACCESS:          0  HIT:          0  MISS:          0  HIT %:       -nan  MISS %:       -nan   MPKI: 0
PSCL2 PREFETCH  ACCESS:          0  HIT:          0  MISS:          0  HIT %:       -nan  MISS %:       -nan   MPKI: 0
PSCL2 WRITEBACK ACCESS:          0  HIT:          0  MISS:          0  HIT %:       -nan  MISS %:       -nan   MPKI: 0
LLC TOTAL     ACCESS:     314923  HIT:      49915  MISS:     265008  HIT %:    15.8499  MISS %:    84.1501   MPKI: 1.325
LLC LOAD      ACCESS:       2608  HIT:          0  MISS:       2608  HIT %:          0  MISS %:        100   MPKI: 0.0130396
LLC RFO       ACCESS:      53375  HIT:          0  MISS:      53375  HIT %:          0  MISS %:        100   MPKI: 0.266867
LLC PREFETCH  ACCESS:     204134  HIT:          0  MISS:     204134  HIT %:          0  MISS %:        100   MPKI: 1.02064
LLC WRITEBACK ACCESS:      54285  HIT:      49914  MISS:       4371  HIT %:    91.9481  MISS %:    8.05195   MPKI: 0.0218544

RAW hits: 2742578
Loads Generated: 28169267
Loads sent to L1D: 25426688
Stores Generated: 10247611
Stores sent to L1D: 10247620

CPU 3 cumulative IPC: 0.853065 instructions: 200000000 cycles: 234448786
ITLB TOTAL     ACCESS:   36094368  HIT:   36094368  MISS:          0  HIT %:        100  MISS %:          0   MPKI: 0
ITLB LOAD      ACCESS:          0  HIT:          0  MISS:          0  HIT %:       -nan  MISS %:       -nan   MPKI: 0
ITLB RFO       ACCESS:          0  HIT:          0  MISS:          0  HIT %:       -nan  MISS %:       -nan   MPKI: 0
ITLB PREFETCH  ACCESS:          0  HIT:          0  MISS:          0  HIT %:       -nan  MISS %:       -nan   MPKI: 0
ITLB WRITEBACK ACCESS:          0  HIT:          0  MISS:          0  HIT %:       -nan  MISS %:       -nan   MPKI: 0
DTLB TOTAL     ACCESS:   26118742  HIT:   26114677  MISS:       4065  HIT %:    99.9844  MISS %:  0.0155635   MPKI: 0.020325
DTLB LOAD      ACCESS:          0  HIT:          0  MISS:          0  HIT %:       -nan  MISS %:       -nan   MPKI: 0
DTLB RFO       ACCESS:          0  HIT:          0  MISS:          0  HIT %:       -nan  MISS %:       -nan   MPKI: 0
DTLB PREFETCH  ACCESS:          0  HIT:          0  MISS:          0  HIT %:       -nan  MISS %:       -nan   MPKI: 0
DTLB WRITEBACK ACCESS:          0  HIT:          0  MISS:          0  HIT %:       -nan  MISS %:       -nan   MPKI: 0
STLB TOTAL     ACCESS:    5175403  HIT:    5171337  MISS:       4066  HIT %:    99.9214  MISS %:  0.0785639   MPKI: 0.02033
STLB LOAD      ACCESS:          0  HIT:          0  MISS:          0  HIT %:       -nan  MISS %:       -nan   MPKI: 0
STLB RFO       ACCESS:          0  HIT:          0  MISS:          0  HIT %:       -nan  MISS %:       -nan   MPKI: 0
STLB PREFETCH  ACCESS:          0  HIT:          0  MISS:          0  HIT %:       -nan  MISS %:       -nan   MPKI: 0
STLB WRITEBACK ACCESS:          0  HIT:          0  MISS:          0  HIT %:       -nan  MISS %:       -nan   MPKI: 0
L1D TOTAL     ACCESS:   58942345  HIT:   58682252  MISS:     260093  HIT %:    99.5587  MISS %:   0.441267   MPKI: 1.30046
L1D LOAD      ACCESS:   19215065  HIT:   19211829  MISS:       3236  HIT %:    99.9832  MISS %:   0.016841   MPKI: 0.01618
L1D RFO       ACCESS:   10242947  HIT:   10189575  MISS:      53372  HIT %:    99.4789  MISS %:   0.521061   MPKI: 0.26686
L1D PREFETCH  ACCESS:   29484333  HIT:   29280848  MISS:     203485  HIT %:    99.3099  MISS %:   0.690146   MPKI: 1.01743
L1D WRITEBACK ACCESS:          0  HIT:          0  MISS:          0  HIT %:       -nan  MISS %:       -nan   MPKI: 0
L1I TOTAL     ACCESS:   38601661  HIT:   38601661  MISS:          0  HIT %:        100  MISS %:          0   MPKI: 0
L1I LOAD      ACCESS:   38601661  HIT:   38601661  MISS:          0  HIT %:        100  MISS %:          0   MPKI: 0
L1I RFO       ACCESS:          0  HIT:          0  MISS:          0  HIT %:       -nan  MISS %:       -nan   MPKI: 0
L1I PREFETCH  ACCESS:          0  HIT:          0  MISS:          0  HIT %:       -nan  MISS %:       -nan   MPKI: 0
L1I WRITEBACK ACCESS:          0  HIT:          0  MISS:          0  HIT %:       -nan  MISS %:       -nan   MPKI: 0
L2C TOTAL     ACCESS:    7745809  HIT:    7472731  MISS:     273078  HIT %:    96.4745  MISS %:    3.52549   MPKI: 1.36539
L2C LOAD      ACCESS:       2605  HIT:          3  MISS:       2602  HIT %:   0.115163  MISS %:    99.8848   MPKI: 0.01301
L2C RFO       ACCESS:      53372  HIT:          0  MISS:      53372  HIT %:          0  MISS %:        100   MPKI: 0.26686
L2C PREFETCH  ACCESS:    7091300  HIT:    6887177  MISS:     204123  HIT %:    97.1215  MISS %:     2.8785   MPKI: 1.02062
L2C WRITEBACK ACCESS:      53365  HIT:      40904  MISS:      12461  HIT %:    76.6495  MISS %:    23.3505   MPKI: 0.062305
PSCL5 TOTAL     ACCESS:     545167  HIT:     545167  MISS:          0  HIT %:        100  MISS %:          0   MPKI: 0
PSCL5 LOAD      ACCESS:          0  HIT:          0  MISS:          0  HIT %:       -nan  MISS %:       -nan   MPKI: 0
PSCL5 RFO       ACCESS:          0  HIT:          0  MISS:          0  HIT %:       -nan  MISS %:       -nan   MPKI: 0
PSCL5 PREFETCH  ACCESS:          0  HIT:          0  MISS:          0  HIT %:       -nan  MISS %:       -nan   MPKI: 0
PSCL5 WRITEBACK ACCESS:          0  HIT:          0  MISS:          0  HIT %:       -nan  MISS %:       -nan   MPKI: 0
PSCL4 TOTAL     ACCESS:     545167  HIT:     545167  MISS:          0  HIT %:        100  MISS %:          0   MPKI: 0
PSCL4 LOAD      ACCESS:          0  HIT:          0  MISS:          0  HIT %:       -nan  MISS %:       -nan   MPKI: 0
PSCL4 RFO       ACCESS:          0  HIT:          0  MISS:          0  HIT %:       -nan  MISS %:       -nan   MPKI: 0
PSCL4 PREFETCH  ACCESS:          0  HIT:          0  MISS:          0  HIT %:       -nan  MISS %:       -nan   MPKI: 0
PSCL4 WRITEBACK ACCESS:          0  HIT:          0  MISS:          0  HIT %:       -nan  MISS %:       -nan   MPKI: 0
PSCL3 TOTAL     ACCESS:     545167  HIT:     545167  MISS:          0  HIT %:        100  MISS %:          0   MPKI: 0
PSCL3 LOAD      ACCESS:          0  HIT:          0  MISS:          0  HIT %:       -nan  MISS %:       -nan   MPKI: 0
PSCL3 RFO       ACCESS:          0  HIT:          0  MISS:          0  HIT %:       -nan  MISS %:       -nan   MPKI: 0
PSCL3 PREFETCH  ACCESS:          0  HIT:          0  MISS:          0  HIT %:       -nan  MISS %:       -nan   MPKI: 0
PSCL3 WRITEBACK ACCESS:          0  HIT:          0  MISS:          0  HIT %:       -nan  MISS %:       -nan   MPKI: 0
PSCL2 TOTAL     ACCESS:     544163  HIT:     544155  MISS:          8  HIT %:    99.9985  MISS %: 0.00147015   MPKI: 4e-05
PSCL2 LOAD      ACCESS:          0  HIT:          0  MISS:          0  HIT %:       -nan  MISS %:       -nan   MPKI: 0
PSCL2 RFO       ACCESS:          0  HIT:          0  MISS:          0  HIT %:       -nan  MISS %:       -nan   MPKI: 0
PSCL2 PREFETCH  ACCESS:          0  HIT:          0  MISS:          0  HIT %:       -nan  MISS %:       -nan   MPKI: 0
PSCL2 WRITEBACK ACCESS:          0  HIT:          0  MISS:          0  HIT %:       -nan  MISS %:       -nan   MPKI: 0
LLC TOTAL     ACCESS:     314821  HIT:      49434  MISS:     265387  HIT %:    15.7023  MISS %:    84.2977   MPKI: 1.32693
LLC LOAD      ACCESS:       2602  HIT:          0  MISS:       2602  HIT %:          0  MISS %:        100   MPKI: 0.01301
LLC RFO       ACCESS:      53372  HIT:          0  MISS:      53372  HIT %:          0  MISS %:        100   MPKI: 0.26686
LLC PREFETCH  ACCESS:     204127  HIT:          0  MISS:     204127  HIT %:          0  MISS %:        100   MPKI: 1.02063
LLC WRITEBACK ACCESS:      54200  HIT:      49432  MISS:       4768  HIT %:     91.203  MISS %:    8.79705   MPKI: 0.02384

RAW hits: 2742509
Loads Generated: 28168442
Loads sent to L1D: 25425932
Stores Generated: 10247303
Stores sent to L1D: 10247305

Region of Interest Statistics

CPU 0 cumulative IPC: 0.853152 instructions: 200000000 cycles: 234424765
ITLB TOTAL     ACCESS:   36094341  HIT:   36094341  MISS:          0  HIT %:        100  MISS %:          0   MPKI: 0
ITLB LOAD TRANSLATION ACCESS:   36094341  HIT:   36094341  MISS:          0  HIT %:        100  MISS %:          0   MPKI: 0
ITLB PREFETCH  REQUESTED:          0  ISSUED:          0  USEFUL:          0  USELESS:          0
ITLB USEFUL LOAD PREFETCHES:          0 PREFETCH ISSUED TO LOWER LEVEL:          0  ACCURACY: -nan
ITLB TIMELY PREFETCHES:          0 LATE PREFETCHES: 0 DROPPED PREFETCHES: 0
ITLB PREFETCHES SAME FILL-ORIGIN LEVEL: 0 DIFFERENT FILL-ORIGIN LEVEL: 0
ITLB AVERAGE MISS LATENCY: -nan cycles
ITLB RQ	ACCESS:   38605395	FORWARD:          0	MERGED:    2507540	TO_CACHE:   36097855

DTLB TOTAL     ACCESS:   26118768  HIT:   26114703  MISS:       4065  HIT %:    99.9844  MISS %:  0.0155635   MPKI: 0.020325
DTLB LOAD TRANSLATION ACCESS:   26118768  HIT:   26114703  MISS:       4065  HIT %:    99.9844  MISS %:  0.0155635   MPKI: 0.020325
DTLB PREFETCH  REQUESTED:          0  ISSUED:          0  USEFUL:          0  USELESS:          0
DTLB USEFUL LOAD PREFETCHES:          0 PREFETCH ISSUED TO LOWER LEVEL:          0  ACCURACY: -nan
DTLB TIMELY PREFETCHES:          0 LATE PREFETCHES: 0 DROPPED PREFETCHES: 0
DTLB PREFETCHES SAME FILL-ORIGIN LEVEL: 0 DIFFERENT FILL-ORIGIN LEVEL: 0
DTLB AVERAGE MISS LATENCY: 125.879 cycles
DTLB RQ	ACCESS:   29467315	FORWARD:          0	MERGED:    3345916	TO_CACHE:   26121399

STLB TOTAL     ACCESS:    5178559  HIT:    5174493  MISS:       4066  HIT %:    99.9215  MISS %:  0.0785161   MPKI: 0.02033
STLB LOAD TRANSLATION ACCESS:       4065  HIT:          0  MISS:       4065  HIT %:          0  MISS %:        100   MPKI: 0.020325
STLB TRANSLATION FROM L1D PREFETCHER ACCESS:    5174494  HIT:    5174493  MISS:          1  HIT %:        100  MISS %: 1.93256e-05   MPKI: 5e-06
STLB PREFETCH  REQUESTED:          0  ISSUED:          0  USEFUL:          1  USELESS:          0
STLB USEFUL LOAD PREFETCHES:          1 PREFETCH ISSUED TO LOWER LEVEL:          0  ACCURACY: inf
STLB TIMELY PREFETCHES:          1 LATE PREFETCHES: 443 DROPPED PREFETCHES: 531569
STLB PREFETCHES SAME FILL-ORIGIN LEVEL: 0 DIFFERENT FILL-ORIGIN LEVEL: 0
STLB AVERAGE MISS LATENCY: 117.913 cycles
STLB RQ	ACCESS:   38811523	FORWARD:          0	MERGED:   33095664	TO_CACHE:    5715859

STLB Hit, L1D data hit: 0
STLB Hit, L2C data hit: 0
STLB Hit, LLC data hit: 0
STLB Hit, LLC data miss: 0
STLB STLB hints to L2: 0
L1D TOTAL     ACCESS:   59005775  HIT:   58745676  MISS:     260099  HIT %:    99.5592  MISS %:   0.440803   MPKI: 1.30049
L1D LOAD      ACCESS:   19215088  HIT:   19211840  MISS:       3248  HIT %:    99.9831  MISS %:  0.0169034   MPKI: 0.01624
L1D RFO       ACCESS:   10242064  HIT:   10188692  MISS:      53372  HIT %:    99.4789  MISS %:   0.521106   MPKI: 0.26686
L1D PREFETCH  ACCESS:   29548623  HIT:   29345144  MISS:     203479  HIT %:    99.3114  MISS %:   0.688624   MPKI: 1.0174
L1D PREFETCH  REQUESTED:  107675792  ISSUED:  107214467  USEFUL:     203495  USELESS:          8
L1D USEFUL LOAD PREFETCHES:     203495 PREFETCH ISSUED TO LOWER LEVEL:    7196739  ACCURACY: 2.8276
L1D TIMELY PREFETCHES:     203495 LATE PREFETCHES: 627 DROPPED PREFETCHES: 2187247
L1D PREFETCHES SAME FILL-ORIGIN LEVEL: 204130 DIFFERENT FILL-ORIGIN LEVEL: 6992609
L1D AVERAGE MISS LATENCY: 96.568 cycles
L1D RQ	ACCESS:   25428451	FORWARD:          0	MERGED:    6195182	TO_CACHE:   19218980
L1D WQ	ACCESS:   10248335	FORWARD:      14289	MERGED:          0	TO_CACHE:   10248335
L1D PQ	ACCESS:   68407011	FORWARD:          0	MERGED:   29599555	TO_CACHE:   38807456

L1D UNIQUE REGIONS ACCESSED: 0
L1D REGIONS CONFLICTS: 0
L1D Cross Page Prefetch Requests: 6201442
L1D Same Page Prefetch Requests: 86137048
L1D ROI Sum of L1D PQ occupancy: 555013359
L1D PREFETCHES PUSHED FROM L2C: 0
L1I TOTAL     ACCESS:   38601631  HIT:   38601631  MISS:          0  HIT %:        100  MISS %:          0   MPKI: 0
L1I LOAD      ACCESS:   38601631  HIT:   38601631  MISS:          0  HIT %:        100  MISS %:          0   MPKI: 0
L1I PREFETCH  REQUESTED:          0  ISSUED:          0  USEFUL:          0  USELESS:          0
L1I USEFUL LOAD PREFETCHES:          0 PREFETCH ISSUED TO LOWER LEVEL:          0  ACCURACY: -nan
L1I TIMELY PREFETCHES:          0 LATE PREFETCHES: 0 DROPPED PREFETCHES: 0
L1I PREFETCHES SAME FILL-ORIGIN LEVEL: 0 DIFFERENT FILL-ORIGIN LEVEL: 0
L1I AVERAGE MISS LATENCY: -nan cycles
L1I RQ	ACCESS:   55260989	FORWARD:          0	MERGED:   16655594	TO_CACHE:   38605395

BTB TOTAL     ACCESS:   33643822  HIT:   33643812  MISS:         10  HIT %:        100  MISS %: 2.97231e-05   MPKI: 5e-05
BTB BRANCH_DIRECT_JUMP	ACCESS:    8106619  HIT:    8106616  MISS:          3
BTB BRANCH_INDIRECT	ACCESS:          0  HIT:          0  MISS:          0
BTB BRANCH_CONDITIONAL	ACCESS:   23829319  HIT:   23829314  MISS:          5
BTB BRANCH_DIRECT_CALL	ACCESS:     853942  HIT:     853941  MISS:          1
BTB BRANCH_INDIRECT_CALL	ACCESS:          0  HIT:          0  MISS:          0
BTB BRANCH_RETURN	ACCESS:     853942  HIT:     853941  MISS:          1
BTB BRANCH_OTHER ACCESS:          0  HIT:          0  MISS:          0

L2C TOTAL     ACCESS:    7740583  HIT:    7468308  MISS:     272275  HIT %:    96.4825  MISS %:     3.5175   MPKI: 1.36138
L2C LOAD      ACCESS:       2621  HIT:         14  MISS:       2607  HIT %:   0.534147  MISS %:    99.4659   MPKI: 0.013035
L2C DATA LOAD MPKI: 0.013035
L2C INSTRUCTION LOAD MPKI: 0
L2C RFO       ACCESS:      53372  HIT:          0  MISS:      53372  HIT %:          0  MISS %:        100   MPKI: 0.26686
L2C PREFETCH  ACCESS:    7095146  HIT:    6891024  MISS:     204122  HIT %:    97.1231  MISS %:    2.87692   MPKI: 1.02061
L2C DATA PREFETCH MPKI: 1.02061
L2C INSTRUCTION PREFETCH MPKI: 0
L2C WRITEBACK ACCESS:      53366  HIT:      41710  MISS:      11656  HIT %:    78.1584  MISS %:    21.8416   MPKI: 0.05828
L2C LOAD TRANSLATION ACCESS:       4065  HIT:       3958  MISS:        107  HIT %:    97.3678  MISS %:    2.63223   MPKI: 0.000535
L2C TRANSLATION FROM L1D PREFETCHER ACCESS:     532013  HIT:     531602  MISS:        411  HIT %:    99.9227  MISS %:  0.0772538   MPKI: 0.002055
L2C PREFETCH  REQUESTED:          0  ISSUED:          0  USEFUL:        424  USELESS:     203212
L2C USEFUL LOAD PREFETCHES:        424 PREFETCH ISSUED TO LOWER LEVEL:     204151  ACCURACY: 0.207689
L2C TIMELY PREFETCHES:        424 LATE PREFETCHES: 0 DROPPED PREFETCHES: 0
L2C PREFETCHES SAME FILL-ORIGIN LEVEL: 122432 DIFFERENT FILL-ORIGIN LEVEL: 0
L2C AVERAGE MISS LATENCY: 148.308 cycles
L2C RQ	ACCESS:     592081	FORWARD:          0	MERGED:          0	TO_CACHE:     592081
L2C WQ	ACCESS:      53366	FORWARD:          0	MERGED:          0	TO_CACHE:      53366
L2C PQ	ACCESS:    7196739	FORWARD:          0	MERGED:        959	TO_CACHE:    7195780

L2C Instructions Evicting Data 0
L2C Translations Evicting Data 519
L2C Data Evicting Data 259652
L2C Instructions Evicting Instructions 0
L2C Translations Evicting Instructions 0
L2C Data Evicting Instructions 0
L2C Instructions Evicting Translations 0
L2C Translations Evicting Translations 1
L2C Data Evicting Translations 486
L2C Dense regions hint from L2: 0
PSCL5 TOTAL     ACCESS:     536078  HIT:     536078  MISS:          0  HIT %:        100  MISS %:          0   MPKI: 0
PSCL5 LOAD TRANSLATION ACCESS:       4065  HIT:       4065  MISS:          0  HIT %:        100  MISS %:          0   MPKI: 0
PSCL5 TRANSLATION FROM L1D PREFETCHER ACCESS:     532013  HIT:     532013  MISS:          0  HIT %:        100  MISS %:          0   MPKI: 0
PSCL5 PREFETCH  REQUESTED:          0  ISSUED:          0  USEFUL:          0  USELESS:          0
PSCL5 USEFUL LOAD PREFETCHES:          0 PREFETCH ISSUED TO LOWER LEVEL:          0  ACCURACY: -nan
PSCL5 TIMELY PREFETCHES:          0 LATE PREFETCHES: 0 DROPPED PREFETCHES: 0
PSCL5 PREFETCHES SAME FILL-ORIGIN LEVEL: 0 DIFFERENT FILL-ORIGIN LEVEL: 0

PSCL4 TOTAL     ACCESS:     536078  HIT:     536078  MISS:          0  HIT %:        100  MISS %:          0   MPKI: 0
PSCL4 LOAD TRANSLATION ACCESS:       4065  HIT:       4065  MISS:          0  HIT %:        100  MISS %:          0   MPKI: 0
PSCL4 TRANSLATION FROM L1D PREFETCHER ACCESS:     532013  HIT:     532013  MISS:          0  HIT %:        100  MISS %:          0   MPKI: 0
PSCL4 PREFETCH  REQUESTED:          0  ISSUED:          0  USEFUL:          0  USELESS:          0
PSCL4 USEFUL LOAD PREFETCHES:          0 PREFETCH ISSUED TO LOWER LEVEL:          0  ACCURACY: -nan
PSCL4 TIMELY PREFETCHES:          0 LATE PREFETCHES: 0 DROPPED PREFETCHES: 0
PSCL4 PREFETCHES SAME FILL-ORIGIN LEVEL: 0 DIFFERENT FILL-ORIGIN LEVEL: 0

PSCL3 TOTAL     ACCESS:     536078  HIT:     536078  MISS:          0  HIT %:        100  MISS %:          0   MPKI: 0
PSCL3 LOAD TRANSLATION ACCESS:       4065  HIT:       4065  MISS:          0  HIT %:        100  MISS %:          0   MPKI: 0
PSCL3 TRANSLATION FROM L1D PREFETCHER ACCESS:     532013  HIT:     532013  MISS:          0  HIT %:        100  MISS %:          0   MPKI: 0
PSCL3 PREFETCH  REQUESTED:          0  ISSUED:          0  USEFUL:          0  USELESS:          0
PSCL3 USEFUL LOAD PREFETCHES:          0 PREFETCH ISSUED TO LOWER LEVEL:          0  ACCURACY: -nan
PSCL3 TIMELY PREFETCHES:          0 LATE PREFETCHES: 0 DROPPED PREFETCHES: 0
PSCL3 PREFETCHES SAME FILL-ORIGIN LEVEL: 0 DIFFERENT FILL-ORIGIN LEVEL: 0

PSCL2 TOTAL     ACCESS:     535192  HIT:     535184  MISS:          8  HIT %:    99.9985  MISS %: 0.00149479   MPKI: 4e-05
PSCL2 LOAD TRANSLATION ACCESS:       4065  HIT:       4057  MISS:          8  HIT %:    99.8032  MISS %:   0.196802   MPKI: 4e-05
PSCL2 TRANSLATION FROM L1D PREFETCHER ACCESS:     531127  HIT:     531127  MISS:          0  HIT %:        100  MISS %:          0   MPKI: 0
PSCL2 PREFETCH  REQUESTED:          0  ISSUED:          0  USEFUL:          0  USELESS:          0
PSCL2 USEFUL LOAD PREFETCHES:          0 PREFETCH ISSUED TO LOWER LEVEL:          0  ACCURACY: -nan
PSCL2 TIMELY PREFETCHES:          0 LATE PREFETCHES: 0 DROPPED PREFETCHES: 0
PSCL2 PREFETCHES SAME FILL-ORIGIN LEVEL: 0 DIFFERENT FILL-ORIGIN LEVEL: 0

LLC TOTAL     ACCESS:     314940  HIT:      49950  MISS:     264990  HIT %:    15.8602  MISS %:    84.1398   MPKI: 1.32495
LLC LOAD      ACCESS:       2607  HIT:          0  MISS:       2607  HIT %:          0  MISS %:        100   MPKI: 0.013035
LLC RFO       ACCESS:      53372  HIT:          0  MISS:      53372  HIT %:          0  MISS %:        100   MPKI: 0.26686
LLC PREFETCH  ACCESS:     204122  HIT:          0  MISS:     204122  HIT %:          0  MISS %:        100   MPKI: 1.02061
LLC WRITEBACK ACCESS:      54321  HIT:      49950  MISS:       4371  HIT %:    91.9534  MISS %:    8.04661   MPKI: 0.021855
LLC LOAD TRANSLATION ACCESS:        107  HIT:          0  MISS:        107  HIT %:          0  MISS %:        100   MPKI: 0.000535
LLC TRANSLATION FROM L1D PREFETCHER ACCESS:        411  HIT:          0  MISS:        411  HIT %:          0  MISS %:        100   MPKI: 0.002055
LLC PREFETCH  REQUESTED:          0  ISSUED:          0  USEFUL:          0  USELESS:     815814
LLC USEFUL LOAD PREFETCHES:          0 PREFETCH ISSUED TO LOWER LEVEL:     816537  ACCURACY: 0
LLC TIMELY PREFETCHES:          0 LATE PREFETCHES: 0 DROPPED PREFETCHES: 0
LLC PREFETCHES SAME FILL-ORIGIN LEVEL: 0 DIFFERENT FILL-ORIGIN LEVEL: 0
LLC AVERAGE MISS LATENCY: 471.537 cycles
LLC RQ	ACCESS:     226019	FORWARD:          0	MERGED:          0	TO_CACHE:     226019
LLC WQ	ACCESS:     217073	FORWARD:          0	MERGED:          0	TO_CACHE:     217073
LLC PQ	ACCESS:     816537	FORWARD:          0	MERGED:          0	TO_CACHE:     816537

LLC Dense regions hint to LLC: 0

RAW hits: 2742506
Loads Generated: 28168442
Loads sent to L1D: 25425936
Stores Generated: 10247303
Stores sent to L1D: 10247303
Major fault: 0 Minor fault: 5120
Allocated PAGES: 20480

CPU 1 cumulative IPC: 0.853093 instructions: 200000000 cycles: 234441004
ITLB TOTAL     ACCESS:   36094365  HIT:   36094365  MISS:          0  HIT %:        100  MISS %:          0   MPKI: 0
ITLB LOAD TRANSLATION ACCESS:   36094365  HIT:   36094365  MISS:          0  HIT %:        100  MISS %:          0   MPKI: 0
ITLB PREFETCH  REQUESTED:          0  ISSUED:          0  USEFUL:          0  USELESS:          0
ITLB USEFUL LOAD PREFETCHES:          0 PREFETCH ISSUED TO LOWER LEVEL:          0  ACCURACY: -nan
ITLB TIMELY PREFETCHES:          0 LATE PREFETCHES: 0 DROPPED PREFETCHES: 0
ITLB PREFETCHES SAME FILL-ORIGIN LEVEL: 0 DIFFERENT FILL-ORIGIN LEVEL: 0
ITLB AVERAGE MISS LATENCY: -nan cycles
ITLB RQ	ACCESS:   38602764	FORWARD:          0	MERGED:    2507364	TO_CACHE:   36095400

DTLB TOTAL     ACCESS:   26118732  HIT:   26114667  MISS:       4065  HIT %:    99.9844  MISS %:  0.0155635   MPKI: 0.020325
DTLB LOAD TRANSLATION ACCESS:   26118732  HIT:   26114667  MISS:       4065  HIT %:    99.9844  MISS %:  0.0155635   MPKI: 0.020325
DTLB PREFETCH  REQUESTED:          0  ISSUED:          0  USEFUL:          0  USELESS:          0
DTLB USEFUL LOAD PREFETCHES:          0 PREFETCH ISSUED TO LOWER LEVEL:          0  ACCURACY: -nan
DTLB TIMELY PREFETCHES:          0 LATE PREFETCHES: 0 DROPPED PREFETCHES: 0
DTLB PREFETCHES SAME FILL-ORIGIN LEVEL: 0 DIFFERENT FILL-ORIGIN LEVEL: 0
DTLB AVERAGE MISS LATENCY: 125.854 cycles
DTLB RQ	ACCESS:   29465232	FORWARD:          0	MERGED:    3345683	TO_CACHE:   26119549

STLB TOTAL     ACCESS:    5171425  HIT:    5167359  MISS:       4066  HIT %:    99.9214  MISS %:  0.0786244   MPKI: 0.02033
STLB LOAD TRANSLATION ACCESS:       4065  HIT:          0  MISS:       4065  HIT %:          0  MISS %:        100   MPKI: 0.020325
STLB TRANSLATION FROM L1D PREFETCHER ACCESS:    5167360  HIT:    5167359  MISS:          1  HIT %:        100  MISS %: 1.93522e-05   MPKI: 5e-06
STLB PREFETCH  REQUESTED:          0  ISSUED:          0  USEFUL:          1  USELESS:          0
STLB USEFUL LOAD PREFETCHES:          1 PREFETCH ISSUED TO LOWER LEVEL:          0  ACCURACY: inf
STLB TIMELY PREFETCHES:          1 LATE PREFETCHES: 443 DROPPED PREFETCHES: 545811
STLB PREFETCHES SAME FILL-ORIGIN LEVEL: 0 DIFFERENT FILL-ORIGIN LEVEL: 0
STLB AVERAGE MISS LATENCY: 117.889 cycles
STLB RQ	ACCESS:   38716732	FORWARD:          0	MERGED:   32994072	TO_CACHE:    5722660

STLB Hit, L1D data hit: 0
STLB Hit, L2C data hit: 0
STLB Hit, LLC data hit: 0
STLB Hit, LLC data miss: 0
STLB STLB hints to L2: 0
L1D TOTAL     ACCESS:   58956880  HIT:   58696786  MISS:     260094  HIT %:    99.5588  MISS %:    0.44116   MPKI: 1.30047
L1D LOAD      ACCESS:   19215056  HIT:   19211819  MISS:       3237  HIT %:    99.9832  MISS %:  0.0168462   MPKI: 0.016185
L1D RFO       ACCESS:   10242282  HIT:   10188910  MISS:      53372  HIT %:    99.4789  MISS %:   0.521095   MPKI: 0.26686
L1D PREFETCH  ACCESS:   29499542  HIT:   29296057  MISS:     203485  HIT %:    99.3102  MISS %:    0.68979   MPKI: 1.01743
L1D PREFETCH  REQUESTED:  107618531  ISSUED:  107058523  USEFUL:     203492  USELESS:          8
L1D USEFUL LOAD PREFETCHES:     203492 PREFETCH ISSUED TO LOWER LEVEL:    7126238  ACCURACY: 2.85553
L1D TIMELY PREFETCHES:     203492 LATE PREFETCHES: 616 DROPPED PREFETCHES: 2215289
L1D PREFETCHES SAME FILL-ORIGIN LEVEL: 204112 DIFFERENT FILL-ORIGIN LEVEL: 6922126
L1D AVERAGE MISS LATENCY: 95.5689 cycles
L1D RQ	ACCESS:   25426697	FORWARD:          0	MERGED:    6194793	TO_CACHE:   19217617
L1D WQ	ACCESS:   10247615	FORWARD:      14287	MERGED:          0	TO_CACHE:   10247615
L1D PQ	ACCESS:   68345858	FORWARD:          0	MERGED:   29633193	TO_CACHE:   38712665

L1D UNIQUE REGIONS ACCESSED: 0
L1D REGIONS CONFLICTS: 0
L1D Cross Page Prefetch Requests: 6226771
L1D Same Page Prefetch Requests: 86050566
L1D ROI Sum of L1D PQ occupancy: 557329331
L1D PREFETCHES PUSHED FROM L2C: 0
L1I TOTAL     ACCESS:   38601657  HIT:   38601657  MISS:          0  HIT %:        100  MISS %:          0   MPKI: 0
L1I LOAD      ACCESS:   38601657  HIT:   38601657  MISS:          0  HIT %:        100  MISS %:          0   MPKI: 0
L1I PREFETCH  REQUESTED:          0  ISSUED:          0  USEFUL:          0  USELESS:          0
L1I USEFUL LOAD PREFETCHES:          0 PREFETCH ISSUED TO LOWER LEVEL:          0  ACCURACY: -nan
L1I TIMELY PREFETCHES:          0 LATE PREFETCHES: 0 DROPPED PREFETCHES: 0
L1I PREFETCHES SAME FILL-ORIGIN LEVEL: 0 DIFFERENT FILL-ORIGIN LEVEL: 0
L1I AVERAGE MISS LATENCY: -nan cycles
L1I RQ	ACCESS:   55257244	FORWARD:          0	MERGED:   16654480	TO_CACHE:   38602764

BTB TOTAL     ACCESS:   33643826  HIT:   33643814  MISS:         12  HIT %:        100  MISS %: 3.56678e-05   MPKI: 6e-05
BTB BRANCH_DIRECT_JUMP	ACCESS:    8106620  HIT:    8106617  MISS:          3
BTB BRANCH_INDIRECT	ACCESS:          0  HIT:          0  MISS:          0
BTB BRANCH_CONDITIONAL	ACCESS:   23829322  HIT:   23829315  MISS:          7
BTB BRANCH_DIRECT_CALL	ACCESS:     853942  HIT:     853941  MISS:          1
BTB BRANCH_INDIRECT_CALL	ACCESS:          0  HIT:          0  MISS:          0
BTB BRANCH_RETURN	ACCESS:     853942  HIT:     853941  MISS:          1
BTB BRANCH_OTHER ACCESS:          0  HIT:          0  MISS:          0

L2C TOTAL     ACCESS:    7686764  HIT:    7413899  MISS:     272865  HIT %:    96.4502  MISS %:     3.5498   MPKI: 1.36433
L2C LOAD      ACCESS:       2621  HIT:          5  MISS:       2616  HIT %:   0.190767  MISS %:    99.8092   MPKI: 0.01308
L2C DATA LOAD MPKI: 0.01308
L2C INSTRUCTION LOAD MPKI: 0
L2C RFO       ACCESS:      53372  HIT:          0  MISS:      53372  HIT %:          0  MISS %:        100   MPKI: 0.26686
L2C PREFETCH  ACCESS:    7027086  HIT:    6822973  MISS:     204113  HIT %:    97.0953  MISS %:    2.90466   MPKI: 1.02056
L2C DATA PREFETCH MPKI: 1.02056
L2C INSTRUCTION PREFETCH MPKI: 0
L2C WRITEBACK ACCESS:      53365  HIT:      41121  MISS:      12244  HIT %:    77.0561  MISS %:    22.9439   MPKI: 0.06122
L2C LOAD TRANSLATION ACCESS:       4065  HIT:       3956  MISS:        109  HIT %:    97.3186  MISS %:    2.68143   MPKI: 0.000545
L2C TRANSLATION FROM L1D PREFETCHER ACCESS:     546255  HIT:     545844  MISS:        411  HIT %:    99.9248  MISS %:  0.0752396   MPKI: 0.002055
L2C PREFETCH  REQUESTED:          0  ISSUED:          0  USEFUL:        415  USELESS:     203254
L2C USEFUL LOAD PREFETCHES:        415 PREFETCH ISSUED TO LOWER LEVEL:     204125  ACCURACY: 0.203307
L2C TIMELY PREFETCHES:        415 LATE PREFETCHES: 0 DROPPED PREFETCHES: 0
L2C PREFETCHES SAME FILL-ORIGIN LEVEL: 122774 DIFFERENT FILL-ORIGIN LEVEL: 0
L2C AVERAGE MISS LATENCY: 147.627 cycles
L2C RQ	ACCESS:     606319	FORWARD:          0	MERGED:          0	TO_CACHE:     606319
L2C WQ	ACCESS:      53365	FORWARD:          0	MERGED:          0	TO_CACHE:      53365
L2C PQ	ACCESS:    7126238	FORWARD:          0	MERGED:        853	TO_CACHE:    7125385

L2C Instructions Evicting Data 0
L2C Translations Evicting Data 522
L2C Data Evicting Data 259624
L2C Instructions Evicting Instructions 0
L2C Translations Evicting Instructions 0
L2C Data Evicting Instructions 0
L2C Instructions Evicting Translations 0
L2C Translations Evicting Translations 0
L2C Data Evicting Translations 492
L2C Dense regions hint from L2: 0
PSCL5 TOTAL     ACCESS:     550320  HIT:     550320  MISS:          0  HIT %:        100  MISS %:          0   MPKI: 0
PSCL5 LOAD TRANSLATION ACCESS:       4065  HIT:       4065  MISS:          0  HIT %:        100  MISS %:          0   MPKI: 0
PSCL5 TRANSLATION FROM L1D PREFETCHER ACCESS:     546255  HIT:     546255  MISS:          0  HIT %:        100  MISS %:          0   MPKI: 0
PSCL5 PREFETCH  REQUESTED:          0  ISSUED:          0  USEFUL:          0  USELESS:          0
PSCL5 USEFUL LOAD PREFETCHES:          0 PREFETCH ISSUED TO LOWER LEVEL:          0  ACCURACY: -nan
PSCL5 TIMELY PREFETCHES:          0 LATE PREFETCHES: 0 DROPPED PREFETCHES: 0
PSCL5 PREFETCHES SAME FILL-ORIGIN LEVEL: 0 DIFFERENT FILL-ORIGIN LEVEL: 0

PSCL4 TOTAL     ACCESS:     550320  HIT:     550320  MISS:          0  HIT %:        100  MISS %:          0   MPKI: 0
PSCL4 LOAD TRANSLATION ACCESS:       4065  HIT:       4065  MISS:          0  HIT %:        100  MISS %:          0   MPKI: 0
PSCL4 TRANSLATION FROM L1D PREFETCHER ACCESS:     546255  HIT:     546255  MISS:          0  HIT %:        100  MISS %:          0   MPKI: 0
PSCL4 PREFETCH  REQUESTED:          0  ISSUED:          0  USEFUL:          0  USELESS:          0
PSCL4 USEFUL LOAD PREFETCHES:          0 PREFETCH ISSUED TO LOWER LEVEL:          0  ACCURACY: -nan
PSCL4 TIMELY PREFETCHES:          0 LATE PREFETCHES: 0 DROPPED PREFETCHES: 0
PSCL4 PREFETCHES SAME FILL-ORIGIN LEVEL: 0 DIFFERENT FILL-ORIGIN LEVEL: 0

PSCL3 TOTAL     ACCESS:     550320  HIT:     550320  MISS:          0  HIT %:        100  MISS %:          0   MPKI: 0
PSCL3 LOAD TRANSLATION ACCESS:       4065  HIT:       4065  MISS:          0  HIT %:        100  MISS %:          0   MPKI: 0
PSCL3 TRANSLATION FROM L1D PREFETCHER ACCESS:     546255  HIT:     546255  MISS:          0  HIT %:        100  MISS %:          0   MPKI: 0
PSCL3 PREFETCH  REQUESTED:          0  ISSUED:          0  USEFUL:          0  USELESS:          0
PSCL3 USEFUL LOAD PREFETCHES:          0 PREFETCH ISSUED TO LOWER LEVEL:          0  ACCURACY: -nan
PSCL3 TIMELY PREFETCHES:          0 LATE PREFETCHES: 0 DROPPED PREFETCHES: 0
PSCL3 PREFETCHES SAME FILL-ORIGIN LEVEL: 0 DIFFERENT FILL-ORIGIN LEVEL: 0

PSCL2 TOTAL     ACCESS:     548989  HIT:     548981  MISS:          8  HIT %:    99.9985  MISS %: 0.00145722   MPKI: 4e-05
PSCL2 LOAD TRANSLATION ACCESS:       4065  HIT:       4057  MISS:          8  HIT %:    99.8032  MISS %:   0.196802   MPKI: 4e-05
PSCL2 TRANSLATION FROM L1D PREFETCHER ACCESS:     544924  HIT:     544924  MISS:          0  HIT %:        100  MISS %:          0   MPKI: 0
PSCL2 PREFETCH  REQUESTED:          0  ISSUED:          0  USEFUL:          0  USELESS:          0
PSCL2 USEFUL LOAD PREFETCHES:          0 PREFETCH ISSUED TO LOWER LEVEL:          0  ACCURACY: -nan
PSCL2 TIMELY PREFETCHES:          0 LATE PREFETCHES: 0 DROPPED PREFETCHES: 0
PSCL2 PREFETCHES SAME FILL-ORIGIN LEVEL: 0 DIFFERENT FILL-ORIGIN LEVEL: 0

LLC TOTAL     ACCESS:     314875  HIT:      49773  MISS:     265102  HIT %:    15.8072  MISS %:    84.1928   MPKI: 1.32551
LLC LOAD      ACCESS:       2616  HIT:          0  MISS:       2616  HIT %:          0  MISS %:        100   MPKI: 0.01308
LLC RFO       ACCESS:      53372  HIT:          0  MISS:      53372  HIT %:          0  MISS %:        100   MPKI: 0.26686
LLC PREFETCH  ACCESS:     204113  HIT:          0  MISS:     204113  HIT %:          0  MISS %:        100   MPKI: 1.02056
LLC WRITEBACK ACCESS:      54254  HIT:      49771  MISS:       4483  HIT %:     91.737  MISS %:    8.26299   MPKI: 0.022415
LLC LOAD TRANSLATION ACCESS:        109  HIT:          2  MISS:        107  HIT %:    1.83486  MISS %:    98.1651   MPKI: 0.000535
LLC TRANSLATION FROM L1D PREFETCHER ACCESS:        411  HIT:          0  MISS:        411  HIT %:          0  MISS %:        100   MPKI: 0.002055
LLC PREFETCH  REQUESTED:          0  ISSUED:          0  USEFUL:          0  USELESS:     815814
LLC USEFUL LOAD PREFETCHES:          0 PREFETCH ISSUED TO LOWER LEVEL:     816537  ACCURACY: 0
LLC TIMELY PREFETCHES:          0 LATE PREFETCHES: 0 DROPPED PREFETCHES: 0
LLC PREFETCHES SAME FILL-ORIGIN LEVEL: 0 DIFFERENT FILL-ORIGIN LEVEL: 0
LLC AVERAGE MISS LATENCY: 471.338 cycles
LLC RQ	ACCESS:     226019	FORWARD:          0	MERGED:          0	TO_CACHE:     226019
LLC WQ	ACCESS:     217073	FORWARD:          0	MERGED:          0	TO_CACHE:     217073
LLC PQ	ACCESS:     816537	FORWARD:          0	MERGED:          0	TO_CACHE:     816537

LLC Dense regions hint to LLC: 0

RAW hits: 2742510
Loads Generated: 28168441
Loads sent to L1D: 25425931
Stores Generated: 10247303
Stores sent to L1D: 10247303
Major fault: 0 Minor fault: 5120
Allocated PAGES: 20480

CPU 2 cumulative IPC: 0.853095 instructions: 200000000 cycles: 234440609
ITLB TOTAL     ACCESS:   36094333  HIT:   36094333  MISS:          0  HIT %:        100  MISS %:          0   MPKI: 0
ITLB LOAD TRANSLATION ACCESS:   36094333  HIT:   36094333  MISS:          0  HIT %:        100  MISS %:          0   MPKI: 0
ITLB PREFETCH  REQUESTED:          0  ISSUED:          0  USEFUL:          0  USELESS:          0
ITLB USEFUL LOAD PREFETCHES:          0 PREFETCH ISSUED TO LOWER LEVEL:          0  ACCURACY: -nan
ITLB TIMELY PREFETCHES:          0 LATE PREFETCHES: 0 DROPPED PREFETCHES: 0
ITLB PREFETCHES SAME FILL-ORIGIN LEVEL: 0 DIFFERENT FILL-ORIGIN LEVEL: 0
ITLB AVERAGE MISS LATENCY: -nan cycles
ITLB RQ	ACCESS:   38602749	FORWARD:          0	MERGED:    2507364	TO_CACHE:   36095385

DTLB TOTAL     ACCESS:   26118767  HIT:   26114703  MISS:       4064  HIT %:    99.9844  MISS %:  0.0155597   MPKI: 0.02032
DTLB LOAD TRANSLATION ACCESS:   26118767  HIT:   26114703  MISS:       4064  HIT %:    99.9844  MISS %:  0.0155597   MPKI: 0.02032
DTLB PREFETCH  REQUESTED:          0  ISSUED:          0  USEFUL:          0  USELESS:          0
DTLB USEFUL LOAD PREFETCHES:          0 PREFETCH ISSUED TO LOWER LEVEL:          0  ACCURACY: -nan
DTLB TIMELY PREFETCHES:          0 LATE PREFETCHES: 0 DROPPED PREFETCHES: 0
DTLB PREFETCHES SAME FILL-ORIGIN LEVEL: 0 DIFFERENT FILL-ORIGIN LEVEL: 0
DTLB AVERAGE MISS LATENCY: 124.613 cycles
DTLB RQ	ACCESS:   29465240	FORWARD:          0	MERGED:    3345685	TO_CACHE:   26119555

STLB TOTAL     ACCESS:    5170403  HIT:    5166338  MISS:       4065  HIT %:    99.9214  MISS %:  0.0786206   MPKI: 0.020325
STLB LOAD TRANSLATION ACCESS:       4064  HIT:          0  MISS:       4064  HIT %:          0  MISS %:        100   MPKI: 0.02032
STLB TRANSLATION FROM L1D PREFETCHER ACCESS:    5166339  HIT:    5166338  MISS:          1  HIT %:        100  MISS %: 1.93561e-05   MPKI: 5e-06
STLB PREFETCH  REQUESTED:          0  ISSUED:          0  USEFUL:          1  USELESS:          0
STLB USEFUL LOAD PREFETCHES:          1 PREFETCH ISSUED TO LOWER LEVEL:          0  ACCURACY: inf
STLB TIMELY PREFETCHES:          1 LATE PREFETCHES: 444 DROPPED PREFETCHES: 546072
STLB PREFETCHES SAME FILL-ORIGIN LEVEL: 0 DIFFERENT FILL-ORIGIN LEVEL: 0
STLB AVERAGE MISS LATENCY: 116.635 cycles
STLB RQ	ACCESS:   38724201	FORWARD:          0	MERGED:   33002289	TO_CACHE:    5721912

STLB Hit, L1D data hit: 0
STLB Hit, L2C data hit: 0
STLB Hit, LLC data hit: 0
STLB Hit, LLC data miss: 0
STLB STLB hints to L2: 0
L1D TOTAL     ACCESS:   58904315  HIT:   58644224  MISS:     260091  HIT %:    99.5585  MISS %:   0.441548   MPKI: 1.30045
L1D LOAD      ACCESS:   19215064  HIT:   19211827  MISS:       3237  HIT %:    99.9832  MISS %:  0.0168462   MPKI: 0.016185
L1D RFO       ACCESS:   10244820  HIT:   10191448  MISS:      53372  HIT %:     99.479  MISS %:   0.520966   MPKI: 0.26686
L1D PREFETCH  ACCESS:   29444431  HIT:   29240949  MISS:     203482  HIT %:    99.3089  MISS %:   0.691071   MPKI: 1.01741
L1D PREFETCH  REQUESTED:  107562725  ISSUED:  107049505  USEFUL:     203490  USELESS:          8
L1D USEFUL LOAD PREFETCHES:     203490 PREFETCH ISSUED TO LOWER LEVEL:    7199703  ACCURACY: 2.82637
L1D TIMELY PREFETCHES:     203490 LATE PREFETCHES: 625 DROPPED PREFETCHES: 2210374
L1D PREFETCHES SAME FILL-ORIGIN LEVEL: 204122 DIFFERENT FILL-ORIGIN LEVEL: 6995581
L1D AVERAGE MISS LATENCY: 87.1077 cycles
L1D RQ	ACCESS:   25426688	FORWARD:          0	MERGED:    6194777	TO_CACHE:   19217620
L1D WQ	ACCESS:   10247620	FORWARD:      14291	MERGED:          0	TO_CACHE:   10247620
L1D PQ	ACCESS:   68329371	FORWARD:          0	MERGED:   29609237	TO_CACHE:   38720134

L1D UNIQUE REGIONS ACCESSED: 0
L1D REGIONS CONFLICTS: 0
L1D Cross Page Prefetch Requests: 6220979
L1D Same Page Prefetch Requests: 86039348
L1D ROI Sum of L1D PQ occupancy: 556873192
L1D PREFETCHES PUSHED FROM L2C: 0
L1I TOTAL     ACCESS:   38601626  HIT:   38601626  MISS:          0  HIT %:        100  MISS %:          0   MPKI: 0
L1I LOAD      ACCESS:   38601626  HIT:   38601626  MISS:          0  HIT %:        100  MISS %:          0   MPKI: 0
L1I PREFETCH  REQUESTED:          0  ISSUED:          0  USEFUL:          0  USELESS:          0
L1I USEFUL LOAD PREFETCHES:          0 PREFETCH ISSUED TO LOWER LEVEL:          0  ACCURACY: -nan
L1I TIMELY PREFETCHES:          0 LATE PREFETCHES: 0 DROPPED PREFETCHES: 0
L1I PREFETCHES SAME FILL-ORIGIN LEVEL: 0 DIFFERENT FILL-ORIGIN LEVEL: 0
L1I AVERAGE MISS LATENCY: -nan cycles
L1I RQ	ACCESS:   55257233	FORWARD:          0	MERGED:   16654484	TO_CACHE:   38602749

BTB TOTAL     ACCESS:   33643787  HIT:   33643771  MISS:         16  HIT %:        100  MISS %: 4.75571e-05   MPKI: 8e-05
BTB BRANCH_DIRECT_JUMP	ACCESS:    8106611  HIT:    8106607  MISS:          4
BTB BRANCH_INDIRECT	ACCESS:          0  HIT:          0  MISS:          0
BTB BRANCH_CONDITIONAL	ACCESS:   23829294  HIT:   23829284  MISS:         10
BTB BRANCH_DIRECT_CALL	ACCESS:     853941  HIT:     853940  MISS:          1
BTB BRANCH_INDIRECT_CALL	ACCESS:          0  HIT:          0  MISS:          0
BTB BRANCH_RETURN	ACCESS:     853941  HIT:     853940  MISS:          1
BTB BRANCH_OTHER ACCESS:          0  HIT:          0  MISS:          0

L2C TOTAL     ACCESS:    7768810  HIT:    7496051  MISS:     272759  HIT %:    96.4891  MISS %:    3.51095   MPKI: 1.3638
L2C LOAD      ACCESS:       2612  HIT:          6  MISS:       2606  HIT %:   0.229709  MISS %:    99.7703   MPKI: 0.01303
L2C DATA LOAD MPKI: 0.01303
L2C INSTRUCTION LOAD MPKI: 0
L2C RFO       ACCESS:      53372  HIT:          0  MISS:      53372  HIT %:          0  MISS %:        100   MPKI: 0.26686
L2C PREFETCH  ACCESS:    7108880  HIT:    6904764  MISS:     204116  HIT %:    97.1287  MISS %:    2.87128   MPKI: 1.02058
L2C DATA PREFETCH MPKI: 1.02058
L2C INSTRUCTION PREFETCH MPKI: 0
L2C WRITEBACK ACCESS:      53365  HIT:      41218  MISS:      12147  HIT %:    77.2379  MISS %:    22.7621   MPKI: 0.060735
L2C LOAD TRANSLATION ACCESS:       4064  HIT:       3957  MISS:        107  HIT %:    97.3671  MISS %:    2.63287   MPKI: 0.000535
L2C TRANSLATION FROM L1D PREFETCHER ACCESS:     546517  HIT:     546106  MISS:        411  HIT %:    99.9248  MISS %:  0.0752035   MPKI: 0.002055
L2C PREFETCH  REQUESTED:          0  ISSUED:          0  USEFUL:        416  USELESS:     203215
L2C USEFUL LOAD PREFETCHES:        416 PREFETCH ISSUED TO LOWER LEVEL:     204134  ACCURACY: 0.203788
L2C TIMELY PREFETCHES:        416 LATE PREFETCHES: 0 DROPPED PREFETCHES: 0
L2C PREFETCHES SAME FILL-ORIGIN LEVEL: 122206 DIFFERENT FILL-ORIGIN LEVEL: 0
L2C AVERAGE MISS LATENCY: 133.928 cycles
L2C RQ	ACCESS:     606573	FORWARD:          0	MERGED:          0	TO_CACHE:     606573
L2C WQ	ACCESS:      53365	FORWARD:          0	MERGED:          0	TO_CACHE:      53365
L2C PQ	ACCESS:    7199703	FORWARD:          0	MERGED:        874	TO_CACHE:    7198829

L2C Instructions Evicting Data 0
L2C Translations Evicting Data 521
L2C Data Evicting Data 259601
L2C Instructions Evicting Instructions 0
L2C Translations Evicting Instructions 0
L2C Data Evicting Instructions 0
L2C Instructions Evicting Translations 0
L2C Translations Evicting Translations 0
L2C Data Evicting Translations 516
L2C Dense regions hint from L2: 0
PSCL5 TOTAL     ACCESS:     550581  HIT:     550581  MISS:          0  HIT %:        100  MISS %:          0   MPKI: 0
PSCL5 LOAD TRANSLATION ACCESS:       4064  HIT:       4064  MISS:          0  HIT %:        100  MISS %:          0   MPKI: 0
PSCL5 TRANSLATION FROM L1D PREFETCHER ACCESS:     546517  HIT:     546517  MISS:          0  HIT %:        100  MISS %:          0   MPKI: 0
PSCL5 PREFETCH  REQUESTED:          0  ISSUED:          0  USEFUL:          0  USELESS:          0
PSCL5 USEFUL LOAD PREFETCHES:          0 PREFETCH ISSUED TO LOWER LEVEL:          0  ACCURACY: -nan
PSCL5 TIMELY PREFETCHES:          0 LATE PREFETCHES: 0 DROPPED PREFETCHES: 0
PSCL5 PREFETCHES SAME FILL-ORIGIN LEVEL: 0 DIFFERENT FILL-ORIGIN LEVEL: 0

PSCL4 TOTAL     ACCESS:     550581  HIT:     550581  MISS:          0  HIT %:        100  MISS %:          0   MPKI: 0
PSCL4 LOAD TRANSLATION ACCESS:       4064  HIT:       4064  MISS:          0  HIT %:        100  MISS %:          0   MPKI: 0
PSCL4 TRANSLATION FROM L1D PREFETCHER ACCESS:     546517  HIT:     546517  MISS:          0  HIT %:        100  MISS %:          0   MPKI: 0
PSCL4 PREFETCH  REQUESTED:          0  ISSUED:          0  USEFUL:          0  USELESS:          0
PSCL4 USEFUL LOAD PREFETCHES:          0 PREFETCH ISSUED TO LOWER LEVEL:          0  ACCURACY: -nan
PSCL4 TIMELY PREFETCHES:          0 LATE PREFETCHES: 0 DROPPED PREFETCHES: 0
PSCL4 PREFETCHES SAME FILL-ORIGIN LEVEL: 0 DIFFERENT FILL-ORIGIN LEVEL: 0

PSCL3 TOTAL     ACCESS:     550581  HIT:     550581  MISS:          0  HIT %:        100  MISS %:          0   MPKI: 0
PSCL3 LOAD TRANSLATION ACCESS:       4064  HIT:       4064  MISS:          0  HIT %:        100  MISS %:          0   MPKI: 0
PSCL3 TRANSLATION FROM L1D PREFETCHER ACCESS:     546517  HIT:     546517  MISS:          0  HIT %:        100  MISS %:          0   MPKI: 0
PSCL3 PREFETCH  REQUESTED:          0  ISSUED:          0  USEFUL:          0  USELESS:          0
PSCL3 USEFUL LOAD PREFETCHES:          0 PREFETCH ISSUED TO LOWER LEVEL:          0  ACCURACY: -nan
PSCL3 TIMELY PREFETCHES:          0 LATE PREFETCHES: 0 DROPPED PREFETCHES: 0
PSCL3 PREFETCHES SAME FILL-ORIGIN LEVEL: 0 DIFFERENT FILL-ORIGIN LEVEL: 0

PSCL2 TOTAL     ACCESS:     549384  HIT:     549376  MISS:          8  HIT %:    99.9985  MISS %: 0.00145618   MPKI: 4e-05
PSCL2 LOAD TRANSLATION ACCESS:       4064  HIT:       4056  MISS:          8  HIT %:    99.8031  MISS %:    0.19685   MPKI: 4e-05
PSCL2 TRANSLATION FROM L1D PREFETCHER ACCESS:     545320  HIT:     545320  MISS:          0  HIT %:        100  MISS %:          0   MPKI: 0
PSCL2 PREFETCH  REQUESTED:          0  ISSUED:          0  USEFUL:          0  USELESS:          0
PSCL2 USEFUL LOAD PREFETCHES:          0 PREFETCH ISSUED TO LOWER LEVEL:          0  ACCURACY: -nan
PSCL2 TIMELY PREFETCHES:          0 LATE PREFETCHES: 0 DROPPED PREFETCHES: 0
PSCL2 PREFETCHES SAME FILL-ORIGIN LEVEL: 0 DIFFERENT FILL-ORIGIN LEVEL: 0

LLC TOTAL     ACCESS:     314890  HIT:      49908  MISS:     264982  HIT %:    15.8493  MISS %:    84.1507   MPKI: 1.32491
LLC LOAD      ACCESS:       2606  HIT:          0  MISS:       2606  HIT %:          0  MISS %:        100   MPKI: 0.01303
LLC RFO       ACCESS:      53372  HIT:          0  MISS:      53372  HIT %:          0  MISS %:        100   MPKI: 0.26686
LLC PREFETCH  ACCESS:     204116  HIT:          0  MISS:     204116  HIT %:          0  MISS %:        100   MPKI: 1.02058
LLC WRITEBACK ACCESS:      54278  HIT:      49907  MISS:       4371  HIT %:     91.947  MISS %:    8.05299   MPKI: 0.021855
LLC LOAD TRANSLATION ACCESS:        107  HIT:          1  MISS:        106  HIT %:   0.934579  MISS %:    99.0654   MPKI: 0.00053
LLC TRANSLATION FROM L1D PREFETCHER ACCESS:        411  HIT:          0  MISS:        411  HIT %:          0  MISS %:        100   MPKI: 0.002055
LLC PREFETCH  REQUESTED:          0  ISSUED:          0  USEFUL:          0  USELESS:     815814
LLC USEFUL LOAD PREFETCHES:          0 PREFETCH ISSUED TO LOWER LEVEL:     816537  ACCURACY: 0
LLC TIMELY PREFETCHES:          0 LATE PREFETCHES: 0 DROPPED PREFETCHES: 0
LLC PREFETCHES SAME FILL-ORIGIN LEVEL: 0 DIFFERENT FILL-ORIGIN LEVEL: 0
LLC AVERAGE MISS LATENCY: 471.551 cycles
LLC RQ	ACCESS:     226019	FORWARD:          0	MERGED:          0	TO_CACHE:     226019
LLC WQ	ACCESS:     217073	FORWARD:          0	MERGED:          0	TO_CACHE:     217073
LLC PQ	ACCESS:     816537	FORWARD:          0	MERGED:          0	TO_CACHE:     816537

LLC Dense regions hint to LLC: 0

RAW hits: 2742507
Loads Generated: 28168432
Loads sent to L1D: 25425923
Stores Generated: 10247303
Stores sent to L1D: 10247314
Major fault: 0 Minor fault: 5120
Allocated PAGES: 20480

CPU 3 cumulative IPC: 0.853065 instructions: 200000000 cycles: 234448786
ITLB TOTAL     ACCESS:   36094368  HIT:   36094368  MISS:          0  HIT %:        100  MISS %:          0   MPKI: 0
ITLB LOAD TRANSLATION ACCESS:   36094368  HIT:   36094368  MISS:          0  HIT %:        100  MISS %:          0   MPKI: 0
ITLB PREFETCH  REQUESTED:          0  ISSUED:          0  USEFUL:          0  USELESS:          0
ITLB USEFUL LOAD PREFETCHES:          0 PREFETCH ISSUED TO LOWER LEVEL:          0  ACCURACY: -nan
ITLB TIMELY PREFETCHES:          0 LATE PREFETCHES: 0 DROPPED PREFETCHES: 0
ITLB PREFETCHES SAME FILL-ORIGIN LEVEL: 0 DIFFERENT FILL-ORIGIN LEVEL: 0
ITLB AVERAGE MISS LATENCY: -nan cycles
ITLB RQ	ACCESS:   38601660	FORWARD:          0	MERGED:    2507293	TO_CACHE:   36094367

DTLB TOTAL     ACCESS:   26118742  HIT:   26114677  MISS:       4065  HIT %:    99.9844  MISS %:  0.0155635   MPKI: 0.020325
DTLB LOAD TRANSLATION ACCESS:   26118742  HIT:   26114677  MISS:       4065  HIT %:    99.9844  MISS %:  0.0155635   MPKI: 0.020325
DTLB PREFETCH  REQUESTED:          0  ISSUED:          0  USEFUL:          0  USELESS:          0
DTLB USEFUL LOAD PREFETCHES:          0 PREFETCH ISSUED TO LOWER LEVEL:          0  ACCURACY: -nan
DTLB TIMELY PREFETCHES:          0 LATE PREFETCHES: 0 DROPPED PREFETCHES: 0
DTLB PREFETCHES SAME FILL-ORIGIN LEVEL: 0 DIFFERENT FILL-ORIGIN LEVEL: 0
DTLB AVERAGE MISS LATENCY: 125.64 cycles
DTLB RQ	ACCESS:   29464341	FORWARD:          0	MERGED:    3345575	TO_CACHE:   26118766

STLB TOTAL     ACCESS:    5175403  HIT:    5171337  MISS:       4066  HIT %:    99.9214  MISS %:  0.0785639   MPKI: 0.02033
STLB LOAD TRANSLATION ACCESS:       4065  HIT:          0  MISS:       4065  HIT %:          0  MISS %:        100   MPKI: 0.020325
STLB TRANSLATION FROM L1D PREFETCHER ACCESS:    5171338  HIT:    5171337  MISS:          1  HIT %:        100  MISS %: 1.93374e-05   MPKI: 5e-06
STLB PREFETCH  REQUESTED:          0  ISSUED:          0  USEFUL:          1  USELESS:          0
STLB USEFUL LOAD PREFETCHES:          1 PREFETCH ISSUED TO LOWER LEVEL:          0  ACCURACY: inf
STLB TIMELY PREFETCHES:          1 LATE PREFETCHES: 443 DROPPED PREFETCHES: 540658
STLB PREFETCHES SAME FILL-ORIGIN LEVEL: 0 DIFFERENT FILL-ORIGIN LEVEL: 0
STLB AVERAGE MISS LATENCY: 117.679 cycles
STLB RQ	ACCESS:   38750806	FORWARD:          0	MERGED:   33029460	TO_CACHE:    5721346

STLB Hit, L1D data hit: 0
STLB Hit, L2C data hit: 0
STLB Hit, LLC data hit: 0
STLB Hit, LLC data miss: 0
STLB STLB hints to L2: 0
L1D TOTAL     ACCESS:   58942345  HIT:   58682252  MISS:     260093  HIT %:    99.5587  MISS %:   0.441267   MPKI: 1.30046
L1D LOAD      ACCESS:   19215065  HIT:   19211829  MISS:       3236  HIT %:    99.9832  MISS %:   0.016841   MPKI: 0.01618
L1D RFO       ACCESS:   10242947  HIT:   10189575  MISS:      53372  HIT %:    99.4789  MISS %:   0.521061   MPKI: 0.26686
L1D PREFETCH  ACCESS:   29484333  HIT:   29280848  MISS:     203485  HIT %:    99.3099  MISS %:   0.690146   MPKI: 1.01743
L1D PREFETCH  REQUESTED:  107595559  ISSUED:  107073476  USEFUL:     203487  USELESS:          8
L1D USEFUL LOAD PREFETCHES:     203487 PREFETCH ISSUED TO LOWER LEVEL:    7186670  ACCURACY: 2.83145
L1D TIMELY PREFETCHES:     203487 LATE PREFETCHES: 631 DROPPED PREFETCHES: 2206769
L1D PREFETCHES SAME FILL-ORIGIN LEVEL: 204120 DIFFERENT FILL-ORIGIN LEVEL: 6982550
L1D AVERAGE MISS LATENCY: 92.793 cycles
L1D RQ	ACCESS:   25425932	FORWARD:          0	MERGED:    6194608	TO_CACHE:   19217036
L1D WQ	ACCESS:   10247305	FORWARD:      14288	MERGED:          0	TO_CACHE:   10247305
L1D PQ	ACCESS:   68326735	FORWARD:          0	MERGED:   29579994	TO_CACHE:   38746741

L1D UNIQUE REGIONS ACCESSED: 0
L1D REGIONS CONFLICTS: 0
L1D Cross Page Prefetch Requests: 6214653
L1D Same Page Prefetch Requests: 86043547
L1D ROI Sum of L1D PQ occupancy: 556439452
L1D PREFETCHES PUSHED FROM L2C: 0
L1I TOTAL     ACCESS:   38601661  HIT:   38601661  MISS:          0  HIT %:        100  MISS %:          0   MPKI: 0
L1I LOAD      ACCESS:   38601661  HIT:   38601661  MISS:          0  HIT %:        100  MISS %:          0   MPKI: 0
L1I PREFETCH  REQUESTED:          0  ISSUED:          0  USEFUL:          0  USELESS:          0
L1I USEFUL LOAD PREFETCHES:          0 PREFETCH ISSUED TO LOWER LEVEL:          0  ACCURACY: -nan
L1I TIMELY PREFETCHES:          0 LATE PREFETCHES: 0 DROPPED PREFETCHES: 0
L1I PREFETCHES SAME FILL-ORIGIN LEVEL: 0 DIFFERENT FILL-ORIGIN LEVEL: 0
L1I AVERAGE MISS LATENCY: -nan cycles
L1I RQ	ACCESS:   55255664	FORWARD:          0	MERGED:   16654004	TO_CACHE:   38601660

BTB TOTAL     ACCESS:   33643828  HIT:   33643814  MISS:         14  HIT %:        100  MISS %: 4.16124e-05   MPKI: 7e-05
BTB BRANCH_DIRECT_JUMP	ACCESS:    8106620  HIT:    8106617  MISS:          3
BTB BRANCH_INDIRECT	ACCESS:          0  HIT:          0  MISS:          0
BTB BRANCH_CONDITIONAL	ACCESS:   23829324  HIT:   23829315  MISS:          9
BTB BRANCH_DIRECT_CALL	ACCESS:     853942  HIT:     853941  MISS:          1
BTB BRANCH_INDIRECT_CALL	ACCESS:          0  HIT:          0  MISS:          0
BTB BRANCH_RETURN	ACCESS:     853942  HIT:     853941  MISS:          1
BTB BRANCH_OTHER ACCESS:          0  HIT:          0  MISS:          0

L2C TOTAL     ACCESS:    7745809  HIT:    7472731  MISS:     273078  HIT %:    96.4745  MISS %:    3.52549   MPKI: 1.36539
L2C LOAD      ACCESS:       2605  HIT:          3  MISS:       2602  HIT %:   0.115163  MISS %:    99.8848   MPKI: 0.01301
L2C DATA LOAD MPKI: 0.01301
L2C INSTRUCTION LOAD MPKI: 0
L2C RFO       ACCESS:      53372  HIT:          0  MISS:      53372  HIT %:          0  MISS %:        100   MPKI: 0.26686
L2C PREFETCH  ACCESS:    7091300  HIT:    6887177  MISS:     204123  HIT %:    97.1215  MISS %:     2.8785   MPKI: 1.02062
L2C DATA PREFETCH MPKI: 1.02062
L2C INSTRUCTION PREFETCH MPKI: 0
L2C WRITEBACK ACCESS:      53365  HIT:      40904  MISS:      12461  HIT %:    76.6495  MISS %:    23.3505   MPKI: 0.062305
L2C LOAD TRANSLATION ACCESS:       4065  HIT:       3956  MISS:        109  HIT %:    97.3186  MISS %:    2.68143   MPKI: 0.000545
L2C TRANSLATION FROM L1D PREFETCHER ACCESS:     541102  HIT:     540691  MISS:        411  HIT %:     99.924  MISS %:  0.0759561   MPKI: 0.002055
L2C PREFETCH  REQUESTED:          0  ISSUED:          0  USEFUL:        413  USELESS:     203305
L2C USEFUL LOAD PREFETCHES:        413 PREFETCH ISSUED TO LOWER LEVEL:     204127  ACCURACY: 0.202325
L2C TIMELY PREFETCHES:        413 LATE PREFETCHES: 0 DROPPED PREFETCHES: 0
L2C PREFETCHES SAME FILL-ORIGIN LEVEL: 122946 DIFFERENT FILL-ORIGIN LEVEL: 0
L2C AVERAGE MISS LATENCY: 143.099 cycles
L2C RQ	ACCESS:     601144	FORWARD:          0	MERGED:          0	TO_CACHE:     601144
L2C WQ	ACCESS:      53365	FORWARD:          0	MERGED:          0	TO_CACHE:      53365
L2C PQ	ACCESS:    7186670	FORWARD:          0	MERGED:        808	TO_CACHE:    7185862

L2C Instructions Evicting Data 0
L2C Translations Evicting Data 520
L2C Data Evicting Data 259624
L2C Instructions Evicting Instructions 0
L2C Translations Evicting Instructions 0
L2C Data Evicting Instructions 0
L2C Instructions Evicting Translations 0
L2C Translations Evicting Translations 0
L2C Data Evicting Translations 473
L2C Dense regions hint from L2: 0
PSCL5 TOTAL     ACCESS:     545167  HIT:     545167  MISS:          0  HIT %:        100  MISS %:          0   MPKI: 0
PSCL5 LOAD TRANSLATION ACCESS:       4065  HIT:       4065  MISS:          0  HIT %:        100  MISS %:          0   MPKI: 0
PSCL5 TRANSLATION FROM L1D PREFETCHER ACCESS:     541102  HIT:     541102  MISS:          0  HIT %:        100  MISS %:          0   MPKI: 0
PSCL5 PREFETCH  REQUESTED:          0  ISSUED:          0  USEFUL:          0  USELESS:          0
PSCL5 USEFUL LOAD PREFETCHES:          0 PREFETCH ISSUED TO LOWER LEVEL:          0  ACCURACY: -nan
PSCL5 TIMELY PREFETCHES:          0 LATE PREFETCHES: 0 DROPPED PREFETCHES: 0
PSCL5 PREFETCHES SAME FILL-ORIGIN LEVEL: 0 DIFFERENT FILL-ORIGIN LEVEL: 0

PSCL4 TOTAL     ACCESS:     545167  HIT:     545167  MISS:          0  HIT %:        100  MISS %:          0   MPKI: 0
PSCL4 LOAD TRANSLATION ACCESS:       4065  HIT:       4065  MISS:          0  HIT %:        100  MISS %:          0   MPKI: 0
PSCL4 TRANSLATION FROM L1D PREFETCHER ACCESS:     541102  HIT:     541102  MISS:          0  HIT %:        100  MISS %:          0   MPKI: 0
PSCL4 PREFETCH  REQUESTED:          0  ISSUED:          0  USEFUL:          0  USELESS:          0
PSCL4 USEFUL LOAD PREFETCHES:          0 PREFETCH ISSUED TO LOWER LEVEL:          0  ACCURACY: -nan
PSCL4 TIMELY PREFETCHES:          0 LATE PREFETCHES: 0 DROPPED PREFETCHES: 0
PSCL4 PREFETCHES SAME FILL-ORIGIN LEVEL: 0 DIFFERENT FILL-ORIGIN LEVEL: 0

PSCL3 TOTAL     ACCESS:     545167  HIT:     545167  MISS:          0  HIT %:        100  MISS %:          0   MPKI: 0
PSCL3 LOAD TRANSLATION ACCESS:       4065  HIT:       4065  MISS:          0  HIT %:        100  MISS %:          0   MPKI: 0
PSCL3 TRANSLATION FROM L1D PREFETCHER ACCESS:     541102  HIT:     541102  MISS:          0  HIT %:        100  MISS %:          0   MPKI: 0
PSCL3 PREFETCH  REQUESTED:          0  ISSUED:          0  USEFUL:          0  USELESS:          0
PSCL3 USEFUL LOAD PREFETCHES:          0 PREFETCH ISSUED TO LOWER LEVEL:          0  ACCURACY: -nan
PSCL3 TIMELY PREFETCHES:          0 LATE PREFETCHES: 0 DROPPED PREFETCHES: 0
PSCL3 PREFETCHES SAME FILL-ORIGIN LEVEL: 0 DIFFERENT FILL-ORIGIN LEVEL: 0

PSCL2 TOTAL     ACCESS:     544163  HIT:     544155  MISS:          8  HIT %:    99.9985  MISS %: 0.00147015   MPKI: 4e-05
PSCL2 LOAD TRANSLATION ACCESS:       4065  HIT:       4057  MISS:          8  HIT %:    99.8032  MISS %:   0.196802   MPKI: 4e-05
PSCL2 TRANSLATION FROM L1D PREFETCHER ACCESS:     540098  HIT:     540098  MISS:          0  HIT %:        100  MISS %:          0   MPKI: 0
PSCL2 PREFETCH  REQUESTED:          0  ISSUED:          0  USEFUL:          0  USELESS:          0
PSCL2 USEFUL LOAD PREFETCHES:          0 PREFETCH ISSUED TO LOWER LEVEL:          0  ACCURACY: -nan
PSCL2 TIMELY PREFETCHES:          0 LATE PREFETCHES: 0 DROPPED PREFETCHES: 0
PSCL2 PREFETCHES SAME FILL-ORIGIN LEVEL: 0 DIFFERENT FILL-ORIGIN LEVEL: 0

LLC TOTAL     ACCESS:     314821  HIT:      49434  MISS:     265387  HIT %:    15.7023  MISS %:    84.2977   MPKI: 1.32693
LLC LOAD      ACCESS:       2602  HIT:          0  MISS:       2602  HIT %:          0  MISS %:        100   MPKI: 0.01301
LLC RFO       ACCESS:      53372  HIT:          0  MISS:      53372  HIT %:          0  MISS %:        100   MPKI: 0.26686
LLC PREFETCH  ACCESS:     204127  HIT:          0  MISS:     204127  HIT %:          0  MISS %:        100   MPKI: 1.02063
LLC WRITEBACK ACCESS:      54200  HIT:      49432  MISS:       4768  HIT %:     91.203  MISS %:    8.79705   MPKI: 0.02384
LLC LOAD TRANSLATION ACCESS:        109  HIT:          2  MISS:        107  HIT %:    1.83486  MISS %:    98.1651   MPKI: 0.000535
LLC TRANSLATION FROM L1D PREFETCHER ACCESS:        411  HIT:          0  MISS:        411  HIT %:          0  MISS %:        100   MPKI: 0.002055
LLC PREFETCH  REQUESTED:          0  ISSUED:          0  USEFUL:          0  USELESS:     815814
LLC USEFUL LOAD PREFETCHES:          0 PREFETCH ISSUED TO LOWER LEVEL:     816537  ACCURACY: 0
LLC TIMELY PREFETCHES:          0 LATE PREFETCHES: 0 DROPPED PREFETCHES: 0
LLC PREFETCHES SAME FILL-ORIGIN LEVEL: 0 DIFFERENT FILL-ORIGIN LEVEL: 0
LLC AVERAGE MISS LATENCY: 470.832 cycles
LLC RQ	ACCESS:     226019	FORWARD:          0	MERGED:          0	TO_CACHE:     226019
LLC WQ	ACCESS:     217073	FORWARD:          0	MERGED:          0	TO_CACHE:     217073
LLC PQ	ACCESS:     816537	FORWARD:          0	MERGED:          0	TO_CACHE:     816537

LLC Dense regions hint to LLC: 0

RAW hits: 2742509
Loads Generated: 28168442
Loads sent to L1D: 25425932
Stores Generated: 10247303
Stores sent to L1D: 10247305
Major fault: 0 Minor fault: 5120
Allocated PAGES: 20480

DRAM Statistics
 CHANNEL 0
 RQ ROW_BUFFER_HIT:     611310  ROW_BUFFER_MISS:     431240
 DBUS_CONGESTED:       3322
 WQ ROW_BUFFER_HIT:      35373  ROW_BUFFER_MISS:     179816  FULL:          0

 AVG_CONGESTED_CYCLE: 5
 All warmup complete: 5
Channel 0 Bank busy for read cycles: 0
Channel 0 Bank busy for write cycles: 0
Channel 0
Rank 0
0banks busy for read cycles: 130099371
0banks busy for write cycles: 149571
1banks busy for read cycles: 63178077
1banks busy for write cycles: 22545329
2banks busy for read cycles: 10101881
2banks busy for write cycles: 4501546
3banks busy for read cycles: 1042954
3banks busy for write cycles: 908045
4banks busy for read cycles: 220661
4banks busy for write cycles: 250964
5banks busy for read cycles: 156681
5banks busy for write cycles: 134630
6banks busy for read cycles: 138987
6banks busy for write cycles: 97467
7banks busy for read cycles: 166051
7banks busy for write cycles: 69192
8banks busy for read cycles: 637925
8banks busy for write cycles: 49454

CPU 0 Branch Prediction Accuracy: 97.7675% MPKI: 6.75602 Average ROB Occupancy at Mispredict: 81.8536
Branch types
NOT_BRANCH: 139487987 69.7371%
BRANCH_DIRECT_JUMP: 8107407 4.05331%
BRANCH_INDIRECT: 0 0%
BRANCH_CONDITIONAL: 50715974 25.3555%
BRANCH_DIRECT_CALL: 854027 0.426972%
BRANCH_INDIRECT_CALL: 0 0%
BRANCH_RETURN: 854028 0.426972%
BRANCH_OTHER: 0 0%


CPU 1 Branch Prediction Accuracy: 97.7675% MPKI: 6.75602 Average ROB Occupancy at Mispredict: 81.8517
Branch types
NOT_BRANCH: 139478462 69.7371%
BRANCH_DIRECT_JUMP: 8106858 4.05331%
BRANCH_INDIRECT: 0 0%
BRANCH_CONDITIONAL: 50712506 25.3555%
BRANCH_DIRECT_CALL: 853968 0.426971%
BRANCH_INDIRECT_CALL: 0 0%
BRANCH_RETURN: 853968 0.426971%
BRANCH_OTHER: 0 0%


CPU 2 Branch Prediction Accuracy: 97.7675% MPKI: 6.75603 Average ROB Occupancy at Mispredict: 81.8524
Branch types
NOT_BRANCH: 139478358 69.7371%
BRANCH_DIRECT_JUMP: 8106852 4.05331%
BRANCH_INDIRECT: 0 0%
BRANCH_CONDITIONAL: 50712474 25.3555%
BRANCH_DIRECT_CALL: 853967 0.426971%
BRANCH_INDIRECT_CALL: 0 0%
BRANCH_RETURN: 853967 0.426971%
BRANCH_OTHER: 0 0%


CPU 3 Branch Prediction Accuracy: 97.7676% MPKI: 6.75598 Average ROB Occupancy at Mispredict: 81.8526
Branch types
NOT_BRANCH: 139474344 69.7372%
BRANCH_DIRECT_JUMP: 8106620 4.05331%
BRANCH_INDIRECT: 0 0%
BRANCH_CONDITIONAL: 50711013 25.3555%
BRANCH_DIRECT_CALL: 853942 0.426971%
BRANCH_INDIRECT_CALL: 0 0%
BRANCH_RETURN: 853942 0.426971%
BRANCH_OTHER: 0 0%

DRAM PAGES: 1048576
Allocated PAGES: 20480
