
*** ChampSim Multicore Out-of-Order Simulator ***

Warmup Instructions: 50000000
Simulation Instructions: 200000000
Number of CPUs: 4
LLC sets: 8192
LLC ways: 16
Off-chip DRAM Size: 4096 MB Channels: 1 Width: 64-bit Data Rate: 6400 MT/s
CPU 0 runs ./traces/cs/nutch_phase5_core0.trace.xz
.xz
CPU 1 runs ./traces/cs/nutch_phase5_core1.trace.xz
.xz
CPU 2 runs ./traces/cs/nutch_phase5_core2.trace.xz
.xz
CPU 3 runs ./traces/cs/nutch_phase5_core3.trace.xz
.xz
BTB has LRU replacement policy
ITLB has LRU replacement policy
DTLB has LRU replacement policy
STLB has LRU replacement policy
L1I has LRU replacement policy
History Sets: 8
History Ways: 16
BERTI Size: 16
BERTI Stride Size: 8
L1D has LRU replacement policy
Initialize SRRIP state for L2C
Initialize DRRIP state for LLC
BTB has LRU replacement policy
ITLB has LRU replacement policy
DTLB has LRU replacement policy
STLB has LRU replacement policy
L1I has LRU replacement policy
History Sets: 8
History Ways: 16
BERTI Size: 16
BERTI Stride Size: 8
L1D has LRU replacement policy
Initialize SRRIP state for L2C
Initialize DRRIP state for LLC
BTB has LRU replacement policy
ITLB has LRU replacement policy
DTLB has LRU replacement policy
STLB has LRU replacement policy
L1I has LRU replacement policy
History Sets: 8
History Ways: 16
BERTI Size: 16
BERTI Stride Size: 8
L1D has LRU replacement policy
Initialize SRRIP state for L2C
Initialize DRRIP state for LLC
BTB has LRU replacement policy
ITLB has LRU replacement policy
DTLB has LRU replacement policy
STLB has LRU replacement policy
L1I has LRU replacement policy
History Sets: 8
History Ways: 16
BERTI Size: 16
BERTI Stride Size: 8
L1D has LRU replacement policy
Initialize SRRIP state for L2C
Initialize DRRIP state for LLC
UNIQUE_ASID[0] = €
UNIQUE_ASID[1] = 
Heartbeat CPU 0 instructions: 10000003 cycles: 2770761 heartbeat IPC: 3.60912 cumulative IPC: 3.60912 (Simulation time: 0 hr 2 min 6 sec) 
Heartbeat CPU 1 instructions: 10000002 cycles: 2773079 heartbeat IPC: 3.6061 cumulative IPC: 3.6061 (Simulation time: 0 hr 2 min 6 sec) 
Heartbeat CPU 3 instructions: 10000002 cycles: 2776380 heartbeat IPC: 3.60181 cumulative IPC: 3.60181 (Simulation time: 0 hr 2 min 6 sec) 
Heartbeat CPU 2 instructions: 10000002 cycles: 2820660 heartbeat IPC: 3.54527 cumulative IPC: 3.54527 (Simulation time: 0 hr 2 min 9 sec) 
Heartbeat CPU 0 instructions: 20000002 cycles: 5532852 heartbeat IPC: 3.62045 cumulative IPC: 3.61477 (Simulation time: 0 hr 4 min 28 sec) 
Heartbeat CPU 1 instructions: 20000001 cycles: 5537929 heartbeat IPC: 3.61683 cumulative IPC: 3.61146 (Simulation time: 0 hr 4 min 28 sec) 
Heartbeat CPU 3 instructions: 20000003 cycles: 5547068 heartbeat IPC: 3.60921 cumulative IPC: 3.60551 (Simulation time: 0 hr 4 min 28 sec) 
Heartbeat CPU 2 instructions: 20000001 cycles: 5592466 heartbeat IPC: 3.60776 cumulative IPC: 3.57624 (Simulation time: 0 hr 4 min 30 sec) 
Heartbeat CPU 0 instructions: 30000000 cycles: 8290866 heartbeat IPC: 3.6258 cumulative IPC: 3.61844 (Simulation time: 0 hr 6 min 19 sec) 
Heartbeat CPU 1 instructions: 30000003 cycles: 8299759 heartbeat IPC: 3.62079 cumulative IPC: 3.61456 (Simulation time: 0 hr 6 min 20 sec) 
Heartbeat CPU 3 instructions: 30000001 cycles: 8317572 heartbeat IPC: 3.60945 cumulative IPC: 3.60682 (Simulation time: 0 hr 6 min 21 sec) 
Heartbeat CPU 2 instructions: 30000003 cycles: 8363305 heartbeat IPC: 3.60902 cumulative IPC: 3.5871 (Simulation time: 0 hr 6 min 24 sec) 
Heartbeat CPU 0 instructions: 40000003 cycles: 11049095 heartbeat IPC: 3.62552 cumulative IPC: 3.62021 (Simulation time: 0 hr 8 min 37 sec) 
Heartbeat CPU 1 instructions: 40000002 cycles: 11060999 heartbeat IPC: 3.62156 cumulative IPC: 3.61631 (Simulation time: 0 hr 8 min 38 sec) 
Heartbeat CPU 3 instructions: 40000003 cycles: 11088726 heartbeat IPC: 3.60861 cumulative IPC: 3.60727 (Simulation time: 0 hr 8 min 39 sec) 
Heartbeat CPU 2 instructions: 40000001 cycles: 11133305 heartbeat IPC: 3.61011 cumulative IPC: 3.59282 (Simulation time: 0 hr 8 min 42 sec) 
Heartbeat CPU 0 instructions: 50000001 cycles: 13806203 heartbeat IPC: 3.62699 cumulative IPC: 3.62156 (Simulation time: 0 hr 10 min 45 sec) 
Heartbeat CPU 1 instructions: 50000000 cycles: 13822098 heartbeat IPC: 3.62175 cumulative IPC: 3.6174 (Simulation time: 0 hr 10 min 46 sec) 
Heartbeat CPU 3 instructions: 50000000 cycles: 13859986 heartbeat IPC: 3.60847 cumulative IPC: 3.60751 (Simulation time: 0 hr 10 min 49 sec) 
Heartbeat CPU 2 instructions: 50000003 cycles: 13903004 heartbeat IPC: 3.6105 cumulative IPC: 3.59635 (Simulation time: 0 hr 10 min 51 sec) 

Warmup complete CPU 0 instructions: 50351039 cycles: 13903004 (Simulation time: 0 hr 10 min 51 sec) 
Warmup complete CPU 1 instructions: 50293038 cycles: 13903004 (Simulation time: 0 hr 10 min 51 sec) 
Warmup complete CPU 2 instructions: 50000003 cycles: 13903004 (Simulation time: 0 hr 10 min 51 sec) 
Warmup complete CPU 3 instructions: 50155190 cycles: 13903003 (Simulation time: 0 hr 10 min 51 sec) 

Heartbeat CPU 1 instructions: 60000000 cycles: 19611941 heartbeat IPC: 1.72716 cumulative IPC: 1.70031 (Simulation time: 0 hr 14 min 0 sec) 
Heartbeat CPU 3 instructions: 60000002 cycles: 19745992 heartbeat IPC: 1.69895 cumulative IPC: 1.68489 (Simulation time: 0 hr 14 min 4 sec) 
Heartbeat CPU 0 instructions: 60000001 cycles: 20177751 heartbeat IPC: 1.56948 cumulative IPC: 1.53775 (Simulation time: 0 hr 14 min 19 sec) 
Heartbeat CPU 2 instructions: 60000001 cycles: 23532279 heartbeat IPC: 1.0385 cumulative IPC: 1.0385 (Simulation time: 0 hr 16 min 11 sec) 
Heartbeat CPU 1 instructions: 70000002 cycles: 26022773 heartbeat IPC: 1.55986 cumulative IPC: 1.62602 (Simulation time: 0 hr 17 min 17 sec) 
Heartbeat CPU 3 instructions: 70000003 cycles: 26495401 heartbeat IPC: 1.48161 cumulative IPC: 1.57594 (Simulation time: 0 hr 17 min 23 sec) 
Heartbeat CPU 0 instructions: 70000000 cycles: 26529792 heartbeat IPC: 1.5743 cumulative IPC: 1.55613 (Simulation time: 0 hr 17 min 24 sec) 
Heartbeat CPU 2 instructions: 70000000 cycles: 34140333 heartbeat IPC: 0.94268 cumulative IPC: 0.988273 (Simulation time: 0 hr 19 min 30 sec) 
Heartbeat CPU 0 instructions: 80000000 cycles: 38014105 heartbeat IPC: 0.870753 cumulative IPC: 1.22968 (Simulation time: 0 hr 20 min 20 sec) 
Heartbeat CPU 1 instructions: 80000003 cycles: 38043995 heartbeat IPC: 0.831862 cumulative IPC: 1.23056 (Simulation time: 0 hr 20 min 20 sec) 
Heartbeat CPU 3 instructions: 80000003 cycles: 38450393 heartbeat IPC: 0.836471 cumulative IPC: 1.2158 (Simulation time: 0 hr 20 min 26 sec) 
Heartbeat CPU 2 instructions: 80000002 cycles: 45386273 heartbeat IPC: 0.88921 cumulative IPC: 0.952887 (Simulation time: 0 hr 22 min 19 sec) 
Heartbeat CPU 1 instructions: 90000003 cycles: 48294090 heartbeat IPC: 0.975601 cumulative IPC: 1.15457 (Simulation time: 0 hr 23 min 15 sec) 
Heartbeat CPU 0 instructions: 90000002 cycles: 48778141 heartbeat IPC: 0.92902 cumulative IPC: 1.13688 (Simulation time: 0 hr 23 min 23 sec) 
Heartbeat CPU 3 instructions: 90000001 cycles: 48801473 heartbeat IPC: 0.966083 cumulative IPC: 1.14174 (Simulation time: 0 hr 23 min 23 sec) 
Heartbeat CPU 2 instructions: 90000000 cycles: 56164496 heartbeat IPC: 0.927797 cumulative IPC: 0.946488 (Simulation time: 0 hr 25 min 41 sec) 
Heartbeat CPU 0 instructions: 100000000 cycles: 58619669 heartbeat IPC: 1.0161 cumulative IPC: 1.1103 (Simulation time: 0 hr 26 min 21 sec) 
Heartbeat CPU 1 instructions: 100000001 cycles: 58642252 heartbeat IPC: 0.966355 cumulative IPC: 1.11104 (Simulation time: 0 hr 26 min 22 sec) 
Heartbeat CPU 3 instructions: 100000000 cycles: 60395042 heartbeat IPC: 0.862547 cumulative IPC: 1.07211 (Simulation time: 0 hr 27 min 11 sec) 
Heartbeat CPU 1 instructions: 110000000 cycles: 64518743 heartbeat IPC: 1.7017 cumulative IPC: 1.17961 (Simulation time: 0 hr 29 min 34 sec) 
Heartbeat CPU 0 instructions: 110000000 cycles: 64570850 heartbeat IPC: 1.68034 cumulative IPC: 1.17725 (Simulation time: 0 hr 29 min 36 sec) 
Heartbeat CPU 3 instructions: 110000000 cycles: 66400850 heartbeat IPC: 1.66505 cumulative IPC: 1.13995 (Simulation time: 0 hr 30 min 31 sec) 
Heartbeat CPU 2 instructions: 100000000 cycles: 66751889 heartbeat IPC: 0.94452 cumulative IPC: 0.946094 (Simulation time: 0 hr 30 min 42 sec) 
Heartbeat CPU 1 instructions: 120000000 cycles: 70485234 heartbeat IPC: 1.67603 cumulative IPC: 1.23196 (Simulation time: 0 hr 32 min 42 sec) 
Heartbeat CPU 0 instructions: 120000000 cycles: 70554031 heartbeat IPC: 1.67135 cumulative IPC: 1.22944 (Simulation time: 0 hr 32 min 44 sec) 
Heartbeat CPU 3 instructions: 120000000 cycles: 72332353 heartbeat IPC: 1.68591 cumulative IPC: 1.19537 (Simulation time: 0 hr 33 min 41 sec) 
Heartbeat CPU 2 instructions: 110000000 cycles: 74637781 heartbeat IPC: 1.26809 cumulative IPC: 0.987902 (Simulation time: 0 hr 34 min 49 sec) 
Heartbeat CPU 1 instructions: 130000002 cycles: 76417343 heartbeat IPC: 1.68574 cumulative IPC: 1.27502 (Simulation time: 0 hr 35 min 57 sec) 
Heartbeat CPU 0 instructions: 130000001 cycles: 76472479 heartbeat IPC: 1.68963 cumulative IPC: 1.27297 (Simulation time: 0 hr 35 min 59 sec) 
Heartbeat CPU 3 instructions: 130000002 cycles: 78246917 heartbeat IPC: 1.69074 cumulative IPC: 1.24091 (Simulation time: 0 hr 36 min 53 sec) 
Heartbeat CPU 2 instructions: 120000003 cycles: 80581990 heartbeat IPC: 1.68231 cumulative IPC: 1.04981 (Simulation time: 0 hr 37 min 55 sec) 
Heartbeat CPU 1 instructions: 140000000 cycles: 82358738 heartbeat IPC: 1.68311 cumulative IPC: 1.31044 (Simulation time: 0 hr 38 min 43 sec) 
Heartbeat CPU 0 instructions: 140000000 cycles: 82464261 heartbeat IPC: 1.66895 cumulative IPC: 1.30757 (Simulation time: 0 hr 38 min 46 sec) 
Heartbeat CPU 3 instructions: 140000000 cycles: 84220383 heartbeat IPC: 1.67407 cumulative IPC: 1.2777 (Simulation time: 0 hr 39 min 34 sec) 
Heartbeat CPU 2 instructions: 130000001 cycles: 86496885 heartbeat IPC: 1.69065 cumulative IPC: 1.10202 (Simulation time: 0 hr 40 min 40 sec) 
Heartbeat CPU 1 instructions: 150000002 cycles: 88299290 heartbeat IPC: 1.68335 cumulative IPC: 1.34021 (Simulation time: 0 hr 41 min 45 sec) 
Heartbeat CPU 0 instructions: 150000002 cycles: 88389038 heartbeat IPC: 1.68783 cumulative IPC: 1.33782 (Simulation time: 0 hr 41 min 48 sec) 
Heartbeat CPU 3 instructions: 150000003 cycles: 90158982 heartbeat IPC: 1.6839 cumulative IPC: 1.30934 (Simulation time: 0 hr 42 min 44 sec) 
Heartbeat CPU 2 instructions: 140000002 cycles: 92450632 heartbeat IPC: 1.67961 cumulative IPC: 1.1458 (Simulation time: 0 hr 43 min 53 sec) 
Heartbeat CPU 1 instructions: 160000000 cycles: 94307006 heartbeat IPC: 1.66453 cumulative IPC: 1.36445 (Simulation time: 0 hr 44 min 52 sec) 
Heartbeat CPU 0 instructions: 160000000 cycles: 94789465 heartbeat IPC: 1.5624 cumulative IPC: 1.35559 (Simulation time: 0 hr 45 min 7 sec) 
Heartbeat CPU 3 instructions: 160000001 cycles: 96092654 heartbeat IPC: 1.6853 cumulative IPC: 1.33648 (Simulation time: 0 hr 45 min 48 sec) 
Heartbeat CPU 2 instructions: 150000000 cycles: 98394953 heartbeat IPC: 1.68228 cumulative IPC: 1.18354 (Simulation time: 0 hr 47 min 9 sec) 
Heartbeat CPU 1 instructions: 170000000 cycles: 100817558 heartbeat IPC: 1.53597 cumulative IPC: 1.37729 (Simulation time: 0 hr 48 min 16 sec) 
Heartbeat CPU 0 instructions: 170000003 cycles: 101151288 heartbeat IPC: 1.57188 cumulative IPC: 1.37136 (Simulation time: 0 hr 48 min 23 sec) 
Heartbeat CPU 3 instructions: 170000001 cycles: 102811696 heartbeat IPC: 1.48831 cumulative IPC: 1.34795 (Simulation time: 0 hr 48 min 50 sec) 
Heartbeat CPU 2 instructions: 160000001 cycles: 108051940 heartbeat IPC: 1.03552 cumulative IPC: 1.16836 (Simulation time: 0 hr 50 min 37 sec) 
Heartbeat CPU 0 instructions: 180000000 cycles: 112489820 heartbeat IPC: 0.881948 cumulative IPC: 1.31507 (Simulation time: 0 hr 52 min 1 sec) 
Heartbeat CPU 1 instructions: 180000002 cycles: 112572589 heartbeat IPC: 0.8507 cumulative IPC: 1.31456 (Simulation time: 0 hr 52 min 3 sec) 
Heartbeat CPU 3 instructions: 180000001 cycles: 114572021 heartbeat IPC: 0.850317 cumulative IPC: 1.28982 (Simulation time: 0 hr 52 min 50 sec) 
Heartbeat CPU 2 instructions: 170000003 cycles: 119055148 heartbeat IPC: 0.908826 cumulative IPC: 1.1412 (Simulation time: 0 hr 54 min 14 sec) 
Heartbeat CPU 1 instructions: 190000000 cycles: 122648916 heartbeat IPC: 0.992425 cumulative IPC: 1.28471 (Simulation time: 0 hr 55 min 6 sec) 
Heartbeat CPU 0 instructions: 190000000 cycles: 123024936 heartbeat IPC: 0.949206 cumulative IPC: 1.27975 (Simulation time: 0 hr 55 min 11 sec) 
Heartbeat CPU 3 instructions: 190000001 cycles: 124854278 heartbeat IPC: 0.972549 cumulative IPC: 1.26042 (Simulation time: 0 hr 55 min 39 sec) 
Heartbeat CPU 2 instructions: 180000002 cycles: 130555971 heartbeat IPC: 0.869503 cumulative IPC: 1.11442 (Simulation time: 0 hr 57 min 1 sec) 
Heartbeat CPU 0 instructions: 200000000 cycles: 132749706 heartbeat IPC: 1.0283 cumulative IPC: 1.25918 (Simulation time: 0 hr 57 min 53 sec) 
Heartbeat CPU 1 instructions: 200000003 cycles: 132828055 heartbeat IPC: 0.982402 cumulative IPC: 1.25883 (Simulation time: 0 hr 57 min 55 sec) 
Heartbeat CPU 3 instructions: 200000000 cycles: 136200709 heartbeat IPC: 0.881334 cumulative IPC: 1.22525 (Simulation time: 0 hr 59 min 18 sec) 
Heartbeat CPU 1 instructions: 210000003 cycles: 138717645 heartbeat IPC: 1.69791 cumulative IPC: 1.27955 (Simulation time: 1 hr 0 min 30 sec) 
Heartbeat CPU 0 instructions: 210000002 cycles: 138719868 heartbeat IPC: 1.675 cumulative IPC: 1.27907 (Simulation time: 1 hr 0 min 30 sec) 
Heartbeat CPU 2 instructions: 190000003 cycles: 140960823 heartbeat IPC: 0.96109 cumulative IPC: 1.10186 (Simulation time: 1 hr 1 min 48 sec) 
Heartbeat CPU 3 instructions: 210000002 cycles: 142196535 heartbeat IPC: 1.66783 cumulative IPC: 1.24593 (Simulation time: 1 hr 2 min 30 sec) 
Heartbeat CPU 1 instructions: 220000000 cycles: 144682627 heartbeat IPC: 1.67645 cumulative IPC: 1.29766 (Simulation time: 1 hr 3 min 58 sec) 
Heartbeat CPU 0 instructions: 220000000 cycles: 144739858 heartbeat IPC: 1.66113 cumulative IPC: 1.29665 (Simulation time: 1 hr 4 min 0 sec) 
Heartbeat CPU 3 instructions: 220000000 cycles: 148126654 heartbeat IPC: 1.68631 cumulative IPC: 1.26539 (Simulation time: 1 hr 5 min 58 sec) 
Heartbeat CPU 1 instructions: 230000002 cycles: 150614332 heartbeat IPC: 1.68586 cumulative IPC: 1.3145 (Simulation time: 1 hr 7 min 5 sec) 
Heartbeat CPU 0 instructions: 230000001 cycles: 150700191 heartbeat IPC: 1.67776 cumulative IPC: 1.31325 (Simulation time: 1 hr 7 min 7 sec) 
Heartbeat CPU 2 instructions: 200000000 cycles: 151325996 heartbeat IPC: 0.964769 cumulative IPC: 1.09152 (Simulation time: 1 hr 7 min 20 sec) 
Heartbeat CPU 3 instructions: 230000000 cycles: 154040555 heartbeat IPC: 1.69093 cumulative IPC: 1.28334 (Simulation time: 1 hr 8 min 21 sec) 
Heartbeat CPU 1 instructions: 240000003 cycles: 156554406 heartbeat IPC: 1.68348 cumulative IPC: 1.32986 (Simulation time: 1 hr 9 min 27 sec) 
Heartbeat CPU 0 instructions: 240000001 cycles: 156725993 heartbeat IPC: 1.65953 cumulative IPC: 1.32786 (Simulation time: 1 hr 9 min 31 sec) 
Heartbeat CPU 2 instructions: 210000001 cycles: 158941920 heartbeat IPC: 1.31304 cumulative IPC: 1.10315 (Simulation time: 1 hr 10 min 29 sec) 
Heartbeat CPU 3 instructions: 240000003 cycles: 160010361 heartbeat IPC: 1.6751 cumulative IPC: 1.29935 (Simulation time: 1 hr 10 min 55 sec) 
Heartbeat CPU 1 instructions: 250000000 cycles: 162494153 heartbeat IPC: 1.68357 cumulative IPC: 1.344 (Simulation time: 1 hr 11 min 58 sec) 
Finished CPU 1 instructions: 200000002 cycles: 148765133 cumulative IPC: 1.3444 (Simulation time: 1 hr 12 min 3 sec) 
Heartbeat CPU 0 instructions: 250000003 cycles: 162683858 heartbeat IPC: 1.67845 cumulative IPC: 1.3419 (Simulation time: 1 hr 12 min 4 sec) 
Finished CPU 0 instructions: 200000002 cycles: 148989983 cumulative IPC: 1.34237 (Simulation time: 1 hr 12 min 9 sec) 
Heartbeat CPU 2 instructions: 220000000 cycles: 164884331 heartbeat IPC: 1.68282 cumulative IPC: 1.12597 (Simulation time: 1 hr 12 min 57 sec) 
Heartbeat CPU 3 instructions: 250000001 cycles: 165950979 heartbeat IPC: 1.68333 cumulative IPC: 1.31435 (Simulation time: 1 hr 13 min 39 sec) 
Finished CPU 3 instructions: 200000000 cycles: 152140082 cumulative IPC: 1.31458 (Simulation time: 1 hr 13 min 42 sec) 
Heartbeat CPU 1 instructions: 260000000 cycles: 168349041 heartbeat IPC: 1.70797 cumulative IPC: 1.3578 (Simulation time: 1 hr 15 min 10 sec) 
Heartbeat CPU 0 instructions: 260000001 cycles: 169052493 heartbeat IPC: 1.57019 cumulative IPC: 1.35127 (Simulation time: 1 hr 15 min 32 sec) 
Heartbeat CPU 2 instructions: 230000003 cycles: 170798370 heartbeat IPC: 1.69089 cumulative IPC: 1.14726 (Simulation time: 1 hr 16 min 36 sec) 
Heartbeat CPU 3 instructions: 260000002 cycles: 171884554 heartbeat IPC: 1.68532 cumulative IPC: 1.32829 (Simulation time: 1 hr 17 min 15 sec) 
Heartbeat CPU 1 instructions: 270000000 cycles: 174582037 heartbeat IPC: 1.60436 cumulative IPC: 1.36737 (Simulation time: 1 hr 18 min 32 sec) 
Heartbeat CPU 0 instructions: 270000000 cycles: 175383346 heartbeat IPC: 1.57957 cumulative IPC: 1.36022 (Simulation time: 1 hr 18 min 53 sec) 
Heartbeat CPU 2 instructions: 240000002 cycles: 176750626 heartbeat IPC: 1.68004 cumulative IPC: 1.16673 (Simulation time: 1 hr 19 min 31 sec) 
Heartbeat CPU 3 instructions: 270000000 cycles: 178508555 heartbeat IPC: 1.50966 cumulative IPC: 1.33559 (Simulation time: 1 hr 20 min 3 sec) 
Heartbeat CPU 2 instructions: 250000003 cycles: 182693288 heartbeat IPC: 1.68275 cumulative IPC: 1.1849 (Simulation time: 1 hr 21 min 30 sec) 
Finished CPU 2 instructions: 200000000 cycles: 168790284 cumulative IPC: 1.1849 (Simulation time: 1 hr 21 min 30 sec) 

ChampSim completed all CPUs

Total Simulation Statistics (not including warmup)

CPU 0 cumulative IPC: 1.33915 instructions: 226035825 cycles: 168790284
ITLB TOTAL     ACCESS:   37282972  HIT:   36504123  MISS:     778849  HIT %:     97.911  MISS %:    2.08902   MPKI: 3.44569
ITLB LOAD      ACCESS:          0  HIT:          0  MISS:          0  HIT %:       -nan  MISS %:       -nan   MPKI: 0
ITLB RFO       ACCESS:          0  HIT:          0  MISS:          0  HIT %:       -nan  MISS %:       -nan   MPKI: 0
ITLB PREFETCH  ACCESS:          0  HIT:          0  MISS:          0  HIT %:       -nan  MISS %:       -nan   MPKI: 0
ITLB WRITEBACK ACCESS:          0  HIT:          0  MISS:          0  HIT %:       -nan  MISS %:       -nan   MPKI: 0
DTLB TOTAL     ACCESS:   28707360  HIT:   14446395  MISS:   14260965  HIT %:     50.323  MISS %:     49.677   MPKI: 63.0916
DTLB LOAD      ACCESS:          0  HIT:          0  MISS:          0  HIT %:       -nan  MISS %:       -nan   MPKI: 0
DTLB RFO       ACCESS:          0  HIT:          0  MISS:          0  HIT %:       -nan  MISS %:       -nan   MPKI: 0
DTLB PREFETCH  ACCESS:          0  HIT:          0  MISS:          0  HIT %:       -nan  MISS %:       -nan   MPKI: 0
DTLB WRITEBACK ACCESS:          0  HIT:          0  MISS:          0  HIT %:       -nan  MISS %:       -nan   MPKI: 0
STLB TOTAL     ACCESS:   19421463  HIT:   17574982  MISS:    1846481  HIT %:    90.4926  MISS %:    9.50742   MPKI: 8.16897
STLB LOAD      ACCESS:          0  HIT:          0  MISS:          0  HIT %:       -nan  MISS %:       -nan   MPKI: 0
STLB RFO       ACCESS:          0  HIT:          0  MISS:          0  HIT %:       -nan  MISS %:       -nan   MPKI: 0
STLB PREFETCH  ACCESS:          0  HIT:          0  MISS:          0  HIT %:       -nan  MISS %:       -nan   MPKI: 0
STLB WRITEBACK ACCESS:          0  HIT:          0  MISS:          0  HIT %:       -nan  MISS %:       -nan   MPKI: 0
L1D TOTAL     ACCESS:   51378473  HIT:   51115863  MISS:     262610  HIT %:    99.4889  MISS %:   0.511128   MPKI: 1.16181
L1D LOAD      ACCESS:   30291845  HIT:   30190729  MISS:     101116  HIT %:    99.6662  MISS %:   0.333806   MPKI: 0.447345
L1D RFO       ACCESS:    7388493  HIT:    7344153  MISS:      44340  HIT %:    99.3999  MISS %:   0.600122   MPKI: 0.196164
L1D PREFETCH  ACCESS:   13698135  HIT:   13580981  MISS:     117154  HIT %:    99.1447  MISS %:   0.855255   MPKI: 0.518298
L1D WRITEBACK ACCESS:          0  HIT:          0  MISS:          0  HIT %:       -nan  MISS %:       -nan   MPKI: 0
L1I TOTAL     ACCESS:   44502111  HIT:   44032330  MISS:     469781  HIT %:    98.9444  MISS %:    1.05564   MPKI: 2.07835
L1I LOAD      ACCESS:   44502111  HIT:   44032330  MISS:     469781  HIT %:    98.9444  MISS %:    1.05564   MPKI: 2.07835
L1I RFO       ACCESS:          0  HIT:          0  MISS:          0  HIT %:       -nan  MISS %:       -nan   MPKI: 0
L1I PREFETCH  ACCESS:          0  HIT:          0  MISS:          0  HIT %:       -nan  MISS %:       -nan   MPKI: 0
L1I WRITEBACK ACCESS:          0  HIT:          0  MISS:          0  HIT %:       -nan  MISS %:       -nan   MPKI: 0
L2C TOTAL     ACCESS:    8181168  HIT:    7898657  MISS:     282511  HIT %:    96.5468  MISS %:    3.45319   MPKI: 1.24985
L2C LOAD      ACCESS:     564191  HIT:     483252  MISS:      80939  HIT %:     85.654  MISS %:     14.346   MPKI: 0.35808
L2C RFO       ACCESS:      44316  HIT:      24461  MISS:      19855  HIT %:    55.1968  MISS %:    44.8032   MPKI: 0.0878401
L2C PREFETCH  ACCESS:    3840718  HIT:    3679364  MISS:     161354  HIT %:    95.7989  MISS %:    4.20114   MPKI: 0.713843
L2C WRITEBACK ACCESS:     157993  HIT:     145790  MISS:      12203  HIT %:    92.2762  MISS %:    7.72376   MPKI: 0.053987
PSCL5 TOTAL     ACCESS:    3502053  HIT:    3502053  MISS:          0  HIT %:        100  MISS %:          0   MPKI: 0
PSCL5 LOAD      ACCESS:          0  HIT:          0  MISS:          0  HIT %:       -nan  MISS %:       -nan   MPKI: 0
PSCL5 RFO       ACCESS:          0  HIT:          0  MISS:          0  HIT %:       -nan  MISS %:       -nan   MPKI: 0
PSCL5 PREFETCH  ACCESS:          0  HIT:          0  MISS:          0  HIT %:       -nan  MISS %:       -nan   MPKI: 0
PSCL5 WRITEBACK ACCESS:          0  HIT:          0  MISS:          0  HIT %:       -nan  MISS %:       -nan   MPKI: 0
PSCL4 TOTAL     ACCESS:    3497649  HIT:    3497538  MISS:        111  HIT %:    99.9968  MISS %: 0.00317356   MPKI: 0.000491073
PSCL4 LOAD      ACCESS:          0  HIT:          0  MISS:          0  HIT %:       -nan  MISS %:       -nan   MPKI: 0
PSCL4 RFO       ACCESS:          0  HIT:          0  MISS:          0  HIT %:       -nan  MISS %:       -nan   MPKI: 0
PSCL4 PREFETCH  ACCESS:          0  HIT:          0  MISS:          0  HIT %:       -nan  MISS %:       -nan   MPKI: 0
PSCL4 WRITEBACK ACCESS:          0  HIT:          0  MISS:          0  HIT %:       -nan  MISS %:       -nan   MPKI: 0
PSCL3 TOTAL     ACCESS:    3490112  HIT:    3487768  MISS:       2344  HIT %:    99.9328  MISS %:  0.0671612   MPKI: 0.01037
PSCL3 LOAD      ACCESS:          0  HIT:          0  MISS:          0  HIT %:       -nan  MISS %:       -nan   MPKI: 0
PSCL3 RFO       ACCESS:          0  HIT:          0  MISS:          0  HIT %:       -nan  MISS %:       -nan   MPKI: 0
PSCL3 PREFETCH  ACCESS:          0  HIT:          0  MISS:          0  HIT %:       -nan  MISS %:       -nan   MPKI: 0
PSCL3 WRITEBACK ACCESS:          0  HIT:          0  MISS:          0  HIT %:       -nan  MISS %:       -nan   MPKI: 0
PSCL2 TOTAL     ACCESS:    3501627  HIT:    3432284  MISS:      69343  HIT %:    98.0197  MISS %:    1.98031   MPKI: 0.306779
PSCL2 LOAD      ACCESS:          0  HIT:          0  MISS:          0  HIT %:       -nan  MISS %:       -nan   MPKI: 0
PSCL2 RFO       ACCESS:          0  HIT:          0  MISS:          0  HIT %:       -nan  MISS %:       -nan   MPKI: 0
PSCL2 PREFETCH  ACCESS:          0  HIT:          0  MISS:          0  HIT %:       -nan  MISS %:       -nan   MPKI: 0
PSCL2 WRITEBACK ACCESS:          0  HIT:          0  MISS:          0  HIT %:       -nan  MISS %:       -nan   MPKI: 0
LLC TOTAL     ACCESS:     394088  HIT:     194857  MISS:     199231  HIT %:     49.445  MISS %:     50.555   MPKI: 0.881413
LLC LOAD      ACCESS:      78692  HIT:      41489  MISS:      37203  HIT %:    52.7233  MISS %:    47.2767   MPKI: 0.164589
LLC RFO       ACCESS:      19833  HIT:       2759  MISS:      17074  HIT %:    13.9112  MISS %:    86.0888   MPKI: 0.0755367
LLC PREFETCH  ACCESS:     163621  HIT:      34034  MISS:     129587  HIT %:    20.8005  MISS %:    79.1995   MPKI: 0.573303
LLC WRITEBACK ACCESS:     123782  HIT:     111663  MISS:      12119  HIT %:    90.2094  MISS %:     9.7906   MPKI: 0.0536154

RAW hits: 3067719
Loads Generated: 50621796
Loads sent to L1D: 47554077
Stores Generated: 8834250
Stores sent to L1D: 8834250

CPU 1 cumulative IPC: 1.34313 instructions: 226707544 cycles: 168790284
ITLB TOTAL     ACCESS:   37313498  HIT:   36444471  MISS:     869027  HIT %:     97.671  MISS %:    2.32899   MPKI: 3.83325
ITLB LOAD      ACCESS:          0  HIT:          0  MISS:          0  HIT %:       -nan  MISS %:       -nan   MPKI: 0
ITLB RFO       ACCESS:          0  HIT:          0  MISS:          0  HIT %:       -nan  MISS %:       -nan   MPKI: 0
ITLB PREFETCH  ACCESS:          0  HIT:          0  MISS:          0  HIT %:       -nan  MISS %:       -nan   MPKI: 0
ITLB WRITEBACK ACCESS:          0  HIT:          0  MISS:          0  HIT %:       -nan  MISS %:       -nan   MPKI: 0
DTLB TOTAL     ACCESS:   28960920  HIT:   14162226  MISS:   14798694  HIT %:    48.9012  MISS %:    51.0988   MPKI: 65.2766
DTLB LOAD      ACCESS:          0  HIT:          0  MISS:          0  HIT %:       -nan  MISS %:       -nan   MPKI: 0
DTLB RFO       ACCESS:          0  HIT:          0  MISS:          0  HIT %:       -nan  MISS %:       -nan   MPKI: 0
DTLB PREFETCH  ACCESS:          0  HIT:          0  MISS:          0  HIT %:       -nan  MISS %:       -nan   MPKI: 0
DTLB WRITEBACK ACCESS:          0  HIT:          0  MISS:          0  HIT %:       -nan  MISS %:       -nan   MPKI: 0
STLB TOTAL     ACCESS:   20957798  HIT:   18967503  MISS:    1990295  HIT %:    90.5033  MISS %:    9.49668   MPKI: 8.77913
STLB LOAD      ACCESS:          0  HIT:          0  MISS:          0  HIT %:       -nan  MISS %:       -nan   MPKI: 0
STLB RFO       ACCESS:          0  HIT:          0  MISS:          0  HIT %:       -nan  MISS %:       -nan   MPKI: 0
STLB PREFETCH  ACCESS:          0  HIT:          0  MISS:          0  HIT %:       -nan  MISS %:       -nan   MPKI: 0
STLB WRITEBACK ACCESS:          0  HIT:          0  MISS:          0  HIT %:       -nan  MISS %:       -nan   MPKI: 0
L1D TOTAL     ACCESS:   56999514  HIT:   56724570  MISS:     274944  HIT %:    99.5176  MISS %:   0.482362   MPKI: 1.21277
L1D LOAD      ACCESS:   31198527  HIT:   31088215  MISS:     110312  HIT %:    99.6464  MISS %:   0.353581   MPKI: 0.486583
L1D RFO       ACCESS:    6852306  HIT:    6813224  MISS:      39082  HIT %:    99.4297  MISS %:   0.570348   MPKI: 0.172389
L1D PREFETCH  ACCESS:   18948681  HIT:   18823131  MISS:     125550  HIT %:    99.3374  MISS %:   0.662579   MPKI: 0.553797
L1D WRITEBACK ACCESS:          0  HIT:          0  MISS:          0  HIT %:       -nan  MISS %:       -nan   MPKI: 0
L1I TOTAL     ACCESS:   44371256  HIT:   43912457  MISS:     458799  HIT %:     98.966  MISS %:      1.034   MPKI: 2.02375
L1I LOAD      ACCESS:   44371256  HIT:   43912457  MISS:     458799  HIT %:     98.966  MISS %:      1.034   MPKI: 2.02375
L1I RFO       ACCESS:          0  HIT:          0  MISS:          0  HIT %:       -nan  MISS %:       -nan   MPKI: 0
L1I PREFETCH  ACCESS:          0  HIT:          0  MISS:          0  HIT %:       -nan  MISS %:       -nan   MPKI: 0
L1I WRITEBACK ACCESS:          0  HIT:          0  MISS:          0  HIT %:       -nan  MISS %:       -nan   MPKI: 0
L2C TOTAL     ACCESS:    7687771  HIT:    7331085  MISS:     356686  HIT %:    95.3603  MISS %:    4.63965   MPKI: 1.57333
L2C LOAD      ACCESS:     564823  HIT:     436922  MISS:     127901  HIT %:    77.3556  MISS %:    22.6444   MPKI: 0.564167
L2C RFO       ACCESS:      39075  HIT:      16578  MISS:      22497  HIT %:    42.4261  MISS %:    57.5739   MPKI: 0.0992336
L2C PREFETCH  ACCESS:    4244682  HIT:    4067371  MISS:     177311  HIT %:    95.8227  MISS %:    4.17725   MPKI: 0.782113
L2C WRITEBACK ACCESS:     161737  HIT:     144809  MISS:      16928  HIT %:    89.5336  MISS %:    10.4664   MPKI: 0.0746689
PSCL5 TOTAL     ACCESS:    2607997  HIT:    2607997  MISS:          0  HIT %:        100  MISS %:          0   MPKI: 0
PSCL5 LOAD      ACCESS:          0  HIT:          0  MISS:          0  HIT %:       -nan  MISS %:       -nan   MPKI: 0
PSCL5 RFO       ACCESS:          0  HIT:          0  MISS:          0  HIT %:       -nan  MISS %:       -nan   MPKI: 0
PSCL5 PREFETCH  ACCESS:          0  HIT:          0  MISS:          0  HIT %:       -nan  MISS %:       -nan   MPKI: 0
PSCL5 WRITEBACK ACCESS:          0  HIT:          0  MISS:          0  HIT %:       -nan  MISS %:       -nan   MPKI: 0
PSCL4 TOTAL     ACCESS:    2595029  HIT:    2594768  MISS:        261  HIT %:    99.9899  MISS %:  0.0100577   MPKI: 0.00115126
PSCL4 LOAD      ACCESS:          0  HIT:          0  MISS:          0  HIT %:       -nan  MISS %:       -nan   MPKI: 0
PSCL4 RFO       ACCESS:          0  HIT:          0  MISS:          0  HIT %:       -nan  MISS %:       -nan   MPKI: 0
PSCL4 PREFETCH  ACCESS:          0  HIT:          0  MISS:          0  HIT %:       -nan  MISS %:       -nan   MPKI: 0
PSCL4 WRITEBACK ACCESS:          0  HIT:          0  MISS:          0  HIT %:       -nan  MISS %:       -nan   MPKI: 0
PSCL3 TOTAL     ACCESS:    2599059  HIT:    2596765  MISS:       2294  HIT %:    99.9117  MISS %:  0.0882627   MPKI: 0.0101188
PSCL3 LOAD      ACCESS:          0  HIT:          0  MISS:          0  HIT %:       -nan  MISS %:       -nan   MPKI: 0
PSCL3 RFO       ACCESS:          0  HIT:          0  MISS:          0  HIT %:       -nan  MISS %:       -nan   MPKI: 0
PSCL3 PREFETCH  ACCESS:          0  HIT:          0  MISS:          0  HIT %:       -nan  MISS %:       -nan   MPKI: 0
PSCL3 WRITEBACK ACCESS:          0  HIT:          0  MISS:          0  HIT %:       -nan  MISS %:       -nan   MPKI: 0
PSCL2 TOTAL     ACCESS:    2605054  HIT:    2540431  MISS:      64623  HIT %:    97.5193  MISS %:    2.48068   MPKI: 0.28505
PSCL2 LOAD      ACCESS:          0  HIT:          0  MISS:          0  HIT %:       -nan  MISS %:       -nan   MPKI: 0
PSCL2 RFO       ACCESS:          0  HIT:          0  MISS:          0  HIT %:       -nan  MISS %:       -nan   MPKI: 0
PSCL2 PREFETCH  ACCESS:          0  HIT:          0  MISS:          0  HIT %:       -nan  MISS %:       -nan   MPKI: 0
PSCL2 WRITEBACK ACCESS:          0  HIT:          0  MISS:          0  HIT %:       -nan  MISS %:       -nan   MPKI: 0
LLC TOTAL     ACCESS:     477241  HIT:     261145  MISS:     216096  HIT %:    54.7197  MISS %:    45.2803   MPKI: 0.953193
LLC LOAD      ACCESS:     126119  HIT:      80949  MISS:      45170  HIT %:    64.1846  MISS %:    35.8154   MPKI: 0.199243
LLC RFO       ACCESS:      22473  HIT:       4388  MISS:      18085  HIT %:    19.5257  MISS %:    80.4743   MPKI: 0.0797724
LLC PREFETCH  ACCESS:     179117  HIT:      43580  MISS:     135537  HIT %:    24.3305  MISS %:    75.6695   MPKI: 0.59785
LLC WRITEBACK ACCESS:     137483  HIT:     123954  MISS:      13529  HIT %:    90.1595  MISS %:    9.84049   MPKI: 0.059676

RAW hits: 2753407
Loads Generated: 51735110
Loads sent to L1D: 48981703
Stores Generated: 8242423
Stores sent to L1D: 8242424

CPU 2 cumulative IPC: 1.1849 instructions: 200000000 cycles: 168790284
ITLB TOTAL     ACCESS:   31938007  HIT:   30774811  MISS:    1163196  HIT %:     96.358  MISS %:    3.64204   MPKI: 5.81598
ITLB LOAD      ACCESS:          0  HIT:          0  MISS:          0  HIT %:       -nan  MISS %:       -nan   MPKI: 0
ITLB RFO       ACCESS:          0  HIT:          0  MISS:          0  HIT %:       -nan  MISS %:       -nan   MPKI: 0
ITLB PREFETCH  ACCESS:          0  HIT:          0  MISS:          0  HIT %:       -nan  MISS %:       -nan   MPKI: 0
ITLB WRITEBACK ACCESS:          0  HIT:          0  MISS:          0  HIT %:       -nan  MISS %:       -nan   MPKI: 0
DTLB TOTAL     ACCESS:   26980949  HIT:   15640277  MISS:   11340672  HIT %:    57.9679  MISS %:    42.0321   MPKI: 56.7034
DTLB LOAD      ACCESS:          0  HIT:          0  MISS:          0  HIT %:       -nan  MISS %:       -nan   MPKI: 0
DTLB RFO       ACCESS:          0  HIT:          0  MISS:          0  HIT %:       -nan  MISS %:       -nan   MPKI: 0
DTLB PREFETCH  ACCESS:          0  HIT:          0  MISS:          0  HIT %:       -nan  MISS %:       -nan   MPKI: 0
DTLB WRITEBACK ACCESS:          0  HIT:          0  MISS:          0  HIT %:       -nan  MISS %:       -nan   MPKI: 0
STLB TOTAL     ACCESS:   17505358  HIT:   14823688  MISS:    2681670  HIT %:    84.6809  MISS %:    15.3191   MPKI: 13.4084
STLB LOAD      ACCESS:          0  HIT:          0  MISS:          0  HIT %:       -nan  MISS %:       -nan   MPKI: 0
STLB RFO       ACCESS:          0  HIT:          0  MISS:          0  HIT %:       -nan  MISS %:       -nan   MPKI: 0
STLB PREFETCH  ACCESS:          0  HIT:          0  MISS:          0  HIT %:       -nan  MISS %:       -nan   MPKI: 0
STLB WRITEBACK ACCESS:          0  HIT:          0  MISS:          0  HIT %:       -nan  MISS %:       -nan   MPKI: 0
L1D TOTAL     ACCESS:   53202111  HIT:   52830543  MISS:     371568  HIT %:    99.3016  MISS %:   0.698408   MPKI: 1.85784
L1D LOAD      ACCESS:   26239685  HIT:   26064812  MISS:     174873  HIT %:    99.3336  MISS %:   0.666445   MPKI: 0.874365
L1D RFO       ACCESS:    9538011  HIT:    9483133  MISS:      54878  HIT %:    99.4246  MISS %:   0.575361   MPKI: 0.27439
L1D PREFETCH  ACCESS:   17424415  HIT:   17282598  MISS:     141817  HIT %:    99.1861  MISS %:   0.813898   MPKI: 0.709085
L1D WRITEBACK ACCESS:          0  HIT:          0  MISS:          0  HIT %:       -nan  MISS %:       -nan   MPKI: 0
L1I TOTAL     ACCESS:   39044744  HIT:   38229284  MISS:     815460  HIT %:    97.9115  MISS %:    2.08853   MPKI: 4.0773
L1I LOAD      ACCESS:   39044744  HIT:   38229284  MISS:     815460  HIT %:    97.9115  MISS %:    2.08853   MPKI: 4.0773
L1I RFO       ACCESS:          0  HIT:          0  MISS:          0  HIT %:       -nan  MISS %:       -nan   MPKI: 0
L1I PREFETCH  ACCESS:          0  HIT:          0  MISS:          0  HIT %:       -nan  MISS %:       -nan   MPKI: 0
L1I WRITEBACK ACCESS:          0  HIT:          0  MISS:          0  HIT %:       -nan  MISS %:       -nan   MPKI: 0
L2C TOTAL     ACCESS:    8540153  HIT:    8148280  MISS:     391873  HIT %:    95.4114  MISS %:    4.58859   MPKI: 1.95937
L2C LOAD      ACCESS:     986471  HIT:     869655  MISS:     116816  HIT %:    88.1582  MISS %:    11.8418   MPKI: 0.58408
L2C RFO       ACCESS:      54858  HIT:      29927  MISS:      24931  HIT %:    54.5536  MISS %:    45.4464   MPKI: 0.124655
L2C PREFETCH  ACCESS:    4359063  HIT:    4130586  MISS:     228477  HIT %:    94.7586  MISS %:    5.24142   MPKI: 1.14238
L2C WRITEBACK ACCESS:     194270  HIT:     183032  MISS:      11238  HIT %:    94.2153  MISS %:    5.78473   MPKI: 0.05619
PSCL5 TOTAL     ACCESS:    2822224  HIT:    2822224  MISS:          0  HIT %:        100  MISS %:          0   MPKI: 0
PSCL5 LOAD      ACCESS:          0  HIT:          0  MISS:          0  HIT %:       -nan  MISS %:       -nan   MPKI: 0
PSCL5 RFO       ACCESS:          0  HIT:          0  MISS:          0  HIT %:       -nan  MISS %:       -nan   MPKI: 0
PSCL5 PREFETCH  ACCESS:          0  HIT:          0  MISS:          0  HIT %:       -nan  MISS %:       -nan   MPKI: 0
PSCL5 WRITEBACK ACCESS:          0  HIT:          0  MISS:          0  HIT %:       -nan  MISS %:       -nan   MPKI: 0
PSCL4 TOTAL     ACCESS:    2815656  HIT:    2815499  MISS:        157  HIT %:    99.9944  MISS %: 0.00557597   MPKI: 0.000785
PSCL4 LOAD      ACCESS:          0  HIT:          0  MISS:          0  HIT %:       -nan  MISS %:       -nan   MPKI: 0
PSCL4 RFO       ACCESS:          0  HIT:          0  MISS:          0  HIT %:       -nan  MISS %:       -nan   MPKI: 0
PSCL4 PREFETCH  ACCESS:          0  HIT:          0  MISS:          0  HIT %:       -nan  MISS %:       -nan   MPKI: 0
PSCL4 WRITEBACK ACCESS:          0  HIT:          0  MISS:          0  HIT %:       -nan  MISS %:       -nan   MPKI: 0
PSCL3 TOTAL     ACCESS:    2797645  HIT:    2793022  MISS:       4623  HIT %:    99.8348  MISS %:   0.165246   MPKI: 0.023115
PSCL3 LOAD      ACCESS:          0  HIT:          0  MISS:          0  HIT %:       -nan  MISS %:       -nan   MPKI: 0
PSCL3 RFO       ACCESS:          0  HIT:          0  MISS:          0  HIT %:       -nan  MISS %:       -nan   MPKI: 0
PSCL3 PREFETCH  ACCESS:          0  HIT:          0  MISS:          0  HIT %:       -nan  MISS %:       -nan   MPKI: 0
PSCL3 WRITEBACK ACCESS:          0  HIT:          0  MISS:          0  HIT %:       -nan  MISS %:       -nan   MPKI: 0
PSCL2 TOTAL     ACCESS:    2821633  HIT:    2703457  MISS:     118176  HIT %:    95.8118  MISS %:    4.18821   MPKI: 0.59088
PSCL2 LOAD      ACCESS:          0  HIT:          0  MISS:          0  HIT %:       -nan  MISS %:       -nan   MPKI: 0
PSCL2 RFO       ACCESS:          0  HIT:          0  MISS:          0  HIT %:       -nan  MISS %:       -nan   MPKI: 0
PSCL2 PREFETCH  ACCESS:          0  HIT:          0  MISS:          0  HIT %:       -nan  MISS %:       -nan   MPKI: 0
PSCL2 WRITEBACK ACCESS:          0  HIT:          0  MISS:          0  HIT %:       -nan  MISS %:       -nan   MPKI: 0
LLC TOTAL     ACCESS:     529446  HIT:     299573  MISS:     229873  HIT %:    56.5824  MISS %:    43.4176   MPKI: 1.14936
LLC LOAD      ACCESS:     114071  HIT:      72229  MISS:      41842  HIT %:    63.3193  MISS %:    36.6807   MPKI: 0.20921
LLC RFO       ACCESS:      24889  HIT:       1893  MISS:      22996  HIT %:    7.60577  MISS %:    92.3942   MPKI: 0.11498
LLC PREFETCH  ACCESS:     231263  HIT:      75697  MISS:     155566  HIT %:     32.732  MISS %:     67.268   MPKI: 0.77783
LLC WRITEBACK ACCESS:     148812  HIT:     142337  MISS:       6475  HIT %:    95.6489  MISS %:    4.35113   MPKI: 0.032375

RAW hits: 2886706
Loads Generated: 44061034
Loads sent to L1D: 41174319
Stores Generated: 10781225
Stores sent to L1D: 10781226

CPU 3 cumulative IPC: 1.32316 instructions: 223336732 cycles: 168790285
ITLB TOTAL     ACCESS:   36979072  HIT:   36200270  MISS:     778802  HIT %:    97.8939  MISS %:    2.10606   MPKI: 3.48712
ITLB LOAD      ACCESS:          0  HIT:          0  MISS:          0  HIT %:       -nan  MISS %:       -nan   MPKI: 0
ITLB RFO       ACCESS:          0  HIT:          0  MISS:          0  HIT %:       -nan  MISS %:       -nan   MPKI: 0
ITLB PREFETCH  ACCESS:          0  HIT:          0  MISS:          0  HIT %:       -nan  MISS %:       -nan   MPKI: 0
ITLB WRITEBACK ACCESS:          0  HIT:          0  MISS:          0  HIT %:       -nan  MISS %:       -nan   MPKI: 0
DTLB TOTAL     ACCESS:   28634564  HIT:   14333077  MISS:   14301487  HIT %:    50.0552  MISS %:    49.9448   MPKI: 64.0355
DTLB LOAD      ACCESS:          0  HIT:          0  MISS:          0  HIT %:       -nan  MISS %:       -nan   MPKI: 0
DTLB RFO       ACCESS:          0  HIT:          0  MISS:          0  HIT %:       -nan  MISS %:       -nan   MPKI: 0
DTLB PREFETCH  ACCESS:          0  HIT:          0  MISS:          0  HIT %:       -nan  MISS %:       -nan   MPKI: 0
DTLB WRITEBACK ACCESS:          0  HIT:          0  MISS:          0  HIT %:       -nan  MISS %:       -nan   MPKI: 0
STLB TOTAL     ACCESS:   17909462  HIT:   16251481  MISS:    1657981  HIT %:    90.7424  MISS %:    9.25757   MPKI: 7.42368
STLB LOAD      ACCESS:          0  HIT:          0  MISS:          0  HIT %:       -nan  MISS %:       -nan   MPKI: 0
STLB RFO       ACCESS:          0  HIT:          0  MISS:          0  HIT %:       -nan  MISS %:       -nan   MPKI: 0
STLB PREFETCH  ACCESS:          0  HIT:          0  MISS:          0  HIT %:       -nan  MISS %:       -nan   MPKI: 0
STLB WRITEBACK ACCESS:          0  HIT:          0  MISS:          0  HIT %:       -nan  MISS %:       -nan   MPKI: 0
L1D TOTAL     ACCESS:   47795629  HIT:   47547570  MISS:     248059  HIT %:     99.481  MISS %:   0.518999   MPKI: 1.1107
L1D LOAD      ACCESS:   30625841  HIT:   30497983  MISS:     127858  HIT %:    99.5825  MISS %:   0.417484   MPKI: 0.57249
L1D RFO       ACCESS:    6960501  HIT:    6918813  MISS:      41688  HIT %:    99.4011  MISS %:   0.598922   MPKI: 0.18666
L1D PREFETCH  ACCESS:   10209287  HIT:   10130774  MISS:      78513  HIT %:     99.231  MISS %:   0.769035   MPKI: 0.351545
L1D WRITEBACK ACCESS:          0  HIT:          0  MISS:          0  HIT %:       -nan  MISS %:       -nan   MPKI: 0
L1I TOTAL     ACCESS:   44158144  HIT:   43514135  MISS:     644009  HIT %:    98.5416  MISS %:    1.45842   MPKI: 2.88358
L1I LOAD      ACCESS:   44158144  HIT:   43514135  MISS:     644009  HIT %:    98.5416  MISS %:    1.45842   MPKI: 2.88358
L1I RFO       ACCESS:          0  HIT:          0  MISS:          0  HIT %:       -nan  MISS %:       -nan   MPKI: 0
L1I PREFETCH  ACCESS:          0  HIT:          0  MISS:          0  HIT %:       -nan  MISS %:       -nan   MPKI: 0
L1I WRITEBACK ACCESS:          0  HIT:          0  MISS:          0  HIT %:       -nan  MISS %:       -nan   MPKI: 0
L2C TOTAL     ACCESS:    5389330  HIT:    5119768  MISS:     269562  HIT %:    94.9982  MISS %:    5.00177   MPKI: 1.20698
L2C LOAD      ACCESS:     768453  HIT:     660776  MISS:     107677  HIT %:    85.9878  MISS %:    14.0122   MPKI: 0.482128
L2C RFO       ACCESS:      41677  HIT:      24461  MISS:      17216  HIT %:    58.6918  MISS %:    41.3082   MPKI: 0.0770854
L2C PREFETCH  ACCESS:    2573765  HIT:    2450058  MISS:     123707  HIT %:    95.1935  MISS %:    4.80646   MPKI: 0.553904
L2C WRITEBACK ACCESS:     126981  HIT:     116175  MISS:      10806  HIT %:    91.4901  MISS %:    8.50993   MPKI: 0.0483843
PSCL5 TOTAL     ACCESS:    1782965  HIT:    1782965  MISS:          0  HIT %:        100  MISS %:          0   MPKI: 0
PSCL5 LOAD      ACCESS:          0  HIT:          0  MISS:          0  HIT %:       -nan  MISS %:       -nan   MPKI: 0
PSCL5 RFO       ACCESS:          0  HIT:          0  MISS:          0  HIT %:       -nan  MISS %:       -nan   MPKI: 0
PSCL5 PREFETCH  ACCESS:          0  HIT:          0  MISS:          0  HIT %:       -nan  MISS %:       -nan   MPKI: 0
PSCL5 WRITEBACK ACCESS:          0  HIT:          0  MISS:          0  HIT %:       -nan  MISS %:       -nan   MPKI: 0
PSCL4 TOTAL     ACCESS:    1777920  HIT:    1777717  MISS:        203  HIT %:    99.9886  MISS %:  0.0114178   MPKI: 0.000908941
PSCL4 LOAD      ACCESS:          0  HIT:          0  MISS:          0  HIT %:       -nan  MISS %:       -nan   MPKI: 0
PSCL4 RFO       ACCESS:          0  HIT:          0  MISS:          0  HIT %:       -nan  MISS %:       -nan   MPKI: 0
PSCL4 PREFETCH  ACCESS:          0  HIT:          0  MISS:          0  HIT %:       -nan  MISS %:       -nan   MPKI: 0
PSCL4 WRITEBACK ACCESS:          0  HIT:          0  MISS:          0  HIT %:       -nan  MISS %:       -nan   MPKI: 0
PSCL3 TOTAL     ACCESS:    1758988  HIT:    1755351  MISS:       3637  HIT %:    99.7932  MISS %:   0.206767   MPKI: 0.0162848
PSCL3 LOAD      ACCESS:          0  HIT:          0  MISS:          0  HIT %:       -nan  MISS %:       -nan   MPKI: 0
PSCL3 RFO       ACCESS:          0  HIT:          0  MISS:          0  HIT %:       -nan  MISS %:       -nan   MPKI: 0
PSCL3 PREFETCH  ACCESS:          0  HIT:          0  MISS:          0  HIT %:       -nan  MISS %:       -nan   MPKI: 0
PSCL3 WRITEBACK ACCESS:          0  HIT:          0  MISS:          0  HIT %:       -nan  MISS %:       -nan   MPKI: 0
PSCL2 TOTAL     ACCESS:    1782796  HIT:    1691178  MISS:      91618  HIT %:     94.861  MISS %:    5.13901   MPKI: 0.410224
PSCL2 LOAD      ACCESS:          0  HIT:          0  MISS:          0  HIT %:       -nan  MISS %:       -nan   MPKI: 0
PSCL2 RFO       ACCESS:          0  HIT:          0  MISS:          0  HIT %:       -nan  MISS %:       -nan   MPKI: 0
PSCL2 PREFETCH  ACCESS:          0  HIT:          0  MISS:          0  HIT %:       -nan  MISS %:       -nan   MPKI: 0
PSCL2 WRITEBACK ACCESS:          0  HIT:          0  MISS:          0  HIT %:       -nan  MISS %:       -nan   MPKI: 0
LLC TOTAL     ACCESS:     348469  HIT:     186200  MISS:     162269  HIT %:    53.4337  MISS %:    46.5663   MPKI: 0.726567
LLC LOAD      ACCESS:     105676  HIT:      63065  MISS:      42611  HIT %:    59.6777  MISS %:    40.3223   MPKI: 0.190793
LLC RFO       ACCESS:      17035  HIT:       2602  MISS:      14433  HIT %:    15.2744  MISS %:    84.7256   MPKI: 0.0646244
LLC PREFETCH  ACCESS:     125889  HIT:      31926  MISS:      93963  HIT %:    25.3604  MISS %:    74.6396   MPKI: 0.420723
LLC WRITEBACK ACCESS:      89713  HIT:      81669  MISS:       8044  HIT %:    91.0336  MISS %:    8.96637   MPKI: 0.0360174

RAW hits: 3134749
Loads Generated: 51024731
Loads sent to L1D: 47889982
Stores Generated: 8353561
Stores sent to L1D: 8353563

Region of Interest Statistics

CPU 0 cumulative IPC: 1.34237 instructions: 200000002 cycles: 148989983
ITLB TOTAL     ACCESS:   32940650  HIT:   32235523  MISS:     705127  HIT %:    97.8594  MISS %:     2.1406   MPKI: 3.52563
ITLB LOAD TRANSLATION ACCESS:   32940650  HIT:   32235523  MISS:     705127  HIT %:    97.8594  MISS %:     2.1406   MPKI: 3.52563
ITLB PREFETCH  REQUESTED:          0  ISSUED:          0  USEFUL:          0  USELESS:          0
ITLB USEFUL LOAD PREFETCHES:          0 PREFETCH ISSUED TO LOWER LEVEL:          0  ACCURACY: -nan
ITLB TIMELY PREFETCHES:          0 LATE PREFETCHES: 0 DROPPED PREFETCHES: 0
ITLB PREFETCHES SAME FILL-ORIGIN LEVEL: 0 DIFFERENT FILL-ORIGIN LEVEL: 0
ITLB AVERAGE MISS LATENCY: 33.5252 cycles
ITLB RQ	ACCESS:   44662334	FORWARD:          0	MERGED:    7070200	TO_CACHE:   37592134

DTLB TOTAL     ACCESS:   25351924  HIT:   12837155  MISS:   12514769  HIT %:    50.6358  MISS %:    49.3642   MPKI: 62.5738
DTLB LOAD TRANSLATION ACCESS:   25351924  HIT:   12837155  MISS:   12514769  HIT %:    50.6358  MISS %:    49.3642   MPKI: 62.5738
DTLB PREFETCH  REQUESTED:          0  ISSUED:          0  USEFUL:          0  USELESS:          0
DTLB USEFUL LOAD PREFETCHES:          0 PREFETCH ISSUED TO LOWER LEVEL:          0  ACCURACY: -nan
DTLB TIMELY PREFETCHES:          0 LATE PREFETCHES: 0 DROPPED PREFETCHES: 0
DTLB PREFETCHES SAME FILL-ORIGIN LEVEL: 0 DIFFERENT FILL-ORIGIN LEVEL: 0
DTLB AVERAGE MISS LATENCY: 12.7904 cycles
DTLB RQ	ACCESS:   37865675	FORWARD:          0	MERGED:    8090402	TO_CACHE:   29775273

STLB TOTAL     ACCESS:   17322969  HIT:   15622494  MISS:    1700475  HIT %:    90.1837  MISS %:     9.8163   MPKI: 8.50237
STLB LOAD TRANSLATION ACCESS:   13219896  HIT:   11655227  MISS:    1564669  HIT %:    88.1643  MISS %:    11.8357   MPKI: 7.82334
STLB TRANSLATION FROM L1D PREFETCHER ACCESS:    4103073  HIT:    3967267  MISS:     135806  HIT %:    96.6901  MISS %:    3.30986   MPKI: 0.67903
STLB PREFETCH  REQUESTED:          0  ISSUED:          0  USEFUL:     106737  USELESS:      36013
STLB USEFUL LOAD PREFETCHES:     106737 PREFETCH ISSUED TO LOWER LEVEL:          0  ACCURACY: inf
STLB TIMELY PREFETCHES:     106737 LATE PREFETCHES: 0 DROPPED PREFETCHES: 1655572
STLB PREFETCHES SAME FILL-ORIGIN LEVEL: 0 DIFFERENT FILL-ORIGIN LEVEL: 0
STLB AVERAGE MISS LATENCY: 29.3716 cycles
STLB RQ	ACCESS:   36137187	FORWARD:          0	MERGED:   14712307	TO_CACHE:   21424880

STLB Hit, L1D data hit: 0
STLB Hit, L2C data hit: 0
STLB Hit, LLC data hit: 0
STLB Hit, LLC data miss: 0
STLB STLB hints to L2: 0
L1D TOTAL     ACCESS:   46579923  HIT:   46339969  MISS:     239954  HIT %:    99.4849  MISS %:   0.515145   MPKI: 1.19977
L1D LOAD      ACCESS:   26618866  HIT:   26535170  MISS:      83696  HIT %:    99.6856  MISS %:   0.314424   MPKI: 0.41848
L1D RFO       ACCESS:    6673776  HIT:    6633073  MISS:      40703  HIT %:    99.3901  MISS %:   0.609895   MPKI: 0.203515
L1D PREFETCH  ACCESS:   13287281  HIT:   13171726  MISS:     115555  HIT %:    99.1303  MISS %:   0.869666   MPKI: 0.577775
L1D PREFETCH  REQUESTED:   53069588  ISSUED:   50479342  USEFUL:     107537  USELESS:       9640
L1D USEFUL LOAD PREFETCHES:     107537 PREFETCH ISSUED TO LOWER LEVEL:    3898895  ACCURACY: 2.75814
L1D TIMELY PREFETCHES:     107537 LATE PREFETCHES: 6703 DROPPED PREFETCHES: 3540716
L1D PREFETCHES SAME FILL-ORIGIN LEVEL: 123862 DIFFERENT FILL-ORIGIN LEVEL: 3775033
L1D AVERAGE MISS LATENCY: 90.6582 cycles
L1D RQ	ACCESS:   47554077	FORWARD:          0	MERGED:   17123825	TO_CACHE:   30302004
L1D WQ	ACCESS:    8834250	FORWARD:     145516	MERGED:    1270579	TO_CACHE:    7563671
L1D PQ	ACCESS:   29381969	FORWARD:          0	MERGED:    8267328	TO_CACHE:   21097373

L1D UNIQUE REGIONS ACCESSED: 0
L1D REGIONS CONFLICTS: 0
L1D Cross Page Prefetch Requests: 7649638
L1D Same Page Prefetch Requests: 25128651
L1D ROI Sum of L1D PQ occupancy: 392483739
L1D PREFETCHES PUSHED FROM L2C: 0
L1I TOTAL     ACCESS:   39348256  HIT:   38972977  MISS:     375279  HIT %:    99.0463  MISS %:   0.953737   MPKI: 1.87639
L1I LOAD      ACCESS:   39348256  HIT:   38972977  MISS:     375279  HIT %:    99.0463  MISS %:   0.953737   MPKI: 1.87639
L1I PREFETCH  REQUESTED:          0  ISSUED:          0  USEFUL:          0  USELESS:          0
L1I USEFUL LOAD PREFETCHES:          0 PREFETCH ISSUED TO LOWER LEVEL:          0  ACCURACY: -nan
L1I TIMELY PREFETCHES:          0 LATE PREFETCHES: 0 DROPPED PREFETCHES: 0
L1I PREFETCHES SAME FILL-ORIGIN LEVEL: 0 DIFFERENT FILL-ORIGIN LEVEL: 0
L1I AVERAGE MISS LATENCY: 28.6388 cycles
L1I RQ	ACCESS:   85942997	FORWARD:          0	MERGED:   41280663	TO_CACHE:   44662334

BTB BRANCH_DIRECT_JUMP	ACCESS:          0  HIT:          0  MISS:          0
BTB BRANCH_INDIRECT	ACCESS:          0  HIT:          0  MISS:          0
BTB BRANCH_CONDITIONAL	ACCESS:          0  HIT:          0  MISS:          0
BTB BRANCH_DIRECT_CALL	ACCESS:          0  HIT:          0  MISS:          0
BTB BRANCH_INDIRECT_CALL	ACCESS:          0  HIT:          0  MISS:          0
BTB BRANCH_RETURN	ACCESS:          0  HIT:          0  MISS:          0
BTB BRANCH_OTHER ACCESS:          0  HIT:          0  MISS:          0

L2C TOTAL     ACCESS:    7505406  HIT:    7244752  MISS:     260654  HIT %:    96.5271  MISS %:    3.47288   MPKI: 1.30327
L2C LOAD      ACCESS:     452483  HIT:     383790  MISS:      68693  HIT %:    84.8187  MISS %:    15.1813   MPKI: 0.343465
L2C DATA LOAD MPKI: 0.141485
L2C INSTRUCTION LOAD MPKI: 0.20198
L2C RFO       ACCESS:      40681  HIT:      21778  MISS:      18903  HIT %:    53.5336  MISS %:    46.4664   MPKI: 0.094515
L2C PREFETCH  ACCESS:    3475847  HIT:    3321191  MISS:     154656  HIT %:    95.5506  MISS %:    4.44945   MPKI: 0.77328
L2C DATA PREFETCH MPKI: 0.77328
L2C INSTRUCTION PREFETCH MPKI: 0
L2C WRITEBACK ACCESS:     148808  HIT:     137414  MISS:      11394  HIT %:    92.3432  MISS %:    7.65685   MPKI: 0.05697
L2C LOAD TRANSLATION ACCESS:    1620763  HIT:    1614179  MISS:       6584  HIT %:    99.5938  MISS %:   0.406228   MPKI: 0.03292
L2C TRANSLATION FROM L1D PREFETCHER ACCESS:    1766824  HIT:    1766400  MISS:        424  HIT %:     99.976  MISS %:  0.0239979   MPKI: 0.00212
L2C PREFETCH  REQUESTED:          0  ISSUED:          0  USEFUL:      26352  USELESS:     133665
L2C USEFUL LOAD PREFETCHES:      26352 PREFETCH ISSUED TO LOWER LEVEL:     163623  ACCURACY: 16.1053
L2C TIMELY PREFETCHES:      26352 LATE PREFETCHES: 2269 DROPPED PREFETCHES: 0
L2C PREFETCHES SAME FILL-ORIGIN LEVEL: 118308 DIFFERENT FILL-ORIGIN LEVEL: 0
L2C AVERAGE MISS LATENCY: 171.895 cycles
L2C RQ	ACCESS:    4182479	FORWARD:          0	MERGED:          0	TO_CACHE:    4182461
L2C WQ	ACCESS:     157993	FORWARD:         22	MERGED:          0	TO_CACHE:     157993
L2C PQ	ACCESS:    3898334	FORWARD:          0	MERGED:      13799	TO_CACHE:    3884531

L2C Instructions Evicting Data 32101
L2C Translations Evicting Data 5722
L2C Data Evicting Data 174537
L2C Instructions Evicting Instructions 11049
L2C Translations Evicting Instructions 1708
L2C Data Evicting Instructions 31111
L2C Instructions Evicting Translations 1587
L2C Translations Evicting Translations 243
L2C Data Evicting Translations 5592
L2C Dense regions hint from L2: 0
PSCL5 TOTAL     ACCESS:    3330280  HIT:    3330280  MISS:          0  HIT %:        100  MISS %:          0   MPKI: 0
PSCL5 LOAD TRANSLATION ACCESS:    1564669  HIT:    1564669  MISS:          0  HIT %:        100  MISS %:          0   MPKI: 0
PSCL5 TRANSLATION FROM L1D PREFETCHER ACCESS:    1765611  HIT:    1765611  MISS:          0  HIT %:        100  MISS %:          0   MPKI: 0
PSCL5 PREFETCH  REQUESTED:          0  ISSUED:          0  USEFUL:          0  USELESS:          0
PSCL5 USEFUL LOAD PREFETCHES:          0 PREFETCH ISSUED TO LOWER LEVEL:          0  ACCURACY: -nan
PSCL5 TIMELY PREFETCHES:          0 LATE PREFETCHES: 0 DROPPED PREFETCHES: 0
PSCL5 PREFETCHES SAME FILL-ORIGIN LEVEL: 0 DIFFERENT FILL-ORIGIN LEVEL: 0

PSCL4 TOTAL     ACCESS:    3327050  HIT:    3326979  MISS:         71  HIT %:    99.9979  MISS %: 0.00213402   MPKI: 0.000355
PSCL4 LOAD TRANSLATION ACCESS:    1561610  HIT:    1561539  MISS:         71  HIT %:    99.9955  MISS %: 0.00454659   MPKI: 0.000355
PSCL4 TRANSLATION FROM L1D PREFETCHER ACCESS:    1765440  HIT:    1765440  MISS:          0  HIT %:        100  MISS %:          0   MPKI: 0
PSCL4 PREFETCH  REQUESTED:          0  ISSUED:          0  USEFUL:          0  USELESS:          0
PSCL4 USEFUL LOAD PREFETCHES:          0 PREFETCH ISSUED TO LOWER LEVEL:          0  ACCURACY: -nan
PSCL4 TIMELY PREFETCHES:          0 LATE PREFETCHES: 0 DROPPED PREFETCHES: 0
PSCL4 PREFETCHES SAME FILL-ORIGIN LEVEL: 0 DIFFERENT FILL-ORIGIN LEVEL: 0

PSCL3 TOTAL     ACCESS:    3320850  HIT:    3318915  MISS:       1935  HIT %:    99.9417  MISS %:  0.0582682   MPKI: 0.009675
PSCL3 LOAD TRANSLATION ACCESS:    1556101  HIT:    1554166  MISS:       1935  HIT %:    99.8757  MISS %:   0.124349   MPKI: 0.009675
PSCL3 TRANSLATION FROM L1D PREFETCHER ACCESS:    1764749  HIT:    1764749  MISS:          0  HIT %:        100  MISS %:          0   MPKI: 0
PSCL3 PREFETCH  REQUESTED:          0  ISSUED:          0  USEFUL:          0  USELESS:          0
PSCL3 USEFUL LOAD PREFETCHES:          0 PREFETCH ISSUED TO LOWER LEVEL:          0  ACCURACY: -nan
PSCL3 TIMELY PREFETCHES:          0 LATE PREFETCHES: 0 DROPPED PREFETCHES: 0
PSCL3 PREFETCHES SAME FILL-ORIGIN LEVEL: 0 DIFFERENT FILL-ORIGIN LEVEL: 0

PSCL2 TOTAL     ACCESS:    3329921  HIT:    3274649  MISS:      55272  HIT %:    98.3401  MISS %:    1.65986   MPKI: 0.27636
PSCL2 LOAD TRANSLATION ACCESS:    1565576  HIT:    1510304  MISS:      55272  HIT %:    96.4695  MISS %:    3.53046   MPKI: 0.27636
PSCL2 TRANSLATION FROM L1D PREFETCHER ACCESS:    1764345  HIT:    1764345  MISS:          0  HIT %:        100  MISS %:          0   MPKI: 0
PSCL2 PREFETCH  REQUESTED:          0  ISSUED:          0  USEFUL:          0  USELESS:          0
PSCL2 USEFUL LOAD PREFETCHES:          0 PREFETCH ISSUED TO LOWER LEVEL:          0  ACCURACY: -nan
PSCL2 TIMELY PREFETCHES:          0 LATE PREFETCHES: 0 DROPPED PREFETCHES: 0
PSCL2 PREFETCHES SAME FILL-ORIGIN LEVEL: 0 DIFFERENT FILL-ORIGIN LEVEL: 0

LLC TOTAL     ACCESS:     365530  HIT:     185121  MISS:     180409  HIT %:    50.6445  MISS %:    49.3555   MPKI: 0.902045
LLC LOAD      ACCESS:      66738  HIT:      37455  MISS:      29283  HIT %:    56.1224  MISS %:    43.8776   MPKI: 0.146415
LLC RFO       ACCESS:      18883  HIT:       2625  MISS:      16258  HIT %:    13.9014  MISS %:    86.0986   MPKI: 0.08129
LLC PREFETCH  ACCESS:     156629  HIT:      32849  MISS:     123780  HIT %:    20.9725  MISS %:    79.0275   MPKI: 0.6189
LLC WRITEBACK ACCESS:     116272  HIT:     107808  MISS:       8464  HIT %:    92.7205  MISS %:    7.27948   MPKI: 0.04232
LLC LOAD TRANSLATION ACCESS:       6584  HIT:       4277  MISS:       2307  HIT %:    64.9605  MISS %:    35.0395   MPKI: 0.011535
LLC TRANSLATION FROM L1D PREFETCHER ACCESS:        424  HIT:        107  MISS:        317  HIT %:    25.2358  MISS %:    74.7642   MPKI: 0.001585
LLC PREFETCH  REQUESTED:          0  ISSUED:          0  USEFUL:      26276  USELESS:     431094
LLC USEFUL LOAD PREFETCHES:      26276 PREFETCH ISSUED TO LOWER LEVEL:     514653  ACCURACY: 5.10558
LLC TIMELY PREFETCHES:      26276 LATE PREFETCHES: 0 DROPPED PREFETCHES: 0
LLC PREFETCHES SAME FILL-ORIGIN LEVEL: 0 DIFFERENT FILL-ORIGIN LEVEL: 0
LLC AVERAGE MISS LATENCY: 804.952 cycles
LLC RQ	ACCESS:     549567	FORWARD:          0	MERGED:          0	TO_CACHE:     549566
LLC WQ	ACCESS:     499790	FORWARD:          3	MERGED:          0	TO_CACHE:     499790
LLC PQ	ACCESS:     699892	FORWARD:          0	MERGED:          0	TO_CACHE:     699890

LLC Dense regions hint to LLC: 0

RAW hits: 2698280
Loads Generated: 44478570
Loads sent to L1D: 41780286
Stores Generated: 7969586
Stores sent to L1D: 7969587
Major fault: 0 Minor fault: 3395
Allocated PAGES: 14687

CPU 1 cumulative IPC: 1.3444 instructions: 200000002 cycles: 148765133
ITLB TOTAL     ACCESS:   32899285  HIT:   32116651  MISS:     782634  HIT %:    97.6211  MISS %:    2.37888   MPKI: 3.91317
ITLB LOAD TRANSLATION ACCESS:   32899285  HIT:   32116651  MISS:     782634  HIT %:    97.6211  MISS %:    2.37888   MPKI: 3.91317
ITLB PREFETCH  REQUESTED:          0  ISSUED:          0  USEFUL:          0  USELESS:          0
ITLB USEFUL LOAD PREFETCHES:          0 PREFETCH ISSUED TO LOWER LEVEL:          0  ACCURACY: -nan
ITLB TIMELY PREFETCHES:          0 LATE PREFETCHES: 0 DROPPED PREFETCHES: 0
ITLB PREFETCHES SAME FILL-ORIGIN LEVEL: 0 DIFFERENT FILL-ORIGIN LEVEL: 0
ITLB AVERAGE MISS LATENCY: 33.4516 cycles
ITLB RQ	ACCESS:   44522735	FORWARD:          0	MERGED:    6857954	TO_CACHE:   37664781

DTLB TOTAL     ACCESS:   25566719  HIT:   12688418  MISS:   12878301  HIT %:    49.6287  MISS %:    50.3713   MPKI: 64.3915
DTLB LOAD TRANSLATION ACCESS:   25566719  HIT:   12688418  MISS:   12878301  HIT %:    49.6287  MISS %:    50.3713   MPKI: 64.3915
DTLB PREFETCH  REQUESTED:          0  ISSUED:          0  USEFUL:          0  USELESS:          0
DTLB USEFUL LOAD PREFETCHES:          0 PREFETCH ISSUED TO LOWER LEVEL:          0  ACCURACY: -nan
DTLB TIMELY PREFETCHES:          0 LATE PREFETCHES: 0 DROPPED PREFETCHES: 0
DTLB PREFETCHES SAME FILL-ORIGIN LEVEL: 0 DIFFERENT FILL-ORIGIN LEVEL: 0
DTLB AVERAGE MISS LATENCY: 12.9494 cycles
DTLB RQ	ACCESS:   38219964	FORWARD:          0	MERGED:    7856652	TO_CACHE:   30363312

STLB TOTAL     ACCESS:   18545451  HIT:   16706052  MISS:    1839399  HIT %:    90.0817  MISS %:    9.91833   MPKI: 9.19699
STLB LOAD TRANSLATION ACCESS:   13660935  HIT:   11943514  MISS:    1717421  HIT %:    87.4282  MISS %:    12.5718   MPKI: 8.5871
STLB TRANSLATION FROM L1D PREFETCHER ACCESS:    4884516  HIT:    4762538  MISS:     121978  HIT %:    97.5028  MISS %:    2.49724   MPKI: 0.60989
STLB PREFETCH  REQUESTED:          0  ISSUED:          0  USEFUL:      92505  USELESS:      32632
STLB USEFUL LOAD PREFETCHES:      92505 PREFETCH ISSUED TO LOWER LEVEL:          0  ACCURACY: inf
STLB TIMELY PREFETCHES:      92505 LATE PREFETCHES: 0 DROPPED PREFETCHES: 617701
STLB PREFETCHES SAME FILL-ORIGIN LEVEL: 0 DIFFERENT FILL-ORIGIN LEVEL: 0
STLB AVERAGE MISS LATENCY: 29.199 cycles
STLB RQ	ACCESS:   39573244	FORWARD:          0	MERGED:   17963944	TO_CACHE:   21609300

STLB Hit, L1D data hit: 0
STLB Hit, L2C data hit: 0
STLB Hit, LLC data hit: 0
STLB Hit, LLC data miss: 0
STLB STLB hints to L2: 0
L1D TOTAL     ACCESS:   51436984  HIT:   51190819  MISS:     246165  HIT %:    99.5214  MISS %:   0.478576   MPKI: 1.23082
L1D LOAD      ACCESS:   27281026  HIT:   27191515  MISS:      89511  HIT %:    99.6719  MISS %:   0.328107   MPKI: 0.447555
L1D RFO       ACCESS:    6325809  HIT:    6291990  MISS:      33819  HIT %:    99.4654  MISS %:   0.534619   MPKI: 0.169095
L1D PREFETCH  ACCESS:   17830149  HIT:   17707314  MISS:     122835  HIT %:    99.3111  MISS %:   0.688917   MPKI: 0.614175
L1D PREFETCH  REQUESTED:   58984518  ISSUED:   55952485  USEFUL:     116779  USELESS:       8752
L1D USEFUL LOAD PREFETCHES:     116779 PREFETCH ISSUED TO LOWER LEVEL:    4305775  ACCURACY: 2.71215
L1D TIMELY PREFETCHES:     116779 LATE PREFETCHES: 4284 DROPPED PREFETCHES: 705728
L1D PREFETCHES SAME FILL-ORIGIN LEVEL: 129838 DIFFERENT FILL-ORIGIN LEVEL: 4175937
L1D AVERAGE MISS LATENCY: 95.8173 cycles
L1D RQ	ACCESS:   48981703	FORWARD:          0	MERGED:   17630390	TO_CACHE:   31206972
L1D WQ	ACCESS:    8242424	FORWARD:     156849	MERGED:    1229432	TO_CACHE:    7012992
L1D PQ	ACCESS:   32046963	FORWARD:          0	MERGED:    8128933	TO_CACHE:   23905522

L1D UNIQUE REGIONS ACCESSED: 0
L1D REGIONS CONFLICTS: 0
L1D Cross Page Prefetch Requests: 3317604
L1D Same Page Prefetch Requests: 31041919
L1D ROI Sum of L1D PQ occupancy: 352574169
L1D PREFETCHES PUSHED FROM L2C: 0
L1I TOTAL     ACCESS:   39238549  HIT:   38875953  MISS:     362596  HIT %:    99.0759  MISS %:   0.924081   MPKI: 1.81298
L1I LOAD      ACCESS:   39238549  HIT:   38875953  MISS:     362596  HIT %:    99.0759  MISS %:   0.924081   MPKI: 1.81298
L1I PREFETCH  REQUESTED:          0  ISSUED:          0  USEFUL:          0  USELESS:          0
L1I USEFUL LOAD PREFETCHES:          0 PREFETCH ISSUED TO LOWER LEVEL:          0  ACCURACY: -nan
L1I TIMELY PREFETCHES:          0 LATE PREFETCHES: 0 DROPPED PREFETCHES: 0
L1I PREFETCHES SAME FILL-ORIGIN LEVEL: 0 DIFFERENT FILL-ORIGIN LEVEL: 0
L1I AVERAGE MISS LATENCY: 33.7625 cycles
L1I RQ	ACCESS:   88446515	FORWARD:          0	MERGED:   43923780	TO_CACHE:   44522735

BTB BRANCH_DIRECT_JUMP	ACCESS:          0  HIT:          0  MISS:          0
BTB BRANCH_INDIRECT	ACCESS:          0  HIT:          0  MISS:          0
BTB BRANCH_CONDITIONAL	ACCESS:          0  HIT:          0  MISS:          0
BTB BRANCH_DIRECT_CALL	ACCESS:          0  HIT:          0  MISS:          0
BTB BRANCH_INDIRECT_CALL	ACCESS:          0  HIT:          0  MISS:          0
BTB BRANCH_RETURN	ACCESS:          0  HIT:          0  MISS:          0
BTB BRANCH_OTHER ACCESS:          0  HIT:          0  MISS:          0

L2C TOTAL     ACCESS:    6751310  HIT:    6435402  MISS:     315908  HIT %:    95.3208  MISS %:    4.67921   MPKI: 1.57954
L2C LOAD      ACCESS:     448306  HIT:     347753  MISS:     100553  HIT %:    77.5705  MISS %:    22.4295   MPKI: 0.502765
L2C DATA LOAD MPKI: 0.198075
L2C INSTRUCTION LOAD MPKI: 0.30469
L2C RFO       ACCESS:      33812  HIT:      13700  MISS:      20112  HIT %:    40.5182  MISS %:    59.4818   MPKI: 0.10056
L2C PREFETCH  ACCESS:    3611505  HIT:    3441168  MISS:     170337  HIT %:    95.2835  MISS %:    4.71651   MPKI: 0.851685
L2C DATA PREFETCH MPKI: 0.851685
L2C INSTRUCTION PREFETCH MPKI: 0
L2C WRITEBACK ACCESS:     149764  HIT:     134584  MISS:      15180  HIT %:    89.8641  MISS %:    10.1359   MPKI: 0.0759
L2C LOAD TRANSLATION ACCESS:    1769089  HIT:    1759851  MISS:       9238  HIT %:    99.4778  MISS %:    0.52219   MPKI: 0.04619
L2C TRANSLATION FROM L1D PREFETCHER ACCESS:     738834  HIT:     738346  MISS:        488  HIT %:    99.9339  MISS %:    0.06605   MPKI: 0.00244
L2C PREFETCH  REQUESTED:          0  ISSUED:          0  USEFUL:      21733  USELESS:     154236
L2C USEFUL LOAD PREFETCHES:      21733 PREFETCH ISSUED TO LOWER LEVEL:     179117  ACCURACY: 12.1334
L2C TIMELY PREFETCHES:      21733 LATE PREFETCHES: 1806 DROPPED PREFETCHES: 0
L2C PREFETCHES SAME FILL-ORIGIN LEVEL: 127243 DIFFERENT FILL-ORIGIN LEVEL: 0
L2C AVERAGE MISS LATENCY: 152.293 cycles
L2C RQ	ACCESS:    3281361	FORWARD:          0	MERGED:          0	TO_CACHE:    3281359
L2C WQ	ACCESS:     161737	FORWARD:          3	MERGED:          0	TO_CACHE:     161737
L2C PQ	ACCESS:    4305387	FORWARD:          0	MERGED:      19084	TO_CACHE:    4286302

L2C Instructions Evicting Data 46780
L2C Translations Evicting Data 7727
L2C Data Evicting Data 194645
L2C Instructions Evicting Instructions 25251
L2C Translations Evicting Instructions 3319
L2C Data Evicting Instructions 43613
L2C Instructions Evicting Translations 3211
L2C Translations Evicting Translations 403
L2C Data Evicting Translations 7308
L2C Dense regions hint from L2: 0
PSCL5 TOTAL     ACCESS:    2453319  HIT:    2453319  MISS:          0  HIT %:        100  MISS %:          0   MPKI: 0
PSCL5 LOAD TRANSLATION ACCESS:    1717421  HIT:    1717421  MISS:          0  HIT %:        100  MISS %:          0   MPKI: 0
PSCL5 TRANSLATION FROM L1D PREFETCHER ACCESS:     735898  HIT:     735898  MISS:          0  HIT %:        100  MISS %:          0   MPKI: 0
PSCL5 PREFETCH  REQUESTED:          0  ISSUED:          0  USEFUL:          0  USELESS:          0
PSCL5 USEFUL LOAD PREFETCHES:          0 PREFETCH ISSUED TO LOWER LEVEL:          0  ACCURACY: -nan
PSCL5 TIMELY PREFETCHES:          0 LATE PREFETCHES: 0 DROPPED PREFETCHES: 0
PSCL5 PREFETCHES SAME FILL-ORIGIN LEVEL: 0 DIFFERENT FILL-ORIGIN LEVEL: 0

PSCL4 TOTAL     ACCESS:    2445659  HIT:    2445488  MISS:        171  HIT %:     99.993  MISS %: 0.00699198   MPKI: 0.000855
PSCL4 LOAD TRANSLATION ACCESS:    1710115  HIT:    1709944  MISS:        171  HIT %:      99.99  MISS %: 0.00999933   MPKI: 0.000855
PSCL4 TRANSLATION FROM L1D PREFETCHER ACCESS:     735544  HIT:     735544  MISS:          0  HIT %:        100  MISS %:          0   MPKI: 0
PSCL4 PREFETCH  REQUESTED:          0  ISSUED:          0  USEFUL:          0  USELESS:          0
PSCL4 USEFUL LOAD PREFETCHES:          0 PREFETCH ISSUED TO LOWER LEVEL:          0  ACCURACY: -nan
PSCL4 TIMELY PREFETCHES:          0 LATE PREFETCHES: 0 DROPPED PREFETCHES: 0
PSCL4 PREFETCHES SAME FILL-ORIGIN LEVEL: 0 DIFFERENT FILL-ORIGIN LEVEL: 0

PSCL3 TOTAL     ACCESS:    2445972  HIT:    2444141  MISS:       1831  HIT %:    99.9251  MISS %:  0.0748578   MPKI: 0.009155
PSCL3 LOAD TRANSLATION ACCESS:    1710623  HIT:    1708792  MISS:       1831  HIT %:     99.893  MISS %:   0.107037   MPKI: 0.009155
PSCL3 TRANSLATION FROM L1D PREFETCHER ACCESS:     735349  HIT:     735349  MISS:          0  HIT %:        100  MISS %:          0   MPKI: 0
PSCL3 PREFETCH  REQUESTED:          0  ISSUED:          0  USEFUL:          0  USELESS:          0
PSCL3 USEFUL LOAD PREFETCHES:          0 PREFETCH ISSUED TO LOWER LEVEL:          0  ACCURACY: -nan
PSCL3 TIMELY PREFETCHES:          0 LATE PREFETCHES: 0 DROPPED PREFETCHES: 0
PSCL3 PREFETCHES SAME FILL-ORIGIN LEVEL: 0 DIFFERENT FILL-ORIGIN LEVEL: 0

PSCL2 TOTAL     ACCESS:    2450442  HIT:    2400041  MISS:      50401  HIT %:    97.9432  MISS %:    2.05681   MPKI: 0.252005
PSCL2 LOAD TRANSLATION ACCESS:    1717853  HIT:    1667452  MISS:      50401  HIT %:     97.066  MISS %:    2.93395   MPKI: 0.252005
PSCL2 TRANSLATION FROM L1D PREFETCHER ACCESS:     732589  HIT:     732589  MISS:          0  HIT %:        100  MISS %:          0   MPKI: 0
PSCL2 PREFETCH  REQUESTED:          0  ISSUED:          0  USEFUL:          0  USELESS:          0
PSCL2 USEFUL LOAD PREFETCHES:          0 PREFETCH ISSUED TO LOWER LEVEL:          0  ACCURACY: -nan
PSCL2 TIMELY PREFETCHES:          0 LATE PREFETCHES: 0 DROPPED PREFETCHES: 0
PSCL2 PREFETCHES SAME FILL-ORIGIN LEVEL: 0 DIFFERENT FILL-ORIGIN LEVEL: 0

LLC TOTAL     ACCESS:     426669  HIT:     235303  MISS:     191366  HIT %:    55.1488  MISS %:    44.8512   MPKI: 0.95683
LLC LOAD      ACCESS:      99000  HIT:      64857  MISS:      34143  HIT %:    65.5121  MISS %:    34.4879   MPKI: 0.170715
LLC RFO       ACCESS:      20092  HIT:       3736  MISS:      16356  HIT %:    18.5945  MISS %:    81.4055   MPKI: 0.08178
LLC PREFETCH  ACCESS:     171910  HIT:      42742  MISS:     129168  HIT %:     24.863  MISS %:     75.137   MPKI: 0.64584
LLC WRITEBACK ACCESS:     125941  HIT:     117194  MISS:       8747  HIT %:    93.0547  MISS %:    6.94532   MPKI: 0.043735
LLC LOAD TRANSLATION ACCESS:       9238  HIT:       6629  MISS:       2609  HIT %:     71.758  MISS %:     28.242   MPKI: 0.013045
LLC TRANSLATION FROM L1D PREFETCHER ACCESS:        488  HIT:        145  MISS:        343  HIT %:    29.7131  MISS %:    70.2869   MPKI: 0.001715
LLC PREFETCH  REQUESTED:          0  ISSUED:          0  USEFUL:      26276  USELESS:     431094
LLC USEFUL LOAD PREFETCHES:      26276 PREFETCH ISSUED TO LOWER LEVEL:     514653  ACCURACY: 5.10558
LLC TIMELY PREFETCHES:      26276 LATE PREFETCHES: 0 DROPPED PREFETCHES: 0
LLC PREFETCHES SAME FILL-ORIGIN LEVEL: 0 DIFFERENT FILL-ORIGIN LEVEL: 0
LLC AVERAGE MISS LATENCY: 758.863 cycles
LLC RQ	ACCESS:     549567	FORWARD:          0	MERGED:          0	TO_CACHE:     549566
LLC WQ	ACCESS:     499790	FORWARD:          3	MERGED:          0	TO_CACHE:     499790
LLC PQ	ACCESS:     699892	FORWARD:          0	MERGED:          0	TO_CACHE:     699890

LLC Dense regions hint to LLC: 0

RAW hits: 2503152
Loads Generated: 45186105
Loads sent to L1D: 42682953
Stores Generated: 7579567
Stores sent to L1D: 7579566
Major fault: 0 Minor fault: 3857
Allocated PAGES: 14687

CPU 2 cumulative IPC: 1.1849 instructions: 200000000 cycles: 168790284
ITLB TOTAL     ACCESS:   31938007  HIT:   30774811  MISS:    1163196  HIT %:     96.358  MISS %:    3.64204   MPKI: 5.81598
ITLB LOAD TRANSLATION ACCESS:   31938007  HIT:   30774811  MISS:    1163196  HIT %:     96.358  MISS %:    3.64204   MPKI: 5.81598
ITLB PREFETCH  REQUESTED:          0  ISSUED:          0  USEFUL:          0  USELESS:          0
ITLB USEFUL LOAD PREFETCHES:          0 PREFETCH ISSUED TO LOWER LEVEL:          0  ACCURACY: -nan
ITLB TIMELY PREFETCHES:          0 LATE PREFETCHES: 0 DROPPED PREFETCHES: 0
ITLB PREFETCHES SAME FILL-ORIGIN LEVEL: 0 DIFFERENT FILL-ORIGIN LEVEL: 0
ITLB AVERAGE MISS LATENCY: 29.8122 cycles
ITLB RQ	ACCESS:   39331553	FORWARD:          0	MERGED:    6924618	TO_CACHE:   32406935

DTLB TOTAL     ACCESS:   26980949  HIT:   15640277  MISS:   11340672  HIT %:    57.9679  MISS %:    42.0321   MPKI: 56.7034
DTLB LOAD TRANSLATION ACCESS:   26980949  HIT:   15640277  MISS:   11340672  HIT %:    57.9679  MISS %:    42.0321   MPKI: 56.7034
DTLB PREFETCH  REQUESTED:          0  ISSUED:          0  USEFUL:          0  USELESS:          0
DTLB USEFUL LOAD PREFETCHES:          0 PREFETCH ISSUED TO LOWER LEVEL:          0  ACCURACY: -nan
DTLB TIMELY PREFETCHES:          0 LATE PREFETCHES: 0 DROPPED PREFETCHES: 0
DTLB PREFETCHES SAME FILL-ORIGIN LEVEL: 0 DIFFERENT FILL-ORIGIN LEVEL: 0
DTLB AVERAGE MISS LATENCY: 12.777 cycles
DTLB RQ	ACCESS:   36012058	FORWARD:          0	MERGED:    8052337	TO_CACHE:   27959721

STLB TOTAL     ACCESS:   17505358  HIT:   14823688  MISS:    2681670  HIT %:    84.6809  MISS %:    15.3191   MPKI: 13.4084
STLB LOAD TRANSLATION ACCESS:   12503867  HIT:   10006024  MISS:    2497843  HIT %:    80.0234  MISS %:    19.9766   MPKI: 12.4892
STLB TRANSLATION FROM L1D PREFETCHER ACCESS:    5001491  HIT:    4817664  MISS:     183827  HIT %:    96.3246  MISS %:    3.67544   MPKI: 0.919135
STLB PREFETCH  REQUESTED:          0  ISSUED:          0  USEFUL:     139617  USELESS:      44208
STLB USEFUL LOAD PREFETCHES:     139617 PREFETCH ISSUED TO LOWER LEVEL:          0  ACCURACY: inf
STLB TIMELY PREFETCHES:     139617 LATE PREFETCHES: 0 DROPPED PREFETCHES: 140554
STLB PREFETCHES SAME FILL-ORIGIN LEVEL: 0 DIFFERENT FILL-ORIGIN LEVEL: 0
STLB AVERAGE MISS LATENCY: 26.4745 cycles
STLB RQ	ACCESS:   34580946	FORWARD:          0	MERGED:   16888960	TO_CACHE:   17691986

STLB Hit, L1D data hit: 0
STLB Hit, L2C data hit: 0
STLB Hit, LLC data hit: 0
STLB Hit, LLC data miss: 0
STLB STLB hints to L2: 0
L1D TOTAL     ACCESS:   53202111  HIT:   52830543  MISS:     371568  HIT %:    99.3016  MISS %:   0.698408   MPKI: 1.85784
L1D LOAD      ACCESS:   26239685  HIT:   26064812  MISS:     174873  HIT %:    99.3336  MISS %:   0.666445   MPKI: 0.874365
L1D RFO       ACCESS:    9538011  HIT:    9483133  MISS:      54878  HIT %:    99.4246  MISS %:   0.575361   MPKI: 0.27439
L1D PREFETCH  ACCESS:   17424415  HIT:   17282598  MISS:     141817  HIT %:    99.1861  MISS %:   0.813898   MPKI: 0.709085
L1D PREFETCH  REQUESTED:   56385615  ISSUED:   53221715  USEFUL:     123859  USELESS:      17952
L1D USEFUL LOAD PREFETCHES:     123859 PREFETCH ISSUED TO LOWER LEVEL:    4434299  ACCURACY: 2.7932
L1D TIMELY PREFETCHES:     123859 LATE PREFETCHES: 3859 DROPPED PREFETCHES: 290582
L1D PREFETCHES SAME FILL-ORIGIN LEVEL: 145680 DIFFERENT FILL-ORIGIN LEVEL: 4288619
L1D AVERAGE MISS LATENCY: 71.8759 cycles
L1D RQ	ACCESS:   41174319	FORWARD:          0	MERGED:   14798264	TO_CACHE:   26252984
L1D WQ	ACCESS:   10781226	FORWARD:     141960	MERGED:    1022152	TO_CACHE:    9759074
L1D PQ	ACCESS:   31144636	FORWARD:          0	MERGED:    9048668	TO_CACHE:   22077079

L1D UNIQUE REGIONS ACCESSED: 0
L1D REGIONS CONFLICTS: 0
L1D Cross Page Prefetch Requests: 4006590
L1D Same Page Prefetch Requests: 27600921
L1D ROI Sum of L1D PQ occupancy: 319792147
L1D PREFETCHES PUSHED FROM L2C: 0
L1I TOTAL     ACCESS:   39044744  HIT:   38229284  MISS:     815460  HIT %:    97.9115  MISS %:    2.08853   MPKI: 4.0773
L1I LOAD      ACCESS:   39044744  HIT:   38229284  MISS:     815460  HIT %:    97.9115  MISS %:    2.08853   MPKI: 4.0773
L1I PREFETCH  REQUESTED:          0  ISSUED:          0  USEFUL:          0  USELESS:          0
L1I USEFUL LOAD PREFETCHES:          0 PREFETCH ISSUED TO LOWER LEVEL:          0  ACCURACY: -nan
L1I TIMELY PREFETCHES:          0 LATE PREFETCHES: 0 DROPPED PREFETCHES: 0
L1I PREFETCHES SAME FILL-ORIGIN LEVEL: 0 DIFFERENT FILL-ORIGIN LEVEL: 0
L1I AVERAGE MISS LATENCY: 19.0045 cycles
L1I RQ	ACCESS:   71960651	FORWARD:          0	MERGED:   32629098	TO_CACHE:   39331553

BTB BRANCH_DIRECT_JUMP	ACCESS:          0  HIT:          0  MISS:          0
BTB BRANCH_INDIRECT	ACCESS:          0  HIT:          0  MISS:          0
BTB BRANCH_CONDITIONAL	ACCESS:          0  HIT:          0  MISS:          0
BTB BRANCH_DIRECT_CALL	ACCESS:          0  HIT:          0  MISS:          0
BTB BRANCH_INDIRECT_CALL	ACCESS:          0  HIT:          0  MISS:          0
BTB BRANCH_RETURN	ACCESS:          0  HIT:          0  MISS:          0
BTB BRANCH_OTHER ACCESS:          0  HIT:          0  MISS:          0

L2C TOTAL     ACCESS:    8540153  HIT:    8148280  MISS:     391873  HIT %:    95.4114  MISS %:    4.58859   MPKI: 1.95937
L2C LOAD      ACCESS:     986471  HIT:     869655  MISS:     116816  HIT %:    88.1582  MISS %:    11.8418   MPKI: 0.58408
L2C DATA LOAD MPKI: 0.275535
L2C INSTRUCTION LOAD MPKI: 0.308545
L2C RFO       ACCESS:      54858  HIT:      29927  MISS:      24931  HIT %:    54.5536  MISS %:    45.4464   MPKI: 0.124655
L2C PREFETCH  ACCESS:    4359063  HIT:    4130586  MISS:     228477  HIT %:    94.7586  MISS %:    5.24142   MPKI: 1.14238
L2C DATA PREFETCH MPKI: 1.14238
L2C INSTRUCTION PREFETCH MPKI: 0
L2C WRITEBACK ACCESS:     194270  HIT:     183032  MISS:      11238  HIT %:    94.2153  MISS %:    5.78473   MPKI: 0.05619
L2C LOAD TRANSLATION ACCESS:    2619513  HIT:    2609648  MISS:       9865  HIT %:    99.6234  MISS %:   0.376597   MPKI: 0.049325
L2C TRANSLATION FROM L1D PREFETCHER ACCESS:     325978  HIT:     325432  MISS:        546  HIT %:    99.8325  MISS %:   0.167496   MPKI: 0.00273
L2C PREFETCH  REQUESTED:          0  ISSUED:          0  USEFUL:      41711  USELESS:     187228
L2C USEFUL LOAD PREFETCHES:      41711 PREFETCH ISSUED TO LOWER LEVEL:     231263  ACCURACY: 18.0362
L2C TIMELY PREFETCHES:      41711 LATE PREFETCHES: 2786 DROPPED PREFETCHES: 0
L2C PREFETCHES SAME FILL-ORIGIN LEVEL: 179830 DIFFERENT FILL-ORIGIN LEVEL: 0
L2C AVERAGE MISS LATENCY: 133.847 cycles
L2C RQ	ACCESS:    3986842	FORWARD:          0	MERGED:          0	TO_CACHE:    3986824
L2C WQ	ACCESS:     194270	FORWARD:         25	MERGED:          0	TO_CACHE:     194270
L2C PQ	ACCESS:    4434109	FORWARD:          0	MERGED:      16962	TO_CACHE:    4417140

L2C Instructions Evicting Data 44553
L2C Translations Evicting Data 7835
L2C Data Evicting Data 258299
L2C Instructions Evicting Instructions 14863
L2C Translations Evicting Instructions 2242
L2C Data Evicting Instructions 42244
L2C Instructions Evicting Translations 2131
L2C Translations Evicting Translations 311
L2C Data Evicting Translations 7575
L2C Dense regions hint from L2: 0
PSCL5 TOTAL     ACCESS:    2822224  HIT:    2822224  MISS:          0  HIT %:        100  MISS %:          0   MPKI: 0
PSCL5 LOAD TRANSLATION ACCESS:    2497843  HIT:    2497843  MISS:          0  HIT %:        100  MISS %:          0   MPKI: 0
PSCL5 TRANSLATION FROM L1D PREFETCHER ACCESS:     324381  HIT:     324381  MISS:          0  HIT %:        100  MISS %:          0   MPKI: 0
PSCL5 PREFETCH  REQUESTED:          0  ISSUED:          0  USEFUL:          0  USELESS:          0
PSCL5 USEFUL LOAD PREFETCHES:          0 PREFETCH ISSUED TO LOWER LEVEL:          0  ACCURACY: -nan
PSCL5 TIMELY PREFETCHES:          0 LATE PREFETCHES: 0 DROPPED PREFETCHES: 0
PSCL5 PREFETCHES SAME FILL-ORIGIN LEVEL: 0 DIFFERENT FILL-ORIGIN LEVEL: 0

PSCL4 TOTAL     ACCESS:    2815656  HIT:    2815499  MISS:        157  HIT %:    99.9944  MISS %: 0.00557597   MPKI: 0.000785
PSCL4 LOAD TRANSLATION ACCESS:    2491716  HIT:    2491559  MISS:        157  HIT %:    99.9937  MISS %: 0.00630088   MPKI: 0.000785
PSCL4 TRANSLATION FROM L1D PREFETCHER ACCESS:     323940  HIT:     323940  MISS:          0  HIT %:        100  MISS %:          0   MPKI: 0
PSCL4 PREFETCH  REQUESTED:          0  ISSUED:          0  USEFUL:          0  USELESS:          0
PSCL4 USEFUL LOAD PREFETCHES:          0 PREFETCH ISSUED TO LOWER LEVEL:          0  ACCURACY: -nan
PSCL4 TIMELY PREFETCHES:          0 LATE PREFETCHES: 0 DROPPED PREFETCHES: 0
PSCL4 PREFETCHES SAME FILL-ORIGIN LEVEL: 0 DIFFERENT FILL-ORIGIN LEVEL: 0

PSCL3 TOTAL     ACCESS:    2797645  HIT:    2793022  MISS:       4623  HIT %:    99.8348  MISS %:   0.165246   MPKI: 0.023115
PSCL3 LOAD TRANSLATION ACCESS:    2474400  HIT:    2469777  MISS:       4623  HIT %:    99.8132  MISS %:   0.186833   MPKI: 0.023115
PSCL3 TRANSLATION FROM L1D PREFETCHER ACCESS:     323245  HIT:     323245  MISS:          0  HIT %:        100  MISS %:          0   MPKI: 0
PSCL3 PREFETCH  REQUESTED:          0  ISSUED:          0  USEFUL:          0  USELESS:          0
PSCL3 USEFUL LOAD PREFETCHES:          0 PREFETCH ISSUED TO LOWER LEVEL:          0  ACCURACY: -nan
PSCL3 TIMELY PREFETCHES:          0 LATE PREFETCHES: 0 DROPPED PREFETCHES: 0
PSCL3 PREFETCHES SAME FILL-ORIGIN LEVEL: 0 DIFFERENT FILL-ORIGIN LEVEL: 0

PSCL2 TOTAL     ACCESS:    2821633  HIT:    2703457  MISS:     118176  HIT %:    95.8118  MISS %:    4.18821   MPKI: 0.59088
PSCL2 LOAD TRANSLATION ACCESS:    2498817  HIT:    2380641  MISS:     118176  HIT %:    95.2707  MISS %:    4.72928   MPKI: 0.59088
PSCL2 TRANSLATION FROM L1D PREFETCHER ACCESS:     322816  HIT:     322816  MISS:          0  HIT %:        100  MISS %:          0   MPKI: 0
PSCL2 PREFETCH  REQUESTED:          0  ISSUED:          0  USEFUL:          0  USELESS:          0
PSCL2 USEFUL LOAD PREFETCHES:          0 PREFETCH ISSUED TO LOWER LEVEL:          0  ACCURACY: -nan
PSCL2 TIMELY PREFETCHES:          0 LATE PREFETCHES: 0 DROPPED PREFETCHES: 0
PSCL2 PREFETCHES SAME FILL-ORIGIN LEVEL: 0 DIFFERENT FILL-ORIGIN LEVEL: 0

LLC TOTAL     ACCESS:     529446  HIT:     299573  MISS:     229873  HIT %:    56.5824  MISS %:    43.4176   MPKI: 1.14936
LLC LOAD      ACCESS:     114071  HIT:      72229  MISS:      41842  HIT %:    63.3193  MISS %:    36.6807   MPKI: 0.20921
LLC RFO       ACCESS:      24889  HIT:       1893  MISS:      22996  HIT %:    7.60577  MISS %:    92.3942   MPKI: 0.11498
LLC PREFETCH  ACCESS:     231263  HIT:      75697  MISS:     155566  HIT %:     32.732  MISS %:     67.268   MPKI: 0.77783
LLC WRITEBACK ACCESS:     148812  HIT:     142337  MISS:       6475  HIT %:    95.6489  MISS %:    4.35113   MPKI: 0.032375
LLC LOAD TRANSLATION ACCESS:       9865  HIT:       7241  MISS:       2624  HIT %:    73.4009  MISS %:    26.5991   MPKI: 0.01312
LLC TRANSLATION FROM L1D PREFETCHER ACCESS:        546  HIT:        176  MISS:        370  HIT %:    32.2344  MISS %:    67.7656   MPKI: 0.00185
LLC PREFETCH  REQUESTED:          0  ISSUED:          0  USEFUL:      26276  USELESS:     431094
LLC USEFUL LOAD PREFETCHES:      26276 PREFETCH ISSUED TO LOWER LEVEL:     514653  ACCURACY: 5.10558
LLC TIMELY PREFETCHES:      26276 LATE PREFETCHES: 0 DROPPED PREFETCHES: 0
LLC PREFETCHES SAME FILL-ORIGIN LEVEL: 0 DIFFERENT FILL-ORIGIN LEVEL: 0
LLC AVERAGE MISS LATENCY: 631.742 cycles
LLC RQ	ACCESS:     549567	FORWARD:          0	MERGED:          0	TO_CACHE:     549566
LLC WQ	ACCESS:     499790	FORWARD:          3	MERGED:          0	TO_CACHE:     499790
LLC PQ	ACCESS:     699892	FORWARD:          0	MERGED:          0	TO_CACHE:     699890

LLC Dense regions hint to LLC: 0

RAW hits: 2886706
Loads Generated: 44061034
Loads sent to L1D: 41174319
Stores Generated: 10781225
Stores sent to L1D: 10781226
Major fault: 0 Minor fault: 4023
Allocated PAGES: 14687

CPU 3 cumulative IPC: 1.31458 instructions: 200000000 cycles: 152140082
ITLB TOTAL     ACCESS:   33035722  HIT:   32312977  MISS:     722745  HIT %:    97.8122  MISS %:    2.18777   MPKI: 3.61373
ITLB LOAD TRANSLATION ACCESS:   33035722  HIT:   32312977  MISS:     722745  HIT %:    97.8122  MISS %:    2.18777   MPKI: 3.61373
ITLB PREFETCH  REQUESTED:          0  ISSUED:          0  USEFUL:          0  USELESS:          0
ITLB USEFUL LOAD PREFETCHES:          0 PREFETCH ISSUED TO LOWER LEVEL:          0  ACCURACY: -nan
ITLB TIMELY PREFETCHES:          0 LATE PREFETCHES: 0 DROPPED PREFETCHES: 0
ITLB PREFETCHES SAME FILL-ORIGIN LEVEL: 0 DIFFERENT FILL-ORIGIN LEVEL: 0
ITLB AVERAGE MISS LATENCY: 31.938 cycles
ITLB RQ	ACCESS:   44380061	FORWARD:          0	MERGED:    7097649	TO_CACHE:   37282412

DTLB TOTAL     ACCESS:   25713877  HIT:   13024503  MISS:   12689374  HIT %:    50.6517  MISS %:    49.3483   MPKI: 63.4469
DTLB LOAD TRANSLATION ACCESS:   25713877  HIT:   13024503  MISS:   12689374  HIT %:    50.6517  MISS %:    49.3483   MPKI: 63.4469
DTLB PREFETCH  REQUESTED:          0  ISSUED:          0  USEFUL:          0  USELESS:          0
DTLB USEFUL LOAD PREFETCHES:          0 PREFETCH ISSUED TO LOWER LEVEL:          0  ACCURACY: -nan
DTLB TIMELY PREFETCHES:          0 LATE PREFETCHES: 0 DROPPED PREFETCHES: 0
DTLB PREFETCHES SAME FILL-ORIGIN LEVEL: 0 DIFFERENT FILL-ORIGIN LEVEL: 0
DTLB AVERAGE MISS LATENCY: 12.3523 cycles
DTLB RQ	ACCESS:   37754217	FORWARD:          0	MERGED:    8049373	TO_CACHE:   29704844

STLB TOTAL     ACCESS:   16121086  HIT:   14570834  MISS:    1550252  HIT %:    90.3837  MISS %:     9.6163   MPKI: 7.75126
STLB LOAD TRANSLATION ACCESS:   13412118  HIT:   11933102  MISS:    1479016  HIT %:    88.9725  MISS %:    11.0275   MPKI: 7.39508
STLB TRANSLATION FROM L1D PREFETCHER ACCESS:    2708968  HIT:    2637732  MISS:      71236  HIT %:    97.3704  MISS %:    2.62964   MPKI: 0.35618
STLB PREFETCH  REQUESTED:          0  ISSUED:          0  USEFUL:      57811  USELESS:      16902
STLB USEFUL LOAD PREFETCHES:      57811 PREFETCH ISSUED TO LOWER LEVEL:          0  ACCURACY: inf
STLB TIMELY PREFETCHES:      57811 LATE PREFETCHES: 0 DROPPED PREFETCHES: 124984
STLB PREFETCHES SAME FILL-ORIGIN LEVEL: 0 DIFFERENT FILL-ORIGIN LEVEL: 0
STLB AVERAGE MISS LATENCY: 28.6396 cycles
STLB RQ	ACCESS:   28130542	FORWARD:          0	MERGED:   10077352	TO_CACHE:   18053190

STLB Hit, L1D data hit: 0
STLB Hit, L2C data hit: 0
STLB Hit, LLC data hit: 0
STLB Hit, LLC data miss: 0
STLB STLB hints to L2: 0
L1D TOTAL     ACCESS:   43676908  HIT:   43443191  MISS:     233717  HIT %:    99.4649  MISS %:   0.535104   MPKI: 1.16858
L1D LOAD      ACCESS:   27318897  HIT:   27201799  MISS:     117098  HIT %:    99.5714  MISS %:   0.428634   MPKI: 0.58549
L1D RFO       ACCESS:    6453971  HIT:    6414509  MISS:      39462  HIT %:    99.3886  MISS %:   0.611438   MPKI: 0.19731
L1D PREFETCH  ACCESS:    9904040  HIT:    9826883  MISS:      77157  HIT %:     99.221  MISS %:   0.779046   MPKI: 0.385785
L1D PREFETCH  REQUESTED:   33053381  ISSUED:   31450967  USEFUL:      69207  USELESS:       9304
L1D USEFUL LOAD PREFETCHES:      69207 PREFETCH ISSUED TO LOWER LEVEL:    2623823  ACCURACY: 2.63764
L1D TIMELY PREFETCHES:      69207 LATE PREFETCHES: 3410 DROPPED PREFETCHES: 245161
L1D PREFETCHES SAME FILL-ORIGIN LEVEL: 81924 DIFFERENT FILL-ORIGIN LEVEL: 2541899
L1D AVERAGE MISS LATENCY: 71.7345 cycles
L1D RQ	ACCESS:   47889982	FORWARD:          0	MERGED:   17122735	TO_CACHE:   30635616
L1D WQ	ACCESS:    8353563	FORWARD:     142050	MERGED:    1234962	TO_CACHE:    7118601
L1D PQ	ACCESS:   18400713	FORWARD:          0	MERGED:    5340040	TO_CACHE:   13050254

L1D UNIQUE REGIONS ACCESSED: 0
L1D REGIONS CONFLICTS: 0
L1D Cross Page Prefetch Requests: 1999149
L1D Same Page Prefetch Requests: 16408600
L1D ROI Sum of L1D PQ occupancy: 183846042
L1D PREFETCHES PUSHED FROM L2C: 0
L1I TOTAL     ACCESS:   39525303  HIT:   38950671  MISS:     574632  HIT %:    98.5462  MISS %:    1.45383   MPKI: 2.87316
L1I LOAD      ACCESS:   39525303  HIT:   38950671  MISS:     574632  HIT %:    98.5462  MISS %:    1.45383   MPKI: 2.87316
L1I PREFETCH  REQUESTED:          0  ISSUED:          0  USEFUL:          0  USELESS:          0
L1I USEFUL LOAD PREFETCHES:          0 PREFETCH ISSUED TO LOWER LEVEL:          0  ACCURACY: -nan
L1I TIMELY PREFETCHES:          0 LATE PREFETCHES: 0 DROPPED PREFETCHES: 0
L1I PREFETCHES SAME FILL-ORIGIN LEVEL: 0 DIFFERENT FILL-ORIGIN LEVEL: 0
L1I AVERAGE MISS LATENCY: 24.6243 cycles
L1I RQ	ACCESS:   85447801	FORWARD:          0	MERGED:   41067740	TO_CACHE:   44380061

BTB BRANCH_DIRECT_JUMP	ACCESS:          0  HIT:          0  MISS:          0
BTB BRANCH_INDIRECT	ACCESS:          0  HIT:          0  MISS:          0
BTB BRANCH_CONDITIONAL	ACCESS:          0  HIT:          0  MISS:          0
BTB BRANCH_DIRECT_CALL	ACCESS:          0  HIT:          0  MISS:          0
BTB BRANCH_INDIRECT_CALL	ACCESS:          0  HIT:          0  MISS:          0
BTB BRANCH_RETURN	ACCESS:          0  HIT:          0  MISS:          0
BTB BRANCH_OTHER ACCESS:          0  HIT:          0  MISS:          0

L2C TOTAL     ACCESS:    5042111  HIT:    4789896  MISS:     252215  HIT %:    94.9978  MISS %:    5.00217   MPKI: 1.26107
L2C LOAD      ACCESS:     688407  HIT:     591662  MISS:      96745  HIT %:    85.9465  MISS %:    14.0535   MPKI: 0.483725
L2C DATA LOAD MPKI: 0.18979
L2C INSTRUCTION LOAD MPKI: 0.293935
L2C RFO       ACCESS:      39451  HIT:      22936  MISS:      16515  HIT %:    58.1379  MISS %:    41.8621   MPKI: 0.082575
L2C PREFETCH  ACCESS:    2433148  HIT:    2313549  MISS:     119599  HIT %:    95.0846  MISS %:     4.9154   MPKI: 0.597995
L2C DATA PREFETCH MPKI: 0.597995
L2C INSTRUCTION PREFETCH MPKI: 0
L2C WRITEBACK ACCESS:     121479  HIT:     111326  MISS:      10153  HIT %:    91.6422  MISS %:    8.35782   MPKI: 0.050765
L2C LOAD TRANSLATION ACCESS:    1564025  HIT:    1555186  MISS:       8839  HIT %:    99.4349  MISS %:   0.565144   MPKI: 0.044195
L2C TRANSLATION FROM L1D PREFETCHER ACCESS:     195601  HIT:     195237  MISS:        364  HIT %:    99.8139  MISS %:   0.186093   MPKI: 0.00182
L2C PREFETCH  REQUESTED:          0  ISSUED:          0  USEFUL:      25529  USELESS:      97501
L2C USEFUL LOAD PREFETCHES:      25529 PREFETCH ISSUED TO LOWER LEVEL:     125889  ACCURACY: 20.279
L2C TIMELY PREFETCHES:      25529 LATE PREFETCHES: 2182 DROPPED PREFETCHES: 0
L2C PREFETCHES SAME FILL-ORIGIN LEVEL: 99890 DIFFERENT FILL-ORIGIN LEVEL: 0
L2C AVERAGE MISS LATENCY: 145.984 cycles
L2C RQ	ACCESS:    2688598	FORWARD:          0	MERGED:          0	TO_CACHE:    2688585
L2C WQ	ACCESS:     126981	FORWARD:         13	MERGED:          0	TO_CACHE:     126981
L2C PQ	ACCESS:    2622255	FORWARD:          0	MERGED:       9975	TO_CACHE:    2612280

L2C Instructions Evicting Data 39401
L2C Translations Evicting Data 6274
L2C Data Evicting Data 137382
L2C Instructions Evicting Instructions 21220
L2C Translations Evicting Instructions 3187
L2C Data Evicting Instructions 36758
L2C Instructions Evicting Translations 2960
L2C Translations Evicting Translations 417
L2C Data Evicting Translations 6057
L2C Dense regions hint from L2: 0
PSCL5 TOTAL     ACCESS:    1673726  HIT:    1673726  MISS:          0  HIT %:        100  MISS %:          0   MPKI: 0
PSCL5 LOAD TRANSLATION ACCESS:    1479016  HIT:    1479016  MISS:          0  HIT %:        100  MISS %:          0   MPKI: 0
PSCL5 TRANSLATION FROM L1D PREFETCHER ACCESS:     194710  HIT:     194710  MISS:          0  HIT %:        100  MISS %:          0   MPKI: 0
PSCL5 PREFETCH  REQUESTED:          0  ISSUED:          0  USEFUL:          0  USELESS:          0
PSCL5 USEFUL LOAD PREFETCHES:          0 PREFETCH ISSUED TO LOWER LEVEL:          0  ACCURACY: -nan
PSCL5 TIMELY PREFETCHES:          0 LATE PREFETCHES: 0 DROPPED PREFETCHES: 0
PSCL5 PREFETCHES SAME FILL-ORIGIN LEVEL: 0 DIFFERENT FILL-ORIGIN LEVEL: 0

PSCL4 TOTAL     ACCESS:    1669355  HIT:    1669180  MISS:        175  HIT %:    99.9895  MISS %:  0.0104831   MPKI: 0.000875
PSCL4 LOAD TRANSLATION ACCESS:    1474915  HIT:    1474740  MISS:        175  HIT %:    99.9881  MISS %:  0.0118651   MPKI: 0.000875
PSCL4 TRANSLATION FROM L1D PREFETCHER ACCESS:     194440  HIT:     194440  MISS:          0  HIT %:        100  MISS %:          0   MPKI: 0
PSCL4 PREFETCH  REQUESTED:          0  ISSUED:          0  USEFUL:          0  USELESS:          0
PSCL4 USEFUL LOAD PREFETCHES:          0 PREFETCH ISSUED TO LOWER LEVEL:          0  ACCURACY: -nan
PSCL4 TIMELY PREFETCHES:          0 LATE PREFETCHES: 0 DROPPED PREFETCHES: 0
PSCL4 PREFETCHES SAME FILL-ORIGIN LEVEL: 0 DIFFERENT FILL-ORIGIN LEVEL: 0

PSCL3 TOTAL     ACCESS:    1651295  HIT:    1647970  MISS:       3325  HIT %:    99.7986  MISS %:   0.201357   MPKI: 0.016625
PSCL3 LOAD TRANSLATION ACCESS:    1458227  HIT:    1454902  MISS:       3325  HIT %:     99.772  MISS %:   0.228017   MPKI: 0.016625
PSCL3 TRANSLATION FROM L1D PREFETCHER ACCESS:     193068  HIT:     193068  MISS:          0  HIT %:        100  MISS %:          0   MPKI: 0
PSCL3 PREFETCH  REQUESTED:          0  ISSUED:          0  USEFUL:          0  USELESS:          0
PSCL3 USEFUL LOAD PREFETCHES:          0 PREFETCH ISSUED TO LOWER LEVEL:          0  ACCURACY: -nan
PSCL3 TIMELY PREFETCHES:          0 LATE PREFETCHES: 0 DROPPED PREFETCHES: 0
PSCL3 PREFETCHES SAME FILL-ORIGIN LEVEL: 0 DIFFERENT FILL-ORIGIN LEVEL: 0

PSCL2 TOTAL     ACCESS:    1673558  HIT:    1591188  MISS:      82370  HIT %:    95.0782  MISS %:    4.92185   MPKI: 0.41185
PSCL2 LOAD TRANSLATION ACCESS:    1479649  HIT:    1397279  MISS:      82370  HIT %:    94.4331  MISS %:    5.56686   MPKI: 0.41185
PSCL2 TRANSLATION FROM L1D PREFETCHER ACCESS:     193909  HIT:     193909  MISS:          0  HIT %:        100  MISS %:          0   MPKI: 0
PSCL2 PREFETCH  REQUESTED:          0  ISSUED:          0  USEFUL:          0  USELESS:          0
PSCL2 USEFUL LOAD PREFETCHES:          0 PREFETCH ISSUED TO LOWER LEVEL:          0  ACCURACY: -nan
PSCL2 TIMELY PREFETCHES:          0 LATE PREFETCHES: 0 DROPPED PREFETCHES: 0
PSCL2 PREFETCHES SAME FILL-ORIGIN LEVEL: 0 DIFFERENT FILL-ORIGIN LEVEL: 0

LLC TOTAL     ACCESS:     328450  HIT:     175833  MISS:     152617  HIT %:    53.5342  MISS %:    46.4658   MPKI: 0.763085
LLC LOAD      ACCESS:      94843  HIT:      56729  MISS:      38114  HIT %:    59.8136  MISS %:    40.1864   MPKI: 0.19057
LLC RFO       ACCESS:      16336  HIT:       2489  MISS:      13847  HIT %:    15.2363  MISS %:    84.7637   MPKI: 0.069235
LLC PREFETCH  ACCESS:     121680  HIT:      30829  MISS:      90851  HIT %:    25.3361  MISS %:    74.6639   MPKI: 0.454255
LLC WRITEBACK ACCESS:      86388  HIT:      79464  MISS:       6924  HIT %:     91.985  MISS %:      8.015   MPKI: 0.03462
LLC LOAD TRANSLATION ACCESS:       8839  HIT:       6192  MISS:       2647  HIT %:    70.0532  MISS %:    29.9468   MPKI: 0.013235
LLC TRANSLATION FROM L1D PREFETCHER ACCESS:        364  HIT:        130  MISS:        234  HIT %:    35.7143  MISS %:    64.2857   MPKI: 0.00117
LLC PREFETCH  REQUESTED:          0  ISSUED:          0  USEFUL:      26276  USELESS:     431094
LLC USEFUL LOAD PREFETCHES:      26276 PREFETCH ISSUED TO LOWER LEVEL:     514653  ACCURACY: 5.10558
LLC TIMELY PREFETCHES:      26276 LATE PREFETCHES: 0 DROPPED PREFETCHES: 0
LLC PREFETCHES SAME FILL-ORIGIN LEVEL: 0 DIFFERENT FILL-ORIGIN LEVEL: 0
LLC AVERAGE MISS LATENCY: 951.536 cycles
LLC RQ	ACCESS:     549567	FORWARD:          0	MERGED:          0	TO_CACHE:     549566
LLC WQ	ACCESS:     499790	FORWARD:          3	MERGED:          0	TO_CACHE:     499790
LLC PQ	ACCESS:     699892	FORWARD:          0	MERGED:          0	TO_CACHE:     699890

LLC Dense regions hint to LLC: 0

RAW hits: 2813075
Loads Generated: 45524135
Loads sent to L1D: 42711059
Stores Generated: 7705678
Stores sent to L1D: 7705679
Major fault: 0 Minor fault: 3412
Allocated PAGES: 14687

DRAM Statistics
 CHANNEL 0
 RQ ROW_BUFFER_HIT:     244191  ROW_BUFFER_MISS:     523079
 DBUS_CONGESTED:        823
 WQ ROW_BUFFER_HIT:      86174  ROW_BUFFER_MISS:     319880  FULL:          0

 AVG_CONGESTED_CYCLE: 5
 All warmup complete: 5
Channel 0 Bank busy for read cycles: 0
Channel 0 Bank busy for write cycles: 0
Channel 0
Rank 0
0banks busy for read cycles: 101510449
0banks busy for write cycles: 55814
1banks busy for read cycles: 21982967
1banks busy for write cycles: 6830875
2banks busy for read cycles: 11472924
2banks busy for write cycles: 3656369
3banks busy for read cycles: 5293393
3banks busy for write cycles: 2311852
4banks busy for read cycles: 2311008
4banks busy for write cycles: 1677911
5banks busy for read cycles: 1146788
5banks busy for write cycles: 1381528
6banks busy for read cycles: 702747
6banks busy for write cycles: 1297390
7banks busy for read cycles: 564345
7banks busy for write cycles: 1720049
8banks busy for read cycles: 955231
8banks busy for write cycles: 3918645

CPU 0 Branch Prediction Accuracy: 99.5428% MPKI: 1.04622 Average ROB Occupancy at Mispredict: 46.3031
Branch types
NOT_BRANCH: 0 0%
BRANCH_DIRECT_JUMP: 0 0%
BRANCH_INDIRECT: 0 0%
BRANCH_CONDITIONAL: 0 0%
BRANCH_DIRECT_CALL: 0 0%
BRANCH_INDIRECT_CALL: 0 0%
BRANCH_RETURN: 0 0%
BRANCH_OTHER: 0 0%


CPU 1 Branch Prediction Accuracy: 99.664% MPKI: 0.782306 Average ROB Occupancy at Mispredict: 39.056
Branch types
NOT_BRANCH: 0 0%
BRANCH_DIRECT_JUMP: 0 0%
BRANCH_INDIRECT: 0 0%
BRANCH_CONDITIONAL: 0 0%
BRANCH_DIRECT_CALL: 0 0%
BRANCH_INDIRECT_CALL: 0 0%
BRANCH_RETURN: 0 0%
BRANCH_OTHER: 0 0%


CPU 2 Branch Prediction Accuracy: 99.1894% MPKI: 1.71934 Average ROB Occupancy at Mispredict: 53.1439
Branch types
NOT_BRANCH: 0 0%
BRANCH_DIRECT_JUMP: 0 0%
BRANCH_INDIRECT: 0 0%
BRANCH_CONDITIONAL: 0 0%
BRANCH_DIRECT_CALL: 0 0%
BRANCH_INDIRECT_CALL: 0 0%
BRANCH_RETURN: 0 0%
BRANCH_OTHER: 0 0%


CPU 3 Branch Prediction Accuracy: 99.528% MPKI: 1.08873 Average ROB Occupancy at Mispredict: 49.0531
Branch types
NOT_BRANCH: 0 0%
BRANCH_DIRECT_JUMP: 0 0%
BRANCH_INDIRECT: 0 0%
BRANCH_CONDITIONAL: 0 0%
BRANCH_DIRECT_CALL: 0 0%
BRANCH_INDIRECT_CALL: 0 0%
BRANCH_RETURN: 0 0%
BRANCH_OTHER: 0 0%

DRAM PAGES: 1048576
Allocated PAGES: 14687
