
*** ChampSim Multicore Out-of-Order Simulator ***

Warmup Instructions: 50000000
Simulation Instructions: 200000000
Number of CPUs: 4
LLC sets: 8192
LLC ways: 16
Off-chip DRAM Size: 4096 MB Channels: 1 Width: 64-bit Data Rate: 6400 MT/s
CPU 0 runs ./traces/cs/streaming_phase3_core0.trace.xz
.xz
CPU 1 runs ./traces/cs/streaming_phase3_core1.trace.xz
.xz
CPU 2 runs ./traces/cs/streaming_phase3_core2.trace.xz
.xz
CPU 3 runs ./traces/cs/streaming_phase3_core3.trace.xz
.xz
BTB has LRU replacement policy
ITLB has LRU replacement policy
DTLB has LRU replacement policy
STLB has LRU replacement policy
L1I has LRU replacement policy
History Sets: 8
History Ways: 16
BERTI Size: 16
BERTI Stride Size: 8
L1D has LRU replacement policy
Initialize SRRIP state for L2C
Initialize DRRIP state for LLC
BTB has LRU replacement policy
ITLB has LRU replacement policy
DTLB has LRU replacement policy
STLB has LRU replacement policy
L1I has LRU replacement policy
History Sets: 8
History Ways: 16
BERTI Size: 16
BERTI Stride Size: 8
L1D has LRU replacement policy
Initialize SRRIP state for L2C
Initialize DRRIP state for LLC
BTB has LRU replacement policy
ITLB has LRU replacement policy
DTLB has LRU replacement policy
STLB has LRU replacement policy
L1I has LRU replacement policy
History Sets: 8
History Ways: 16
BERTI Size: 16
BERTI Stride Size: 8
L1D has LRU replacement policy
Initialize SRRIP state for L2C
Initialize DRRIP state for LLC
BTB has LRU replacement policy
ITLB has LRU replacement policy
DTLB has LRU replacement policy
STLB has LRU replacement policy
L1I has LRU replacement policy
History Sets: 8
History Ways: 16
BERTI Size: 16
BERTI Stride Size: 8
L1D has LRU replacement policy
Initialize SRRIP state for L2C
Initialize DRRIP state for LLC
UNIQUE_ASID[0] = €
UNIQUE_ASID[1] = 
Heartbeat CPU 3 instructions: 10000001 cycles: 3430070 heartbeat IPC: 2.91539 cumulative IPC: 2.91539 (Simulation time: 0 hr 2 min 12 sec) 
Heartbeat CPU 1 instructions: 10000001 cycles: 3431588 heartbeat IPC: 2.9141 cumulative IPC: 2.9141 (Simulation time: 0 hr 2 min 12 sec) 
Heartbeat CPU 0 instructions: 10000001 cycles: 3438369 heartbeat IPC: 2.90836 cumulative IPC: 2.90836 (Simulation time: 0 hr 2 min 12 sec) 
Heartbeat CPU 2 instructions: 10000003 cycles: 3574381 heartbeat IPC: 2.79769 cumulative IPC: 2.79769 (Simulation time: 0 hr 2 min 18 sec) 
Heartbeat CPU 3 instructions: 20000001 cycles: 6849421 heartbeat IPC: 2.92453 cumulative IPC: 2.91996 (Simulation time: 0 hr 4 min 1 sec) 
Heartbeat CPU 1 instructions: 20000000 cycles: 6851532 heartbeat IPC: 2.92402 cumulative IPC: 2.91906 (Simulation time: 0 hr 4 min 1 sec) 
Heartbeat CPU 0 instructions: 20000001 cycles: 6858973 heartbeat IPC: 2.92346 cumulative IPC: 2.91589 (Simulation time: 0 hr 4 min 1 sec) 
Heartbeat CPU 2 instructions: 20000002 cycles: 7121434 heartbeat IPC: 2.81924 cumulative IPC: 2.80842 (Simulation time: 0 hr 4 min 8 sec) 
Heartbeat CPU 3 instructions: 30000003 cycles: 10256542 heartbeat IPC: 2.93503 cumulative IPC: 2.92496 (Simulation time: 0 hr 5 min 36 sec) 
Heartbeat CPU 1 instructions: 30000001 cycles: 10273342 heartbeat IPC: 2.92243 cumulative IPC: 2.92018 (Simulation time: 0 hr 5 min 36 sec) 
Heartbeat CPU 0 instructions: 30000002 cycles: 10290082 heartbeat IPC: 2.91451 cumulative IPC: 2.91543 (Simulation time: 0 hr 5 min 36 sec) 
Heartbeat CPU 2 instructions: 30000003 cycles: 10712763 heartbeat IPC: 2.78448 cumulative IPC: 2.8004 (Simulation time: 0 hr 5 min 48 sec) 
Heartbeat CPU 3 instructions: 40000001 cycles: 13685681 heartbeat IPC: 2.91618 cumulative IPC: 2.92276 (Simulation time: 0 hr 7 min 9 sec) 
Heartbeat CPU 1 instructions: 40000000 cycles: 13708081 heartbeat IPC: 2.91143 cumulative IPC: 2.91799 (Simulation time: 0 hr 7 min 10 sec) 
Heartbeat CPU 0 instructions: 40000001 cycles: 13709846 heartbeat IPC: 2.92418 cumulative IPC: 2.91761 (Simulation time: 0 hr 7 min 10 sec) 
Heartbeat CPU 2 instructions: 40000002 cycles: 14290201 heartbeat IPC: 2.7953 cumulative IPC: 2.79912 (Simulation time: 0 hr 7 min 27 sec) 
Heartbeat CPU 3 instructions: 50000000 cycles: 17101806 heartbeat IPC: 2.92729 cumulative IPC: 2.92367 (Simulation time: 0 hr 8 min 57 sec) 
Heartbeat CPU 1 instructions: 50000000 cycles: 17141730 heartbeat IPC: 2.91235 cumulative IPC: 2.91686 (Simulation time: 0 hr 8 min 59 sec) 
Heartbeat CPU 0 instructions: 50000001 cycles: 17142710 heartbeat IPC: 2.91302 cumulative IPC: 2.91669 (Simulation time: 0 hr 8 min 59 sec) 
Heartbeat CPU 2 instructions: 50000000 cycles: 17847440 heartbeat IPC: 2.81117 cumulative IPC: 2.80152 (Simulation time: 0 hr 9 min 22 sec) 

Warmup complete CPU 0 instructions: 52005480 cycles: 17847441 (Simulation time: 0 hr 9 min 22 sec) 
Warmup complete CPU 1 instructions: 51997885 cycles: 17847441 (Simulation time: 0 hr 9 min 22 sec) 
Warmup complete CPU 2 instructions: 50000002 cycles: 17847441 (Simulation time: 0 hr 9 min 22 sec) 
Warmup complete CPU 3 instructions: 52090810 cycles: 17847440 (Simulation time: 0 hr 9 min 22 sec) 

Heartbeat CPU 3 instructions: 60000000 cycles: 30022595 heartbeat IPC: 0.773947 cumulative IPC: 0.649617 (Simulation time: 0 hr 11 min 47 sec) 
Heartbeat CPU 1 instructions: 60000002 cycles: 30085528 heartbeat IPC: 0.772571 cumulative IPC: 0.65387 (Simulation time: 0 hr 11 min 48 sec) 
Heartbeat CPU 0 instructions: 60000003 cycles: 30567000 heartbeat IPC: 0.744919 cumulative IPC: 0.628522 (Simulation time: 0 hr 11 min 52 sec) 
Heartbeat CPU 2 instructions: 60000000 cycles: 34145077 heartbeat IPC: 0.613586 cumulative IPC: 0.613586 (Simulation time: 0 hr 12 min 30 sec) 
Heartbeat CPU 3 instructions: 70000003 cycles: 44235950 heartbeat IPC: 0.703564 cumulative IPC: 0.678674 (Simulation time: 0 hr 14 min 27 sec) 
Heartbeat CPU 1 instructions: 70000003 cycles: 45135781 heartbeat IPC: 0.664441 cumulative IPC: 0.6597 (Simulation time: 0 hr 14 min 43 sec) 
Heartbeat CPU 0 instructions: 70000001 cycles: 45778115 heartbeat IPC: 0.657414 cumulative IPC: 0.644257 (Simulation time: 0 hr 14 min 52 sec) 
Heartbeat CPU 2 instructions: 70000000 cycles: 46250872 heartbeat IPC: 0.826051 cumulative IPC: 0.70414 (Simulation time: 0 hr 14 min 58 sec) 
Heartbeat CPU 3 instructions: 80000000 cycles: 58263749 heartbeat IPC: 0.71287 cumulative IPC: 0.690543 (Simulation time: 0 hr 17 min 20 sec) 
Heartbeat CPU 1 instructions: 80000000 cycles: 60265859 heartbeat IPC: 0.660935 cumulative IPC: 0.66014 (Simulation time: 0 hr 17 min 43 sec) 
Heartbeat CPU 0 instructions: 80000001 cycles: 60496046 heartbeat IPC: 0.679443 cumulative IPC: 0.656399 (Simulation time: 0 hr 17 min 46 sec) 
Heartbeat CPU 2 instructions: 80000002 cycles: 61186381 heartbeat IPC: 0.669545 cumulative IPC: 0.692218 (Simulation time: 0 hr 17 min 56 sec) 
Heartbeat CPU 3 instructions: 90000001 cycles: 74249525 heartbeat IPC: 0.625556 cumulative IPC: 0.672124 (Simulation time: 0 hr 20 min 16 sec) 
Heartbeat CPU 1 instructions: 90000000 cycles: 75770396 heartbeat IPC: 0.644973 cumulative IPC: 0.65608 (Simulation time: 0 hr 20 min 32 sec) 
Heartbeat CPU 0 instructions: 90000002 cycles: 76042365 heartbeat IPC: 0.643239 cumulative IPC: 0.652884 (Simulation time: 0 hr 20 min 35 sec) 
Heartbeat CPU 2 instructions: 90000000 cycles: 77240304 heartbeat IPC: 0.622901 cumulative IPC: 0.673482 (Simulation time: 0 hr 20 min 47 sec) 
Heartbeat CPU 3 instructions: 100000001 cycles: 89470321 heartbeat IPC: 0.656996 cumulative IPC: 0.668909 (Simulation time: 0 hr 22 min 57 sec) 
Heartbeat CPU 1 instructions: 100000003 cycles: 90838110 heartbeat IPC: 0.663671 cumulative IPC: 0.657647 (Simulation time: 0 hr 23 min 12 sec) 
Heartbeat CPU 0 instructions: 100000000 cycles: 91406106 heartbeat IPC: 0.650883 cumulative IPC: 0.652466 (Simulation time: 0 hr 23 min 21 sec) 
Heartbeat CPU 2 instructions: 100000003 cycles: 91944898 heartbeat IPC: 0.68006 cumulative IPC: 0.674787 (Simulation time: 0 hr 23 min 29 sec) 
Heartbeat CPU 3 instructions: 110000000 cycles: 104476898 heartbeat IPC: 0.666374 cumulative IPC: 0.66847 (Simulation time: 0 hr 25 min 59 sec) 
Heartbeat CPU 1 instructions: 110000000 cycles: 106048198 heartbeat IPC: 0.657458 cumulative IPC: 0.657615 (Simulation time: 0 hr 26 min 22 sec) 
Heartbeat CPU 0 instructions: 110000000 cycles: 106540182 heartbeat IPC: 0.660761 cumulative IPC: 0.653881 (Simulation time: 0 hr 26 min 29 sec) 
Heartbeat CPU 2 instructions: 110000000 cycles: 108063124 heartbeat IPC: 0.620416 cumulative IPC: 0.665073 (Simulation time: 0 hr 26 min 51 sec) 
Heartbeat CPU 3 instructions: 120000002 cycles: 119670171 heartbeat IPC: 0.658186 cumulative IPC: 0.666936 (Simulation time: 0 hr 29 min 42 sec) 
Heartbeat CPU 1 instructions: 120000000 cycles: 120959752 heartbeat IPC: 0.670621 cumulative IPC: 0.659496 (Simulation time: 0 hr 30 min 0 sec) 
Heartbeat CPU 0 instructions: 120000000 cycles: 121394448 heartbeat IPC: 0.673207 cumulative IPC: 0.656654 (Simulation time: 0 hr 30 min 7 sec) 
Heartbeat CPU 2 instructions: 120000001 cycles: 123077698 heartbeat IPC: 0.66602 cumulative IPC: 0.665208 (Simulation time: 0 hr 30 min 30 sec) 
Heartbeat CPU 3 instructions: 130000001 cycles: 134968134 heartbeat IPC: 0.653682 cumulative IPC: 0.665204 (Simulation time: 0 hr 33 min 0 sec) 
Heartbeat CPU 1 instructions: 130000000 cycles: 136116991 heartbeat IPC: 0.659751 cumulative IPC: 0.659528 (Simulation time: 0 hr 33 min 16 sec) 
Heartbeat CPU 0 instructions: 130000001 cycles: 136633597 heartbeat IPC: 0.656205 cumulative IPC: 0.656596 (Simulation time: 0 hr 33 min 24 sec) 
Heartbeat CPU 2 instructions: 130000000 cycles: 138927297 heartbeat IPC: 0.630931 cumulative IPC: 0.660721 (Simulation time: 0 hr 33 min 56 sec) 
Heartbeat CPU 3 instructions: 140000003 cycles: 149846257 heartbeat IPC: 0.672128 cumulative IPC: 0.665985 (Simulation time: 0 hr 36 min 35 sec) 
Heartbeat CPU 1 instructions: 140000003 cycles: 151085316 heartbeat IPC: 0.668078 cumulative IPC: 0.660489 (Simulation time: 0 hr 36 min 53 sec) 
Heartbeat CPU 0 instructions: 140000002 cycles: 151731304 heartbeat IPC: 0.662352 cumulative IPC: 0.657245 (Simulation time: 0 hr 37 min 2 sec) 
Heartbeat CPU 2 instructions: 140000003 cycles: 154796458 heartbeat IPC: 0.630153 cumulative IPC: 0.657179 (Simulation time: 0 hr 37 min 46 sec) 
Heartbeat CPU 3 instructions: 150000000 cycles: 165309102 heartbeat IPC: 0.646711 cumulative IPC: 0.663964 (Simulation time: 0 hr 40 min 17 sec) 
Heartbeat CPU 1 instructions: 150000002 cycles: 166157738 heartbeat IPC: 0.663463 cumulative IPC: 0.660791 (Simulation time: 0 hr 40 min 29 sec) 
Heartbeat CPU 0 instructions: 150000000 cycles: 166969404 heartbeat IPC: 0.65625 cumulative IPC: 0.657143 (Simulation time: 0 hr 40 min 40 sec) 
Heartbeat CPU 2 instructions: 150000002 cycles: 170976390 heartbeat IPC: 0.61805 cumulative IPC: 0.653044 (Simulation time: 0 hr 41 min 38 sec) 
Heartbeat CPU 3 instructions: 160000000 cycles: 180718927 heartbeat IPC: 0.648937 cumulative IPC: 0.662542 (Simulation time: 0 hr 43 min 37 sec) 
Heartbeat CPU 1 instructions: 160000001 cycles: 181320470 heartbeat IPC: 0.659512 cumulative IPC: 0.660672 (Simulation time: 0 hr 43 min 43 sec) 
Heartbeat CPU 0 instructions: 160000003 cycles: 182638422 heartbeat IPC: 0.638202 cumulative IPC: 0.655342 (Simulation time: 0 hr 43 min 58 sec) 
Heartbeat CPU 2 instructions: 160000003 cycles: 187129667 heartbeat IPC: 0.61907 cumulative IPC: 0.649802 (Simulation time: 0 hr 44 min 44 sec) 
Heartbeat CPU 3 instructions: 170000000 cycles: 194769863 heartbeat IPC: 0.711696 cumulative IPC: 0.666446 (Simulation time: 0 hr 46 min 12 sec) 
Heartbeat CPU 1 instructions: 170000003 cycles: 196306179 heartbeat IPC: 0.667303 cumulative IPC: 0.661229 (Simulation time: 0 hr 46 min 29 sec) 
Heartbeat CPU 0 instructions: 170000003 cycles: 197952415 heartbeat IPC: 0.652998 cumulative IPC: 0.655143 (Simulation time: 0 hr 46 min 47 sec) 
Heartbeat CPU 2 instructions: 170000003 cycles: 199048800 heartbeat IPC: 0.838987 cumulative IPC: 0.662247 (Simulation time: 0 hr 46 min 59 sec) 
Heartbeat CPU 3 instructions: 180000002 cycles: 208743454 heartbeat IPC: 0.715636 cumulative IPC: 0.670046 (Simulation time: 0 hr 49 min 9 sec) 
Heartbeat CPU 1 instructions: 180000003 cycles: 211374347 heartbeat IPC: 0.663651 cumulative IPC: 0.661418 (Simulation time: 0 hr 49 min 48 sec) 
Heartbeat CPU 0 instructions: 180000003 cycles: 212589118 heartbeat IPC: 0.683214 cumulative IPC: 0.657253 (Simulation time: 0 hr 50 min 6 sec) 
Heartbeat CPU 2 instructions: 180000001 cycles: 213868261 heartbeat IPC: 0.674788 cumulative IPC: 0.663195 (Simulation time: 0 hr 50 min 25 sec) 
Heartbeat CPU 3 instructions: 190000003 cycles: 224567878 heartbeat IPC: 0.631935 cumulative IPC: 0.667129 (Simulation time: 0 hr 52 min 48 sec) 
Heartbeat CPU 1 instructions: 190000003 cycles: 226713751 heartbeat IPC: 0.651916 cumulative IPC: 0.66072 (Simulation time: 0 hr 53 min 10 sec) 
Heartbeat CPU 0 instructions: 190000003 cycles: 227991381 heartbeat IPC: 0.649255 cumulative IPC: 0.656667 (Simulation time: 0 hr 53 min 23 sec) 
Heartbeat CPU 2 instructions: 190000002 cycles: 229854813 heartbeat IPC: 0.625526 cumulative IPC: 0.660354 (Simulation time: 0 hr 53 min 42 sec) 
Heartbeat CPU 3 instructions: 200000001 cycles: 239762625 heartbeat IPC: 0.658122 cumulative IPC: 0.666512 (Simulation time: 0 hr 56 min 2 sec) 
Heartbeat CPU 1 instructions: 200000000 cycles: 241735379 heartbeat IPC: 0.665707 cumulative IPC: 0.661054 (Simulation time: 0 hr 56 min 25 sec) 
Heartbeat CPU 0 instructions: 200000002 cycles: 243187758 heartbeat IPC: 0.658052 cumulative IPC: 0.65676 (Simulation time: 0 hr 56 min 47 sec) 
Heartbeat CPU 2 instructions: 200000000 cycles: 244361192 heartbeat IPC: 0.689352 cumulative IPC: 0.662211 (Simulation time: 0 hr 57 min 1 sec) 
Heartbeat CPU 3 instructions: 210000002 cycles: 254733922 heartbeat IPC: 0.667945 cumulative IPC: 0.666603 (Simulation time: 0 hr 58 min 55 sec) 
Heartbeat CPU 1 instructions: 210000002 cycles: 256849774 heartbeat IPC: 0.661621 cumulative IPC: 0.66109 (Simulation time: 0 hr 59 min 17 sec) 
Heartbeat CPU 0 instructions: 210000000 cycles: 258278486 heartbeat IPC: 0.662658 cumulative IPC: 0.65713 (Simulation time: 0 hr 59 min 36 sec) 
Heartbeat CPU 2 instructions: 210000001 cycles: 260376707 heartbeat IPC: 0.624395 cumulative IPC: 0.659714 (Simulation time: 1 hr 0 min 8 sec) 
Heartbeat CPU 3 instructions: 220000000 cycles: 269923629 heartbeat IPC: 0.65834 cumulative IPC: 0.666105 (Simulation time: 1 hr 2 min 7 sec) 
Heartbeat CPU 1 instructions: 220000000 cycles: 271701971 heartbeat IPC: 0.673301 cumulative IPC: 0.661805 (Simulation time: 1 hr 2 min 25 sec) 
Heartbeat CPU 0 instructions: 220000000 cycles: 273101061 heartbeat IPC: 0.674647 cumulative IPC: 0.658147 (Simulation time: 1 hr 2 min 40 sec) 
Heartbeat CPU 2 instructions: 220000000 cycles: 275456085 heartbeat IPC: 0.663157 cumulative IPC: 0.659916 (Simulation time: 1 hr 3 min 5 sec) 
Heartbeat CPU 3 instructions: 230000002 cycles: 285209998 heartbeat IPC: 0.654178 cumulative IPC: 0.665423 (Simulation time: 1 hr 4 min 48 sec) 
Heartbeat CPU 1 instructions: 230000002 cycles: 286818204 heartbeat IPC: 0.661541 cumulative IPC: 0.66179 (Simulation time: 1 hr 5 min 5 sec) 
Heartbeat CPU 0 instructions: 230000002 cycles: 288305708 heartbeat IPC: 0.657694 cumulative IPC: 0.658122 (Simulation time: 1 hr 5 min 21 sec) 
Heartbeat CPU 2 instructions: 230000002 cycles: 291229677 heartbeat IPC: 0.633971 cumulative IPC: 0.658419 (Simulation time: 1 hr 5 min 51 sec) 
Heartbeat CPU 3 instructions: 240000000 cycles: 300141902 heartbeat IPC: 0.669707 cumulative IPC: 0.66565 (Simulation time: 1 hr 7 min 27 sec) 
Heartbeat CPU 1 instructions: 240000003 cycles: 301758704 heartbeat IPC: 0.669322 cumulative IPC: 0.662186 (Simulation time: 1 hr 7 min 43 sec) 
Heartbeat CPU 0 instructions: 240000002 cycles: 303362781 heartbeat IPC: 0.66414 cumulative IPC: 0.658439 (Simulation time: 1 hr 8 min 1 sec) 
Heartbeat CPU 2 instructions: 240000000 cycles: 307128792 heartbeat IPC: 0.628966 cumulative IPC: 0.6568 (Simulation time: 1 hr 8 min 40 sec) 
Heartbeat CPU 3 instructions: 250000000 cycles: 315499186 heartbeat IPC: 0.651157 cumulative IPC: 0.664902 (Simulation time: 1 hr 10 min 7 sec) 
Heartbeat CPU 1 instructions: 250000000 cycles: 316761128 heartbeat IPC: 0.666559 cumulative IPC: 0.662406 (Simulation time: 1 hr 10 min 20 sec) 
Heartbeat CPU 0 instructions: 250000001 cycles: 318567542 heartbeat IPC: 0.657689 cumulative IPC: 0.658401 (Simulation time: 1 hr 10 min 39 sec) 
Finished CPU 3 instructions: 200000001 cycles: 300972542 cumulative IPC: 0.664512 (Simulation time: 1 hr 10 min 42 sec) 
Finished CPU 1 instructions: 200000003 cycles: 301977978 cumulative IPC: 0.6623 (Simulation time: 1 hr 10 min 52 sec) 
Finished CPU 0 instructions: 200000003 cycles: 303836442 cumulative IPC: 0.658249 (Simulation time: 1 hr 11 min 11 sec) 
Heartbeat CPU 2 instructions: 250000003 cycles: 323181022 heartbeat IPC: 0.622967 cumulative IPC: 0.655021 (Simulation time: 1 hr 11 min 27 sec) 
Finished CPU 2 instructions: 200000001 cycles: 305333581 cumulative IPC: 0.655021 (Simulation time: 1 hr 11 min 27 sec) 

ChampSim completed all CPUs

Total Simulation Statistics (not including warmup)

CPU 0 cumulative IPC: 0.658271 instructions: 200992385 cycles: 305333581
ITLB TOTAL     ACCESS:   35882106  HIT:   29982491  MISS:    5899615  HIT %:    83.5583  MISS %:    16.4417   MPKI: 29.3524
ITLB LOAD      ACCESS:          0  HIT:          0  MISS:          0  HIT %:       -nan  MISS %:       -nan   MPKI: 0
ITLB RFO       ACCESS:          0  HIT:          0  MISS:          0  HIT %:       -nan  MISS %:       -nan   MPKI: 0
ITLB PREFETCH  ACCESS:          0  HIT:          0  MISS:          0  HIT %:       -nan  MISS %:       -nan   MPKI: 0
ITLB WRITEBACK ACCESS:          0  HIT:          0  MISS:          0  HIT %:       -nan  MISS %:       -nan   MPKI: 0
DTLB TOTAL     ACCESS:   24384288  HIT:   17493911  MISS:    6890377  HIT %:    71.7426  MISS %:    28.2574   MPKI: 34.2818
DTLB LOAD      ACCESS:          0  HIT:          0  MISS:          0  HIT %:       -nan  MISS %:       -nan   MPKI: 0
DTLB RFO       ACCESS:          0  HIT:          0  MISS:          0  HIT %:       -nan  MISS %:       -nan   MPKI: 0
DTLB PREFETCH  ACCESS:          0  HIT:          0  MISS:          0  HIT %:       -nan  MISS %:       -nan   MPKI: 0
DTLB WRITEBACK ACCESS:          0  HIT:          0  MISS:          0  HIT %:       -nan  MISS %:       -nan   MPKI: 0
STLB TOTAL     ACCESS:   16865453  HIT:    7401708  MISS:    9463745  HIT %:    43.8868  MISS %:    56.1132   MPKI: 47.0851
STLB LOAD      ACCESS:          0  HIT:          0  MISS:          0  HIT %:       -nan  MISS %:       -nan   MPKI: 0
STLB RFO       ACCESS:          0  HIT:          0  MISS:          0  HIT %:       -nan  MISS %:       -nan   MPKI: 0
STLB PREFETCH  ACCESS:          0  HIT:          0  MISS:          0  HIT %:       -nan  MISS %:       -nan   MPKI: 0
STLB WRITEBACK ACCESS:          0  HIT:          0  MISS:          0  HIT %:       -nan  MISS %:       -nan   MPKI: 0
L1D TOTAL     ACCESS:   47476734  HIT:   45569458  MISS:    1907276  HIT %:    95.9827  MISS %:    4.01729   MPKI: 9.48929
L1D LOAD      ACCESS:   19762571  HIT:   18632648  MISS:    1129923  HIT %:    94.2825  MISS %:    5.71749   MPKI: 5.62172
L1D RFO       ACCESS:   15788225  HIT:   15221250  MISS:     566975  HIT %:    96.4089  MISS %:    3.59113   MPKI: 2.82088
L1D PREFETCH  ACCESS:   11925938  HIT:   11715560  MISS:     210378  HIT %:     98.236  MISS %:    1.76404   MPKI: 1.0467
L1D WRITEBACK ACCESS:          0  HIT:          0  MISS:          0  HIT %:       -nan  MISS %:       -nan   MPKI: 0
L1I TOTAL     ACCESS:   42165494  HIT:   33759020  MISS:    8406474  HIT %:    80.0631  MISS %:    19.9369   MPKI: 41.8248
L1I LOAD      ACCESS:   42165494  HIT:   33759020  MISS:    8406474  HIT %:    80.0631  MISS %:    19.9369   MPKI: 41.8248
L1I RFO       ACCESS:          0  HIT:          0  MISS:          0  HIT %:       -nan  MISS %:       -nan   MPKI: 0
L1I PREFETCH  ACCESS:          0  HIT:          0  MISS:          0  HIT %:       -nan  MISS %:       -nan   MPKI: 0
L1I WRITEBACK ACCESS:          0  HIT:          0  MISS:          0  HIT %:       -nan  MISS %:       -nan   MPKI: 0
L2C TOTAL     ACCESS:   26169973  HIT:   24533006  MISS:    1636967  HIT %:    93.7449  MISS %:    6.25513   MPKI: 8.14442
L2C LOAD      ACCESS:    9467677  HIT:    8866960  MISS:     600717  HIT %:    93.6551  MISS %:    6.34492   MPKI: 2.98876
L2C RFO       ACCESS:     566918  HIT:     164480  MISS:     402438  HIT %:     29.013  MISS %:     70.987   MPKI: 2.00225
L2C PREFETCH  ACCESS:    4653970  HIT:    4205487  MISS:     448483  HIT %:    90.3634  MISS %:    9.63657   MPKI: 2.23134
L2C WRITEBACK ACCESS:     843281  HIT:     757614  MISS:      85667  HIT %:    89.8412  MISS %:    10.1588   MPKI: 0.42622
PSCL5 TOTAL     ACCESS:    9628248  HIT:    9628248  MISS:          0  HIT %:        100  MISS %:          0   MPKI: 0
PSCL5 LOAD      ACCESS:          0  HIT:          0  MISS:          0  HIT %:       -nan  MISS %:       -nan   MPKI: 0
PSCL5 RFO       ACCESS:          0  HIT:          0  MISS:          0  HIT %:       -nan  MISS %:       -nan   MPKI: 0
PSCL5 PREFETCH  ACCESS:          0  HIT:          0  MISS:          0  HIT %:       -nan  MISS %:       -nan   MPKI: 0
PSCL5 WRITEBACK ACCESS:          0  HIT:          0  MISS:          0  HIT %:       -nan  MISS %:       -nan   MPKI: 0
PSCL4 TOTAL     ACCESS:    9628248  HIT:    9628248  MISS:          0  HIT %:        100  MISS %:          0   MPKI: 0
PSCL4 LOAD      ACCESS:          0  HIT:          0  MISS:          0  HIT %:       -nan  MISS %:       -nan   MPKI: 0
PSCL4 RFO       ACCESS:          0  HIT:          0  MISS:          0  HIT %:       -nan  MISS %:       -nan   MPKI: 0
PSCL4 PREFETCH  ACCESS:          0  HIT:          0  MISS:          0  HIT %:       -nan  MISS %:       -nan   MPKI: 0
PSCL4 WRITEBACK ACCESS:          0  HIT:          0  MISS:          0  HIT %:       -nan  MISS %:       -nan   MPKI: 0
PSCL3 TOTAL     ACCESS:    9627448  HIT:    9626842  MISS:        606  HIT %:    99.9937  MISS %:  0.0062945   MPKI: 0.00301504
PSCL3 LOAD      ACCESS:          0  HIT:          0  MISS:          0  HIT %:       -nan  MISS %:       -nan   MPKI: 0
PSCL3 RFO       ACCESS:          0  HIT:          0  MISS:          0  HIT %:       -nan  MISS %:       -nan   MPKI: 0
PSCL3 PREFETCH  ACCESS:          0  HIT:          0  MISS:          0  HIT %:       -nan  MISS %:       -nan   MPKI: 0
PSCL3 WRITEBACK ACCESS:          0  HIT:          0  MISS:          0  HIT %:       -nan  MISS %:       -nan   MPKI: 0
PSCL2 TOTAL     ACCESS:    9622879  HIT:    8618183  MISS:    1004696  HIT %:    89.5593  MISS %:    10.4407   MPKI: 4.99868
PSCL2 LOAD      ACCESS:          0  HIT:          0  MISS:          0  HIT %:       -nan  MISS %:       -nan   MPKI: 0
PSCL2 RFO       ACCESS:          0  HIT:          0  MISS:          0  HIT %:       -nan  MISS %:       -nan   MPKI: 0
PSCL2 PREFETCH  ACCESS:          0  HIT:          0  MISS:          0  HIT %:       -nan  MISS %:       -nan   MPKI: 0
PSCL2 WRITEBACK ACCESS:          0  HIT:          0  MISS:          0  HIT %:       -nan  MISS %:       -nan   MPKI: 0
LLC TOTAL     ACCESS:    2109057  HIT:    1236473  MISS:     872584  HIT %:    58.6268  MISS %:    41.3732   MPKI: 4.34138
LLC LOAD      ACCESS:     561858  HIT:     339470  MISS:     222388  HIT %:    60.4192  MISS %:    39.5808   MPKI: 1.10645
LLC RFO       ACCESS:     402313  HIT:     201362  MISS:     200951  HIT %:    50.0511  MISS %:    49.9489   MPKI: 0.999794
LLC PREFETCH  ACCESS:     487460  HIT:      77802  MISS:     409658  HIT %:    15.9607  MISS %:    84.0393   MPKI: 2.03818
LLC WRITEBACK ACCESS:     557764  HIT:     548563  MISS:       9201  HIT %:    98.3504  MISS %:    1.64962   MPKI: 0.0457779

RAW hits: 1172589
Loads Generated: 37499966
Loads sent to L1D: 36327377
Stores Generated: 18138962
Stores sent to L1D: 18138963

CPU 1 cumulative IPC: 0.662341 instructions: 202235050 cycles: 305333581
ITLB TOTAL     ACCESS:   36089625  HIT:   30150244  MISS:    5939381  HIT %:    83.5427  MISS %:    16.4573   MPKI: 29.3687
ITLB LOAD      ACCESS:          0  HIT:          0  MISS:          0  HIT %:       -nan  MISS %:       -nan   MPKI: 0
ITLB RFO       ACCESS:          0  HIT:          0  MISS:          0  HIT %:       -nan  MISS %:       -nan   MPKI: 0
ITLB PREFETCH  ACCESS:          0  HIT:          0  MISS:          0  HIT %:       -nan  MISS %:       -nan   MPKI: 0
ITLB WRITEBACK ACCESS:          0  HIT:          0  MISS:          0  HIT %:       -nan  MISS %:       -nan   MPKI: 0
DTLB TOTAL     ACCESS:   24513317  HIT:   17567987  MISS:    6945330  HIT %:    71.6671  MISS %:    28.3329   MPKI: 34.3429
DTLB LOAD      ACCESS:          0  HIT:          0  MISS:          0  HIT %:       -nan  MISS %:       -nan   MPKI: 0
DTLB RFO       ACCESS:          0  HIT:          0  MISS:          0  HIT %:       -nan  MISS %:       -nan   MPKI: 0
DTLB PREFETCH  ACCESS:          0  HIT:          0  MISS:          0  HIT %:       -nan  MISS %:       -nan   MPKI: 0
DTLB WRITEBACK ACCESS:          0  HIT:          0  MISS:          0  HIT %:       -nan  MISS %:       -nan   MPKI: 0
STLB TOTAL     ACCESS:   16904568  HIT:    7395167  MISS:    9509401  HIT %:    43.7466  MISS %:    56.2534   MPKI: 47.0215
STLB LOAD      ACCESS:          0  HIT:          0  MISS:          0  HIT %:       -nan  MISS %:       -nan   MPKI: 0
STLB RFO       ACCESS:          0  HIT:          0  MISS:          0  HIT %:       -nan  MISS %:       -nan   MPKI: 0
STLB PREFETCH  ACCESS:          0  HIT:          0  MISS:          0  HIT %:       -nan  MISS %:       -nan   MPKI: 0
STLB WRITEBACK ACCESS:          0  HIT:          0  MISS:          0  HIT %:       -nan  MISS %:       -nan   MPKI: 0
L1D TOTAL     ACCESS:   47803241  HIT:   45959188  MISS:    1844053  HIT %:    96.1424  MISS %:    3.85759   MPKI: 9.11836
L1D LOAD      ACCESS:   19836602  HIT:   18759768  MISS:    1076834  HIT %:    94.5715  MISS %:    5.42852   MPKI: 5.32467
L1D RFO       ACCESS:   15888504  HIT:   15333382  MISS:     555122  HIT %:    96.5061  MISS %:    3.49386   MPKI: 2.74493
L1D PREFETCH  ACCESS:   12078135  HIT:   11866038  MISS:     212097  HIT %:     98.244  MISS %:    1.75604   MPKI: 1.04876
L1D WRITEBACK ACCESS:          0  HIT:          0  MISS:          0  HIT %:       -nan  MISS %:       -nan   MPKI: 0
L1I TOTAL     ACCESS:   42386415  HIT:   33931871  MISS:    8454544  HIT %:    80.0536  MISS %:    19.9464   MPKI: 41.8055
L1I LOAD      ACCESS:   42386415  HIT:   33931871  MISS:    8454544  HIT %:    80.0536  MISS %:    19.9464   MPKI: 41.8055
L1I RFO       ACCESS:          0  HIT:          0  MISS:          0  HIT %:       -nan  MISS %:       -nan   MPKI: 0
L1I PREFETCH  ACCESS:          0  HIT:          0  MISS:          0  HIT %:       -nan  MISS %:       -nan   MPKI: 0
L1I WRITEBACK ACCESS:          0  HIT:          0  MISS:          0  HIT %:       -nan  MISS %:       -nan   MPKI: 0
L2C TOTAL     ACCESS:   26093381  HIT:   24512431  MISS:    1580950  HIT %:    93.9412  MISS %:    6.05882   MPKI: 7.81739
L2C LOAD      ACCESS:    9465023  HIT:    8900968  MISS:     564055  HIT %:    94.0406  MISS %:    5.95936   MPKI: 2.78911
L2C RFO       ACCESS:     555065  HIT:     157051  MISS:     398014  HIT %:    28.2942  MISS %:    71.7058   MPKI: 1.96808
L2C PREFETCH  ACCESS:    4565753  HIT:    4121892  MISS:     443861  HIT %:    90.2785  MISS %:    9.72153   MPKI: 2.19478
L2C WRITEBACK ACCESS:     817903  HIT:     734207  MISS:      83696  HIT %:     89.767  MISS %:     10.233   MPKI: 0.413855
PSCL5 TOTAL     ACCESS:    9640989  HIT:    9640989  MISS:          0  HIT %:        100  MISS %:          0   MPKI: 0
PSCL5 LOAD      ACCESS:          0  HIT:          0  MISS:          0  HIT %:       -nan  MISS %:       -nan   MPKI: 0
PSCL5 RFO       ACCESS:          0  HIT:          0  MISS:          0  HIT %:       -nan  MISS %:       -nan   MPKI: 0
PSCL5 PREFETCH  ACCESS:          0  HIT:          0  MISS:          0  HIT %:       -nan  MISS %:       -nan   MPKI: 0
PSCL5 WRITEBACK ACCESS:          0  HIT:          0  MISS:          0  HIT %:       -nan  MISS %:       -nan   MPKI: 0
PSCL4 TOTAL     ACCESS:    9640989  HIT:    9640989  MISS:          0  HIT %:        100  MISS %:          0   MPKI: 0
PSCL4 LOAD      ACCESS:          0  HIT:          0  MISS:          0  HIT %:       -nan  MISS %:       -nan   MPKI: 0
PSCL4 RFO       ACCESS:          0  HIT:          0  MISS:          0  HIT %:       -nan  MISS %:       -nan   MPKI: 0
PSCL4 PREFETCH  ACCESS:          0  HIT:          0  MISS:          0  HIT %:       -nan  MISS %:       -nan   MPKI: 0
PSCL4 WRITEBACK ACCESS:          0  HIT:          0  MISS:          0  HIT %:       -nan  MISS %:       -nan   MPKI: 0
PSCL3 TOTAL     ACCESS:    9635576  HIT:    9634376  MISS:       1200  HIT %:    99.9875  MISS %:  0.0124538   MPKI: 0.00593369
PSCL3 LOAD      ACCESS:          0  HIT:          0  MISS:          0  HIT %:       -nan  MISS %:       -nan   MPKI: 0
PSCL3 RFO       ACCESS:          0  HIT:          0  MISS:          0  HIT %:       -nan  MISS %:       -nan   MPKI: 0
PSCL3 PREFETCH  ACCESS:          0  HIT:          0  MISS:          0  HIT %:       -nan  MISS %:       -nan   MPKI: 0
PSCL3 WRITEBACK ACCESS:          0  HIT:          0  MISS:          0  HIT %:       -nan  MISS %:       -nan   MPKI: 0
PSCL2 TOTAL     ACCESS:    9638158  HIT:    8592525  MISS:    1045633  HIT %:    89.1511  MISS %:    10.8489   MPKI: 5.17038
PSCL2 LOAD      ACCESS:          0  HIT:          0  MISS:          0  HIT %:       -nan  MISS %:       -nan   MPKI: 0
PSCL2 RFO       ACCESS:          0  HIT:          0  MISS:          0  HIT %:       -nan  MISS %:       -nan   MPKI: 0
PSCL2 PREFETCH  ACCESS:          0  HIT:          0  MISS:          0  HIT %:       -nan  MISS %:       -nan   MPKI: 0
PSCL2 WRITEBACK ACCESS:          0  HIT:          0  MISS:          0  HIT %:       -nan  MISS %:       -nan   MPKI: 0
LLC TOTAL     ACCESS:    2046135  HIT:    1183885  MISS:     862250  HIT %:    57.8596  MISS %:    42.1404   MPKI: 4.2636
LLC LOAD      ACCESS:     526056  HIT:     312212  MISS:     213844  HIT %:    59.3496  MISS %:    40.6504   MPKI: 1.0574
LLC RFO       ACCESS:     397892  HIT:     200152  MISS:     197740  HIT %:    50.3031  MISS %:    49.6969   MPKI: 0.977773
LLC PREFETCH  ACCESS:     481978  HIT:      70029  MISS:     411949  HIT %:    14.5295  MISS %:    85.4705   MPKI: 2.03698
LLC WRITEBACK ACCESS:     548885  HIT:     539463  MISS:       9422  HIT %:    98.2834  MISS %:    1.71657   MPKI: 0.0465894

RAW hits: 1170321
Loads Generated: 37631330
Loads sent to L1D: 36461009
Stores Generated: 18210476
Stores sent to L1D: 18210477

CPU 2 cumulative IPC: 0.655021 instructions: 200000001 cycles: 305333581
ITLB TOTAL     ACCESS:   35504518  HIT:   30170993  MISS:    5333525  HIT %:    84.9779  MISS %:    15.0221   MPKI: 26.6676
ITLB LOAD      ACCESS:          0  HIT:          0  MISS:          0  HIT %:       -nan  MISS %:       -nan   MPKI: 0
ITLB RFO       ACCESS:          0  HIT:          0  MISS:          0  HIT %:       -nan  MISS %:       -nan   MPKI: 0
ITLB PREFETCH  ACCESS:          0  HIT:          0  MISS:          0  HIT %:       -nan  MISS %:       -nan   MPKI: 0
ITLB WRITEBACK ACCESS:          0  HIT:          0  MISS:          0  HIT %:       -nan  MISS %:       -nan   MPKI: 0
DTLB TOTAL     ACCESS:   24336032  HIT:   16612842  MISS:    7723190  HIT %:    68.2644  MISS %:    31.7356   MPKI: 38.6159
DTLB LOAD      ACCESS:          0  HIT:          0  MISS:          0  HIT %:       -nan  MISS %:       -nan   MPKI: 0
DTLB RFO       ACCESS:          0  HIT:          0  MISS:          0  HIT %:       -nan  MISS %:       -nan   MPKI: 0
DTLB PREFETCH  ACCESS:          0  HIT:          0  MISS:          0  HIT %:       -nan  MISS %:       -nan   MPKI: 0
DTLB WRITEBACK ACCESS:          0  HIT:          0  MISS:          0  HIT %:       -nan  MISS %:       -nan   MPKI: 0
STLB TOTAL     ACCESS:   19137247  HIT:    8493013  MISS:   10644234  HIT %:    44.3795  MISS %:    55.6205   MPKI: 53.2212
STLB LOAD      ACCESS:          0  HIT:          0  MISS:          0  HIT %:       -nan  MISS %:       -nan   MPKI: 0
STLB RFO       ACCESS:          0  HIT:          0  MISS:          0  HIT %:       -nan  MISS %:       -nan   MPKI: 0
STLB PREFETCH  ACCESS:          0  HIT:          0  MISS:          0  HIT %:       -nan  MISS %:       -nan   MPKI: 0
STLB WRITEBACK ACCESS:          0  HIT:          0  MISS:          0  HIT %:       -nan  MISS %:       -nan   MPKI: 0
L1D TOTAL     ACCESS:   47839618  HIT:   45853516  MISS:    1986102  HIT %:    95.8484  MISS %:    4.15158   MPKI: 9.93051
L1D LOAD      ACCESS:   20272680  HIT:   18998199  MISS:    1274481  HIT %:    93.7133  MISS %:    6.28669   MPKI: 6.3724
L1D RFO       ACCESS:   14388934  HIT:   13962810  MISS:     426124  HIT %:    97.0385  MISS %:    2.96147   MPKI: 2.13062
L1D PREFETCH  ACCESS:   13178004  HIT:   12892507  MISS:     285497  HIT %:    97.8335  MISS %:    2.16647   MPKI: 1.42748
L1D WRITEBACK ACCESS:          0  HIT:          0  MISS:          0  HIT %:       -nan  MISS %:       -nan   MPKI: 0
L1I TOTAL     ACCESS:   41105214  HIT:   34038684  MISS:    7066530  HIT %:    82.8087  MISS %:    17.1913   MPKI: 35.3326
L1I LOAD      ACCESS:   41105214  HIT:   34038684  MISS:    7066530  HIT %:    82.8087  MISS %:    17.1913   MPKI: 35.3326
L1I RFO       ACCESS:          0  HIT:          0  MISS:          0  HIT %:       -nan  MISS %:       -nan   MPKI: 0
L1I PREFETCH  ACCESS:          0  HIT:          0  MISS:          0  HIT %:       -nan  MISS %:       -nan   MPKI: 0
L1I WRITEBACK ACCESS:          0  HIT:          0  MISS:          0  HIT %:       -nan  MISS %:       -nan   MPKI: 0
L2C TOTAL     ACCESS:   28783816  HIT:   27537310  MISS:    1246506  HIT %:    95.6694  MISS %:    4.33058   MPKI: 6.23253
L2C LOAD      ACCESS:    8311372  HIT:    7851848  MISS:     459524  HIT %:    94.4711  MISS %:    5.52886   MPKI: 2.29762
L2C RFO       ACCESS:     426019  HIT:     218048  MISS:     207971  HIT %:    51.1827  MISS %:    48.8173   MPKI: 1.03985
L2C PREFETCH  ACCESS:    6359052  HIT:    5907240  MISS:     451812  HIT %:     92.895  MISS %:    7.10502   MPKI: 2.25906
L2C WRITEBACK ACCESS:     785328  HIT:     730107  MISS:      55221  HIT %:    92.9684  MISS %:    7.03158   MPKI: 0.276105
PSCL5 TOTAL     ACCESS:   11424538  HIT:   11424538  MISS:          0  HIT %:        100  MISS %:          0   MPKI: 0
PSCL5 LOAD      ACCESS:          0  HIT:          0  MISS:          0  HIT %:       -nan  MISS %:       -nan   MPKI: 0
PSCL5 RFO       ACCESS:          0  HIT:          0  MISS:          0  HIT %:       -nan  MISS %:       -nan   MPKI: 0
PSCL5 PREFETCH  ACCESS:          0  HIT:          0  MISS:          0  HIT %:       -nan  MISS %:       -nan   MPKI: 0
PSCL5 WRITEBACK ACCESS:          0  HIT:          0  MISS:          0  HIT %:       -nan  MISS %:       -nan   MPKI: 0
PSCL4 TOTAL     ACCESS:   11424538  HIT:   11424538  MISS:          0  HIT %:        100  MISS %:          0   MPKI: 0
PSCL4 LOAD      ACCESS:          0  HIT:          0  MISS:          0  HIT %:       -nan  MISS %:       -nan   MPKI: 0
PSCL4 RFO       ACCESS:          0  HIT:          0  MISS:          0  HIT %:       -nan  MISS %:       -nan   MPKI: 0
PSCL4 PREFETCH  ACCESS:          0  HIT:          0  MISS:          0  HIT %:       -nan  MISS %:       -nan   MPKI: 0
PSCL4 WRITEBACK ACCESS:          0  HIT:          0  MISS:          0  HIT %:       -nan  MISS %:       -nan   MPKI: 0
PSCL3 TOTAL     ACCESS:   11423698  HIT:   11423248  MISS:        450  HIT %:    99.9961  MISS %: 0.00393918   MPKI: 0.00225
PSCL3 LOAD      ACCESS:          0  HIT:          0  MISS:          0  HIT %:       -nan  MISS %:       -nan   MPKI: 0
PSCL3 RFO       ACCESS:          0  HIT:          0  MISS:          0  HIT %:       -nan  MISS %:       -nan   MPKI: 0
PSCL3 PREFETCH  ACCESS:          0  HIT:          0  MISS:          0  HIT %:       -nan  MISS %:       -nan   MPKI: 0
PSCL3 WRITEBACK ACCESS:          0  HIT:          0  MISS:          0  HIT %:       -nan  MISS %:       -nan   MPKI: 0
PSCL2 TOTAL     ACCESS:   11401157  HIT:    9943998  MISS:    1457159  HIT %:    87.2192  MISS %:    12.7808   MPKI: 7.28579
PSCL2 LOAD      ACCESS:          0  HIT:          0  MISS:          0  HIT %:       -nan  MISS %:       -nan   MPKI: 0
PSCL2 RFO       ACCESS:          0  HIT:          0  MISS:          0  HIT %:       -nan  MISS %:       -nan   MPKI: 0
PSCL2 PREFETCH  ACCESS:          0  HIT:          0  MISS:          0  HIT %:       -nan  MISS %:       -nan   MPKI: 0
PSCL2 WRITEBACK ACCESS:          0  HIT:          0  MISS:          0  HIT %:       -nan  MISS %:       -nan   MPKI: 0
LLC TOTAL     ACCESS:    1551637  HIT:     832625  MISS:     719012  HIT %:    53.6611  MISS %:    46.3389   MPKI: 3.59506
LLC LOAD      ACCESS:     435858  HIT:     279635  MISS:     156223  HIT %:    64.1574  MISS %:    35.8426   MPKI: 0.781115
LLC RFO       ACCESS:     207909  HIT:      73897  MISS:     134012  HIT %:     35.543  MISS %:     64.457   MPKI: 0.67006
LLC PREFETCH  ACCESS:     475537  HIT:      79990  MISS:     395547  HIT %:     16.821  MISS %:     83.179   MPKI: 1.97773
LLC WRITEBACK ACCESS:     360355  HIT:     350497  MISS:       9858  HIT %:    97.2644  MISS %:    2.73564   MPKI: 0.04929

RAW hits: 730699
Loads Generated: 36377732
Loads sent to L1D: 35647033
Stores Generated: 15973221
Stores sent to L1D: 15973221

CPU 3 cumulative IPC: 0.66425 instructions: 202817777 cycles: 305333582
ITLB TOTAL     ACCESS:   36153577  HIT:   30370715  MISS:    5782862  HIT %:    84.0047  MISS %:    15.9953   MPKI: 28.5126
ITLB LOAD      ACCESS:          0  HIT:          0  MISS:          0  HIT %:       -nan  MISS %:       -nan   MPKI: 0
ITLB RFO       ACCESS:          0  HIT:          0  MISS:          0  HIT %:       -nan  MISS %:       -nan   MPKI: 0
ITLB PREFETCH  ACCESS:          0  HIT:          0  MISS:          0  HIT %:       -nan  MISS %:       -nan   MPKI: 0
ITLB WRITEBACK ACCESS:          0  HIT:          0  MISS:          0  HIT %:       -nan  MISS %:       -nan   MPKI: 0
DTLB TOTAL     ACCESS:   24238041  HIT:   17477947  MISS:    6760094  HIT %:    72.1096  MISS %:    27.8904   MPKI: 33.3309
DTLB LOAD      ACCESS:          0  HIT:          0  MISS:          0  HIT %:       -nan  MISS %:       -nan   MPKI: 0
DTLB RFO       ACCESS:          0  HIT:          0  MISS:          0  HIT %:       -nan  MISS %:       -nan   MPKI: 0
DTLB PREFETCH  ACCESS:          0  HIT:          0  MISS:          0  HIT %:       -nan  MISS %:       -nan   MPKI: 0
DTLB WRITEBACK ACCESS:          0  HIT:          0  MISS:          0  HIT %:       -nan  MISS %:       -nan   MPKI: 0
STLB TOTAL     ACCESS:   16705332  HIT:    7464554  MISS:    9240778  HIT %:    44.6837  MISS %:    55.3163   MPKI: 45.562
STLB LOAD      ACCESS:          0  HIT:          0  MISS:          0  HIT %:       -nan  MISS %:       -nan   MPKI: 0
STLB RFO       ACCESS:          0  HIT:          0  MISS:          0  HIT %:       -nan  MISS %:       -nan   MPKI: 0
STLB PREFETCH  ACCESS:          0  HIT:          0  MISS:          0  HIT %:       -nan  MISS %:       -nan   MPKI: 0
STLB WRITEBACK ACCESS:          0  HIT:          0  MISS:          0  HIT %:       -nan  MISS %:       -nan   MPKI: 0
L1D TOTAL     ACCESS:   47933408  HIT:   46071625  MISS:    1861783  HIT %:    96.1159  MISS %:     3.8841   MPKI: 9.17958
L1D LOAD      ACCESS:   19688313  HIT:   18612433  MISS:    1075880  HIT %:    94.5354  MISS %:    5.46456   MPKI: 5.30466
L1D RFO       ACCESS:   15448192  HIT:   14909162  MISS:     539030  HIT %:    96.5107  MISS %:    3.48928   MPKI: 2.65771
L1D PREFETCH  ACCESS:   12796903  HIT:   12550030  MISS:     246873  HIT %:    98.0708  MISS %:    1.92916   MPKI: 1.21722
L1D WRITEBACK ACCESS:          0  HIT:          0  MISS:          0  HIT %:       -nan  MISS %:       -nan   MPKI: 0
L1I TOTAL     ACCESS:   42297847  HIT:   34087977  MISS:    8209870  HIT %:    80.5903  MISS %:    19.4097   MPKI: 40.479
L1I LOAD      ACCESS:   42297847  HIT:   34087977  MISS:    8209870  HIT %:    80.5903  MISS %:    19.4097   MPKI: 40.479
L1I RFO       ACCESS:          0  HIT:          0  MISS:          0  HIT %:       -nan  MISS %:       -nan   MPKI: 0
L1I PREFETCH  ACCESS:          0  HIT:          0  MISS:          0  HIT %:       -nan  MISS %:       -nan   MPKI: 0
L1I WRITEBACK ACCESS:          0  HIT:          0  MISS:          0  HIT %:       -nan  MISS %:       -nan   MPKI: 0
L2C TOTAL     ACCESS:   25284348  HIT:   23626282  MISS:    1658066  HIT %:    93.4423  MISS %:    6.55768   MPKI: 8.17515
L2C LOAD      ACCESS:    9219296  HIT:    8622764  MISS:     596532  HIT %:    93.5295  MISS %:    6.47047   MPKI: 2.94122
L2C RFO       ACCESS:     538958  HIT:     146302  MISS:     392656  HIT %:    27.1453  MISS %:    72.8547   MPKI: 1.936
L2C PREFETCH  ACCESS:    4336585  HIT:    3853320  MISS:     483265  HIT %:    88.8561  MISS %:    11.1439   MPKI: 2.38275
L2C WRITEBACK ACCESS:     796658  HIT:     710980  MISS:      85678  HIT %:    89.2453  MISS %:    10.7547   MPKI: 0.422438
PSCL5 TOTAL     ACCESS:    9367875  HIT:    9367875  MISS:          0  HIT %:        100  MISS %:          0   MPKI: 0
PSCL5 LOAD      ACCESS:          0  HIT:          0  MISS:          0  HIT %:       -nan  MISS %:       -nan   MPKI: 0
PSCL5 RFO       ACCESS:          0  HIT:          0  MISS:          0  HIT %:       -nan  MISS %:       -nan   MPKI: 0
PSCL5 PREFETCH  ACCESS:          0  HIT:          0  MISS:          0  HIT %:       -nan  MISS %:       -nan   MPKI: 0
PSCL5 WRITEBACK ACCESS:          0  HIT:          0  MISS:          0  HIT %:       -nan  MISS %:       -nan   MPKI: 0
PSCL4 TOTAL     ACCESS:    9366266  HIT:    9366256  MISS:         10  HIT %:    99.9999  MISS %: 0.000106766   MPKI: 4.93053e-05
PSCL4 LOAD      ACCESS:          0  HIT:          0  MISS:          0  HIT %:       -nan  MISS %:       -nan   MPKI: 0
PSCL4 RFO       ACCESS:          0  HIT:          0  MISS:          0  HIT %:       -nan  MISS %:       -nan   MPKI: 0
PSCL4 PREFETCH  ACCESS:          0  HIT:          0  MISS:          0  HIT %:       -nan  MISS %:       -nan   MPKI: 0
PSCL4 WRITEBACK ACCESS:          0  HIT:          0  MISS:          0  HIT %:       -nan  MISS %:       -nan   MPKI: 0
PSCL3 TOTAL     ACCESS:    9363349  HIT:    9362162  MISS:       1187  HIT %:    99.9873  MISS %:  0.0126771   MPKI: 0.00585254
PSCL3 LOAD      ACCESS:          0  HIT:          0  MISS:          0  HIT %:       -nan  MISS %:       -nan   MPKI: 0
PSCL3 RFO       ACCESS:          0  HIT:          0  MISS:          0  HIT %:       -nan  MISS %:       -nan   MPKI: 0
PSCL3 PREFETCH  ACCESS:          0  HIT:          0  MISS:          0  HIT %:       -nan  MISS %:       -nan   MPKI: 0
PSCL3 WRITEBACK ACCESS:          0  HIT:          0  MISS:          0  HIT %:       -nan  MISS %:       -nan   MPKI: 0
PSCL2 TOTAL     ACCESS:    9364330  HIT:    8342525  MISS:    1021805  HIT %:    89.0883  MISS %:    10.9117   MPKI: 5.03804
PSCL2 LOAD      ACCESS:          0  HIT:          0  MISS:          0  HIT %:       -nan  MISS %:       -nan   MPKI: 0
PSCL2 RFO       ACCESS:          0  HIT:          0  MISS:          0  HIT %:       -nan  MISS %:       -nan   MPKI: 0
PSCL2 PREFETCH  ACCESS:          0  HIT:          0  MISS:          0  HIT %:       -nan  MISS %:       -nan   MPKI: 0
PSCL2 WRITEBACK ACCESS:          0  HIT:          0  MISS:          0  HIT %:       -nan  MISS %:       -nan   MPKI: 0
LLC TOTAL     ACCESS:    2118943  HIT:    1198226  MISS:     920717  HIT %:    56.5483  MISS %:    43.4517   MPKI: 4.53963
LLC LOAD      ACCESS:     558496  HIT:     328779  MISS:     229717  HIT %:    58.8686  MISS %:    41.1314   MPKI: 1.13263
LLC RFO       ACCESS:     392544  HIT:     191765  MISS:     200779  HIT %:    48.8518  MISS %:    51.1482   MPKI: 0.989948
LLC PREFETCH  ACCESS:     521410  HIT:      71292  MISS:     450118  HIT %:    13.6729  MISS %:    86.3271   MPKI: 2.21932
LLC WRITEBACK ACCESS:     546558  HIT:     538029  MISS:       8529  HIT %:    98.4395  MISS %:    1.56049   MPKI: 0.0420525

RAW hits: 1157889
Loads Generated: 37379938
Loads sent to L1D: 36222049
Stores Generated: 17710554
Stores sent to L1D: 17710551

Region of Interest Statistics

CPU 0 cumulative IPC: 0.658249 instructions: 200000003 cycles: 303836442
ITLB TOTAL     ACCESS:   35705115  HIT:   29834419  MISS:    5870696  HIT %:    83.5578  MISS %:    16.4422   MPKI: 29.3535
ITLB LOAD TRANSLATION ACCESS:   35705115  HIT:   29834419  MISS:    5870696  HIT %:    83.5578  MISS %:    16.4422   MPKI: 29.3535
ITLB PREFETCH  REQUESTED:          0  ISSUED:          0  USEFUL:          0  USELESS:          0
ITLB USEFUL LOAD PREFETCHES:          0 PREFETCH ISSUED TO LOWER LEVEL:          0  ACCURACY: -nan
ITLB TIMELY PREFETCHES:          0 LATE PREFETCHES: 0 DROPPED PREFETCHES: 0
ITLB PREFETCHES SAME FILL-ORIGIN LEVEL: 0 DIFFERENT FILL-ORIGIN LEVEL: 0
ITLB AVERAGE MISS LATENCY: 29.9171 cycles
ITLB RQ	ACCESS:   44944905	FORWARD:          0	MERGED:    6658769	TO_CACHE:   38286136

DTLB TOTAL     ACCESS:   24264871  HIT:   17407936  MISS:    6856935  HIT %:    71.7413  MISS %:    28.2587   MPKI: 34.2847
DTLB LOAD TRANSLATION ACCESS:   24264871  HIT:   17407936  MISS:    6856935  HIT %:    71.7413  MISS %:    28.2587   MPKI: 34.2847
DTLB PREFETCH  REQUESTED:          0  ISSUED:          0  USEFUL:          0  USELESS:          0
DTLB USEFUL LOAD PREFETCHES:          0 PREFETCH ISSUED TO LOWER LEVEL:          0  ACCURACY: -nan
DTLB TIMELY PREFETCHES:          0 LATE PREFETCHES: 0 DROPPED PREFETCHES: 0
DTLB PREFETCHES SAME FILL-ORIGIN LEVEL: 0 DIFFERENT FILL-ORIGIN LEVEL: 0
DTLB AVERAGE MISS LATENCY: 33.1524 cycles
DTLB RQ	ACCESS:   37910790	FORWARD:          0	MERGED:   11889327	TO_CACHE:   26021463

STLB TOTAL     ACCESS:   16781466  HIT:    7363958  MISS:    9417508  HIT %:    43.8815  MISS %:    56.1185   MPKI: 47.0875
STLB LOAD TRANSLATION ACCESS:   12727631  HIT:    3507514  MISS:    9220117  HIT %:    27.5583  MISS %:    72.4417   MPKI: 46.1006
STLB TRANSLATION FROM L1D PREFETCHER ACCESS:    4053835  HIT:    3856444  MISS:     197391  HIT %:    95.1308  MISS %:    4.86924   MPKI: 0.986955
STLB PREFETCH  REQUESTED:          0  ISSUED:          0  USEFUL:     126810  USELESS:      71513
STLB USEFUL LOAD PREFETCHES:     126810 PREFETCH ISSUED TO LOWER LEVEL:          0  ACCURACY: inf
STLB TIMELY PREFETCHES:     126810 LATE PREFETCHES: 0 DROPPED PREFETCHES: 164503
STLB PREFETCHES SAME FILL-ORIGIN LEVEL: 0 DIFFERENT FILL-ORIGIN LEVEL: 0
STLB AVERAGE MISS LATENCY: 31.1354 cycles
STLB RQ	ACCESS:   30879282	FORWARD:          0	MERGED:   13816368	TO_CACHE:   17062914

STLB Hit, L1D data hit: 0
STLB Hit, L2C data hit: 0
STLB Hit, LLC data hit: 0
STLB Hit, LLC data miss: 0
STLB STLB hints to L2: 0
L1D TOTAL     ACCESS:   47240500  HIT:   45344496  MISS:    1896004  HIT %:    95.9865  MISS %:    4.01351   MPKI: 9.48002
L1D LOAD      ACCESS:   19666381  HIT:   18543118  MISS:    1123263  HIT %:    94.2884  MISS %:    5.71159   MPKI: 5.61631
L1D RFO       ACCESS:   15711016  HIT:   15147488  MISS:     563528  HIT %:    96.4132  MISS %:    3.58683   MPKI: 2.81764
L1D PREFETCH  ACCESS:   11863103  HIT:   11653890  MISS:     209213  HIT %:    98.2364  MISS %:    1.76356   MPKI: 1.04606
L1D PREFETCH  REQUESTED:   49504086  ISSUED:   47449459  USEFUL:     179338  USELESS:      31054
L1D USEFUL LOAD PREFETCHES:     179338 PREFETCH ISSUED TO LOWER LEVEL:    5281639  ACCURACY: 3.3955
L1D TIMELY PREFETCHES:     179338 LATE PREFETCHES: 68698 DROPPED PREFETCHES: 298084
L1D PREFETCHES SAME FILL-ORIGIN LEVEL: 279081 DIFFERENT FILL-ORIGIN LEVEL: 5002558
L1D AVERAGE MISS LATENCY: 90.2103 cycles
L1D RQ	ACCESS:   36327377	FORWARD:          0	MERGED:   16316800	TO_CACHE:   19890605
L1D WQ	ACCESS:   18138963	FORWARD:     124096	MERGED:     118778	TO_CACHE:   18020185
L1D PQ	ACCESS:   29360169	FORWARD:          0	MERGED:   11266755	TO_CACHE:   18089290

L1D UNIQUE REGIONS ACCESSED: 0
L1D REGIONS CONFLICTS: 0
L1D Cross Page Prefetch Requests: 3302974
L1D Same Page Prefetch Requests: 36376178
L1D ROI Sum of L1D PQ occupancy: 270356297
L1D PREFETCHES PUSHED FROM L2C: 0
L1I TOTAL     ACCESS:   41957645  HIT:   33591755  MISS:    8365890  HIT %:    80.0611  MISS %:    19.9389   MPKI: 41.8294
L1I LOAD      ACCESS:   41957645  HIT:   33591755  MISS:    8365890  HIT %:    80.0611  MISS %:    19.9389   MPKI: 41.8294
L1I PREFETCH  REQUESTED:          0  ISSUED:          0  USEFUL:          0  USELESS:          0
L1I USEFUL LOAD PREFETCHES:          0 PREFETCH ISSUED TO LOWER LEVEL:          0  ACCURACY: -nan
L1I TIMELY PREFETCHES:          0 LATE PREFETCHES: 0 DROPPED PREFETCHES: 0
L1I PREFETCHES SAME FILL-ORIGIN LEVEL: 0 DIFFERENT FILL-ORIGIN LEVEL: 0
L1I AVERAGE MISS LATENCY: 13.0144 cycles
L1I RQ	ACCESS:   79330533	FORWARD:          0	MERGED:   34385628	TO_CACHE:   44944905

BTB BRANCH_DIRECT_JUMP	ACCESS:          0  HIT:          0  MISS:          0
BTB BRANCH_INDIRECT	ACCESS:          0  HIT:          0  MISS:          0
BTB BRANCH_CONDITIONAL	ACCESS:          0  HIT:          0  MISS:          0
BTB BRANCH_DIRECT_CALL	ACCESS:          0  HIT:          0  MISS:          0
BTB BRANCH_INDIRECT_CALL	ACCESS:          0  HIT:          0  MISS:          0
BTB BRANCH_RETURN	ACCESS:          0  HIT:          0  MISS:          0
BTB BRANCH_OTHER ACCESS:          0  HIT:          0  MISS:          0

L2C TOTAL     ACCESS:   26037035  HIT:   24410412  MISS:    1626623  HIT %:    93.7527  MISS %:    6.24734   MPKI: 8.13311
L2C LOAD      ACCESS:    9420790  HIT:    8824026  MISS:     596764  HIT %:    93.6655  MISS %:    6.33454   MPKI: 2.98382
L2C DATA LOAD MPKI: 2.24345
L2C INSTRUCTION LOAD MPKI: 0.740365
L2C RFO       ACCESS:     563471  HIT:     163616  MISS:     399855  HIT %:    29.0372  MISS %:    70.9628   MPKI: 1.99927
L2C PREFETCH  ACCESS:    4628172  HIT:    4182228  MISS:     445944  HIT %:    90.3646  MISS %:    9.63542   MPKI: 2.22972
L2C DATA PREFETCH MPKI: 2.22972
L2C INSTRUCTION PREFETCH MPKI: 0
L2C WRITEBACK ACCESS:     838183  HIT:     753165  MISS:      85018  HIT %:    89.8569  MISS %:    10.1431   MPKI: 0.42509
L2C LOAD TRANSLATION ACCESS:   10213406  HIT:   10116029  MISS:      97377  HIT %:    99.0466  MISS %:   0.953423   MPKI: 0.486885
L2C TRANSLATION FROM L1D PREFETCHER ACCESS:     373013  HIT:     371348  MISS:       1665  HIT %:    99.5536  MISS %:   0.446365   MPKI: 0.008325
L2C PREFETCH  REQUESTED:          0  ISSUED:          0  USEFUL:     103766  USELESS:     346753
L2C USEFUL LOAD PREFETCHES:     103766 PREFETCH ISSUED TO LOWER LEVEL:     487463  ACCURACY: 21.2869
L2C TIMELY PREFETCHES:     103766 LATE PREFETCHES: 38980 DROPPED PREFETCHES: 0
L2C PREFETCHES SAME FILL-ORIGIN LEVEL: 416446 DIFFERENT FILL-ORIGIN LEVEL: 0
L2C AVERAGE MISS LATENCY: 150.867 cycles
L2C RQ	ACCESS:   20672803	FORWARD:          0	MERGED:          0	TO_CACHE:   20672736
L2C WQ	ACCESS:     843281	FORWARD:         77	MERGED:          0	TO_CACHE:     843281
L2C PQ	ACCESS:    5268692	FORWARD:          0	MERGED:      36340	TO_CACHE:    5232342

L2C Instructions Evicting Data 120963
L2C Translations Evicting Data 83944
L2C Data Evicting Data 1112782
L2C Instructions Evicting Instructions 18473
L2C Translations Evicting Instructions 9445
L2C Data Evicting Instructions 111692
L2C Instructions Evicting Translations 9728
L2C Translations Evicting Translations 6263
L2C Data Evicting Translations 77921
L2C Dense regions hint from L2: 0
PSCL5 TOTAL     ACCESS:    9581273  HIT:    9581273  MISS:          0  HIT %:        100  MISS %:          0   MPKI: 0
PSCL5 LOAD TRANSLATION ACCESS:    9220117  HIT:    9220117  MISS:          0  HIT %:        100  MISS %:          0   MPKI: 0
PSCL5 TRANSLATION FROM L1D PREFETCHER ACCESS:     361156  HIT:     361156  MISS:          0  HIT %:        100  MISS %:          0   MPKI: 0
PSCL5 PREFETCH  REQUESTED:          0  ISSUED:          0  USEFUL:          0  USELESS:          0
PSCL5 USEFUL LOAD PREFETCHES:          0 PREFETCH ISSUED TO LOWER LEVEL:          0  ACCURACY: -nan
PSCL5 TIMELY PREFETCHES:          0 LATE PREFETCHES: 0 DROPPED PREFETCHES: 0
PSCL5 PREFETCHES SAME FILL-ORIGIN LEVEL: 0 DIFFERENT FILL-ORIGIN LEVEL: 0

PSCL4 TOTAL     ACCESS:    9581273  HIT:    9581273  MISS:          0  HIT %:        100  MISS %:          0   MPKI: 0
PSCL4 LOAD TRANSLATION ACCESS:    9220117  HIT:    9220117  MISS:          0  HIT %:        100  MISS %:          0   MPKI: 0
PSCL4 TRANSLATION FROM L1D PREFETCHER ACCESS:     361156  HIT:     361156  MISS:          0  HIT %:        100  MISS %:          0   MPKI: 0
PSCL4 PREFETCH  REQUESTED:          0  ISSUED:          0  USEFUL:          0  USELESS:          0
PSCL4 USEFUL LOAD PREFETCHES:          0 PREFETCH ISSUED TO LOWER LEVEL:          0  ACCURACY: -nan
PSCL4 TIMELY PREFETCHES:          0 LATE PREFETCHES: 0 DROPPED PREFETCHES: 0
PSCL4 PREFETCHES SAME FILL-ORIGIN LEVEL: 0 DIFFERENT FILL-ORIGIN LEVEL: 0

PSCL3 TOTAL     ACCESS:    9580473  HIT:    9579868  MISS:        605  HIT %:    99.9937  MISS %: 0.00631493   MPKI: 0.003025
PSCL3 LOAD TRANSLATION ACCESS:    9219390  HIT:    9218785  MISS:        605  HIT %:    99.9934  MISS %: 0.00656226   MPKI: 0.003025
PSCL3 TRANSLATION FROM L1D PREFETCHER ACCESS:     361083  HIT:     361083  MISS:          0  HIT %:        100  MISS %:          0   MPKI: 0
PSCL3 PREFETCH  REQUESTED:          0  ISSUED:          0  USEFUL:          0  USELESS:          0
PSCL3 USEFUL LOAD PREFETCHES:          0 PREFETCH ISSUED TO LOWER LEVEL:          0  ACCURACY: -nan
PSCL3 TIMELY PREFETCHES:          0 LATE PREFETCHES: 0 DROPPED PREFETCHES: 0
PSCL3 PREFETCHES SAME FILL-ORIGIN LEVEL: 0 DIFFERENT FILL-ORIGIN LEVEL: 0

PSCL2 TOTAL     ACCESS:    9575909  HIT:    8575941  MISS:     999968  HIT %:    89.5575  MISS %:    10.4425   MPKI: 4.99984
PSCL2 LOAD TRANSLATION ACCESS:    9227299  HIT:    8227331  MISS:     999968  HIT %:    89.1629  MISS %:    10.8371   MPKI: 4.99984
PSCL2 TRANSLATION FROM L1D PREFETCHER ACCESS:     348610  HIT:     348610  MISS:          0  HIT %:        100  MISS %:          0   MPKI: 0
PSCL2 PREFETCH  REQUESTED:          0  ISSUED:          0  USEFUL:          0  USELESS:          0
PSCL2 USEFUL LOAD PREFETCHES:          0 PREFETCH ISSUED TO LOWER LEVEL:          0  ACCURACY: -nan
PSCL2 TIMELY PREFETCHES:          0 LATE PREFETCHES: 0 DROPPED PREFETCHES: 0
PSCL2 PREFETCHES SAME FILL-ORIGIN LEVEL: 0 DIFFERENT FILL-ORIGIN LEVEL: 0

LLC TOTAL     ACCESS:    2095561  HIT:    1227743  MISS:     867818  HIT %:    58.5878  MISS %:    41.4122   MPKI: 4.33909
LLC LOAD      ACCESS:     558137  HIT:     336840  MISS:     221297  HIT %:    60.3508  MISS %:    39.6492   MPKI: 1.10648
LLC RFO       ACCESS:     399730  HIT:     200171  MISS:     199559  HIT %:    50.0766  MISS %:    49.9234   MPKI: 0.997795
LLC PREFETCH  ACCESS:     484689  HIT:      77145  MISS:     407544  HIT %:    15.9164  MISS %:    84.0836   MPKI: 2.03772
LLC WRITEBACK ACCESS:     553963  HIT:     544783  MISS:       9180  HIT %:    98.3428  MISS %:    1.65715   MPKI: 0.0459
LLC LOAD TRANSLATION ACCESS:      97377  HIT:      68044  MISS:      29333  HIT %:    69.8769  MISS %:    30.1231   MPKI: 0.146665
LLC TRANSLATION FROM L1D PREFETCHER ACCESS:       1665  HIT:        760  MISS:        905  HIT %:    45.6456  MISS %:    54.3544   MPKI: 0.004525
LLC PREFETCH  REQUESTED:          0  ISSUED:          0  USEFUL:      20672  USELESS:    1649966
LLC USEFUL LOAD PREFETCHES:      20672 PREFETCH ISSUED TO LOWER LEVEL:    1677572  ACCURACY: 1.23226
LLC TIMELY PREFETCHES:      20672 LATE PREFETCHES: 0 DROPPED PREFETCHES: 0
LLC PREFETCHES SAME FILL-ORIGIN LEVEL: 0 DIFFERENT FILL-ORIGIN LEVEL: 0
LLC AVERAGE MISS LATENCY: 888.739 cycles
LLC RQ	ACCESS:    3845837	FORWARD:          0	MERGED:          0	TO_CACHE:    3845825
LLC WQ	ACCESS:    2013562	FORWARD:         17	MERGED:          0	TO_CACHE:    2013562
LLC PQ	ACCESS:    1966390	FORWARD:          0	MERGED:          0	TO_CACHE:    1966385

LLC Dense regions hint to LLC: 0

RAW hits: 1166829
Loads Generated: 37315229
Loads sent to L1D: 36148400
Stores Generated: 18047859
Stores sent to L1D: 18047856
Major fault: 0 Minor fault: 19020
Allocated PAGES: 72623

CPU 1 cumulative IPC: 0.6623 instructions: 200000003 cycles: 301977978
ITLB TOTAL     ACCESS:   35690211  HIT:   29815806  MISS:    5874405  HIT %:    83.5406  MISS %:    16.4594   MPKI: 29.372
ITLB LOAD TRANSLATION ACCESS:   35690211  HIT:   29815806  MISS:    5874405  HIT %:    83.5406  MISS %:    16.4594   MPKI: 29.372
ITLB PREFETCH  REQUESTED:          0  ISSUED:          0  USEFUL:          0  USELESS:          0
ITLB USEFUL LOAD PREFETCHES:          0 PREFETCH ISSUED TO LOWER LEVEL:          0  ACCURACY: -nan
ITLB TIMELY PREFETCHES:          0 LATE PREFETCHES: 0 DROPPED PREFETCHES: 0
ITLB PREFETCHES SAME FILL-ORIGIN LEVEL: 0 DIFFERENT FILL-ORIGIN LEVEL: 0
ITLB AVERAGE MISS LATENCY: 30.0442 cycles
ITLB RQ	ACCESS:   45182734	FORWARD:          0	MERGED:    6673820	TO_CACHE:   38508914

DTLB TOTAL     ACCESS:   24242176  HIT:   17373097  MISS:    6869079  HIT %:    71.6648  MISS %:    28.3352   MPKI: 34.3454
DTLB LOAD TRANSLATION ACCESS:   24242176  HIT:   17373097  MISS:    6869079  HIT %:    71.6648  MISS %:    28.3352   MPKI: 34.3454
DTLB PREFETCH  REQUESTED:          0  ISSUED:          0  USEFUL:          0  USELESS:          0
DTLB USEFUL LOAD PREFETCHES:          0 PREFETCH ISSUED TO LOWER LEVEL:          0  ACCURACY: -nan
DTLB TIMELY PREFETCHES:          0 LATE PREFETCHES: 0 DROPPED PREFETCHES: 0
DTLB PREFETCHES SAME FILL-ORIGIN LEVEL: 0 DIFFERENT FILL-ORIGIN LEVEL: 0
DTLB AVERAGE MISS LATENCY: 33.1357 cycles
DTLB RQ	ACCESS:   38056888	FORWARD:          0	MERGED:   11898121	TO_CACHE:   26158767

STLB TOTAL     ACCESS:   16716041  HIT:    7311802  MISS:    9404239  HIT %:    43.7412  MISS %:    56.2588   MPKI: 47.0212
STLB LOAD TRANSLATION ACCESS:   12743484  HIT:    3522419  MISS:    9221065  HIT %:    27.6409  MISS %:    72.3591   MPKI: 46.1053
STLB TRANSLATION FROM L1D PREFETCHER ACCESS:    3972557  HIT:    3789383  MISS:     183174  HIT %:     95.389  MISS %:    4.61098   MPKI: 0.91587
STLB PREFETCH  REQUESTED:          0  ISSUED:          0  USEFUL:     115610  USELESS:      70397
STLB USEFUL LOAD PREFETCHES:     115610 PREFETCH ISSUED TO LOWER LEVEL:          0  ACCURACY: inf
STLB TIMELY PREFETCHES:     115610 LATE PREFETCHES: 0 DROPPED PREFETCHES: 131587
STLB PREFETCHES SAME FILL-ORIGIN LEVEL: 0 DIFFERENT FILL-ORIGIN LEVEL: 0
STLB AVERAGE MISS LATENCY: 31.1737 cycles
STLB RQ	ACCESS:   31040759	FORWARD:          0	MERGED:   13971756	TO_CACHE:   17069003

STLB Hit, L1D data hit: 0
STLB Hit, L2C data hit: 0
STLB Hit, LLC data hit: 0
STLB Hit, LLC data miss: 0
STLB STLB hints to L2: 0
L1D TOTAL     ACCESS:   47282424  HIT:   45458533  MISS:    1823891  HIT %:    96.1426  MISS %:    3.85744   MPKI: 9.11945
L1D LOAD      ACCESS:   19616427  HIT:   18551832  MISS:    1064595  HIT %:    94.5729  MISS %:    5.42706   MPKI: 5.32297
L1D RFO       ACCESS:   15714903  HIT:   15165730  MISS:     549173  HIT %:    96.5054  MISS %:     3.4946   MPKI: 2.74586
L1D PREFETCH  ACCESS:   11951094  HIT:   11740971  MISS:     210123  HIT %:    98.2418  MISS %:    1.75819   MPKI: 1.05061
L1D PREFETCH  REQUESTED:   49818344  ISSUED:   47812901  USEFUL:     182991  USELESS:      29099
L1D USEFUL LOAD PREFETCHES:     182991 PREFETCH ISSUED TO LOWER LEVEL:    5182540  ACCURACY: 3.53091
L1D TIMELY PREFETCHES:     182991 LATE PREFETCHES: 66334 DROPPED PREFETCHES: 258334
L1D PREFETCHES SAME FILL-ORIGIN LEVEL: 278432 DIFFERENT FILL-ORIGIN LEVEL: 4904108
L1D AVERAGE MISS LATENCY: 92.2482 cycles
L1D RQ	ACCESS:   36461009	FORWARD:          0	MERGED:   16379717	TO_CACHE:   19962100
L1D WQ	ACCESS:   18210477	FORWARD:     123386	MERGED:     115689	TO_CACHE:   18094788
L1D PQ	ACCESS:   29656854	FORWARD:          0	MERGED:   11496613	TO_CACHE:   18156047

L1D UNIQUE REGIONS ACCESSED: 0
L1D REGIONS CONFLICTS: 0
L1D Cross Page Prefetch Requests: 3212547
L1D Same Page Prefetch Requests: 36785684
L1D ROI Sum of L1D PQ occupancy: 268060853
L1D PREFETCHES PUSHED FROM L2C: 0
L1I TOTAL     ACCESS:   41916588  HIT:   33555942  MISS:    8360646  HIT %:    80.0541  MISS %:    19.9459   MPKI: 41.8032
L1I LOAD      ACCESS:   41916588  HIT:   33555942  MISS:    8360646  HIT %:    80.0541  MISS %:    19.9459   MPKI: 41.8032
L1I PREFETCH  REQUESTED:          0  ISSUED:          0  USEFUL:          0  USELESS:          0
L1I USEFUL LOAD PREFETCHES:          0 PREFETCH ISSUED TO LOWER LEVEL:          0  ACCURACY: -nan
L1I TIMELY PREFETCHES:          0 LATE PREFETCHES: 0 DROPPED PREFETCHES: 0
L1I PREFETCHES SAME FILL-ORIGIN LEVEL: 0 DIFFERENT FILL-ORIGIN LEVEL: 0
L1I AVERAGE MISS LATENCY: 13.0073 cycles
L1I RQ	ACCESS:   79794412	FORWARD:          0	MERGED:   34611678	TO_CACHE:   45182734

BTB BRANCH_DIRECT_JUMP	ACCESS:          0  HIT:          0  MISS:          0
BTB BRANCH_INDIRECT	ACCESS:          0  HIT:          0  MISS:          0
BTB BRANCH_CONDITIONAL	ACCESS:          0  HIT:          0  MISS:          0
BTB BRANCH_DIRECT_CALL	ACCESS:          0  HIT:          0  MISS:          0
BTB BRANCH_INDIRECT_CALL	ACCESS:          0  HIT:          0  MISS:          0
BTB BRANCH_RETURN	ACCESS:          0  HIT:          0  MISS:          0
BTB BRANCH_OTHER ACCESS:          0  HIT:          0  MISS:          0

L2C TOTAL     ACCESS:   25799719  HIT:   24235109  MISS:    1564610  HIT %:    93.9356  MISS %:    6.06445   MPKI: 7.82305
L2C LOAD      ACCESS:    9359542  HIT:    8801298  MISS:     558244  HIT %:    94.0356  MISS %:    5.96444   MPKI: 2.79122
L2C DATA LOAD MPKI: 2.15249
L2C INSTRUCTION LOAD MPKI: 0.63873
L2C RFO       ACCESS:     549117  HIT:     155204  MISS:     393913  HIT %:    28.2643  MISS %:    71.7357   MPKI: 1.96956
L2C PREFETCH  ACCESS:    4511665  HIT:    4072532  MISS:     439133  HIT %:    90.2667  MISS %:    9.73328   MPKI: 2.19566
L2C DATA PREFETCH MPKI: 2.19566
L2C INSTRUCTION PREFETCH MPKI: 0
L2C WRITEBACK ACCESS:     808845  HIT:     725967  MISS:      82878  HIT %:    89.7535  MISS %:    10.2465   MPKI: 0.41439
L2C LOAD TRANSLATION ACCESS:   10249906  HIT:   10161049  MISS:      88857  HIT %:    99.1331  MISS %:   0.866906   MPKI: 0.444285
L2C TRANSLATION FROM L1D PREFETCHER ACCESS:     320644  HIT:     319059  MISS:       1585  HIT %:    99.5057  MISS %:   0.494318   MPKI: 0.007925
L2C PREFETCH  REQUESTED:          0  ISSUED:          0  USEFUL:     102634  USELESS:     342937
L2C USEFUL LOAD PREFETCHES:     102634 PREFETCH ISSUED TO LOWER LEVEL:     481980  ACCURACY: 21.2942
L2C TIMELY PREFETCHES:     102634 LATE PREFETCHES: 38119 DROPPED PREFETCHES: 0
L2C PREFETCHES SAME FILL-ORIGIN LEVEL: 406257 DIFFERENT FILL-ORIGIN LEVEL: 0
L2C AVERAGE MISS LATENCY: 154.158 cycles
L2C RQ	ACCESS:   20709804	FORWARD:          0	MERGED:          0	TO_CACHE:   20709734
L2C WQ	ACCESS:     817903	FORWARD:         77	MERGED:          0	TO_CACHE:     817903
L2C PQ	ACCESS:    5168351	FORWARD:          0	MERGED:      35472	TO_CACHE:    5132872

L2C Instructions Evicting Data 109154
L2C Translations Evicting Data 79047
L2C Data Evicting Data 1101864
L2C Instructions Evicting Instructions 11934
L2C Translations Evicting Instructions 7378
L2C Data Evicting Instructions 101329
L2C Instructions Evicting Translations 7853
L2C Translations Evicting Translations 4897
L2C Data Evicting Translations 73701
L2C Dense regions hint from L2: 0
PSCL5 TOTAL     ACCESS:    9534002  HIT:    9534002  MISS:          0  HIT %:        100  MISS %:          0   MPKI: 0
PSCL5 LOAD TRANSLATION ACCESS:    9221065  HIT:    9221065  MISS:          0  HIT %:        100  MISS %:          0   MPKI: 0
PSCL5 TRANSLATION FROM L1D PREFETCHER ACCESS:     312937  HIT:     312937  MISS:          0  HIT %:        100  MISS %:          0   MPKI: 0
PSCL5 PREFETCH  REQUESTED:          0  ISSUED:          0  USEFUL:          0  USELESS:          0
PSCL5 USEFUL LOAD PREFETCHES:          0 PREFETCH ISSUED TO LOWER LEVEL:          0  ACCURACY: -nan
PSCL5 TIMELY PREFETCHES:          0 LATE PREFETCHES: 0 DROPPED PREFETCHES: 0
PSCL5 PREFETCHES SAME FILL-ORIGIN LEVEL: 0 DIFFERENT FILL-ORIGIN LEVEL: 0

PSCL4 TOTAL     ACCESS:    9534002  HIT:    9534002  MISS:          0  HIT %:        100  MISS %:          0   MPKI: 0
PSCL4 LOAD TRANSLATION ACCESS:    9221065  HIT:    9221065  MISS:          0  HIT %:        100  MISS %:          0   MPKI: 0
PSCL4 TRANSLATION FROM L1D PREFETCHER ACCESS:     312937  HIT:     312937  MISS:          0  HIT %:        100  MISS %:          0   MPKI: 0
PSCL4 PREFETCH  REQUESTED:          0  ISSUED:          0  USEFUL:          0  USELESS:          0
PSCL4 USEFUL LOAD PREFETCHES:          0 PREFETCH ISSUED TO LOWER LEVEL:          0  ACCURACY: -nan
PSCL4 TIMELY PREFETCHES:          0 LATE PREFETCHES: 0 DROPPED PREFETCHES: 0
PSCL4 PREFETCHES SAME FILL-ORIGIN LEVEL: 0 DIFFERENT FILL-ORIGIN LEVEL: 0

PSCL3 TOTAL     ACCESS:    9528589  HIT:    9527389  MISS:       1200  HIT %:    99.9874  MISS %:  0.0125937   MPKI: 0.006
PSCL3 LOAD TRANSLATION ACCESS:    9215935  HIT:    9214735  MISS:       1200  HIT %:     99.987  MISS %:  0.0130209   MPKI: 0.006
PSCL3 TRANSLATION FROM L1D PREFETCHER ACCESS:     312654  HIT:     312654  MISS:          0  HIT %:        100  MISS %:          0   MPKI: 0
PSCL3 PREFETCH  REQUESTED:          0  ISSUED:          0  USEFUL:          0  USELESS:          0
PSCL3 USEFUL LOAD PREFETCHES:          0 PREFETCH ISSUED TO LOWER LEVEL:          0  ACCURACY: -nan
PSCL3 TIMELY PREFETCHES:          0 LATE PREFETCHES: 0 DROPPED PREFETCHES: 0
PSCL3 PREFETCHES SAME FILL-ORIGIN LEVEL: 0 DIFFERENT FILL-ORIGIN LEVEL: 0

PSCL2 TOTAL     ACCESS:    9531541  HIT:    8497732  MISS:    1033809  HIT %:    89.1538  MISS %:    10.8462   MPKI: 5.16904
PSCL2 LOAD TRANSLATION ACCESS:    9227124  HIT:    8193315  MISS:    1033809  HIT %:     88.796  MISS %:     11.204   MPKI: 5.16904
PSCL2 TRANSLATION FROM L1D PREFETCHER ACCESS:     304417  HIT:     304417  MISS:          0  HIT %:        100  MISS %:          0   MPKI: 0
PSCL2 PREFETCH  REQUESTED:          0  ISSUED:          0  USEFUL:          0  USELESS:          0
PSCL2 USEFUL LOAD PREFETCHES:          0 PREFETCH ISSUED TO LOWER LEVEL:          0  ACCURACY: -nan
PSCL2 TIMELY PREFETCHES:          0 LATE PREFETCHES: 0 DROPPED PREFETCHES: 0
PSCL2 PREFETCHES SAME FILL-ORIGIN LEVEL: 0 DIFFERENT FILL-ORIGIN LEVEL: 0

LLC TOTAL     ACCESS:    2024611  HIT:    1171106  MISS:     853505  HIT %:    57.8435  MISS %:    42.1565   MPKI: 4.26752
LLC LOAD      ACCESS:     520679  HIT:     309122  MISS:     211557  HIT %:     59.369  MISS %:     40.631   MPKI: 1.05778
LLC RFO       ACCESS:     393792  HIT:     197919  MISS:     195873  HIT %:    50.2598  MISS %:    49.7402   MPKI: 0.979365
LLC PREFETCH  ACCESS:     476815  HIT:      69118  MISS:     407697  HIT %:    14.4958  MISS %:    85.5042   MPKI: 2.03848
LLC WRITEBACK ACCESS:     542883  HIT:     533529  MISS:       9354  HIT %:     98.277  MISS %:    1.72302   MPKI: 0.04677
LLC LOAD TRANSLATION ACCESS:      88857  HIT:      60805  MISS:      28052  HIT %:    68.4302  MISS %:    31.5698   MPKI: 0.14026
LLC TRANSLATION FROM L1D PREFETCHER ACCESS:       1585  HIT:        613  MISS:        972  HIT %:    38.6751  MISS %:    61.3249   MPKI: 0.00486
LLC PREFETCH  REQUESTED:          0  ISSUED:          0  USEFUL:      20672  USELESS:    1649966
LLC USEFUL LOAD PREFETCHES:      20672 PREFETCH ISSUED TO LOWER LEVEL:    1677572  ACCURACY: 1.23226
LLC TIMELY PREFETCHES:      20672 LATE PREFETCHES: 0 DROPPED PREFETCHES: 0
LLC PREFETCHES SAME FILL-ORIGIN LEVEL: 0 DIFFERENT FILL-ORIGIN LEVEL: 0
LLC AVERAGE MISS LATENCY: 903.642 cycles
LLC RQ	ACCESS:    3845837	FORWARD:          0	MERGED:          0	TO_CACHE:    3845825
LLC WQ	ACCESS:    2013562	FORWARD:         17	MERGED:          0	TO_CACHE:    2013562
LLC PQ	ACCESS:    1966390	FORWARD:          0	MERGED:          0	TO_CACHE:    1966385

LLC Dense regions hint to LLC: 0

RAW hits: 1157524
Loads Generated: 37214062
Loads sent to L1D: 36056538
Stores Generated: 18012203
Stores sent to L1D: 18012202
Major fault: 0 Minor fault: 18696
Allocated PAGES: 72623

CPU 2 cumulative IPC: 0.655021 instructions: 200000001 cycles: 305333581
ITLB TOTAL     ACCESS:   35504518  HIT:   30170993  MISS:    5333525  HIT %:    84.9779  MISS %:    15.0221   MPKI: 26.6676
ITLB LOAD TRANSLATION ACCESS:   35504518  HIT:   30170993  MISS:    5333525  HIT %:    84.9779  MISS %:    15.0221   MPKI: 26.6676
ITLB PREFETCH  REQUESTED:          0  ISSUED:          0  USEFUL:          0  USELESS:          0
ITLB USEFUL LOAD PREFETCHES:          0 PREFETCH ISSUED TO LOWER LEVEL:          0  ACCURACY: -nan
ITLB TIMELY PREFETCHES:          0 LATE PREFETCHES: 0 DROPPED PREFETCHES: 0
ITLB PREFETCHES SAME FILL-ORIGIN LEVEL: 0 DIFFERENT FILL-ORIGIN LEVEL: 0
ITLB AVERAGE MISS LATENCY: 34.0136 cycles
ITLB RQ	ACCESS:   43407030	FORWARD:          0	MERGED:    5860201	TO_CACHE:   37546829

DTLB TOTAL     ACCESS:   24336032  HIT:   16612842  MISS:    7723190  HIT %:    68.2644  MISS %:    31.7356   MPKI: 38.6159
DTLB LOAD TRANSLATION ACCESS:   24336032  HIT:   16612842  MISS:    7723190  HIT %:    68.2644  MISS %:    31.7356   MPKI: 38.6159
DTLB PREFETCH  REQUESTED:          0  ISSUED:          0  USEFUL:          0  USELESS:          0
DTLB USEFUL LOAD PREFETCHES:          0 PREFETCH ISSUED TO LOWER LEVEL:          0  ACCURACY: -nan
DTLB TIMELY PREFETCHES:          0 LATE PREFETCHES: 0 DROPPED PREFETCHES: 0
DTLB PREFETCHES SAME FILL-ORIGIN LEVEL: 0 DIFFERENT FILL-ORIGIN LEVEL: 0
DTLB AVERAGE MISS LATENCY: 36.9579 cycles
DTLB RQ	ACCESS:   36256232	FORWARD:          0	MERGED:   10359757	TO_CACHE:   25896475

STLB TOTAL     ACCESS:   19137247  HIT:    8493013  MISS:   10644234  HIT %:    44.3795  MISS %:    55.6205   MPKI: 53.2212
STLB LOAD TRANSLATION ACCESS:   13056716  HIT:    3050897  MISS:   10005819  HIT %:    23.3665  MISS %:    76.6335   MPKI: 50.0291
STLB TRANSLATION FROM L1D PREFETCHER ACCESS:    6080531  HIT:    5442116  MISS:     638415  HIT %:    89.5007  MISS %:    10.4993   MPKI: 3.19207
STLB PREFETCH  REQUESTED:          0  ISSUED:          0  USEFUL:     362212  USELESS:     276203
STLB USEFUL LOAD PREFETCHES:     362212 PREFETCH ISSUED TO LOWER LEVEL:          0  ACCURACY: inf
STLB TIMELY PREFETCHES:     362212 LATE PREFETCHES: 0 DROPPED PREFETCHES: 780303
STLB PREFETCHES SAME FILL-ORIGIN LEVEL: 0 DIFFERENT FILL-ORIGIN LEVEL: 0
STLB AVERAGE MISS LATENCY: 35.1042 cycles
STLB RQ	ACCESS:   36246773	FORWARD:          0	MERGED:   16225480	TO_CACHE:   20021293

STLB Hit, L1D data hit: 0
STLB Hit, L2C data hit: 0
STLB Hit, LLC data hit: 0
STLB Hit, LLC data miss: 0
STLB STLB hints to L2: 0
L1D TOTAL     ACCESS:   47839618  HIT:   45853516  MISS:    1986102  HIT %:    95.8484  MISS %:    4.15158   MPKI: 9.93051
L1D LOAD      ACCESS:   20272680  HIT:   18998199  MISS:    1274481  HIT %:    93.7133  MISS %:    6.28669   MPKI: 6.3724
L1D RFO       ACCESS:   14388934  HIT:   13962810  MISS:     426124  HIT %:    97.0385  MISS %:    2.96147   MPKI: 2.13062
L1D PREFETCH  ACCESS:   13178004  HIT:   12892507  MISS:     285497  HIT %:    97.8335  MISS %:    2.16647   MPKI: 1.42748
L1D PREFETCH  REQUESTED:   67133423  ISSUED:   65798171  USEFUL:     262466  USELESS:      23010
L1D USEFUL LOAD PREFETCHES:     262466 PREFETCH ISSUED TO LOWER LEVEL:    6731721  ACCURACY: 3.89894
L1D TIMELY PREFETCHES:     262466 LATE PREFETCHES: 29563 DROPPED PREFETCHES: 1388839
L1D PREFETCHES SAME FILL-ORIGIN LEVEL: 315079 DIFFERENT FILL-ORIGIN LEVEL: 6416642
L1D AVERAGE MISS LATENCY: 76.5563 cycles
L1D RQ	ACCESS:   35647033	FORWARD:          0	MERGED:   15222317	TO_CACHE:   20368046
L1D WQ	ACCESS:   15973221	FORWARD:      59661	MERGED:      85035	TO_CACHE:   15888186
L1D PQ	ACCESS:   42608117	FORWARD:          0	MERGED:   19415072	TO_CACHE:   23190054

L1D UNIQUE REGIONS ACCESSED: 0
L1D REGIONS CONFLICTS: 0
L1D Cross Page Prefetch Requests: 7962668
L1D Same Page Prefetch Requests: 43893955
L1D ROI Sum of L1D PQ occupancy: 431778827
L1D PREFETCHES PUSHED FROM L2C: 0
L1I TOTAL     ACCESS:   41105214  HIT:   34038684  MISS:    7066530  HIT %:    82.8087  MISS %:    17.1913   MPKI: 35.3326
L1I LOAD      ACCESS:   41105214  HIT:   34038684  MISS:    7066530  HIT %:    82.8087  MISS %:    17.1913   MPKI: 35.3326
L1I PREFETCH  REQUESTED:          0  ISSUED:          0  USEFUL:          0  USELESS:          0
L1I USEFUL LOAD PREFETCHES:          0 PREFETCH ISSUED TO LOWER LEVEL:          0  ACCURACY: -nan
L1I TIMELY PREFETCHES:          0 LATE PREFETCHES: 0 DROPPED PREFETCHES: 0
L1I PREFETCHES SAME FILL-ORIGIN LEVEL: 0 DIFFERENT FILL-ORIGIN LEVEL: 0
L1I AVERAGE MISS LATENCY: 12.9435 cycles
L1I RQ	ACCESS:   76635782	FORWARD:          0	MERGED:   33228752	TO_CACHE:   43407030

BTB BRANCH_DIRECT_JUMP	ACCESS:          0  HIT:          0  MISS:          0
BTB BRANCH_INDIRECT	ACCESS:          0  HIT:          0  MISS:          0
BTB BRANCH_CONDITIONAL	ACCESS:          0  HIT:          0  MISS:          0
BTB BRANCH_DIRECT_CALL	ACCESS:          0  HIT:          0  MISS:          0
BTB BRANCH_INDIRECT_CALL	ACCESS:          0  HIT:          0  MISS:          0
BTB BRANCH_RETURN	ACCESS:          0  HIT:          0  MISS:          0
BTB BRANCH_OTHER ACCESS:          0  HIT:          0  MISS:          0

L2C TOTAL     ACCESS:   28783816  HIT:   27537310  MISS:    1246506  HIT %:    95.6694  MISS %:    4.33058   MPKI: 6.23253
L2C LOAD      ACCESS:    8311372  HIT:    7851848  MISS:     459524  HIT %:    94.4711  MISS %:    5.52886   MPKI: 2.29762
L2C DATA LOAD MPKI: 1.78812
L2C INSTRUCTION LOAD MPKI: 0.5095
L2C RFO       ACCESS:     426019  HIT:     218048  MISS:     207971  HIT %:    51.1827  MISS %:    48.8173   MPKI: 1.03985
L2C PREFETCH  ACCESS:    6359052  HIT:    5907240  MISS:     451812  HIT %:     92.895  MISS %:    7.10502   MPKI: 2.25906
L2C DATA PREFETCH MPKI: 2.25906
L2C INSTRUCTION PREFETCH MPKI: 0
L2C WRITEBACK ACCESS:     785328  HIT:     730107  MISS:      55221  HIT %:    92.9684  MISS %:    7.03158   MPKI: 0.276105
L2C LOAD TRANSLATION ACCESS:   11439720  HIT:   11369975  MISS:      69745  HIT %:    99.3903  MISS %:   0.609674   MPKI: 0.348725
L2C TRANSLATION FROM L1D PREFETCHER ACCESS:    1462325  HIT:    1460092  MISS:       2233  HIT %:    99.8473  MISS %:   0.152702   MPKI: 0.011165
L2C PREFETCH  REQUESTED:          0  ISSUED:          0  USEFUL:      68774  USELESS:     385395
L2C USEFUL LOAD PREFETCHES:      68774 PREFETCH ISSUED TO LOWER LEVEL:     475537  ACCURACY: 14.4624
L2C TIMELY PREFETCHES:      68774 LATE PREFETCHES: 23725 DROPPED PREFETCHES: 0
L2C PREFETCHES SAME FILL-ORIGIN LEVEL: 272264 DIFFERENT FILL-ORIGIN LEVEL: 0
L2C AVERAGE MISS LATENCY: 149.044 cycles
L2C RQ	ACCESS:   21639598	FORWARD:          0	MERGED:          0	TO_CACHE:   21639450
L2C WQ	ACCESS:     785329	FORWARD:        182	MERGED:          0	TO_CACHE:     785329
L2C PQ	ACCESS:    6724878	FORWARD:          0	MERGED:      19266	TO_CACHE:    6705578

L2C Instructions Evicting Data 83040
L2C Translations Evicting Data 61681
L2C Data Evicting Data 882545
L2C Instructions Evicting Instructions 12842
L2C Translations Evicting Instructions 6007
L2C Data Evicting Instructions 76984
L2C Instructions Evicting Translations 6009
L2C Translations Evicting Translations 4277
L2C Data Evicting Translations 57760
L2C Dense regions hint from L2: 0
PSCL5 TOTAL     ACCESS:   11424538  HIT:   11424538  MISS:          0  HIT %:        100  MISS %:          0   MPKI: 0
PSCL5 LOAD TRANSLATION ACCESS:   10005820  HIT:   10005820  MISS:          0  HIT %:        100  MISS %:          0   MPKI: 0
PSCL5 TRANSLATION FROM L1D PREFETCHER ACCESS:    1418718  HIT:    1418718  MISS:          0  HIT %:        100  MISS %:          0   MPKI: 0
PSCL5 PREFETCH  REQUESTED:          0  ISSUED:          0  USEFUL:          0  USELESS:          0
PSCL5 USEFUL LOAD PREFETCHES:          0 PREFETCH ISSUED TO LOWER LEVEL:          0  ACCURACY: -nan
PSCL5 TIMELY PREFETCHES:          0 LATE PREFETCHES: 0 DROPPED PREFETCHES: 0
PSCL5 PREFETCHES SAME FILL-ORIGIN LEVEL: 0 DIFFERENT FILL-ORIGIN LEVEL: 0

PSCL4 TOTAL     ACCESS:   11424538  HIT:   11424538  MISS:          0  HIT %:        100  MISS %:          0   MPKI: 0
PSCL4 LOAD TRANSLATION ACCESS:   10005820  HIT:   10005820  MISS:          0  HIT %:        100  MISS %:          0   MPKI: 0
PSCL4 TRANSLATION FROM L1D PREFETCHER ACCESS:    1418718  HIT:    1418718  MISS:          0  HIT %:        100  MISS %:          0   MPKI: 0
PSCL4 PREFETCH  REQUESTED:          0  ISSUED:          0  USEFUL:          0  USELESS:          0
PSCL4 USEFUL LOAD PREFETCHES:          0 PREFETCH ISSUED TO LOWER LEVEL:          0  ACCURACY: -nan
PSCL4 TIMELY PREFETCHES:          0 LATE PREFETCHES: 0 DROPPED PREFETCHES: 0
PSCL4 PREFETCHES SAME FILL-ORIGIN LEVEL: 0 DIFFERENT FILL-ORIGIN LEVEL: 0

PSCL3 TOTAL     ACCESS:   11423698  HIT:   11423248  MISS:        450  HIT %:    99.9961  MISS %: 0.00393918   MPKI: 0.00225
PSCL3 LOAD TRANSLATION ACCESS:   10005024  HIT:   10004574  MISS:        450  HIT %:    99.9955  MISS %: 0.00449774   MPKI: 0.00225
PSCL3 TRANSLATION FROM L1D PREFETCHER ACCESS:    1418674  HIT:    1418674  MISS:          0  HIT %:        100  MISS %:          0   MPKI: 0
PSCL3 PREFETCH  REQUESTED:          0  ISSUED:          0  USEFUL:          0  USELESS:          0
PSCL3 USEFUL LOAD PREFETCHES:          0 PREFETCH ISSUED TO LOWER LEVEL:          0  ACCURACY: -nan
PSCL3 TIMELY PREFETCHES:          0 LATE PREFETCHES: 0 DROPPED PREFETCHES: 0
PSCL3 PREFETCHES SAME FILL-ORIGIN LEVEL: 0 DIFFERENT FILL-ORIGIN LEVEL: 0

PSCL2 TOTAL     ACCESS:   11401157  HIT:    9943998  MISS:    1457159  HIT %:    87.2192  MISS %:    12.7808   MPKI: 7.28579
PSCL2 LOAD TRANSLATION ACCESS:   10029422  HIT:    8572263  MISS:    1457159  HIT %:    85.4712  MISS %:    14.5288   MPKI: 7.28579
PSCL2 TRANSLATION FROM L1D PREFETCHER ACCESS:    1371735  HIT:    1371735  MISS:          0  HIT %:        100  MISS %:          0   MPKI: 0
PSCL2 PREFETCH  REQUESTED:          0  ISSUED:          0  USEFUL:          0  USELESS:          0
PSCL2 USEFUL LOAD PREFETCHES:          0 PREFETCH ISSUED TO LOWER LEVEL:          0  ACCURACY: -nan
PSCL2 TIMELY PREFETCHES:          0 LATE PREFETCHES: 0 DROPPED PREFETCHES: 0
PSCL2 PREFETCHES SAME FILL-ORIGIN LEVEL: 0 DIFFERENT FILL-ORIGIN LEVEL: 0

LLC TOTAL     ACCESS:    1551637  HIT:     832625  MISS:     719012  HIT %:    53.6611  MISS %:    46.3389   MPKI: 3.59506
LLC LOAD      ACCESS:     435858  HIT:     279635  MISS:     156223  HIT %:    64.1574  MISS %:    35.8426   MPKI: 0.781115
LLC RFO       ACCESS:     207909  HIT:      73897  MISS:     134012  HIT %:     35.543  MISS %:     64.457   MPKI: 0.67006
LLC PREFETCH  ACCESS:     475537  HIT:      79990  MISS:     395547  HIT %:     16.821  MISS %:     83.179   MPKI: 1.97773
LLC WRITEBACK ACCESS:     360355  HIT:     350497  MISS:       9858  HIT %:    97.2644  MISS %:    2.73564   MPKI: 0.04929
LLC LOAD TRANSLATION ACCESS:      69745  HIT:      47522  MISS:      22223  HIT %:    68.1368  MISS %:    31.8632   MPKI: 0.111115
LLC TRANSLATION FROM L1D PREFETCHER ACCESS:       2233  HIT:       1084  MISS:       1149  HIT %:    48.5446  MISS %:    51.4554   MPKI: 0.005745
LLC PREFETCH  REQUESTED:          0  ISSUED:          0  USEFUL:      20672  USELESS:    1649966
LLC USEFUL LOAD PREFETCHES:      20672 PREFETCH ISSUED TO LOWER LEVEL:    1677572  ACCURACY: 1.23226
LLC TIMELY PREFETCHES:      20672 LATE PREFETCHES: 0 DROPPED PREFETCHES: 0
LLC PREFETCHES SAME FILL-ORIGIN LEVEL: 0 DIFFERENT FILL-ORIGIN LEVEL: 0
LLC AVERAGE MISS LATENCY: 1072.67 cycles
LLC RQ	ACCESS:    3845837	FORWARD:          0	MERGED:          0	TO_CACHE:    3845825
LLC WQ	ACCESS:    2013562	FORWARD:         17	MERGED:          0	TO_CACHE:    2013562
LLC PQ	ACCESS:    1966390	FORWARD:          0	MERGED:          0	TO_CACHE:    1966385

LLC Dense regions hint to LLC: 0

RAW hits: 730699
Loads Generated: 36377732
Loads sent to L1D: 35647033
Stores Generated: 15973221
Stores sent to L1D: 15973221
Major fault: 0 Minor fault: 15484
Allocated PAGES: 72623

CPU 3 cumulative IPC: 0.664512 instructions: 200000001 cycles: 300972542
ITLB TOTAL     ACCESS:   35648070  HIT:   29948310  MISS:    5699760  HIT %:     84.011  MISS %:     15.989   MPKI: 28.4988
ITLB LOAD TRANSLATION ACCESS:   35648070  HIT:   29948310  MISS:    5699760  HIT %:     84.011  MISS %:     15.989   MPKI: 28.4988
ITLB PREFETCH  REQUESTED:          0  ISSUED:          0  USEFUL:          0  USELESS:          0
ITLB USEFUL LOAD PREFETCHES:          0 PREFETCH ISSUED TO LOWER LEVEL:          0  ACCURACY: -nan
ITLB TIMELY PREFETCHES:          0 LATE PREFETCHES: 0 DROPPED PREFETCHES: 0
ITLB PREFETCHES SAME FILL-ORIGIN LEVEL: 0 DIFFERENT FILL-ORIGIN LEVEL: 0
ITLB AVERAGE MISS LATENCY: 30.1622 cycles
ITLB RQ	ACCESS:   45008967	FORWARD:          0	MERGED:    6504252	TO_CACHE:   38504715

DTLB TOTAL     ACCESS:   23901275  HIT:   17237891  MISS:    6663384  HIT %:    72.1212  MISS %:    27.8788   MPKI: 33.3169
DTLB LOAD TRANSLATION ACCESS:   23901275  HIT:   17237891  MISS:    6663384  HIT %:    72.1212  MISS %:    27.8788   MPKI: 33.3169
DTLB PREFETCH  REQUESTED:          0  ISSUED:          0  USEFUL:          0  USELESS:          0
DTLB USEFUL LOAD PREFETCHES:          0 PREFETCH ISSUED TO LOWER LEVEL:          0  ACCURACY: -nan
DTLB TIMELY PREFETCHES:          0 LATE PREFETCHES: 0 DROPPED PREFETCHES: 0
DTLB PREFETCHES SAME FILL-ORIGIN LEVEL: 0 DIFFERENT FILL-ORIGIN LEVEL: 0
DTLB AVERAGE MISS LATENCY: 33.5442 cycles
DTLB RQ	ACCESS:   37413649	FORWARD:          0	MERGED:   11577046	TO_CACHE:   25836603

STLB TOTAL     ACCESS:   16472773  HIT:    7364923  MISS:    9107850  HIT %:    44.7097  MISS %:    55.2903   MPKI: 45.5392
STLB LOAD TRANSLATION ACCESS:   12363144  HIT:    3416067  MISS:    8947077  HIT %:    27.6311  MISS %:    72.3689   MPKI: 44.7354
STLB TRANSLATION FROM L1D PREFETCHER ACCESS:    4109629  HIT:    3948856  MISS:     160773  HIT %:    96.0879  MISS %:     3.9121   MPKI: 0.803865
STLB PREFETCH  REQUESTED:          0  ISSUED:          0  USEFUL:     102593  USELESS:      60913
STLB USEFUL LOAD PREFETCHES:     102593 PREFETCH ISSUED TO LOWER LEVEL:          0  ACCURACY: inf
STLB TIMELY PREFETCHES:     102593 LATE PREFETCHES: 0 DROPPED PREFETCHES: 127096
STLB PREFETCHES SAME FILL-ORIGIN LEVEL: 0 DIFFERENT FILL-ORIGIN LEVEL: 0
STLB AVERAGE MISS LATENCY: 31.506 cycles
STLB RQ	ACCESS:   31680197	FORWARD:          0	MERGED:   14816989	TO_CACHE:   16863208

STLB Hit, L1D data hit: 0
STLB Hit, L2C data hit: 0
STLB Hit, LLC data hit: 0
STLB Hit, LLC data miss: 0
STLB STLB hints to L2: 0
L1D TOTAL     ACCESS:   47277361  HIT:   45441912  MISS:    1835449  HIT %:    96.1177  MISS %:     3.8823   MPKI: 9.17724
L1D LOAD      ACCESS:   19418218  HIT:   18359094  MISS:    1059124  HIT %:    94.5457  MISS %:    5.45428   MPKI: 5.29562
L1D RFO       ACCESS:   15226969  HIT:   14695129  MISS:     531840  HIT %:    96.5072  MISS %:    3.49275   MPKI: 2.6592
L1D PREFETCH  ACCESS:   12632174  HIT:   12387689  MISS:     244485  HIT %:    98.0646  MISS %:    1.93542   MPKI: 1.22242
L1D PREFETCH  REQUESTED:   54257619  ISSUED:   52364826  USEFUL:     218620  USELESS:      28256
L1D USEFUL LOAD PREFETCHES:     218620 PREFETCH ISSUED TO LOWER LEVEL:    4961534  ACCURACY: 4.4063
L1D TIMELY PREFETCHES:     218620 LATE PREFETCHES: 66437 DROPPED PREFETCHES: 271937
L1D PREFETCHES SAME FILL-ORIGIN LEVEL: 313357 DIFFERENT FILL-ORIGIN LEVEL: 4648177
L1D AVERAGE MISS LATENCY: 99.0205 cycles
L1D RQ	ACCESS:   36222049	FORWARD:          0	MERGED:   16288215	TO_CACHE:   19817273
L1D WQ	ACCESS:   17710551	FORWARD:     120711	MERGED:     114175	TO_CACHE:   17596376
L1D PQ	ACCESS:   33227589	FORWARD:          0	MERGED:   14086202	TO_CACHE:   19137237

L1D UNIQUE REGIONS ACCESSED: 0
L1D REGIONS CONFLICTS: 0
L1D Cross Page Prefetch Requests: 3475778
L1D Same Page Prefetch Requests: 39941872
L1D ROI Sum of L1D PQ occupancy: 278215833
L1D PREFETCHES PUSHED FROM L2C: 0
L1I TOTAL     ACCESS:   41703981  HIT:   33609927  MISS:    8094054  HIT %:    80.5917  MISS %:    19.4083   MPKI: 40.4703
L1I LOAD      ACCESS:   41703981  HIT:   33609927  MISS:    8094054  HIT %:    80.5917  MISS %:    19.4083   MPKI: 40.4703
L1I PREFETCH  REQUESTED:          0  ISSUED:          0  USEFUL:          0  USELESS:          0
L1I USEFUL LOAD PREFETCHES:          0 PREFETCH ISSUED TO LOWER LEVEL:          0  ACCURACY: -nan
L1I TIMELY PREFETCHES:          0 LATE PREFETCHES: 0 DROPPED PREFETCHES: 0
L1I PREFETCHES SAME FILL-ORIGIN LEVEL: 0 DIFFERENT FILL-ORIGIN LEVEL: 0
L1I AVERAGE MISS LATENCY: 13.2132 cycles
L1I RQ	ACCESS:   79321540	FORWARD:          0	MERGED:   34312573	TO_CACHE:   45008967

BTB BRANCH_DIRECT_JUMP	ACCESS:          0  HIT:          0  MISS:          0
BTB BRANCH_INDIRECT	ACCESS:          0  HIT:          0  MISS:          0
BTB BRANCH_CONDITIONAL	ACCESS:          0  HIT:          0  MISS:          0
BTB BRANCH_DIRECT_CALL	ACCESS:          0  HIT:          0  MISS:          0
BTB BRANCH_INDIRECT_CALL	ACCESS:          0  HIT:          0  MISS:          0
BTB BRANCH_RETURN	ACCESS:          0  HIT:          0  MISS:          0
BTB BRANCH_OTHER ACCESS:          0  HIT:          0  MISS:          0

L2C TOTAL     ACCESS:   24928055  HIT:   23294815  MISS:    1633240  HIT %:    93.4482  MISS %:    6.55181   MPKI: 8.1662
L2C LOAD      ACCESS:    9087525  HIT:    8501623  MISS:     585902  HIT %:    93.5527  MISS %:    6.44732   MPKI: 2.92951
L2C DATA LOAD MPKI: 2.2074
L2C INSTRUCTION LOAD MPKI: 0.722105
L2C RFO       ACCESS:     531768  HIT:     144087  MISS:     387681  HIT %:    27.0958  MISS %:    72.9042   MPKI: 1.9384
L2C PREFETCH  ACCESS:    4278828  HIT:    3801694  MISS:     477134  HIT %:     88.849  MISS %:     11.151   MPKI: 2.38567
L2C DATA PREFETCH MPKI: 2.38567
L2C INSTRUCTION PREFETCH MPKI: 0
L2C WRITEBACK ACCESS:     785450  HIT:     701111  MISS:      84339  HIT %:    89.2623  MISS %:    10.7377   MPKI: 0.421695
L2C LOAD TRANSLATION ACCESS:    9950336  HIT:    9853735  MISS:      96601  HIT %:    99.0292  MISS %:   0.970832   MPKI: 0.483005
L2C TRANSLATION FROM L1D PREFETCHER ACCESS:     294148  HIT:     292565  MISS:       1583  HIT %:    99.4618  MISS %:   0.538164   MPKI: 0.007915
L2C PREFETCH  REQUESTED:          0  ISSUED:          0  USEFUL:     101789  USELESS:     383146
L2C USEFUL LOAD PREFETCHES:     101789 PREFETCH ISSUED TO LOWER LEVEL:     521410  ACCURACY: 19.5219
L2C TIMELY PREFETCHES:     101789 LATE PREFETCHES: 38145 DROPPED PREFETCHES: 0
L2C PREFETCHES SAME FILL-ORIGIN LEVEL: 405014 DIFFERENT FILL-ORIGIN LEVEL: 0
L2C AVERAGE MISS LATENCY: 156.729 cycles
L2C RQ	ACCESS:   20151193	FORWARD:          0	MERGED:          0	TO_CACHE:   20151119
L2C WQ	ACCESS:     796658	FORWARD:         83	MERGED:          0	TO_CACHE:     796658
L2C PQ	ACCESS:    4944644	FORWARD:          0	MERGED:      34977	TO_CACHE:    4909658

L2C Instructions Evicting Data 120785
L2C Translations Evicting Data 84293
L2C Data Evicting Data 1135504
L2C Instructions Evicting Instructions 16462
L2C Translations Evicting Instructions 9593
L2C Data Evicting Instructions 111317
L2C Instructions Evicting Translations 10065
L2C Translations Evicting Translations 6040
L2C Data Evicting Translations 78211
L2C Dense regions hint from L2: 0
PSCL5 TOTAL     ACCESS:    9233556  HIT:    9233556  MISS:          0  HIT %:        100  MISS %:          0   MPKI: 0
PSCL5 LOAD TRANSLATION ACCESS:    8947078  HIT:    8947078  MISS:          0  HIT %:        100  MISS %:          0   MPKI: 0
PSCL5 TRANSLATION FROM L1D PREFETCHER ACCESS:     286478  HIT:     286478  MISS:          0  HIT %:        100  MISS %:          0   MPKI: 0
PSCL5 PREFETCH  REQUESTED:          0  ISSUED:          0  USEFUL:          0  USELESS:          0
PSCL5 USEFUL LOAD PREFETCHES:          0 PREFETCH ISSUED TO LOWER LEVEL:          0  ACCURACY: -nan
PSCL5 TIMELY PREFETCHES:          0 LATE PREFETCHES: 0 DROPPED PREFETCHES: 0
PSCL5 PREFETCHES SAME FILL-ORIGIN LEVEL: 0 DIFFERENT FILL-ORIGIN LEVEL: 0

PSCL4 TOTAL     ACCESS:    9231947  HIT:    9231937  MISS:         10  HIT %:    99.9999  MISS %: 0.00010832   MPKI: 5e-05
PSCL4 LOAD TRANSLATION ACCESS:    8945545  HIT:    8945535  MISS:         10  HIT %:    99.9999  MISS %: 0.000111787   MPKI: 5e-05
PSCL4 TRANSLATION FROM L1D PREFETCHER ACCESS:     286402  HIT:     286402  MISS:          0  HIT %:        100  MISS %:          0   MPKI: 0
PSCL4 PREFETCH  REQUESTED:          0  ISSUED:          0  USEFUL:          0  USELESS:          0
PSCL4 USEFUL LOAD PREFETCHES:          0 PREFETCH ISSUED TO LOWER LEVEL:          0  ACCURACY: -nan
PSCL4 TIMELY PREFETCHES:          0 LATE PREFETCHES: 0 DROPPED PREFETCHES: 0
PSCL4 PREFETCHES SAME FILL-ORIGIN LEVEL: 0 DIFFERENT FILL-ORIGIN LEVEL: 0

PSCL3 TOTAL     ACCESS:    9229048  HIT:    9227868  MISS:       1180  HIT %:    99.9872  MISS %:  0.0127857   MPKI: 0.0059
PSCL3 LOAD TRANSLATION ACCESS:    8942885  HIT:    8941705  MISS:       1180  HIT %:    99.9868  MISS %:  0.0131948   MPKI: 0.0059
PSCL3 TRANSLATION FROM L1D PREFETCHER ACCESS:     286163  HIT:     286163  MISS:          0  HIT %:        100  MISS %:          0   MPKI: 0
PSCL3 PREFETCH  REQUESTED:          0  ISSUED:          0  USEFUL:          0  USELESS:          0
PSCL3 USEFUL LOAD PREFETCHES:          0 PREFETCH ISSUED TO LOWER LEVEL:          0  ACCURACY: -nan
PSCL3 TIMELY PREFETCHES:          0 LATE PREFETCHES: 0 DROPPED PREFETCHES: 0
PSCL3 PREFETCHES SAME FILL-ORIGIN LEVEL: 0 DIFFERENT FILL-ORIGIN LEVEL: 0

PSCL2 TOTAL     ACCESS:    9230017  HIT:    8222249  MISS:    1007768  HIT %:    89.0816  MISS %:    10.9184   MPKI: 5.03884
PSCL2 LOAD TRANSLATION ACCESS:    8952674  HIT:    7944906  MISS:    1007768  HIT %:    88.7434  MISS %:    11.2566   MPKI: 5.03884
PSCL2 TRANSLATION FROM L1D PREFETCHER ACCESS:     277343  HIT:     277343  MISS:          0  HIT %:        100  MISS %:          0   MPKI: 0
PSCL2 PREFETCH  REQUESTED:          0  ISSUED:          0  USEFUL:          0  USELESS:          0
PSCL2 USEFUL LOAD PREFETCHES:          0 PREFETCH ISSUED TO LOWER LEVEL:          0  ACCURACY: -nan
PSCL2 TIMELY PREFETCHES:          0 LATE PREFETCHES: 0 DROPPED PREFETCHES: 0
PSCL2 PREFETCHES SAME FILL-ORIGIN LEVEL: 0 DIFFERENT FILL-ORIGIN LEVEL: 0

LLC TOTAL     ACCESS:    2087923  HIT:    1179505  MISS:     908418  HIT %:    56.4918  MISS %:    43.5082   MPKI: 4.54209
LLC LOAD      ACCESS:     548395  HIT:     322465  MISS:     225930  HIT %:    58.8016  MISS %:    41.1984   MPKI: 1.12965
LLC RFO       ACCESS:     387571  HIT:     189026  MISS:     198545  HIT %:     48.772  MISS %:     51.228   MPKI: 0.992725
LLC PREFETCH  ACCESS:     514748  HIT:      70309  MISS:     444439  HIT %:    13.6589  MISS %:    86.3411   MPKI: 2.22219
LLC WRITEBACK ACCESS:     539025  HIT:     530584  MISS:       8441  HIT %:     98.434  MISS %:    1.56598   MPKI: 0.042205
LLC LOAD TRANSLATION ACCESS:      96601  HIT:      66502  MISS:      30099  HIT %:    68.8419  MISS %:    31.1581   MPKI: 0.150495
LLC TRANSLATION FROM L1D PREFETCHER ACCESS:       1583  HIT:        619  MISS:        964  HIT %:     39.103  MISS %:     60.897   MPKI: 0.00482
LLC PREFETCH  REQUESTED:          0  ISSUED:          0  USEFUL:      20672  USELESS:    1649966
LLC USEFUL LOAD PREFETCHES:      20672 PREFETCH ISSUED TO LOWER LEVEL:    1677572  ACCURACY: 1.23226
LLC TIMELY PREFETCHES:      20672 LATE PREFETCHES: 0 DROPPED PREFETCHES: 0
LLC PREFETCHES SAME FILL-ORIGIN LEVEL: 0 DIFFERENT FILL-ORIGIN LEVEL: 0
LLC AVERAGE MISS LATENCY: 849.018 cycles
LLC RQ	ACCESS:    3845837	FORWARD:          0	MERGED:          0	TO_CACHE:    3845825
LLC WQ	ACCESS:    2013562	FORWARD:         17	MERGED:          0	TO_CACHE:    2013562
LLC PQ	ACCESS:    1966390	FORWARD:          0	MERGED:          0	TO_CACHE:    1966385

LLC Dense regions hint to LLC: 0

RAW hits: 1140721
Loads Generated: 36864796
Loads sent to L1D: 35724075
Stores Generated: 17458411
Stores sent to L1D: 17458411
Major fault: 0 Minor fault: 19423
Allocated PAGES: 72623

DRAM Statistics
 CHANNEL 0
 RQ ROW_BUFFER_HIT:    1174025  ROW_BUFFER_MISS:    2163417
 DBUS_CONGESTED:       2059
 WQ ROW_BUFFER_HIT:     145058  ROW_BUFFER_MISS:     854759  FULL:          0

 AVG_CONGESTED_CYCLE: 4
 All warmup complete: 5
Channel 0 Bank busy for read cycles: 0
Channel 0 Bank busy for write cycles: 0
Channel 0
Rank 0
0banks busy for read cycles: 118584831
0banks busy for write cycles: 97248
1banks busy for read cycles: 50842696
1banks busy for write cycles: 12284230
2banks busy for read cycles: 30342155
2banks busy for write cycles: 6970029
3banks busy for read cycles: 16429692
3banks busy for write cycles: 5077736
4banks busy for read cycles: 9449767
4banks busy for write cycles: 4096443
5banks busy for read cycles: 6538977
5banks busy for write cycles: 3523163
6banks busy for read cycles: 5544465
6banks busy for write cycles: 3234050
7banks busy for read cycles: 5540683
7banks busy for write cycles: 4128492
8banks busy for read cycles: 10847719
8banks busy for write cycles: 11801206

CPU 0 Branch Prediction Accuracy: 99.2246% MPKI: 1.43753 Average ROB Occupancy at Mispredict: 47.7838
Branch types
NOT_BRANCH: 0 0%
BRANCH_DIRECT_JUMP: 0 0%
BRANCH_INDIRECT: 0 0%
BRANCH_CONDITIONAL: 0 0%
BRANCH_DIRECT_CALL: 0 0%
BRANCH_INDIRECT_CALL: 0 0%
BRANCH_RETURN: 0 0%
BRANCH_OTHER: 0 0%


CPU 1 Branch Prediction Accuracy: 99.234% MPKI: 1.41947 Average ROB Occupancy at Mispredict: 47.5217
Branch types
NOT_BRANCH: 0 0%
BRANCH_DIRECT_JUMP: 0 0%
BRANCH_INDIRECT: 0 0%
BRANCH_CONDITIONAL: 0 0%
BRANCH_DIRECT_CALL: 0 0%
BRANCH_INDIRECT_CALL: 0 0%
BRANCH_RETURN: 0 0%
BRANCH_OTHER: 0 0%


CPU 2 Branch Prediction Accuracy: 99.3396% MPKI: 1.2275 Average ROB Occupancy at Mispredict: 46.1871
Branch types
NOT_BRANCH: 0 0%
BRANCH_DIRECT_JUMP: 0 0%
BRANCH_INDIRECT: 0 0%
BRANCH_CONDITIONAL: 0 0%
BRANCH_DIRECT_CALL: 0 0%
BRANCH_INDIRECT_CALL: 0 0%
BRANCH_RETURN: 0 0%
BRANCH_OTHER: 0 0%


CPU 3 Branch Prediction Accuracy: 99.2369% MPKI: 1.40142 Average ROB Occupancy at Mispredict: 48.2954
Branch types
NOT_BRANCH: 0 0%
BRANCH_DIRECT_JUMP: 0 0%
BRANCH_INDIRECT: 0 0%
BRANCH_CONDITIONAL: 0 0%
BRANCH_DIRECT_CALL: 0 0%
BRANCH_INDIRECT_CALL: 0 0%
BRANCH_RETURN: 0 0%
BRANCH_OTHER: 0 0%

DRAM PAGES: 1048576
Allocated PAGES: 72623
