
*** ChampSim Multicore Out-of-Order Simulator ***

Warmup Instructions: 50000000
Simulation Instructions: 200000000
Number of CPUs: 4
LLC sets: 8192
LLC ways: 16
Off-chip DRAM Size: 4096 MB Channels: 1 Width: 64-bit Data Rate: 6400 MT/s
CPU 0 runs ./traces/ligra/ligra_BFS.com-lj.ungraph.gcc_6.3.0_O3.drop_11500M.length_250M.champsimtrace.xz
.xz
CPU 1 runs ./traces/ligra/ligra_BFS.com-lj.ungraph.gcc_6.3.0_O3.drop_500M.length_250M.champsimtrace.xz
.xz
CPU 2 runs ./traces/spec/654.roms_s-1390B.champsimtrace.xz
.xz
CPU 3 runs ./traces/ligra/ligra_MIS.com-lj.ungraph.gcc_6.3.0_O3.drop_17000M.length_250M.champsimtrace.xz
.xz
BTB has LRU replacement policy
ITLB has LRU replacement policy
DTLB has LRU replacement policy
STLB has LRU replacement policy
L1I has LRU replacement policy
History Sets: 8
History Ways: 16
BERTI Size: 16
BERTI Stride Size: 8
L1D has LRU replacement policy
Initialize SRRIP state for L2C
Initialize DRRIP state for LLC
BTB has LRU replacement policy
ITLB has LRU replacement policy
DTLB has LRU replacement policy
STLB has LRU replacement policy
L1I has LRU replacement policy
History Sets: 8
History Ways: 16
BERTI Size: 16
BERTI Stride Size: 8
L1D has LRU replacement policy
Initialize SRRIP state for L2C
Initialize DRRIP state for LLC
BTB has LRU replacement policy
ITLB has LRU replacement policy
DTLB has LRU replacement policy
STLB has LRU replacement policy
L1I has LRU replacement policy
History Sets: 8
History Ways: 16
BERTI Size: 16
BERTI Stride Size: 8
L1D has LRU replacement policy
Initialize SRRIP state for L2C
Initialize DRRIP state for LLC
BTB has LRU replacement policy
ITLB has LRU replacement policy
DTLB has LRU replacement policy
STLB has LRU replacement policy
L1I has LRU replacement policy
History Sets: 8
History Ways: 16
BERTI Size: 16
BERTI Stride Size: 8
L1D has LRU replacement policy
Initialize SRRIP state for L2C
Initialize DRRIP state for LLC
Heartbeat CPU 0 instructions: 10000000 cycles: 2931450 heartbeat IPC: 3.41128 cumulative IPC: 3.41128 (Simulation time: 0 hr 2 min 37 sec) 
Heartbeat CPU 3 instructions: 10000002 cycles: 3016226 heartbeat IPC: 3.3154 cumulative IPC: 3.3154 (Simulation time: 0 hr 2 min 42 sec) 
Heartbeat CPU 1 instructions: 10000002 cycles: 3333346 heartbeat IPC: 2.99999 cumulative IPC: 2.99999 (Simulation time: 0 hr 3 min 0 sec) 
Heartbeat CPU 2 instructions: 10000001 cycles: 3756871 heartbeat IPC: 2.66179 cumulative IPC: 2.66179 (Simulation time: 0 hr 3 min 24 sec) 
Heartbeat CPU 0 instructions: 20000000 cycles: 5860890 heartbeat IPC: 3.41362 cumulative IPC: 3.41245 (Simulation time: 0 hr 5 min 9 sec) 
Heartbeat CPU 3 instructions: 20000001 cycles: 6066150 heartbeat IPC: 3.27877 cumulative IPC: 3.29698 (Simulation time: 0 hr 5 min 20 sec) 
Heartbeat CPU 1 instructions: 20000000 cycles: 6666679 heartbeat IPC: 3 cumulative IPC: 2.99999 (Simulation time: 0 hr 5 min 49 sec) 
Heartbeat CPU 2 instructions: 20000000 cycles: 7250249 heartbeat IPC: 2.86256 cumulative IPC: 2.75853 (Simulation time: 0 hr 6 min 13 sec) 
Heartbeat CPU 0 instructions: 30000000 cycles: 8791766 heartbeat IPC: 3.41195 cumulative IPC: 3.41228 (Simulation time: 0 hr 7 min 36 sec) 
Heartbeat CPU 3 instructions: 30000003 cycles: 9112217 heartbeat IPC: 3.28292 cumulative IPC: 3.29228 (Simulation time: 0 hr 7 min 53 sec) 
Heartbeat CPU 1 instructions: 30000001 cycles: 10000013 heartbeat IPC: 3 cumulative IPC: 3 (Simulation time: 0 hr 8 min 41 sec) 
Heartbeat CPU 2 instructions: 30000003 cycles: 10666976 heartbeat IPC: 2.92678 cumulative IPC: 2.81242 (Simulation time: 0 hr 9 min 19 sec) 
Heartbeat CPU 0 instructions: 40000000 cycles: 11722868 heartbeat IPC: 3.41169 cumulative IPC: 3.41213 (Simulation time: 0 hr 10 min 13 sec) 
Heartbeat CPU 3 instructions: 40000001 cycles: 12201150 heartbeat IPC: 3.23736 cumulative IPC: 3.27838 (Simulation time: 0 hr 10 min 38 sec) 
Heartbeat CPU 1 instructions: 40000001 cycles: 13333345 heartbeat IPC: 3 cumulative IPC: 3 (Simulation time: 0 hr 11 min 47 sec) 
Heartbeat CPU 2 instructions: 40000002 cycles: 14438827 heartbeat IPC: 2.65122 cumulative IPC: 2.77031 (Simulation time: 0 hr 12 min 55 sec) 
Heartbeat CPU 0 instructions: 50000000 cycles: 14651770 heartbeat IPC: 3.41425 cumulative IPC: 3.41256 (Simulation time: 0 hr 13 min 8 sec) 
Heartbeat CPU 3 instructions: 50000002 cycles: 15226208 heartbeat IPC: 3.30572 cumulative IPC: 3.28381 (Simulation time: 0 hr 13 min 37 sec) 
Heartbeat CPU 1 instructions: 50000000 cycles: 16666679 heartbeat IPC: 3 cumulative IPC: 3 (Simulation time: 0 hr 14 min 47 sec) 
Heartbeat CPU 3 instructions: 60000000 cycles: 18384085 heartbeat IPC: 3.16668 cumulative IPC: 0.543949 (Simulation time: 0 hr 16 min 8 sec) 
Heartbeat CPU 0 instructions: 60000002 cycles: 18430769 heartbeat IPC: 2.6462 cumulative IPC: 0.542571 (Simulation time: 0 hr 16 min 11 sec) 
Heartbeat CPU 2 instructions: 50000000 cycles: 18783935 heartbeat IPC: 2.30144 cumulative IPC: 2.66185 (Simulation time: 0 hr 16 min 27 sec) 

Warmup complete CPU 0 instructions: 60949361 cycles: 18783936 (Simulation time: 0 hr 16 min 27 sec) 
Warmup complete CPU 1 instructions: 56236230 cycles: 18783936 (Simulation time: 0 hr 16 min 27 sec) 
Warmup complete CPU 2 instructions: 50000002 cycles: 18783936 (Simulation time: 0 hr 16 min 27 sec) 
Warmup complete CPU 3 instructions: 61296532 cycles: 18783935 (Simulation time: 0 hr 16 min 27 sec) 

Heartbeat CPU 1 instructions: 60000001 cycles: 22154311 heartbeat IPC: 1.82228 cumulative IPC: 1.11672 (Simulation time: 0 hr 17 min 16 sec) 
Heartbeat CPU 0 instructions: 70000000 cycles: 29601712 heartbeat IPC: 0.895179 cumulative IPC: 0.836645 (Simulation time: 0 hr 19 min 57 sec) 
Heartbeat CPU 2 instructions: 60000001 cycles: 30938084 heartbeat IPC: 0.822764 cumulative IPC: 0.822764 (Simulation time: 0 hr 20 min 32 sec) 
Heartbeat CPU 1 instructions: 70000001 cycles: 31192378 heartbeat IPC: 1.10643 cumulative IPC: 1.10923 (Simulation time: 0 hr 20 min 37 sec) 
Heartbeat CPU 3 instructions: 70000003 cycles: 31962969 heartbeat IPC: 0.736438 cumulative IPC: 0.660403 (Simulation time: 0 hr 20 min 57 sec) 
Heartbeat CPU 2 instructions: 70000003 cycles: 39886487 heartbeat IPC: 1.11752 cumulative IPC: 0.947753 (Simulation time: 0 hr 23 min 48 sec) 
Heartbeat CPU 1 instructions: 80000002 cycles: 40131513 heartbeat IPC: 1.11868 cumulative IPC: 1.11318 (Simulation time: 0 hr 23 min 54 sec) 
Heartbeat CPU 0 instructions: 80000001 cycles: 41593551 heartbeat IPC: 0.833901 cumulative IPC: 0.835202 (Simulation time: 0 hr 24 min 32 sec) 
Heartbeat CPU 3 instructions: 80000000 cycles: 44746246 heartbeat IPC: 0.782272 cumulative IPC: 0.720408 (Simulation time: 0 hr 25 min 52 sec) 
Heartbeat CPU 2 instructions: 80000002 cycles: 48875307 heartbeat IPC: 1.11249 cumulative IPC: 0.996964 (Simulation time: 0 hr 27 min 19 sec) 
Heartbeat CPU 1 instructions: 90000002 cycles: 49043203 heartbeat IPC: 1.12212 cumulative IPC: 1.11582 (Simulation time: 0 hr 27 min 23 sec) 
Heartbeat CPU 0 instructions: 90000001 cycles: 53593560 heartbeat IPC: 0.833333 cumulative IPC: 0.834558 (Simulation time: 0 hr 29 min 2 sec) 
Heartbeat CPU 1 instructions: 100000000 cycles: 58127256 heartbeat IPC: 1.10083 cumulative IPC: 1.11236 (Simulation time: 0 hr 30 min 39 sec) 
Heartbeat CPU 3 instructions: 90000000 cycles: 60593371 heartbeat IPC: 0.631029 cumulative IPC: 0.686531 (Simulation time: 0 hr 31 min 30 sec) 
Heartbeat CPU 2 instructions: 90000003 cycles: 63015601 heartbeat IPC: 0.707199 cumulative IPC: 0.90433 (Simulation time: 0 hr 32 min 15 sec) 
Heartbeat CPU 0 instructions: 100000001 cycles: 65669049 heartbeat IPC: 0.828124 cumulative IPC: 0.832901 (Simulation time: 0 hr 33 min 2 sec) 
Heartbeat CPU 1 instructions: 110000000 cycles: 67029487 heartbeat IPC: 1.12331 cumulative IPC: 1.11438 (Simulation time: 0 hr 33 min 24 sec) 
Heartbeat CPU 1 instructions: 120000001 cycles: 75966897 heartbeat IPC: 1.11889 cumulative IPC: 1.11508 (Simulation time: 0 hr 36 min 27 sec) 
Heartbeat CPU 0 instructions: 110000000 cycles: 77752457 heartbeat IPC: 0.827581 cumulative IPC: 0.831811 (Simulation time: 0 hr 36 min 58 sec) 
Heartbeat CPU 2 instructions: 100000000 cycles: 78427539 heartbeat IPC: 0.648847 cumulative IPC: 0.838313 (Simulation time: 0 hr 37 min 13 sec) 
Heartbeat CPU 3 instructions: 100000002 cycles: 78918002 heartbeat IPC: 0.545714 cumulative IPC: 0.64362 (Simulation time: 0 hr 37 min 25 sec) 
Heartbeat CPU 1 instructions: 130000000 cycles: 84789490 heartbeat IPC: 1.13345 cumulative IPC: 1.11754 (Simulation time: 0 hr 39 min 27 sec) 
Heartbeat CPU 0 instructions: 120000000 cycles: 89616870 heartbeat IPC: 0.842857 cumulative IPC: 0.833661 (Simulation time: 0 hr 40 min 48 sec) 
Heartbeat CPU 3 instructions: 110000000 cycles: 90923233 heartbeat IPC: 0.83297 cumulative IPC: 0.675131 (Simulation time: 0 hr 41 min 11 sec) 
Heartbeat CPU 1 instructions: 140000003 cycles: 93682216 heartbeat IPC: 1.12451 cumulative IPC: 1.11837 (Simulation time: 0 hr 42 min 10 sec) 
Heartbeat CPU 2 instructions: 110000000 cycles: 95456564 heartbeat IPC: 0.587233 cumulative IPC: 0.782548 (Simulation time: 0 hr 42 min 54 sec) 
Heartbeat CPU 3 instructions: 120000002 cycles: 99491936 heartbeat IPC: 1.16704 cumulative IPC: 0.727356 (Simulation time: 0 hr 44 min 23 sec) 
Heartbeat CPU 0 instructions: 130000001 cycles: 101324439 heartbeat IPC: 0.854148 cumulative IPC: 0.836567 (Simulation time: 0 hr 44 min 58 sec) 
Heartbeat CPU 1 instructions: 150000000 cycles: 102471520 heartbeat IPC: 1.13775 cumulative IPC: 1.1204 (Simulation time: 0 hr 45 min 19 sec) 
Heartbeat CPU 3 instructions: 130000002 cycles: 109039716 heartbeat IPC: 1.04736 cumulative IPC: 0.761209 (Simulation time: 0 hr 47 min 42 sec) 
Heartbeat CPU 1 instructions: 160000000 cycles: 111330992 heartbeat IPC: 1.12874 cumulative IPC: 1.1212 (Simulation time: 0 hr 48 min 33 sec) 
Heartbeat CPU 2 instructions: 120000002 cycles: 112169118 heartbeat IPC: 0.598353 cumulative IPC: 0.749584 (Simulation time: 0 hr 48 min 49 sec) 
Heartbeat CPU 0 instructions: 140000000 cycles: 113390171 heartbeat IPC: 0.828793 cumulative IPC: 0.835575 (Simulation time: 0 hr 49 min 10 sec) 
Heartbeat CPU 3 instructions: 140000001 cycles: 119507398 heartbeat IPC: 0.955321 cumulative IPC: 0.781382 (Simulation time: 0 hr 51 min 20 sec) 
Heartbeat CPU 1 instructions: 170000003 cycles: 120317899 heartbeat IPC: 1.11273 cumulative IPC: 1.12045 (Simulation time: 0 hr 51 min 36 sec) 
Heartbeat CPU 0 instructions: 150000000 cycles: 125608481 heartbeat IPC: 0.818444 cumulative IPC: 0.833616 (Simulation time: 0 hr 53 min 36 sec) 
Heartbeat CPU 2 instructions: 130000000 cycles: 127467432 heartbeat IPC: 0.653667 cumulative IPC: 0.736082 (Simulation time: 0 hr 54 min 13 sec) 
Heartbeat CPU 3 instructions: 150000001 cycles: 127978336 heartbeat IPC: 1.18051 cumulative IPC: 0.812344 (Simulation time: 0 hr 54 min 25 sec) 
Heartbeat CPU 1 instructions: 180000002 cycles: 129062007 heartbeat IPC: 1.14363 cumulative IPC: 1.12229 (Simulation time: 0 hr 54 min 47 sec) 
Heartbeat CPU 0 instructions: 160000002 cycles: 137744465 heartbeat IPC: 0.823996 cumulative IPC: 0.832635 (Simulation time: 0 hr 57 min 23 sec) 
Heartbeat CPU 1 instructions: 190000002 cycles: 137919139 heartbeat IPC: 1.12903 cumulative IPC: 1.12279 (Simulation time: 0 hr 57 min 26 sec) 
Heartbeat CPU 3 instructions: 160000001 cycles: 140680416 heartbeat IPC: 0.787273 cumulative IPC: 0.809732 (Simulation time: 0 hr 58 min 21 sec) 
Heartbeat CPU 1 instructions: 200000001 cycles: 146797727 heartbeat IPC: 1.12631 cumulative IPC: 1.12303 (Simulation time: 1 hr 0 min 23 sec) 
Heartbeat CPU 0 instructions: 170000001 cycles: 149854296 heartbeat IPC: 0.825775 cumulative IPC: 0.832001 (Simulation time: 1 hr 1 min 30 sec) 
Heartbeat CPU 2 instructions: 140000000 cycles: 152220351 heartbeat IPC: 0.403993 cumulative IPC: 0.674479 (Simulation time: 1 hr 2 min 24 sec) 
Heartbeat CPU 1 instructions: 210000001 cycles: 155684886 heartbeat IPC: 1.12522 cumulative IPC: 1.12318 (Simulation time: 1 hr 3 min 32 sec) 
Heartbeat CPU 3 instructions: 170000003 cycles: 158361652 heartbeat IPC: 0.565571 cumulative IPC: 0.778802 (Simulation time: 1 hr 4 min 18 sec) 
Heartbeat CPU 0 instructions: 180000000 cycles: 162083141 heartbeat IPC: 0.817739 cumulative IPC: 0.830784 (Simulation time: 1 hr 5 min 36 sec) 
Heartbeat CPU 1 instructions: 220000000 cycles: 164469586 heartbeat IPC: 1.13834 cumulative IPC: 1.12409 (Simulation time: 1 hr 6 min 22 sec) 
Heartbeat CPU 3 instructions: 180000001 cycles: 170901761 heartbeat IPC: 0.797441 cumulative IPC: 0.780339 (Simulation time: 1 hr 8 min 30 sec) 
Heartbeat CPU 2 instructions: 150000000 cycles: 172968773 heartbeat IPC: 0.481964 cumulative IPC: 0.648572 (Simulation time: 1 hr 9 min 11 sec) 
Heartbeat CPU 1 instructions: 230000000 cycles: 173599656 heartbeat IPC: 1.09528 cumulative IPC: 1.12239 (Simulation time: 1 hr 9 min 25 sec) 
Heartbeat CPU 0 instructions: 190000000 cycles: 174284483 heartbeat IPC: 0.819582 cumulative IPC: 0.829905 (Simulation time: 1 hr 9 min 37 sec) 
Heartbeat CPU 1 instructions: 240000002 cycles: 182589238 heartbeat IPC: 1.1124 cumulative IPC: 1.12184 (Simulation time: 1 hr 12 min 48 sec) 
Heartbeat CPU 3 instructions: 190000003 cycles: 185397804 heartbeat IPC: 0.689844 cumulative IPC: 0.772466 (Simulation time: 1 hr 13 min 43 sec) 
Heartbeat CPU 0 instructions: 200000001 cycles: 186382726 heartbeat IPC: 0.826566 cumulative IPC: 0.829664 (Simulation time: 1 hr 14 min 5 sec) 
Heartbeat CPU 2 instructions: 160000002 cycles: 186821941 heartbeat IPC: 0.721857 cumulative IPC: 0.654614 (Simulation time: 1 hr 14 min 15 sec) 
*** Reached end of trace for Core: 1 Repeating trace: ./traces/ligra/ligra_BFS.com-lj.ungraph.gcc_6.3.0_O3.drop_500M.length_250M.champsimtrace.xz
Heartbeat CPU 1 instructions: 250000000 cycles: 191477514 heartbeat IPC: 1.12508 cumulative IPC: 1.12201 (Simulation time: 1 hr 15 min 59 sec) 
Finished CPU 1 instructions: 200000001 cycles: 178053515 cumulative IPC: 1.12326 (Simulation time: 1 hr 18 min 12 sec) 
Heartbeat CPU 0 instructions: 210000003 cycles: 198400024 heartbeat IPC: 0.832134 cumulative IPC: 0.829829 (Simulation time: 1 hr 18 min 48 sec) 
Heartbeat CPU 3 instructions: 200000000 cycles: 199175470 heartbeat IPC: 0.725812 cumulative IPC: 0.768902 (Simulation time: 1 hr 19 min 5 sec) 
Heartbeat CPU 1 instructions: 260000000 cycles: 200052891 heartbeat IPC: 1.16613 cumulative IPC: 1.1241 (Simulation time: 1 hr 19 min 23 sec) 
Heartbeat CPU 2 instructions: 170000000 cycles: 200212662 heartbeat IPC: 0.746786 cumulative IPC: 0.661417 (Simulation time: 1 hr 19 min 27 sec) 
Heartbeat CPU 1 instructions: 270000000 cycles: 208642204 heartbeat IPC: 1.16424 cumulative IPC: 1.12591 (Simulation time: 1 hr 22 min 34 sec) 
Heartbeat CPU 0 instructions: 220000000 cycles: 210339377 heartbeat IPC: 0.837566 cumulative IPC: 0.830311 (Simulation time: 1 hr 23 min 19 sec) 
Heartbeat CPU 3 instructions: 210000000 cycles: 210907841 heartbeat IPC: 0.852343 cumulative IPC: 0.773998 (Simulation time: 1 hr 23 min 33 sec) 
Heartbeat CPU 2 instructions: 180000003 cycles: 215140978 heartbeat IPC: 0.669868 cumulative IPC: 0.662059 (Simulation time: 1 hr 25 min 1 sec) 
Heartbeat CPU 1 instructions: 280000000 cycles: 217186763 heartbeat IPC: 1.17034 cumulative IPC: 1.12783 (Simulation time: 1 hr 25 min 45 sec) 
Heartbeat CPU 0 instructions: 230000003 cycles: 222353173 heartbeat IPC: 0.832377 cumulative IPC: 0.830433 (Simulation time: 1 hr 27 min 26 sec) 
Heartbeat CPU 3 instructions: 220000000 cycles: 224207141 heartbeat IPC: 0.751919 cumulative IPC: 0.772568 (Simulation time: 1 hr 28 min 6 sec) 
Heartbeat CPU 1 instructions: 290000000 cycles: 225739706 heartbeat IPC: 1.16919 cumulative IPC: 1.12953 (Simulation time: 1 hr 28 min 43 sec) 
Heartbeat CPU 2 instructions: 190000002 cycles: 229632227 heartbeat IPC: 0.690072 cumulative IPC: 0.663985 (Simulation time: 1 hr 30 min 9 sec) 
Heartbeat CPU 0 instructions: 240000001 cycles: 234202603 heartbeat IPC: 0.843922 cumulative IPC: 0.831175 (Simulation time: 1 hr 31 min 45 sec) 
Heartbeat CPU 1 instructions: 300000001 cycles: 234334026 heartbeat IPC: 1.16356 cumulative IPC: 1.13089 (Simulation time: 1 hr 31 min 47 sec) 
Heartbeat CPU 3 instructions: 230000003 cycles: 236129822 heartbeat IPC: 0.838738 cumulative IPC: 0.776198 (Simulation time: 1 hr 32 min 19 sec) 
Heartbeat CPU 1 instructions: 310000000 cycles: 242886171 heartbeat IPC: 1.1693 cumulative IPC: 1.13236 (Simulation time: 1 hr 34 min 44 sec) 
*** Reached end of trace for Core: 0 Repeating trace: ./traces/ligra/ligra_BFS.com-lj.ungraph.gcc_6.3.0_O3.drop_11500M.length_250M.champsimtrace.xz
Heartbeat CPU 0 instructions: 250000001 cycles: 245954707 heartbeat IPC: 0.850911 cumulative IPC: 0.832196 (Simulation time: 1 hr 35 min 43 sec) 
Heartbeat CPU 3 instructions: 240000002 cycles: 246247410 heartbeat IPC: 0.988378 cumulative IPC: 0.785636 (Simulation time: 1 hr 35 min 49 sec) 
Heartbeat CPU 1 instructions: 320000001 cycles: 251564212 heartbeat IPC: 1.15233 cumulative IPC: 1.1331 (Simulation time: 1 hr 37 min 17 sec) 
Heartbeat CPU 2 instructions: 200000003 cycles: 252205353 heartbeat IPC: 0.443005 cumulative IPC: 0.642615 (Simulation time: 1 hr 37 min 31 sec) 
Heartbeat CPU 0 instructions: 260000002 cycles: 257799214 heartbeat IPC: 0.844273 cumulative IPC: 0.832795 (Simulation time: 1 hr 39 min 34 sec) 
Finished CPU 0 instructions: 200000001 cycles: 240170678 cumulative IPC: 0.832741 (Simulation time: 1 hr 39 min 55 sec) 
Heartbeat CPU 1 instructions: 330000000 cycles: 260256516 heartbeat IPC: 1.15044 cumulative IPC: 1.13373 (Simulation time: 1 hr 40 min 20 sec) 
*** Reached end of trace for Core: 3 Repeating trace: ./traces/ligra/ligra_MIS.com-lj.ungraph.gcc_6.3.0_O3.drop_17000M.length_250M.champsimtrace.xz
Heartbeat CPU 3 instructions: 250000002 cycles: 262139042 heartbeat IPC: 0.629262 cumulative IPC: 0.775424 (Simulation time: 1 hr 41 min 4 sec) 
Heartbeat CPU 2 instructions: 210000001 cycles: 265291673 heartbeat IPC: 0.764157 cumulative IPC: 0.649067 (Simulation time: 1 hr 42 min 24 sec) 
Heartbeat CPU 1 instructions: 340000002 cycles: 268954692 heartbeat IPC: 1.14967 cumulative IPC: 1.13428 (Simulation time: 1 hr 43 min 55 sec) 
Heartbeat CPU 0 instructions: 270000001 cycles: 269817509 heartbeat IPC: 0.832065 cumulative IPC: 0.83276 (Simulation time: 1 hr 44 min 14 sec) 
Heartbeat CPU 3 instructions: 260000000 cycles: 273401097 heartbeat IPC: 0.887937 cumulative IPC: 0.780401 (Simulation time: 1 hr 45 min 42 sec) 
Finished CPU 3 instructions: 200000001 cycles: 257092636 cumulative IPC: 0.77793 (Simulation time: 1 hr 46 min 30 sec) 
Heartbeat CPU 1 instructions: 350000002 cycles: 277526082 heartbeat IPC: 1.16667 cumulative IPC: 1.13535 (Simulation time: 1 hr 46 min 56 sec) 
Heartbeat CPU 0 instructions: 280000001 cycles: 281676939 heartbeat IPC: 0.843211 cumulative IPC: 0.833231 (Simulation time: 1 hr 48 min 0 sec) 
Heartbeat CPU 1 instructions: 360000000 cycles: 286186394 heartbeat IPC: 1.15469 cumulative IPC: 1.13598 (Simulation time: 1 hr 49 min 21 sec) 
Heartbeat CPU 2 instructions: 220000000 cycles: 286310637 heartbeat IPC: 0.475761 cumulative IPC: 0.635451 (Simulation time: 1 hr 49 min 23 sec) 
Heartbeat CPU 3 instructions: 270000003 cycles: 292157226 heartbeat IPC: 0.533159 cumulative IPC: 0.763438 (Simulation time: 1 hr 51 min 13 sec) 
Heartbeat CPU 0 instructions: 290000001 cycles: 293435522 heartbeat IPC: 0.850443 cumulative IPC: 0.833968 (Simulation time: 1 hr 51 min 41 sec) 
Heartbeat CPU 1 instructions: 370000002 cycles: 294881631 heartbeat IPC: 1.15006 cumulative IPC: 1.13642 (Simulation time: 1 hr 52 min 10 sec) 
Heartbeat CPU 1 instructions: 380000002 cycles: 303590464 heartbeat IPC: 1.14826 cumulative IPC: 1.13678 (Simulation time: 1 hr 55 min 4 sec) 
Heartbeat CPU 3 instructions: 280000002 cycles: 304155303 heartbeat IPC: 0.833467 cumulative IPC: 0.766382 (Simulation time: 1 hr 55 min 16 sec) 
Heartbeat CPU 0 instructions: 300000003 cycles: 305169909 heartbeat IPC: 0.852196 cumulative IPC: 0.834715 (Simulation time: 1 hr 55 min 39 sec) 
Heartbeat CPU 2 instructions: 230000002 cycles: 311284994 heartbeat IPC: 0.400411 cumulative IPC: 0.615382 (Simulation time: 1 hr 57 min 39 sec) 
Heartbeat CPU 1 instructions: 390000002 cycles: 312259220 heartbeat IPC: 1.15357 cumulative IPC: 1.13728 (Simulation time: 1 hr 58 min 0 sec) 
Heartbeat CPU 0 instructions: 310000000 cycles: 317098485 heartbeat IPC: 0.838323 cumulative IPC: 0.834859 (Simulation time: 1 hr 59 min 18 sec) 
Heartbeat CPU 3 instructions: 290000000 cycles: 320273012 heartbeat IPC: 0.620435 cumulative IPC: 0.75858 (Simulation time: 2 hr 0 min 5 sec) 
Heartbeat CPU 1 instructions: 400000000 cycles: 320946036 heartbeat IPC: 1.15117 cumulative IPC: 1.13768 (Simulation time: 2 hr 0 min 17 sec) 
Heartbeat CPU 0 instructions: 320000001 cycles: 328889704 heartbeat IPC: 0.848089 cumulative IPC: 0.835362 (Simulation time: 2 hr 3 min 14 sec) 
Heartbeat CPU 1 instructions: 410000000 cycles: 329943115 heartbeat IPC: 1.11147 cumulative IPC: 1.13692 (Simulation time: 2 hr 3 min 35 sec) 
Heartbeat CPU 2 instructions: 240000002 cycles: 331559734 heartbeat IPC: 0.493225 cumulative IPC: 0.607464 (Simulation time: 2 hr 4 min 10 sec) 
Heartbeat CPU 3 instructions: 300000000 cycles: 332952789 heartbeat IPC: 0.788657 cumulative IPC: 0.759794 (Simulation time: 2 hr 4 min 43 sec) 
Heartbeat CPU 1 instructions: 420000001 cycles: 339015555 heartbeat IPC: 1.10224 cumulative IPC: 1.13594 (Simulation time: 2 hr 6 min 38 sec) 
Heartbeat CPU 0 instructions: 330000000 cycles: 340732988 heartbeat IPC: 0.84436 cumulative IPC: 0.835693 (Simulation time: 2 hr 7 min 6 sec) 
Heartbeat CPU 1 instructions: 430000001 cycles: 347955963 heartbeat IPC: 1.11852 cumulative IPC: 1.13547 (Simulation time: 2 hr 9 min 38 sec) 
Heartbeat CPU 2 instructions: 250000003 cycles: 347979911 heartbeat IPC: 0.609007 cumulative IPC: 0.607541 (Simulation time: 2 hr 9 min 38 sec) 
Finished CPU 2 instructions: 200000001 cycles: 329195975 cumulative IPC: 0.607541 (Simulation time: 2 hr 9 min 38 sec) 

ChampSim completed all CPUs

Total Simulation Statistics (not including warmup)

CPU 0 cumulative IPC: 0.835872 instructions: 275165631 cycles: 329195975
ITLB TOTAL     ACCESS:   49399475  HIT:   49399475  MISS:          0  HIT %:        100  MISS %:          0   MPKI: 0
ITLB LOAD      ACCESS:          0  HIT:          0  MISS:          0  HIT %:       -nan  MISS %:       -nan   MPKI: 0
ITLB RFO       ACCESS:          0  HIT:          0  MISS:          0  HIT %:       -nan  MISS %:       -nan   MPKI: 0
ITLB PREFETCH  ACCESS:          0  HIT:          0  MISS:          0  HIT %:       -nan  MISS %:       -nan   MPKI: 0
ITLB WRITEBACK ACCESS:          0  HIT:          0  MISS:          0  HIT %:       -nan  MISS %:       -nan   MPKI: 0
DTLB TOTAL     ACCESS:   36028714  HIT:   36023130  MISS:       5584  HIT %:    99.9845  MISS %:  0.0154987   MPKI: 0.0202932
DTLB LOAD      ACCESS:          0  HIT:          0  MISS:          0  HIT %:       -nan  MISS %:       -nan   MPKI: 0
DTLB RFO       ACCESS:          0  HIT:          0  MISS:          0  HIT %:       -nan  MISS %:       -nan   MPKI: 0
DTLB PREFETCH  ACCESS:          0  HIT:          0  MISS:          0  HIT %:       -nan  MISS %:       -nan   MPKI: 0
DTLB WRITEBACK ACCESS:          0  HIT:          0  MISS:          0  HIT %:       -nan  MISS %:       -nan   MPKI: 0
STLB TOTAL     ACCESS:    7369465  HIT:    7363881  MISS:       5584  HIT %:    99.9242  MISS %:  0.0757721   MPKI: 0.0202932
STLB LOAD      ACCESS:          0  HIT:          0  MISS:          0  HIT %:       -nan  MISS %:       -nan   MPKI: 0
STLB RFO       ACCESS:          0  HIT:          0  MISS:          0  HIT %:       -nan  MISS %:       -nan   MPKI: 0
STLB PREFETCH  ACCESS:          0  HIT:          0  MISS:          0  HIT %:       -nan  MISS %:       -nan   MPKI: 0
STLB WRITEBACK ACCESS:          0  HIT:          0  MISS:          0  HIT %:       -nan  MISS %:       -nan   MPKI: 0
L1D TOTAL     ACCESS:   80209122  HIT:   79851857  MISS:     357265  HIT %:    99.5546  MISS %:   0.445417   MPKI: 1.29836
L1D LOAD      ACCESS:   26569627  HIT:   26566538  MISS:       3089  HIT %:    99.9884  MISS %:  0.0116261   MPKI: 0.011226
L1D RFO       ACCESS:   13814521  HIT:   13741398  MISS:      73123  HIT %:    99.4707  MISS %:    0.52932   MPKI: 0.265742
L1D PREFETCH  ACCESS:   39824974  HIT:   39543921  MISS:     281053  HIT %:    99.2943  MISS %:    0.70572   MPKI: 1.0214
L1D WRITEBACK ACCESS:          0  HIT:          0  MISS:          0  HIT %:       -nan  MISS %:       -nan   MPKI: 0
L1I TOTAL     ACCESS:   52836926  HIT:   52836926  MISS:          0  HIT %:        100  MISS %:          0   MPKI: 0
L1I LOAD      ACCESS:   52836926  HIT:   52836926  MISS:          0  HIT %:        100  MISS %:          0   MPKI: 0
L1I RFO       ACCESS:          0  HIT:          0  MISS:          0  HIT %:       -nan  MISS %:       -nan   MPKI: 0
L1I PREFETCH  ACCESS:          0  HIT:          0  MISS:          0  HIT %:       -nan  MISS %:       -nan   MPKI: 0
L1I WRITEBACK ACCESS:          0  HIT:          0  MISS:          0  HIT %:       -nan  MISS %:       -nan   MPKI: 0
L2C TOTAL     ACCESS:    9930207  HIT:    9565548  MISS:     364659  HIT %:    96.3278  MISS %:    3.67222   MPKI: 1.32523
L2C LOAD      ACCESS:       2458  HIT:          7  MISS:       2451  HIT %:   0.284784  MISS %:    99.7152   MPKI: 0.00890736
L2C RFO       ACCESS:      73123  HIT:          0  MISS:      73123  HIT %:          0  MISS %:        100   MPKI: 0.265742
L2C PREFETCH  ACCESS:    9256385  HIT:    8974682  MISS:     281703  HIT %:    96.9567  MISS %:    3.04334   MPKI: 1.02376
L2C WRITEBACK ACCESS:      73125  HIT:      66492  MISS:       6633  HIT %:    90.9292  MISS %:    9.07077   MPKI: 0.0241055
PSCL5 TOTAL     ACCESS:     525116  HIT:     525116  MISS:          0  HIT %:        100  MISS %:          0   MPKI: 0
PSCL5 LOAD      ACCESS:          0  HIT:          0  MISS:          0  HIT %:       -nan  MISS %:       -nan   MPKI: 0
PSCL5 RFO       ACCESS:          0  HIT:          0  MISS:          0  HIT %:       -nan  MISS %:       -nan   MPKI: 0
PSCL5 PREFETCH  ACCESS:          0  HIT:          0  MISS:          0  HIT %:       -nan  MISS %:       -nan   MPKI: 0
PSCL5 WRITEBACK ACCESS:          0  HIT:          0  MISS:          0  HIT %:       -nan  MISS %:       -nan   MPKI: 0
PSCL4 TOTAL     ACCESS:     525116  HIT:     525116  MISS:          0  HIT %:        100  MISS %:          0   MPKI: 0
PSCL4 LOAD      ACCESS:          0  HIT:          0  MISS:          0  HIT %:       -nan  MISS %:       -nan   MPKI: 0
PSCL4 RFO       ACCESS:          0  HIT:          0  MISS:          0  HIT %:       -nan  MISS %:       -nan   MPKI: 0
PSCL4 PREFETCH  ACCESS:          0  HIT:          0  MISS:          0  HIT %:       -nan  MISS %:       -nan   MPKI: 0
PSCL4 WRITEBACK ACCESS:          0  HIT:          0  MISS:          0  HIT %:       -nan  MISS %:       -nan   MPKI: 0
PSCL3 TOTAL     ACCESS:     525116  HIT:     525116  MISS:          0  HIT %:        100  MISS %:          0   MPKI: 0
PSCL3 LOAD      ACCESS:          0  HIT:          0  MISS:          0  HIT %:       -nan  MISS %:       -nan   MPKI: 0
PSCL3 RFO       ACCESS:          0  HIT:          0  MISS:          0  HIT %:       -nan  MISS %:       -nan   MPKI: 0
PSCL3 PREFETCH  ACCESS:          0  HIT:          0  MISS:          0  HIT %:       -nan  MISS %:       -nan   MPKI: 0
PSCL3 WRITEBACK ACCESS:          0  HIT:          0  MISS:          0  HIT %:       -nan  MISS %:       -nan   MPKI: 0
PSCL2 TOTAL     ACCESS:     524045  HIT:     524037  MISS:          8  HIT %:    99.9985  MISS %: 0.00152659   MPKI: 2.90734e-05
PSCL2 LOAD      ACCESS:          0  HIT:          0  MISS:          0  HIT %:       -nan  MISS %:       -nan   MPKI: 0
PSCL2 RFO       ACCESS:          0  HIT:          0  MISS:          0  HIT %:       -nan  MISS %:       -nan   MPKI: 0
PSCL2 PREFETCH  ACCESS:          0  HIT:          0  MISS:          0  HIT %:       -nan  MISS %:       -nan   MPKI: 0
PSCL2 WRITEBACK ACCESS:          0  HIT:          0  MISS:          0  HIT %:       -nan  MISS %:       -nan   MPKI: 0
LLC TOTAL     ACCESS:     431150  HIT:      20928  MISS:     410222  HIT %:      4.854  MISS %:     95.146   MPKI: 1.49082
LLC LOAD      ACCESS:       2451  HIT:          0  MISS:       2451  HIT %:          0  MISS %:        100   MPKI: 0.00890736
LLC RFO       ACCESS:      73123  HIT:          0  MISS:      73123  HIT %:          0  MISS %:        100   MPKI: 0.265742
LLC PREFETCH  ACCESS:     281703  HIT:          2  MISS:     281701  HIT %: 0.000709968  MISS %:    99.9993   MPKI: 1.02375
LLC WRITEBACK ACCESS:      73124  HIT:      20887  MISS:      52237  HIT %:    28.5638  MISS %:    71.4362   MPKI: 0.189838

RAW hits: 3672063
Loads Generated: 38708926
Loads sent to L1D: 35036861
Stores Generated: 14039450
Stores sent to L1D: 14039449

CPU 1 cumulative IPC: 1.13546 instructions: 373790213 cycles: 329195975
ITLB TOTAL     ACCESS:   62068051  HIT:   62068051  MISS:          0  HIT %:        100  MISS %:          0   MPKI: 0
ITLB LOAD      ACCESS:          0  HIT:          0  MISS:          0  HIT %:       -nan  MISS %:       -nan   MPKI: 0
ITLB RFO       ACCESS:          0  HIT:          0  MISS:          0  HIT %:       -nan  MISS %:       -nan   MPKI: 0
ITLB PREFETCH  ACCESS:          0  HIT:          0  MISS:          0  HIT %:       -nan  MISS %:       -nan   MPKI: 0
ITLB WRITEBACK ACCESS:          0  HIT:          0  MISS:          0  HIT %:       -nan  MISS %:       -nan   MPKI: 0
DTLB TOTAL     ACCESS:   33748167  HIT:   33734556  MISS:      13611  HIT %:    99.9597  MISS %:  0.0403311   MPKI: 0.0364135
DTLB LOAD      ACCESS:          0  HIT:          0  MISS:          0  HIT %:       -nan  MISS %:       -nan   MPKI: 0
DTLB RFO       ACCESS:          0  HIT:          0  MISS:          0  HIT %:       -nan  MISS %:       -nan   MPKI: 0
DTLB PREFETCH  ACCESS:          0  HIT:          0  MISS:          0  HIT %:       -nan  MISS %:       -nan   MPKI: 0
DTLB WRITEBACK ACCESS:          0  HIT:          0  MISS:          0  HIT %:       -nan  MISS %:       -nan   MPKI: 0
STLB TOTAL     ACCESS:   22274543  HIT:   22260932  MISS:      13611  HIT %:    99.9389  MISS %:  0.0611056   MPKI: 0.0364135
STLB LOAD      ACCESS:          0  HIT:          0  MISS:          0  HIT %:       -nan  MISS %:       -nan   MPKI: 0
STLB RFO       ACCESS:          0  HIT:          0  MISS:          0  HIT %:       -nan  MISS %:       -nan   MPKI: 0
STLB PREFETCH  ACCESS:          0  HIT:          0  MISS:          0  HIT %:       -nan  MISS %:       -nan   MPKI: 0
STLB WRITEBACK ACCESS:          0  HIT:          0  MISS:          0  HIT %:       -nan  MISS %:       -nan   MPKI: 0
L1D TOTAL     ACCESS:  129013480  HIT:  128142525  MISS:     870955  HIT %:    99.3249  MISS %:   0.675088   MPKI: 2.33006
L1D LOAD      ACCESS:   26794553  HIT:   26774262  MISS:      20291  HIT %:    99.9243  MISS %:  0.0757281   MPKI: 0.0542845
L1D RFO       ACCESS:    7869765  HIT:    7869765  MISS:          0  HIT %:        100  MISS %:          0   MPKI: 0
L1D PREFETCH  ACCESS:   94349162  HIT:   93498498  MISS:     850664  HIT %:    99.0984  MISS %:   0.901613   MPKI: 2.27578
L1D WRITEBACK ACCESS:          0  HIT:          0  MISS:          0  HIT %:       -nan  MISS %:       -nan   MPKI: 0
L1I TOTAL     ACCESS:   62068051  HIT:   62068051  MISS:          0  HIT %:        100  MISS %:          0   MPKI: 0
L1I LOAD      ACCESS:   62068051  HIT:   62068051  MISS:          0  HIT %:        100  MISS %:          0   MPKI: 0
L1I RFO       ACCESS:          0  HIT:          0  MISS:          0  HIT %:       -nan  MISS %:       -nan   MPKI: 0
L1I PREFETCH  ACCESS:          0  HIT:          0  MISS:          0  HIT %:       -nan  MISS %:       -nan   MPKI: 0
L1I WRITEBACK ACCESS:          0  HIT:          0  MISS:          0  HIT %:       -nan  MISS %:       -nan   MPKI: 0
L2C TOTAL     ACCESS:    3299829  HIT:    2334123  MISS:     965706  HIT %:    70.7347  MISS %:    29.2653   MPKI: 2.58355
L2C LOAD      ACCESS:       5218  HIT:          6  MISS:       5212  HIT %:   0.114987  MISS %:     99.885   MPKI: 0.0139437
L2C RFO       ACCESS:          0  HIT:          0  MISS:          0  HIT %:       -nan  MISS %:       -nan   MPKI: 0
L2C PREFETCH  ACCESS:    1896945  HIT:    1031202  MISS:     865743  HIT %:    54.3612  MISS %:    45.6388   MPKI: 2.31612
L2C WRITEBACK ACCESS:     870947  HIT:     777916  MISS:      93031  HIT %:    89.3184  MISS %:    10.6816   MPKI: 0.248886
PSCL5 TOTAL     ACCESS:     526719  HIT:     526719  MISS:          0  HIT %:        100  MISS %:          0   MPKI: 0
PSCL5 LOAD      ACCESS:          0  HIT:          0  MISS:          0  HIT %:       -nan  MISS %:       -nan   MPKI: 0
PSCL5 RFO       ACCESS:          0  HIT:          0  MISS:          0  HIT %:       -nan  MISS %:       -nan   MPKI: 0
PSCL5 PREFETCH  ACCESS:          0  HIT:          0  MISS:          0  HIT %:       -nan  MISS %:       -nan   MPKI: 0
PSCL5 WRITEBACK ACCESS:          0  HIT:          0  MISS:          0  HIT %:       -nan  MISS %:       -nan   MPKI: 0
PSCL4 TOTAL     ACCESS:     526719  HIT:     526719  MISS:          0  HIT %:        100  MISS %:          0   MPKI: 0
PSCL4 LOAD      ACCESS:          0  HIT:          0  MISS:          0  HIT %:       -nan  MISS %:       -nan   MPKI: 0
PSCL4 RFO       ACCESS:          0  HIT:          0  MISS:          0  HIT %:       -nan  MISS %:       -nan   MPKI: 0
PSCL4 PREFETCH  ACCESS:          0  HIT:          0  MISS:          0  HIT %:       -nan  MISS %:       -nan   MPKI: 0
PSCL4 WRITEBACK ACCESS:          0  HIT:          0  MISS:          0  HIT %:       -nan  MISS %:       -nan   MPKI: 0
PSCL3 TOTAL     ACCESS:     526719  HIT:     526719  MISS:          0  HIT %:        100  MISS %:          0   MPKI: 0
PSCL3 LOAD      ACCESS:          0  HIT:          0  MISS:          0  HIT %:       -nan  MISS %:       -nan   MPKI: 0
PSCL3 RFO       ACCESS:          0  HIT:          0  MISS:          0  HIT %:       -nan  MISS %:       -nan   MPKI: 0
PSCL3 PREFETCH  ACCESS:          0  HIT:          0  MISS:          0  HIT %:       -nan  MISS %:       -nan   MPKI: 0
PSCL3 WRITEBACK ACCESS:          0  HIT:          0  MISS:          0  HIT %:       -nan  MISS %:       -nan   MPKI: 0
PSCL2 TOTAL     ACCESS:     526034  HIT:     526020  MISS:         14  HIT %:    99.9973  MISS %: 0.00266142   MPKI: 3.74542e-05
PSCL2 LOAD      ACCESS:          0  HIT:          0  MISS:          0  HIT %:       -nan  MISS %:       -nan   MPKI: 0
PSCL2 RFO       ACCESS:          0  HIT:          0  MISS:          0  HIT %:       -nan  MISS %:       -nan   MPKI: 0
PSCL2 PREFETCH  ACCESS:          0  HIT:          0  MISS:          0  HIT %:       -nan  MISS %:       -nan   MPKI: 0
PSCL2 WRITEBACK ACCESS:          0  HIT:          0  MISS:          0  HIT %:       -nan  MISS %:       -nan   MPKI: 0
LLC TOTAL     ACCESS:    1743639  HIT:     557883  MISS:    1185756  HIT %:    31.9953  MISS %:    68.0047   MPKI: 3.17225
LLC LOAD      ACCESS:       5212  HIT:          0  MISS:       5212  HIT %:          0  MISS %:        100   MPKI: 0.0139437
LLC RFO       ACCESS:          0  HIT:          0  MISS:          0  HIT %:       -nan  MISS %:       -nan   MPKI: 0
LLC PREFETCH  ACCESS:     865743  HIT:          0  MISS:     865743  HIT %:          0  MISS %:        100   MPKI: 2.31612
LLC WRITEBACK ACCESS:     870964  HIT:     557880  MISS:     313084  HIT %:    64.0532  MISS %:    35.9468   MPKI: 0.837593

RAW hits: 0
Loads Generated: 55740232
Loads sent to L1D: 55740231
Stores Generated: 7869765
Stores sent to L1D: 7869765

CPU 2 cumulative IPC: 0.607541 instructions: 200000001 cycles: 329195975
ITLB TOTAL     ACCESS:   31405257  HIT:   31405250  MISS:          7  HIT %:        100  MISS %: 2.22893e-05   MPKI: 3.5e-05
ITLB LOAD      ACCESS:          0  HIT:          0  MISS:          0  HIT %:       -nan  MISS %:       -nan   MPKI: 0
ITLB RFO       ACCESS:          0  HIT:          0  MISS:          0  HIT %:       -nan  MISS %:       -nan   MPKI: 0
ITLB PREFETCH  ACCESS:          0  HIT:          0  MISS:          0  HIT %:       -nan  MISS %:       -nan   MPKI: 0
ITLB WRITEBACK ACCESS:          0  HIT:          0  MISS:          0  HIT %:       -nan  MISS %:       -nan   MPKI: 0
DTLB TOTAL     ACCESS:   49059291  HIT:   48892298  MISS:     166993  HIT %:    99.6596  MISS %:    0.34039   MPKI: 0.834965
DTLB LOAD      ACCESS:          0  HIT:          0  MISS:          0  HIT %:       -nan  MISS %:       -nan   MPKI: 0
DTLB RFO       ACCESS:          0  HIT:          0  MISS:          0  HIT %:       -nan  MISS %:       -nan   MPKI: 0
DTLB PREFETCH  ACCESS:          0  HIT:          0  MISS:          0  HIT %:       -nan  MISS %:       -nan   MPKI: 0
DTLB WRITEBACK ACCESS:          0  HIT:          0  MISS:          0  HIT %:       -nan  MISS %:       -nan   MPKI: 0
STLB TOTAL     ACCESS:   17737377  HIT:   17620813  MISS:     116564  HIT %:    99.3428  MISS %:   0.657166   MPKI: 0.58282
STLB LOAD      ACCESS:          0  HIT:          0  MISS:          0  HIT %:       -nan  MISS %:       -nan   MPKI: 0
STLB RFO       ACCESS:          0  HIT:          0  MISS:          0  HIT %:       -nan  MISS %:       -nan   MPKI: 0
STLB PREFETCH  ACCESS:          0  HIT:          0  MISS:          0  HIT %:       -nan  MISS %:       -nan   MPKI: 0
STLB WRITEBACK ACCESS:          0  HIT:          0  MISS:          0  HIT %:       -nan  MISS %:       -nan   MPKI: 0
L1D TOTAL     ACCESS:   97084962  HIT:   91295204  MISS:    5789758  HIT %:    94.0364  MISS %:     5.9636   MPKI: 28.9488
L1D LOAD      ACCESS:   44381281  HIT:   43474964  MISS:     906317  HIT %:    97.9579  MISS %:    2.04212   MPKI: 4.53158
L1D RFO       ACCESS:    5981756  HIT:    4849257  MISS:    1132499  HIT %:    81.0674  MISS %:    18.9326   MPKI: 5.66249
L1D PREFETCH  ACCESS:   46721925  HIT:   42970983  MISS:    3750942  HIT %:    91.9718  MISS %:    8.02823   MPKI: 18.7547
L1D WRITEBACK ACCESS:          0  HIT:          0  MISS:          0  HIT %:       -nan  MISS %:       -nan   MPKI: 0
L1I TOTAL     ACCESS:   37712080  HIT:   37711310  MISS:        770  HIT %:     99.998  MISS %: 0.00204179   MPKI: 0.00385
L1I LOAD      ACCESS:   37712080  HIT:   37711310  MISS:        770  HIT %:     99.998  MISS %: 0.00204179   MPKI: 0.00385
L1I RFO       ACCESS:          0  HIT:          0  MISS:          0  HIT %:       -nan  MISS %:       -nan   MPKI: 0
L1I PREFETCH  ACCESS:          0  HIT:          0  MISS:          0  HIT %:       -nan  MISS %:       -nan   MPKI: 0
L1I WRITEBACK ACCESS:          0  HIT:          0  MISS:          0  HIT %:       -nan  MISS %:       -nan   MPKI: 0
L2C TOTAL     ACCESS:   19731246  HIT:   14234115  MISS:    5497131  HIT %:      72.14  MISS %:      27.86   MPKI: 27.4857
L2C LOAD      ACCESS:     559277  HIT:     373919  MISS:     185358  HIT %:    66.8576  MISS %:    33.1424   MPKI: 0.92679
L2C RFO       ACCESS:    1132491  HIT:        427  MISS:    1132064  HIT %:  0.0377045  MISS %:    99.9623   MPKI: 5.66032
L2C PREFETCH  ACCESS:   16077007  HIT:   11987718  MISS:    4089289  HIT %:    74.5644  MISS %:    25.4356   MPKI: 20.4464
L2C WRITEBACK ACCESS:    1467231  HIT:    1401827  MISS:      65404  HIT %:    95.5424  MISS %:    4.45765   MPKI: 0.32702
PSCL5 TOTAL     ACCESS:     307914  HIT:     307914  MISS:          0  HIT %:        100  MISS %:          0   MPKI: 0
PSCL5 LOAD      ACCESS:          0  HIT:          0  MISS:          0  HIT %:       -nan  MISS %:       -nan   MPKI: 0
PSCL5 RFO       ACCESS:          0  HIT:          0  MISS:          0  HIT %:       -nan  MISS %:       -nan   MPKI: 0
PSCL5 PREFETCH  ACCESS:          0  HIT:          0  MISS:          0  HIT %:       -nan  MISS %:       -nan   MPKI: 0
PSCL5 WRITEBACK ACCESS:          0  HIT:          0  MISS:          0  HIT %:       -nan  MISS %:       -nan   MPKI: 0
PSCL4 TOTAL     ACCESS:     307914  HIT:     307914  MISS:          0  HIT %:        100  MISS %:          0   MPKI: 0
PSCL4 LOAD      ACCESS:          0  HIT:          0  MISS:          0  HIT %:       -nan  MISS %:       -nan   MPKI: 0
PSCL4 RFO       ACCESS:          0  HIT:          0  MISS:          0  HIT %:       -nan  MISS %:       -nan   MPKI: 0
PSCL4 PREFETCH  ACCESS:          0  HIT:          0  MISS:          0  HIT %:       -nan  MISS %:       -nan   MPKI: 0
PSCL4 WRITEBACK ACCESS:          0  HIT:          0  MISS:          0  HIT %:       -nan  MISS %:       -nan   MPKI: 0
PSCL3 TOTAL     ACCESS:     214000  HIT:     213995  MISS:          5  HIT %:    99.9977  MISS %: 0.00233645   MPKI: 2.5e-05
PSCL3 LOAD      ACCESS:          0  HIT:          0  MISS:          0  HIT %:       -nan  MISS %:       -nan   MPKI: 0
PSCL3 RFO       ACCESS:          0  HIT:          0  MISS:          0  HIT %:       -nan  MISS %:       -nan   MPKI: 0
PSCL3 PREFETCH  ACCESS:          0  HIT:          0  MISS:          0  HIT %:       -nan  MISS %:       -nan   MPKI: 0
PSCL3 WRITEBACK ACCESS:          0  HIT:          0  MISS:          0  HIT %:       -nan  MISS %:       -nan   MPKI: 0
PSCL2 TOTAL     ACCESS:     214135  HIT:     213438  MISS:        697  HIT %:    99.6745  MISS %:   0.325496   MPKI: 0.003485
PSCL2 LOAD      ACCESS:          0  HIT:          0  MISS:          0  HIT %:       -nan  MISS %:       -nan   MPKI: 0
PSCL2 RFO       ACCESS:          0  HIT:          0  MISS:          0  HIT %:       -nan  MISS %:       -nan   MPKI: 0
PSCL2 PREFETCH  ACCESS:          0  HIT:          0  MISS:          0  HIT %:       -nan  MISS %:       -nan   MPKI: 0
PSCL2 WRITEBACK ACCESS:          0  HIT:          0  MISS:          0  HIT %:       -nan  MISS %:       -nan   MPKI: 0
LLC TOTAL     ACCESS:    6899114  HIT:    1534203  MISS:    5364911  HIT %:    22.2377  MISS %:    77.7623   MPKI: 26.8246
LLC LOAD      ACCESS:     139217  HIT:       3663  MISS:     135554  HIT %:    2.63114  MISS %:    97.3689   MPKI: 0.67777
LLC RFO       ACCESS:    1131949  HIT:        846  MISS:    1131103  HIT %:  0.0747383  MISS %:    99.9253   MPKI: 5.65551
LLC PREFETCH  ACCESS:    4135545  HIT:      70560  MISS:    4064985  HIT %:    1.70618  MISS %:    98.2938   MPKI: 20.3249
LLC WRITEBACK ACCESS:    1467387  HIT:    1458357  MISS:       9030  HIT %:    99.3846  MISS %:    0.61538   MPKI: 0.04515

RAW hits: 2130090
Loads Generated: 78403117
Loads sent to L1D: 76273015
Stores Generated: 12318966
Stores sent to L1D: 12318954

CPU 3 cumulative IPC: 0.743306 instructions: 244693432 cycles: 329195976
ITLB TOTAL     ACCESS:   39433810  HIT:   39433810  MISS:          0  HIT %:        100  MISS %:          0   MPKI: 0
ITLB LOAD      ACCESS:          0  HIT:          0  MISS:          0  HIT %:       -nan  MISS %:       -nan   MPKI: 0
ITLB RFO       ACCESS:          0  HIT:          0  MISS:          0  HIT %:       -nan  MISS %:       -nan   MPKI: 0
ITLB PREFETCH  ACCESS:          0  HIT:          0  MISS:          0  HIT %:       -nan  MISS %:       -nan   MPKI: 0
ITLB WRITEBACK ACCESS:          0  HIT:          0  MISS:          0  HIT %:       -nan  MISS %:       -nan   MPKI: 0
DTLB TOTAL     ACCESS:   60560884  HIT:   60433314  MISS:     127570  HIT %:    99.7894  MISS %:   0.210648   MPKI: 0.521346
DTLB LOAD      ACCESS:          0  HIT:          0  MISS:          0  HIT %:       -nan  MISS %:       -nan   MPKI: 0
DTLB RFO       ACCESS:          0  HIT:          0  MISS:          0  HIT %:       -nan  MISS %:       -nan   MPKI: 0
DTLB PREFETCH  ACCESS:          0  HIT:          0  MISS:          0  HIT %:       -nan  MISS %:       -nan   MPKI: 0
DTLB WRITEBACK ACCESS:          0  HIT:          0  MISS:          0  HIT %:       -nan  MISS %:       -nan   MPKI: 0
STLB TOTAL     ACCESS:   15681509  HIT:   15651360  MISS:      30149  HIT %:    99.8077  MISS %:   0.192258   MPKI: 0.123211
STLB LOAD      ACCESS:          0  HIT:          0  MISS:          0  HIT %:       -nan  MISS %:       -nan   MPKI: 0
STLB RFO       ACCESS:          0  HIT:          0  MISS:          0  HIT %:       -nan  MISS %:       -nan   MPKI: 0
STLB PREFETCH  ACCESS:          0  HIT:          0  MISS:          0  HIT %:       -nan  MISS %:       -nan   MPKI: 0
STLB WRITEBACK ACCESS:          0  HIT:          0  MISS:          0  HIT %:       -nan  MISS %:       -nan   MPKI: 0
L1D TOTAL     ACCESS:  109144402  HIT:  103171804  MISS:    5972598  HIT %:    94.5278  MISS %:     5.4722   MPKI: 24.4085
L1D LOAD      ACCESS:   27303843  HIT:   26184941  MISS:    1118902  HIT %:     95.902  MISS %:    4.09797   MPKI: 4.57267
L1D RFO       ACCESS:   37164871  HIT:   34521012  MISS:    2643859  HIT %:    92.8861  MISS %:    7.11387   MPKI: 10.8048
L1D PREFETCH  ACCESS:   44675688  HIT:   42465851  MISS:    2209837  HIT %:    95.0536  MISS %:     4.9464   MPKI: 9.03104
L1D WRITEBACK ACCESS:          0  HIT:          0  MISS:          0  HIT %:       -nan  MISS %:       -nan   MPKI: 0
L1I TOTAL     ACCESS:   39662612  HIT:   39662612  MISS:          0  HIT %:        100  MISS %:          0   MPKI: 0
L1I LOAD      ACCESS:   39662612  HIT:   39662612  MISS:          0  HIT %:        100  MISS %:          0   MPKI: 0
L1I RFO       ACCESS:          0  HIT:          0  MISS:          0  HIT %:       -nan  MISS %:       -nan   MPKI: 0
L1I PREFETCH  ACCESS:          0  HIT:          0  MISS:          0  HIT %:       -nan  MISS %:       -nan   MPKI: 0
L1I WRITEBACK ACCESS:          0  HIT:          0  MISS:          0  HIT %:       -nan  MISS %:       -nan   MPKI: 0
L2C TOTAL     ACCESS:   32313095  HIT:   27100925  MISS:    5212170  HIT %:    83.8698  MISS %:    16.1302   MPKI: 21.3008
L2C LOAD      ACCESS:     579973  HIT:     452904  MISS:     127069  HIT %:    78.0905  MISS %:    21.9095   MPKI: 0.519299
L2C RFO       ACCESS:    2643731  HIT:     175637  MISS:    2468094  HIT %:    6.64353  MISS %:    93.3565   MPKI: 10.0865
L2C PREFETCH  ACCESS:   26170053  HIT:   23677904  MISS:    2492149  HIT %:    90.4771  MISS %:     9.5229   MPKI: 10.1848
L2C WRITEBACK ACCESS:    2717766  HIT:    2599243  MISS:     118523  HIT %:     95.639  MISS %:    4.36105   MPKI: 0.484373
PSCL5 TOTAL     ACCESS:     200869  HIT:     200869  MISS:          0  HIT %:        100  MISS %:          0   MPKI: 0
PSCL5 LOAD      ACCESS:          0  HIT:          0  MISS:          0  HIT %:       -nan  MISS %:       -nan   MPKI: 0
PSCL5 RFO       ACCESS:          0  HIT:          0  MISS:          0  HIT %:       -nan  MISS %:       -nan   MPKI: 0
PSCL5 PREFETCH  ACCESS:          0  HIT:          0  MISS:          0  HIT %:       -nan  MISS %:       -nan   MPKI: 0
PSCL5 WRITEBACK ACCESS:          0  HIT:          0  MISS:          0  HIT %:       -nan  MISS %:       -nan   MPKI: 0
PSCL4 TOTAL     ACCESS:     200869  HIT:     200869  MISS:          0  HIT %:        100  MISS %:          0   MPKI: 0
PSCL4 LOAD      ACCESS:          0  HIT:          0  MISS:          0  HIT %:       -nan  MISS %:       -nan   MPKI: 0
PSCL4 RFO       ACCESS:          0  HIT:          0  MISS:          0  HIT %:       -nan  MISS %:       -nan   MPKI: 0
PSCL4 PREFETCH  ACCESS:          0  HIT:          0  MISS:          0  HIT %:       -nan  MISS %:       -nan   MPKI: 0
PSCL4 WRITEBACK ACCESS:          0  HIT:          0  MISS:          0  HIT %:       -nan  MISS %:       -nan   MPKI: 0
PSCL3 TOTAL     ACCESS:     200869  HIT:     200869  MISS:          0  HIT %:        100  MISS %:          0   MPKI: 0
PSCL3 LOAD      ACCESS:          0  HIT:          0  MISS:          0  HIT %:       -nan  MISS %:       -nan   MPKI: 0
PSCL3 RFO       ACCESS:          0  HIT:          0  MISS:          0  HIT %:       -nan  MISS %:       -nan   MPKI: 0
PSCL3 PREFETCH  ACCESS:          0  HIT:          0  MISS:          0  HIT %:       -nan  MISS %:       -nan   MPKI: 0
PSCL3 WRITEBACK ACCESS:          0  HIT:          0  MISS:          0  HIT %:       -nan  MISS %:       -nan   MPKI: 0
PSCL2 TOTAL     ACCESS:     200141  HIT:     200095  MISS:         46  HIT %:     99.977  MISS %:  0.0229838   MPKI: 0.00018799
PSCL2 LOAD      ACCESS:          0  HIT:          0  MISS:          0  HIT %:       -nan  MISS %:       -nan   MPKI: 0
PSCL2 RFO       ACCESS:          0  HIT:          0  MISS:          0  HIT %:       -nan  MISS %:       -nan   MPKI: 0
PSCL2 PREFETCH  ACCESS:          0  HIT:          0  MISS:          0  HIT %:       -nan  MISS %:       -nan   MPKI: 0
PSCL2 WRITEBACK ACCESS:          0  HIT:          0  MISS:          0  HIT %:       -nan  MISS %:       -nan   MPKI: 0
LLC TOTAL     ACCESS:    7656360  HIT:    4135999  MISS:    3520361  HIT %:    54.0204  MISS %:    45.9796   MPKI: 14.3868
LLC LOAD      ACCESS:      49559  HIT:      31708  MISS:      17851  HIT %:    63.9803  MISS %:    36.0197   MPKI: 0.0729525
LLC RFO       ACCESS:    2468049  HIT:     713960  MISS:    1754089  HIT %:    28.9281  MISS %:    71.0719   MPKI: 7.16852
LLC PREFETCH  ACCESS:    2569702  HIT:     841486  MISS:    1728216  HIT %:    32.7464  MISS %:    67.2536   MPKI: 7.06278
LLC WRITEBACK ACCESS:    2562715  HIT:    2546689  MISS:      16026  HIT %:    99.3746  MISS %:   0.625352   MPKI: 0.0654942

RAW hits: 3584632
Loads Generated: 62491037
Loads sent to L1D: 58906405
Stores Generated: 52460536
Stores sent to L1D: 52460510

Region of Interest Statistics

CPU 0 cumulative IPC: 0.832741 instructions: 200000001 cycles: 240170678
ITLB TOTAL     ACCESS:   35909285  HIT:   35909285  MISS:          0  HIT %:        100  MISS %:          0   MPKI: 0
ITLB LOAD TRANSLATION ACCESS:   35909285  HIT:   35909285  MISS:          0  HIT %:        100  MISS %:          0   MPKI: 0
ITLB PREFETCH  REQUESTED:          0  ISSUED:          0  USEFUL:          0  USELESS:          0
ITLB USEFUL LOAD PREFETCHES:          0 PREFETCH ISSUED TO LOWER LEVEL:          0  ACCURACY: -nan
ITLB TIMELY PREFETCHES:          0 LATE PREFETCHES: 0 DROPPED PREFETCHES: 0
ITLB PREFETCHES SAME FILL-ORIGIN LEVEL: 0 DIFFERENT FILL-ORIGIN LEVEL: 0
ITLB AVERAGE MISS LATENCY: -nan cycles
ITLB RQ	ACCESS:   52836926	FORWARD:          0	MERGED:    3437451	TO_CACHE:   49399475

DTLB TOTAL     ACCESS:   26202774  HIT:   26198714  MISS:       4060  HIT %:    99.9845  MISS %:  0.0154945   MPKI: 0.0203
DTLB LOAD TRANSLATION ACCESS:   26202774  HIT:   26198714  MISS:       4060  HIT %:    99.9845  MISS %:  0.0154945   MPKI: 0.0203
DTLB PREFETCH  REQUESTED:          0  ISSUED:          0  USEFUL:          0  USELESS:          0
DTLB USEFUL LOAD PREFETCHES:          0 PREFETCH ISSUED TO LOWER LEVEL:          0  ACCURACY: -nan
DTLB TIMELY PREFETCHES:          0 LATE PREFETCHES: 0 DROPPED PREFETCHES: 0
DTLB PREFETCHES SAME FILL-ORIGIN LEVEL: 0 DIFFERENT FILL-ORIGIN LEVEL: 0
DTLB AVERAGE MISS LATENCY: 157.421 cycles
DTLB RQ	ACCESS:   40611291	FORWARD:          0	MERGED:    4582109	TO_CACHE:   36029182

STLB TOTAL     ACCESS:    5150266  HIT:    5146206  MISS:       4060  HIT %:    99.9212  MISS %:  0.0788309   MPKI: 0.0203
STLB LOAD TRANSLATION ACCESS:       4060  HIT:        177  MISS:       3883  HIT %:    4.35961  MISS %:    95.6404   MPKI: 0.019415
STLB TRANSLATION FROM L1D PREFETCHER ACCESS:    5146206  HIT:    5146029  MISS:        177  HIT %:    99.9966  MISS %: 0.00343943   MPKI: 0.000885
STLB PREFETCH  REQUESTED:          0  ISSUED:          0  USEFUL:       1389  USELESS:          0
STLB USEFUL LOAD PREFETCHES:       1389 PREFETCH ISSUED TO LOWER LEVEL:          0  ACCURACY: inf
STLB TIMELY PREFETCHES:       1389 LATE PREFETCHES: 445 DROPPED PREFETCHES: 519087
STLB PREFETCHES SAME FILL-ORIGIN LEVEL: 0 DIFFERENT FILL-ORIGIN LEVEL: 0
STLB AVERAGE MISS LATENCY: 203.119 cycles
STLB RQ	ACCESS:   52990039	FORWARD:          0	MERGED:   45096273	TO_CACHE:    7893766

STLB Hit, L1D data hit: 0
STLB Hit, L2C data hit: 0
STLB Hit, LLC data hit: 0
STLB Hit, LLC data miss: 0
STLB STLB hints to L2: 0
L1D TOTAL     ACCESS:   57627749  HIT:   57368005  MISS:     259744  HIT %:    99.5493  MISS %:   0.450727   MPKI: 1.29872
L1D LOAD      ACCESS:   19323572  HIT:   19320484  MISS:       3088  HIT %:     99.984  MISS %:  0.0159805   MPKI: 0.01544
L1D RFO       ACCESS:   10056377  HIT:   10003198  MISS:      53179  HIT %:    99.4712  MISS %:   0.528809   MPKI: 0.265895
L1D PREFETCH  ACCESS:   28247800  HIT:   28044323  MISS:     203477  HIT %:    99.2797  MISS %:   0.720329   MPKI: 1.01738
L1D PREFETCH  REQUESTED:  146943276  ISSUED:  146687067  USEFUL:     281046  USELESS:         12
L1D USEFUL LOAD PREFETCHES:     281046 PREFETCH ISSUED TO LOWER LEVEL:   10570092  ACCURACY: 2.65888
L1D TIMELY PREFETCHES:     281046 LATE PREFETCHES: 631 DROPPED PREFETCHES: 2115073
L1D PREFETCHES SAME FILL-ORIGIN LEVEL: 281684 DIFFERENT FILL-ORIGIN LEVEL: 10288408
L1D AVERAGE MISS LATENCY: 677.211 cycles
L1D RQ	ACCESS:   35036861	FORWARD:          0	MERGED:    8445698	TO_CACHE:   26571843
L1D WQ	ACCESS:   14039449	FORWARD:      19320	MERGED:          1	TO_CACHE:   14039448
L1D PQ	ACCESS:   93702612	FORWARD:          0	MERGED:   40718157	TO_CACHE:   52984455

L1D UNIQUE REGIONS ACCESSED: 0
L1D REGIONS CONFLICTS: 0
L1D Cross Page Prefetch Requests: 8429405
L1D Same Page Prefetch Requests: 114911572
L1D ROI Sum of L1D PQ occupancy: 738019722
L1D PREFETCHES PUSHED FROM L2C: 0
L1I TOTAL     ACCESS:   38408762  HIT:   38408762  MISS:          0  HIT %:        100  MISS %:          0   MPKI: 0
L1I LOAD      ACCESS:   38408762  HIT:   38408762  MISS:          0  HIT %:        100  MISS %:          0   MPKI: 0
L1I PREFETCH  REQUESTED:          0  ISSUED:          0  USEFUL:          0  USELESS:          0
L1I USEFUL LOAD PREFETCHES:          0 PREFETCH ISSUED TO LOWER LEVEL:          0  ACCURACY: -nan
L1I TIMELY PREFETCHES:          0 LATE PREFETCHES: 0 DROPPED PREFETCHES: 0
L1I PREFETCHES SAME FILL-ORIGIN LEVEL: 0 DIFFERENT FILL-ORIGIN LEVEL: 0
L1I AVERAGE MISS LATENCY: -nan cycles
L1I RQ	ACCESS:   75696716	FORWARD:          0	MERGED:   22859790	TO_CACHE:   52836926

BTB TOTAL     ACCESS:   33644227  HIT:   33644227  MISS:          0  HIT %:        100  MISS %:          0   MPKI: 0
BTB BRANCH_DIRECT_JUMP	ACCESS:    8114187  HIT:    8114187  MISS:          0
BTB BRANCH_INDIRECT	ACCESS:          0  HIT:          0  MISS:          0
BTB BRANCH_CONDITIONAL	ACCESS:   23828346  HIT:   23828346  MISS:          0
BTB BRANCH_DIRECT_CALL	ACCESS:     850847  HIT:     850847  MISS:          0
BTB BRANCH_INDIRECT_CALL	ACCESS:          0  HIT:          0  MISS:          0
BTB BRANCH_RETURN	ACCESS:     850847  HIT:     850847  MISS:          0
BTB BRANCH_OTHER ACCESS:          0  HIT:          0  MISS:          0

L2C TOTAL     ACCESS:    7226146  HIT:    6961102  MISS:     265044  HIT %:    96.3322  MISS %:    3.66785   MPKI: 1.32522
L2C LOAD      ACCESS:       2457  HIT:          6  MISS:       2451  HIT %:     0.2442  MISS %:    99.7558   MPKI: 0.012255
L2C DATA LOAD MPKI: 0.012255
L2C INSTRUCTION LOAD MPKI: 0
L2C RFO       ACCESS:      53179  HIT:          0  MISS:      53179  HIT %:          0  MISS %:        100   MPKI: 0.265895
L2C PREFETCH  ACCESS:    6593741  HIT:    6389622  MISS:     204119  HIT %:    96.9044  MISS %:    3.09565   MPKI: 1.02059
L2C DATA PREFETCH MPKI: 1.02059
L2C INSTRUCTION PREFETCH MPKI: 0
L2C WRITEBACK ACCESS:      53177  HIT:      48425  MISS:       4752  HIT %:    91.0638  MISS %:    8.93619   MPKI: 0.02376
L2C LOAD TRANSLATION ACCESS:       3883  HIT:       3756  MISS:        127  HIT %:    96.7293  MISS %:    3.27067   MPKI: 0.000635
L2C TRANSLATION FROM L1D PREFETCHER ACCESS:     519709  HIT:     519293  MISS:        416  HIT %:      99.92  MISS %:  0.0800448   MPKI: 0.00208
L2C PREFETCH  REQUESTED:          0  ISSUED:          0  USEFUL:        577  USELESS:     281614
L2C USEFUL LOAD PREFETCHES:        577 PREFETCH ISSUED TO LOWER LEVEL:     281703  ACCURACY: 0.204826
L2C TIMELY PREFETCHES:        577 LATE PREFETCHES: 0 DROPPED PREFETCHES: 0
L2C PREFETCHES SAME FILL-ORIGIN LEVEL: 177244 DIFFERENT FILL-ORIGIN LEVEL: 0
L2C AVERAGE MISS LATENCY: 1278.01 cycles
L2C RQ	ACCESS:     600697	FORWARD:          0	MERGED:          0	TO_CACHE:     600697
L2C WQ	ACCESS:      73125	FORWARD:          0	MERGED:          0	TO_CACHE:      73125
L2C PQ	ACCESS:   10570092	FORWARD:          0	MERGED:       1439	TO_CACHE:   10568653

L2C Instructions Evicting Data 0
L2C Translations Evicting Data 749
L2C Data Evicting Data 356552
L2C Instructions Evicting Instructions 0
L2C Translations Evicting Instructions 0
L2C Data Evicting Instructions 0
L2C Instructions Evicting Translations 0
L2C Translations Evicting Translations 0
L2C Data Evicting Translations 725
L2C Dense regions hint from L2: 0
PSCL5 TOTAL     ACCESS:     523592  HIT:     523592  MISS:          0  HIT %:        100  MISS %:          0   MPKI: 0
PSCL5 LOAD TRANSLATION ACCESS:       3883  HIT:       3883  MISS:          0  HIT %:        100  MISS %:          0   MPKI: 0
PSCL5 TRANSLATION FROM L1D PREFETCHER ACCESS:     519709  HIT:     519709  MISS:          0  HIT %:        100  MISS %:          0   MPKI: 0
PSCL5 PREFETCH  REQUESTED:          0  ISSUED:          0  USEFUL:          0  USELESS:          0
PSCL5 USEFUL LOAD PREFETCHES:          0 PREFETCH ISSUED TO LOWER LEVEL:          0  ACCURACY: -nan
PSCL5 TIMELY PREFETCHES:          0 LATE PREFETCHES: 0 DROPPED PREFETCHES: 0
PSCL5 PREFETCHES SAME FILL-ORIGIN LEVEL: 0 DIFFERENT FILL-ORIGIN LEVEL: 0

PSCL4 TOTAL     ACCESS:     523592  HIT:     523592  MISS:          0  HIT %:        100  MISS %:          0   MPKI: 0
PSCL4 LOAD TRANSLATION ACCESS:       3883  HIT:       3883  MISS:          0  HIT %:        100  MISS %:          0   MPKI: 0
PSCL4 TRANSLATION FROM L1D PREFETCHER ACCESS:     519709  HIT:     519709  MISS:          0  HIT %:        100  MISS %:          0   MPKI: 0
PSCL4 PREFETCH  REQUESTED:          0  ISSUED:          0  USEFUL:          0  USELESS:          0
PSCL4 USEFUL LOAD PREFETCHES:          0 PREFETCH ISSUED TO LOWER LEVEL:          0  ACCURACY: -nan
PSCL4 TIMELY PREFETCHES:          0 LATE PREFETCHES: 0 DROPPED PREFETCHES: 0
PSCL4 PREFETCHES SAME FILL-ORIGIN LEVEL: 0 DIFFERENT FILL-ORIGIN LEVEL: 0

PSCL3 TOTAL     ACCESS:     523592  HIT:     523592  MISS:          0  HIT %:        100  MISS %:          0   MPKI: 0
PSCL3 LOAD TRANSLATION ACCESS:       3883  HIT:       3883  MISS:          0  HIT %:        100  MISS %:          0   MPKI: 0
PSCL3 TRANSLATION FROM L1D PREFETCHER ACCESS:     519709  HIT:     519709  MISS:          0  HIT %:        100  MISS %:          0   MPKI: 0
PSCL3 PREFETCH  REQUESTED:          0  ISSUED:          0  USEFUL:          0  USELESS:          0
PSCL3 USEFUL LOAD PREFETCHES:          0 PREFETCH ISSUED TO LOWER LEVEL:          0  ACCURACY: -nan
PSCL3 TIMELY PREFETCHES:          0 LATE PREFETCHES: 0 DROPPED PREFETCHES: 0
PSCL3 PREFETCHES SAME FILL-ORIGIN LEVEL: 0 DIFFERENT FILL-ORIGIN LEVEL: 0

PSCL2 TOTAL     ACCESS:     522521  HIT:     522513  MISS:          8  HIT %:    99.9985  MISS %: 0.00153104   MPKI: 4e-05
PSCL2 LOAD TRANSLATION ACCESS:       3883  HIT:       3875  MISS:          8  HIT %:     99.794  MISS %:   0.206026   MPKI: 4e-05
PSCL2 TRANSLATION FROM L1D PREFETCHER ACCESS:     518638  HIT:     518638  MISS:          0  HIT %:        100  MISS %:          0   MPKI: 0
PSCL2 PREFETCH  REQUESTED:          0  ISSUED:          0  USEFUL:          0  USELESS:          0
PSCL2 USEFUL LOAD PREFETCHES:          0 PREFETCH ISSUED TO LOWER LEVEL:          0  ACCURACY: -nan
PSCL2 TIMELY PREFETCHES:          0 LATE PREFETCHES: 0 DROPPED PREFETCHES: 0
PSCL2 PREFETCHES SAME FILL-ORIGIN LEVEL: 0 DIFFERENT FILL-ORIGIN LEVEL: 0

LLC TOTAL     ACCESS:     313476  HIT:      14849  MISS:     298627  HIT %:    4.73689  MISS %:    95.2631   MPKI: 1.49313
LLC LOAD      ACCESS:       2451  HIT:          0  MISS:       2451  HIT %:          0  MISS %:        100   MPKI: 0.012255
LLC RFO       ACCESS:      53179  HIT:          0  MISS:      53179  HIT %:          0  MISS %:        100   MPKI: 0.265895
LLC PREFETCH  ACCESS:     204119  HIT:          0  MISS:     204119  HIT %:          0  MISS %:        100   MPKI: 1.02059
LLC WRITEBACK ACCESS:      53184  HIT:      14825  MISS:      38359  HIT %:    27.8749  MISS %:    72.1251   MPKI: 0.191795
LLC LOAD TRANSLATION ACCESS:        127  HIT:         18  MISS:        109  HIT %:    14.1732  MISS %:    85.8268   MPKI: 0.000545
LLC TRANSLATION FROM L1D PREFETCHER ACCESS:        416  HIT:          6  MISS:        410  HIT %:    1.44231  MISS %:    98.5577   MPKI: 0.00205
LLC PREFETCH  REQUESTED:          0  ISSUED:          0  USEFUL:     365760  USELESS:    6577822
LLC USEFUL LOAD PREFETCHES:     365760 PREFETCH ISSUED TO LOWER LEVEL:    7028782  ACCURACY: 5.20375
LLC TIMELY PREFETCHES:     365760 LATE PREFETCHES: 0 DROPPED PREFETCHES: 0
LLC PREFETCHES SAME FILL-ORIGIN LEVEL: 0 DIFFERENT FILL-ORIGIN LEVEL: 0
LLC AVERAGE MISS LATENCY: 28495.2 cycles
LLC RQ	ACCESS:    3903392	FORWARD:          0	MERGED:          0	TO_CACHE:    3903392
LLC WQ	ACCESS:    4974189	FORWARD:          2	MERGED:          0	TO_CACHE:    4974189
LLC PQ	ACCESS:    7852721	FORWARD:          0	MERGED:          0	TO_CACHE:    7852719

LLC Dense regions hint to LLC: 0

RAW hits: 2664957
Loads Generated: 28140228
Loads sent to L1D: 25475271
Stores Generated: 10210165
Stores sent to L1D: 10210165
Major fault: 0 Minor fault: 5112
Allocated PAGES: 90139

CPU 1 cumulative IPC: 1.12326 instructions: 200000001 cycles: 178053515
ITLB TOTAL     ACCESS:   33209374  HIT:   33209374  MISS:          0  HIT %:        100  MISS %:          0   MPKI: 0
ITLB LOAD TRANSLATION ACCESS:   33209374  HIT:   33209374  MISS:          0  HIT %:        100  MISS %:          0   MPKI: 0
ITLB PREFETCH  REQUESTED:          0  ISSUED:          0  USEFUL:          0  USELESS:          0
ITLB USEFUL LOAD PREFETCHES:          0 PREFETCH ISSUED TO LOWER LEVEL:          0  ACCURACY: -nan
ITLB TIMELY PREFETCHES:          0 LATE PREFETCHES: 0 DROPPED PREFETCHES: 0
ITLB PREFETCHES SAME FILL-ORIGIN LEVEL: 0 DIFFERENT FILL-ORIGIN LEVEL: 0
ITLB AVERAGE MISS LATENCY: -nan cycles
ITLB RQ	ACCESS:   62068052	FORWARD:          0	MERGED:          0	TO_CACHE:   62068052

DTLB TOTAL     ACCESS:   18014816  HIT:   18007526  MISS:       7290  HIT %:    99.9595  MISS %:  0.0404667   MPKI: 0.03645
DTLB LOAD TRANSLATION ACCESS:   18014816  HIT:   18007526  MISS:       7290  HIT %:    99.9595  MISS %:  0.0404667   MPKI: 0.03645
DTLB PREFETCH  REQUESTED:          0  ISSUED:          0  USEFUL:          0  USELESS:          0
DTLB USEFUL LOAD PREFETCHES:          0 PREFETCH ISSUED TO LOWER LEVEL:          0  ACCURACY: -nan
DTLB TIMELY PREFETCHES:          0 LATE PREFETCHES: 0 DROPPED PREFETCHES: 0
DTLB PREFETCHES SAME FILL-ORIGIN LEVEL: 0 DIFFERENT FILL-ORIGIN LEVEL: 0
DTLB AVERAGE MISS LATENCY: 126.611 cycles
DTLB RQ	ACCESS:   34786057	FORWARD:          0	MERGED:    1037890	TO_CACHE:   33748167

STLB TOTAL     ACCESS:   11290951  HIT:   11283661  MISS:       7290  HIT %:    99.9354  MISS %:   0.064565   MPKI: 0.03645
STLB LOAD TRANSLATION ACCESS:       7290  HIT:        226  MISS:       7064  HIT %:    3.10014  MISS %:    96.8999   MPKI: 0.03532
STLB TRANSLATION FROM L1D PREFETCHER ACCESS:   11283661  HIT:   11283435  MISS:        226  HIT %:     99.998  MISS %:  0.0020029   MPKI: 0.00113
STLB PREFETCH  REQUESTED:          0  ISSUED:          0  USEFUL:       6527  USELESS:          0
STLB USEFUL LOAD PREFETCHES:       6527 PREFETCH ISSUED TO LOWER LEVEL:          0  ACCURACY: inf
STLB TIMELY PREFETCHES:       6527 LATE PREFETCHES: 1506 DROPPED PREFETCHES: 511623
STLB PREFETCHES SAME FILL-ORIGIN LEVEL: 0 DIFFERENT FILL-ORIGIN LEVEL: 0
STLB AVERAGE MISS LATENCY: 236.502 cycles
STLB RQ	ACCESS:  131796522	FORWARD:          0	MERGED:  108949383	TO_CACHE:   22847139

STLB Hit, L1D data hit: 0
STLB Hit, L2C data hit: 0
STLB Hit, LLC data hit: 0
STLB Hit, LLC data miss: 0
STLB STLB hints to L2: 0
L1D TOTAL     ACCESS:   68821446  HIT:   68355033  MISS:     466413  HIT %:    99.3223  MISS %:   0.677715   MPKI: 2.33206
L1D LOAD      ACCESS:   14303392  HIT:   14289384  MISS:      14008  HIT %:    99.9021  MISS %:  0.0979348   MPKI: 0.07004
L1D RFO       ACCESS:    4180614  HIT:    4180614  MISS:          0  HIT %:        100  MISS %:          0   MPKI: 0
L1D PREFETCH  ACCESS:   50337440  HIT:   49885035  MISS:     452405  HIT %:    99.1013  MISS %:   0.898745   MPKI: 2.26202
L1D PREFETCH  REQUESTED:  505104384  ISSUED:  505102970  USEFUL:     850651  USELESS:          8
L1D USEFUL LOAD PREFETCHES:     850651 PREFETCH ISSUED TO LOWER LEVEL:    5033805  ACCURACY: 16.8988
L1D TIMELY PREFETCHES:     850651 LATE PREFETCHES: 15073 DROPPED PREFETCHES: 2343883
L1D PREFETCHES SAME FILL-ORIGIN LEVEL: 865740 DIFFERENT FILL-ORIGIN LEVEL: 4168065
L1D AVERAGE MISS LATENCY: 1392.02 cycles
L1D RQ	ACCESS:   55740231	FORWARD:          0	MERGED:   28823939	TO_CACHE:   26916292
L1D WQ	ACCESS:    7869765	FORWARD:          0	MERGED:          0	TO_CACHE:    7869765
L1D PQ	ACCESS:  373320059	FORWARD:          0	MERGED:  241537148	TO_CACHE:  131782911

L1D UNIQUE REGIONS ACCESSED: 0
L1D REGIONS CONFLICTS: 0
L1D Cross Page Prefetch Requests: 32317897
L1D Same Page Prefetch Requests: 456166014
L1D ROI Sum of L1D PQ occupancy: 1642478054
L1D PREFETCHES PUSHED FROM L2C: 0
L1I TOTAL     ACCESS:   33209373  HIT:   33209373  MISS:          0  HIT %:        100  MISS %:          0   MPKI: 0
L1I LOAD      ACCESS:   33209373  HIT:   33209373  MISS:          0  HIT %:        100  MISS %:          0   MPKI: 0
L1I PREFETCH  REQUESTED:          0  ISSUED:          0  USEFUL:          0  USELESS:          0
L1I USEFUL LOAD PREFETCHES:          0 PREFETCH ISSUED TO LOWER LEVEL:          0  ACCURACY: -nan
L1I TIMELY PREFETCHES:          0 LATE PREFETCHES: 0 DROPPED PREFETCHES: 0
L1I PREFETCHES SAME FILL-ORIGIN LEVEL: 0 DIFFERENT FILL-ORIGIN LEVEL: 0
L1I AVERAGE MISS LATENCY: -nan cycles
L1I RQ	ACCESS:  149469427	FORWARD:          0	MERGED:   87401375	TO_CACHE:   62068052

BTB TOTAL     ACCESS:   59698978  HIT:   59698978  MISS:          0  HIT %:        100  MISS %:          0   MPKI: 0
BTB BRANCH_DIRECT_JUMP	ACCESS:          0  HIT:          0  MISS:          0
BTB BRANCH_INDIRECT	ACCESS:          0  HIT:          0  MISS:          0
BTB BRANCH_CONDITIONAL	ACCESS:   59698978  HIT:   59698978  MISS:          0
BTB BRANCH_DIRECT_CALL	ACCESS:          0  HIT:          0  MISS:          0
BTB BRANCH_INDIRECT_CALL	ACCESS:          0  HIT:          0  MISS:          0
BTB BRANCH_RETURN	ACCESS:          0  HIT:          0  MISS:          0
BTB BRANCH_OTHER ACCESS:          0  HIT:          0  MISS:          0

L2C TOTAL     ACCESS:    2067970  HIT:    1551777  MISS:     516193  HIT %:    75.0387  MISS %:    24.9613   MPKI: 2.58096
L2C LOAD      ACCESS:       5217  HIT:          5  MISS:       5212  HIT %:  0.0958405  MISS %:    99.9042   MPKI: 0.02606
L2C DATA LOAD MPKI: 0.02606
L2C INSTRUCTION LOAD MPKI: 0
L2C PREFETCH  ACCESS:    1075950  HIT:     614749  MISS:     461201  HIT %:    57.1355  MISS %:    42.8645   MPKI: 2.306
L2C DATA PREFETCH MPKI: 2.306
L2C INSTRUCTION PREFETCH MPKI: 0
L2C WRITEBACK ACCESS:     466405  HIT:     417552  MISS:      48853  HIT %:    89.5256  MISS %:    10.4744   MPKI: 0.244265
L2C LOAD TRANSLATION ACCESS:       7064  HIT:       7063  MISS:          1  HIT %:    99.9858  MISS %:  0.0141563   MPKI: 5e-06
L2C TRANSLATION FROM L1D PREFETCHER ACCESS:     513334  HIT:     512408  MISS:        926  HIT %:    99.8196  MISS %:   0.180389   MPKI: 0.00463
L2C PREFETCH  REQUESTED:          0  ISSUED:          0  USEFUL:       1722  USELESS:     865840
L2C USEFUL LOAD PREFETCHES:       1722 PREFETCH ISSUED TO LOWER LEVEL:     865746  ACCURACY: 0.198904
L2C TIMELY PREFETCHES:       1722 LATE PREFETCHES: 0 DROPPED PREFETCHES: 0
L2C PREFETCHES SAME FILL-ORIGIN LEVEL: 123661 DIFFERENT FILL-ORIGIN LEVEL: 0
L2C AVERAGE MISS LATENCY: 1446.82 cycles
L2C RQ	ACCESS:     531937	FORWARD:          0	MERGED:          0	TO_CACHE:     531937
L2C WQ	ACCESS:     870947	FORWARD:          0	MERGED:          0	TO_CACHE:     870947
L2C PQ	ACCESS:    5033805	FORWARD:          0	MERGED:       7196	TO_CACHE:    5026609

L2C Instructions Evicting Data 0
L2C Translations Evicting Data 1720
L2C Data Evicting Data 869399
L2C Instructions Evicting Instructions 0
L2C Translations Evicting Instructions 0
L2C Data Evicting Instructions 0
L2C Instructions Evicting Translations 0
L2C Translations Evicting Translations 0
L2C Data Evicting Translations 1556
L2C Dense regions hint from L2: 0
PSCL5 TOTAL     ACCESS:     520398  HIT:     520398  MISS:          0  HIT %:        100  MISS %:          0   MPKI: 0
PSCL5 LOAD TRANSLATION ACCESS:       7064  HIT:       7064  MISS:          0  HIT %:        100  MISS %:          0   MPKI: 0
PSCL5 TRANSLATION FROM L1D PREFETCHER ACCESS:     513334  HIT:     513334  MISS:          0  HIT %:        100  MISS %:          0   MPKI: 0
PSCL5 PREFETCH  REQUESTED:          0  ISSUED:          0  USEFUL:          0  USELESS:          0
PSCL5 USEFUL LOAD PREFETCHES:          0 PREFETCH ISSUED TO LOWER LEVEL:          0  ACCURACY: -nan
PSCL5 TIMELY PREFETCHES:          0 LATE PREFETCHES: 0 DROPPED PREFETCHES: 0
PSCL5 PREFETCHES SAME FILL-ORIGIN LEVEL: 0 DIFFERENT FILL-ORIGIN LEVEL: 0

PSCL4 TOTAL     ACCESS:     520398  HIT:     520398  MISS:          0  HIT %:        100  MISS %:          0   MPKI: 0
PSCL4 LOAD TRANSLATION ACCESS:       7064  HIT:       7064  MISS:          0  HIT %:        100  MISS %:          0   MPKI: 0
PSCL4 TRANSLATION FROM L1D PREFETCHER ACCESS:     513334  HIT:     513334  MISS:          0  HIT %:        100  MISS %:          0   MPKI: 0
PSCL4 PREFETCH  REQUESTED:          0  ISSUED:          0  USEFUL:          0  USELESS:          0
PSCL4 USEFUL LOAD PREFETCHES:          0 PREFETCH ISSUED TO LOWER LEVEL:          0  ACCURACY: -nan
PSCL4 TIMELY PREFETCHES:          0 LATE PREFETCHES: 0 DROPPED PREFETCHES: 0
PSCL4 PREFETCHES SAME FILL-ORIGIN LEVEL: 0 DIFFERENT FILL-ORIGIN LEVEL: 0

PSCL3 TOTAL     ACCESS:     520398  HIT:     520398  MISS:          0  HIT %:        100  MISS %:          0   MPKI: 0
PSCL3 LOAD TRANSLATION ACCESS:       7064  HIT:       7064  MISS:          0  HIT %:        100  MISS %:          0   MPKI: 0
PSCL3 TRANSLATION FROM L1D PREFETCHER ACCESS:     513334  HIT:     513334  MISS:          0  HIT %:        100  MISS %:          0   MPKI: 0
PSCL3 PREFETCH  REQUESTED:          0  ISSUED:          0  USEFUL:          0  USELESS:          0
PSCL3 USEFUL LOAD PREFETCHES:          0 PREFETCH ISSUED TO LOWER LEVEL:          0  ACCURACY: -nan
PSCL3 TIMELY PREFETCHES:          0 LATE PREFETCHES: 0 DROPPED PREFETCHES: 0
PSCL3 PREFETCHES SAME FILL-ORIGIN LEVEL: 0 DIFFERENT FILL-ORIGIN LEVEL: 0

PSCL2 TOTAL     ACCESS:     519713  HIT:     519699  MISS:         14  HIT %:    99.9973  MISS %: 0.00269379   MPKI: 7e-05
PSCL2 LOAD TRANSLATION ACCESS:       7064  HIT:       7050  MISS:         14  HIT %:    99.8018  MISS %:   0.198188   MPKI: 7e-05
PSCL2 TRANSLATION FROM L1D PREFETCHER ACCESS:     512649  HIT:     512649  MISS:          0  HIT %:        100  MISS %:          0   MPKI: 0
PSCL2 PREFETCH  REQUESTED:          0  ISSUED:          0  USEFUL:          0  USELESS:          0
PSCL2 USEFUL LOAD PREFETCHES:          0 PREFETCH ISSUED TO LOWER LEVEL:          0  ACCURACY: -nan
PSCL2 TIMELY PREFETCHES:          0 LATE PREFETCHES: 0 DROPPED PREFETCHES: 0
PSCL2 PREFETCHES SAME FILL-ORIGIN LEVEL: 0 DIFFERENT FILL-ORIGIN LEVEL: 0

LLC TOTAL     ACCESS:     933745  HIT:     295180  MISS:     638565  HIT %:    31.6125  MISS %:    68.3875   MPKI: 3.19282
LLC LOAD      ACCESS:       5212  HIT:          0  MISS:       5212  HIT %:          0  MISS %:        100   MPKI: 0.02606
LLC PREFETCH  ACCESS:     461201  HIT:          0  MISS:     461201  HIT %:          0  MISS %:        100   MPKI: 2.306
LLC WRITEBACK ACCESS:     466405  HIT:     295180  MISS:     171225  HIT %:    63.2883  MISS %:    36.7117   MPKI: 0.856125
LLC LOAD TRANSLATION ACCESS:          1  HIT:          0  MISS:          1  HIT %:          0  MISS %:        100   MPKI: 5e-06
LLC TRANSLATION FROM L1D PREFETCHER ACCESS:        926  HIT:          0  MISS:        926  HIT %:          0  MISS %:        100   MPKI: 0.00463
LLC PREFETCH  REQUESTED:          0  ISSUED:          0  USEFUL:     365760  USELESS:    6577822
LLC USEFUL LOAD PREFETCHES:     365760 PREFETCH ISSUED TO LOWER LEVEL:    7028782  ACCURACY: 5.20375
LLC TIMELY PREFETCHES:     365760 LATE PREFETCHES: 0 DROPPED PREFETCHES: 0
LLC PREFETCHES SAME FILL-ORIGIN LEVEL: 0 DIFFERENT FILL-ORIGIN LEVEL: 0
LLC AVERAGE MISS LATENCY: 13325.9 cycles
LLC RQ	ACCESS:    3903392	FORWARD:          0	MERGED:          0	TO_CACHE:    3903392
LLC WQ	ACCESS:    4974189	FORWARD:          2	MERGED:          0	TO_CACHE:    4974189
LLC PQ	ACCESS:    7852721	FORWARD:          0	MERGED:          0	TO_CACHE:    7852719

LLC Dense regions hint to LLC: 0

RAW hits: 0
Loads Generated: 29849490
Loads sent to L1D: 29849489
Stores Generated: 4180613
Stores sent to L1D: 4180613
Major fault: 0 Minor fault: 9127
Allocated PAGES: 90139

CPU 2 cumulative IPC: 0.607541 instructions: 200000001 cycles: 329195975
ITLB TOTAL     ACCESS:   31405257  HIT:   31405250  MISS:          7  HIT %:        100  MISS %: 2.22893e-05   MPKI: 3.5e-05
ITLB LOAD TRANSLATION ACCESS:   31405257  HIT:   31405250  MISS:          7  HIT %:        100  MISS %: 2.22893e-05   MPKI: 3.5e-05
ITLB PREFETCH  REQUESTED:          0  ISSUED:          0  USEFUL:          0  USELESS:          0
ITLB USEFUL LOAD PREFETCHES:          0 PREFETCH ISSUED TO LOWER LEVEL:          0  ACCURACY: -nan
ITLB TIMELY PREFETCHES:          0 LATE PREFETCHES: 0 DROPPED PREFETCHES: 0
ITLB PREFETCHES SAME FILL-ORIGIN LEVEL: 0 DIFFERENT FILL-ORIGIN LEVEL: 0
ITLB AVERAGE MISS LATENCY: 1028 cycles
ITLB RQ	ACCESS:   37712454	FORWARD:          0	MERGED:    6307195	TO_CACHE:   31405259

DTLB TOTAL     ACCESS:   49059291  HIT:   48892298  MISS:     166993  HIT %:    99.6596  MISS %:    0.34039   MPKI: 0.834965
DTLB LOAD TRANSLATION ACCESS:   49059291  HIT:   48892298  MISS:     166993  HIT %:    99.6596  MISS %:    0.34039   MPKI: 0.834965
DTLB PREFETCH  REQUESTED:          0  ISSUED:          0  USEFUL:          0  USELESS:          0
DTLB USEFUL LOAD PREFETCHES:          0 PREFETCH ISSUED TO LOWER LEVEL:          0  ACCURACY: -nan
DTLB TIMELY PREFETCHES:          0 LATE PREFETCHES: 0 DROPPED PREFETCHES: 0
DTLB PREFETCHES SAME FILL-ORIGIN LEVEL: 0 DIFFERENT FILL-ORIGIN LEVEL: 0
DTLB AVERAGE MISS LATENCY: 199.321 cycles
DTLB RQ	ACCESS:   57230448	FORWARD:          0	MERGED:    8029420	TO_CACHE:   49201028

STLB TOTAL     ACCESS:   17737377  HIT:   17620813  MISS:     116564  HIT %:    99.3428  MISS %:   0.657166   MPKI: 0.58282
STLB LOAD TRANSLATION ACCESS:     167000  HIT:     106947  MISS:      60053  HIT %:    64.0401  MISS %:    35.9599   MPKI: 0.300265
STLB TRANSLATION FROM L1D PREFETCHER ACCESS:   17570377  HIT:   17513866  MISS:      56511  HIT %:    99.6784  MISS %:   0.321627   MPKI: 0.282555
STLB PREFETCH  REQUESTED:          0  ISSUED:          0  USEFUL:      56309  USELESS:        198
STLB USEFUL LOAD PREFETCHES:      56309 PREFETCH ISSUED TO LOWER LEVEL:          0  ACCURACY: inf
STLB TIMELY PREFETCHES:      56309 LATE PREFETCHES: 2518 DROPPED PREFETCHES: 189992
STLB PREFETCHES SAME FILL-ORIGIN LEVEL: 0 DIFFERENT FILL-ORIGIN LEVEL: 0
STLB AVERAGE MISS LATENCY: 361.858 cycles
STLB RQ	ACCESS:   73506463	FORWARD:          0	MERGED:   55524973	TO_CACHE:   17981490

STLB Hit, L1D data hit: 0
STLB Hit, L2C data hit: 0
STLB Hit, LLC data hit: 0
STLB Hit, LLC data miss: 0
STLB STLB hints to L2: 0
L1D TOTAL     ACCESS:   97084962  HIT:   91295204  MISS:    5789758  HIT %:    94.0364  MISS %:     5.9636   MPKI: 28.9488
L1D LOAD      ACCESS:   44381281  HIT:   43474964  MISS:     906317  HIT %:    97.9579  MISS %:    2.04212   MPKI: 4.53158
L1D RFO       ACCESS:    5981756  HIT:    4849257  MISS:    1132499  HIT %:    81.0674  MISS %:    18.9326   MPKI: 5.66249
L1D PREFETCH  ACCESS:   46721925  HIT:   42970983  MISS:    3750942  HIT %:    91.9718  MISS %:    8.02823   MPKI: 18.7547
L1D PREFETCH  REQUESTED:  489103990  ISSUED:  199406663  USEFUL:    3553975  USELESS:     196929
L1D USEFUL LOAD PREFETCHES:    3553975 PREFETCH ISSUED TO LOWER LEVEL:   31730190  ACCURACY: 11.2006
L1D TIMELY PREFETCHES:    3553975 LATE PREFETCHES: 347801 DROPPED PREFETCHES: 549013
L1D PREFETCHES SAME FILL-ORIGIN LEVEL: 4340718 DIFFERENT FILL-ORIGIN LEVEL: 27389472
L1D AVERAGE MISS LATENCY: 428.411 cycles
L1D RQ	ACCESS:   76273015	FORWARD:          0	MERGED:   31131240	TO_CACHE:   45098549
L1D WQ	ACCESS:   12318610	FORWARD:      47464	MERGED:     186711	TO_CACHE:   12131899
L1D PQ	ACCESS:  126067200	FORWARD:          0	MERGED:   52723499	TO_CACHE:   73339463

L1D UNIQUE REGIONS ACCESSED: 0
L1D REGIONS CONFLICTS: 0
L1D Cross Page Prefetch Requests: 16964645
L1D Same Page Prefetch Requests: 165067347
L1D ROI Sum of L1D PQ occupancy: 1655731508
L1D PREFETCHES PUSHED FROM L2C: 0
L1I TOTAL     ACCESS:   37712080  HIT:   37711310  MISS:        770  HIT %:     99.998  MISS %: 0.00204179   MPKI: 0.00385
L1I LOAD      ACCESS:   37712080  HIT:   37711310  MISS:        770  HIT %:     99.998  MISS %: 0.00204179   MPKI: 0.00385
L1I PREFETCH  REQUESTED:          0  ISSUED:          0  USEFUL:          0  USELESS:          0
L1I USEFUL LOAD PREFETCHES:          0 PREFETCH ISSUED TO LOWER LEVEL:          0  ACCURACY: -nan
L1I TIMELY PREFETCHES:          0 LATE PREFETCHES: 0 DROPPED PREFETCHES: 0
L1I PREFETCHES SAME FILL-ORIGIN LEVEL: 0 DIFFERENT FILL-ORIGIN LEVEL: 0
L1I AVERAGE MISS LATENCY: 545.692 cycles
L1I RQ	ACCESS:   52766778	FORWARD:          0	MERGED:   15054324	TO_CACHE:   37712454

BTB TOTAL     ACCESS:    7433883  HIT:    7433574  MISS:        309  HIT %:    99.9958  MISS %: 0.00415664   MPKI: 0.001545
BTB BRANCH_DIRECT_JUMP	ACCESS:       1193  HIT:       1166  MISS:         27
BTB BRANCH_INDIRECT	ACCESS:          0  HIT:          0  MISS:          0
BTB BRANCH_CONDITIONAL	ACCESS:    7432416  HIT:    7432259  MISS:        157
BTB BRANCH_DIRECT_CALL	ACCESS:        137  HIT:         76  MISS:         61
BTB BRANCH_INDIRECT_CALL	ACCESS:          0  HIT:          0  MISS:          0
BTB BRANCH_RETURN	ACCESS:        137  HIT:         73  MISS:         64
BTB BRANCH_OTHER ACCESS:          0  HIT:          0  MISS:          0

L2C TOTAL     ACCESS:   19731246  HIT:   14234115  MISS:    5497131  HIT %:      72.14  MISS %:      27.86   MPKI: 27.4857
L2C LOAD      ACCESS:     559277  HIT:     373919  MISS:     185358  HIT %:    66.8576  MISS %:    33.1424   MPKI: 0.92679
L2C DATA LOAD MPKI: 0.92294
L2C INSTRUCTION LOAD MPKI: 0.00385
L2C RFO       ACCESS:    1132491  HIT:        427  MISS:    1132064  HIT %:  0.0377045  MISS %:    99.9623   MPKI: 5.66032
L2C PREFETCH  ACCESS:   16077007  HIT:   11987718  MISS:    4089289  HIT %:    74.5644  MISS %:    25.4356   MPKI: 20.4464
L2C DATA PREFETCH MPKI: 20.4464
L2C INSTRUCTION PREFETCH MPKI: 0
L2C WRITEBACK ACCESS:    1467231  HIT:    1401827  MISS:      65404  HIT %:    95.5424  MISS %:    4.45765   MPKI: 0.32702
L2C LOAD TRANSLATION ACCESS:      59381  HIT:      45242  MISS:      14139  HIT %:    76.1894  MISS %:    23.8106   MPKI: 0.070695
L2C TRANSLATION FROM L1D PREFETCHER ACCESS:     435859  HIT:     424982  MISS:      10877  HIT %:    97.5045  MISS %:    2.49553   MPKI: 0.054385
L2C PREFETCH  REQUESTED:          0  ISSUED:          0  USEFUL:     351544  USELESS:    3747505
L2C USEFUL LOAD PREFETCHES:     351544 PREFETCH ISSUED TO LOWER LEVEL:    4135558  ACCURACY: 8.50052
L2C TIMELY PREFETCHES:     351544 LATE PREFETCHES: 46256 DROPPED PREFETCHES: 0
L2C PREFETCHES SAME FILL-ORIGIN LEVEL: 2674398 DIFFERENT FILL-ORIGIN LEVEL: 0
L2C AVERAGE MISS LATENCY: 863.819 cycles
L2C RQ	ACCESS:    2187027	FORWARD:          0	MERGED:          0	TO_CACHE:    2187018
L2C WQ	ACCESS:    1467231	FORWARD:         12	MERGED:          0	TO_CACHE:    1467231
L2C PQ	ACCESS:   21836322	FORWARD:          0	MERGED:     318937	TO_CACHE:   21517382

L2C Instructions Evicting Data 764
L2C Translations Evicting Data 24878
L2C Data Evicting Data 5380643
L2C Instructions Evicting Instructions 1
L2C Translations Evicting Instructions 13
L2C Data Evicting Instructions 731
L2C Instructions Evicting Translations 5
L2C Translations Evicting Translations 125
L2C Data Evicting Translations 24567
L2C Dense regions hint from L2: 0
PSCL5 TOTAL     ACCESS:     307914  HIT:     307914  MISS:          0  HIT %:        100  MISS %:          0   MPKI: 0
PSCL5 LOAD TRANSLATION ACCESS:      58893  HIT:      58893  MISS:          0  HIT %:        100  MISS %:          0   MPKI: 0
PSCL5 TRANSLATION FROM L1D PREFETCHER ACCESS:     249021  HIT:     249021  MISS:          0  HIT %:        100  MISS %:          0   MPKI: 0
PSCL5 PREFETCH  REQUESTED:          0  ISSUED:          0  USEFUL:          0  USELESS:          0
PSCL5 USEFUL LOAD PREFETCHES:          0 PREFETCH ISSUED TO LOWER LEVEL:          0  ACCURACY: -nan
PSCL5 TIMELY PREFETCHES:          0 LATE PREFETCHES: 0 DROPPED PREFETCHES: 0
PSCL5 PREFETCHES SAME FILL-ORIGIN LEVEL: 0 DIFFERENT FILL-ORIGIN LEVEL: 0

PSCL4 TOTAL     ACCESS:     307914  HIT:     307914  MISS:          0  HIT %:        100  MISS %:          0   MPKI: 0
PSCL4 LOAD TRANSLATION ACCESS:      58893  HIT:      58893  MISS:          0  HIT %:        100  MISS %:          0   MPKI: 0
PSCL4 TRANSLATION FROM L1D PREFETCHER ACCESS:     249021  HIT:     249021  MISS:          0  HIT %:        100  MISS %:          0   MPKI: 0
PSCL4 PREFETCH  REQUESTED:          0  ISSUED:          0  USEFUL:          0  USELESS:          0
PSCL4 USEFUL LOAD PREFETCHES:          0 PREFETCH ISSUED TO LOWER LEVEL:          0  ACCURACY: -nan
PSCL4 TIMELY PREFETCHES:          0 LATE PREFETCHES: 0 DROPPED PREFETCHES: 0
PSCL4 PREFETCHES SAME FILL-ORIGIN LEVEL: 0 DIFFERENT FILL-ORIGIN LEVEL: 0

PSCL3 TOTAL     ACCESS:     214000  HIT:     213995  MISS:          5  HIT %:    99.9977  MISS %: 0.00233645   MPKI: 2.5e-05
PSCL3 LOAD TRANSLATION ACCESS:      58642  HIT:      58637  MISS:          5  HIT %:    99.9915  MISS %: 0.00852631   MPKI: 2.5e-05
PSCL3 TRANSLATION FROM L1D PREFETCHER ACCESS:     155358  HIT:     155358  MISS:          0  HIT %:        100  MISS %:          0   MPKI: 0
PSCL3 PREFETCH  REQUESTED:          0  ISSUED:          0  USEFUL:          0  USELESS:          0
PSCL3 USEFUL LOAD PREFETCHES:          0 PREFETCH ISSUED TO LOWER LEVEL:          0  ACCURACY: -nan
PSCL3 TIMELY PREFETCHES:          0 LATE PREFETCHES: 0 DROPPED PREFETCHES: 0
PSCL3 PREFETCHES SAME FILL-ORIGIN LEVEL: 0 DIFFERENT FILL-ORIGIN LEVEL: 0

PSCL2 TOTAL     ACCESS:     214135  HIT:     213438  MISS:        697  HIT %:    99.6745  MISS %:   0.325496   MPKI: 0.003485
PSCL2 LOAD TRANSLATION ACCESS:      59034  HIT:      58337  MISS:        697  HIT %:    98.8193  MISS %:    1.18068   MPKI: 0.003485
PSCL2 TRANSLATION FROM L1D PREFETCHER ACCESS:     155101  HIT:     155101  MISS:          0  HIT %:        100  MISS %:          0   MPKI: 0
PSCL2 PREFETCH  REQUESTED:          0  ISSUED:          0  USEFUL:          0  USELESS:          0
PSCL2 USEFUL LOAD PREFETCHES:          0 PREFETCH ISSUED TO LOWER LEVEL:          0  ACCURACY: -nan
PSCL2 TIMELY PREFETCHES:          0 LATE PREFETCHES: 0 DROPPED PREFETCHES: 0
PSCL2 PREFETCHES SAME FILL-ORIGIN LEVEL: 0 DIFFERENT FILL-ORIGIN LEVEL: 0

LLC TOTAL     ACCESS:    6899114  HIT:    1534203  MISS:    5364911  HIT %:    22.2377  MISS %:    77.7623   MPKI: 26.8246
LLC LOAD      ACCESS:     139217  HIT:       3663  MISS:     135554  HIT %:    2.63114  MISS %:    97.3689   MPKI: 0.67777
LLC RFO       ACCESS:    1131949  HIT:        846  MISS:    1131103  HIT %:  0.0747383  MISS %:    99.9253   MPKI: 5.65551
LLC PREFETCH  ACCESS:    4135545  HIT:      70560  MISS:    4064985  HIT %:    1.70618  MISS %:    98.2938   MPKI: 20.3249
LLC WRITEBACK ACCESS:    1467387  HIT:    1458357  MISS:       9030  HIT %:    99.3846  MISS %:    0.61538   MPKI: 0.04515
LLC LOAD TRANSLATION ACCESS:      14139  HIT:        335  MISS:      13804  HIT %:    2.36933  MISS %:    97.6307   MPKI: 0.06902
LLC TRANSLATION FROM L1D PREFETCHER ACCESS:      10877  HIT:        442  MISS:      10435  HIT %:    4.06362  MISS %:    95.9364   MPKI: 0.052175
LLC PREFETCH  REQUESTED:          0  ISSUED:          0  USEFUL:     365760  USELESS:    6577822
LLC USEFUL LOAD PREFETCHES:     365760 PREFETCH ISSUED TO LOWER LEVEL:    7028782  ACCURACY: 5.20375
LLC TIMELY PREFETCHES:     365760 LATE PREFETCHES: 0 DROPPED PREFETCHES: 0
LLC PREFETCHES SAME FILL-ORIGIN LEVEL: 0 DIFFERENT FILL-ORIGIN LEVEL: 0
LLC AVERAGE MISS LATENCY: 1586.13 cycles
LLC RQ	ACCESS:    3903392	FORWARD:          0	MERGED:          0	TO_CACHE:    3903392
LLC WQ	ACCESS:    4974189	FORWARD:          2	MERGED:          0	TO_CACHE:    4974189
LLC PQ	ACCESS:    7852721	FORWARD:          0	MERGED:          0	TO_CACHE:    7852719

LLC Dense regions hint to LLC: 0

RAW hits: 2130090
Loads Generated: 78403117
Loads sent to L1D: 76273015
Stores Generated: 12318966
Stores sent to L1D: 12318954
Major fault: 0 Minor fault: 55185
Allocated PAGES: 90139

CPU 3 cumulative IPC: 0.77793 instructions: 200000001 cycles: 257092636
ITLB TOTAL     ACCESS:   32228009  HIT:   32228009  MISS:          0  HIT %:        100  MISS %:          0   MPKI: 0
ITLB LOAD TRANSLATION ACCESS:   32228009  HIT:   32228009  MISS:          0  HIT %:        100  MISS %:          0   MPKI: 0
ITLB PREFETCH  REQUESTED:          0  ISSUED:          0  USEFUL:          0  USELESS:          0
ITLB USEFUL LOAD PREFETCHES:          0 PREFETCH ISSUED TO LOWER LEVEL:          0  ACCURACY: -nan
ITLB TIMELY PREFETCHES:          0 LATE PREFETCHES: 0 DROPPED PREFETCHES: 0
ITLB PREFETCHES SAME FILL-ORIGIN LEVEL: 0 DIFFERENT FILL-ORIGIN LEVEL: 0
ITLB AVERAGE MISS LATENCY: -nan cycles
ITLB RQ	ACCESS:   39662612	FORWARD:          0	MERGED:     228802	TO_CACHE:   39433810

DTLB TOTAL     ACCESS:   49774260  HIT:   49670359  MISS:     103901  HIT %:    99.7913  MISS %:   0.208744   MPKI: 0.519505
DTLB LOAD TRANSLATION ACCESS:   49774260  HIT:   49670359  MISS:     103901  HIT %:    99.7913  MISS %:   0.208744   MPKI: 0.519505
DTLB PREFETCH  REQUESTED:          0  ISSUED:          0  USEFUL:          0  USELESS:          0
DTLB USEFUL LOAD PREFETCHES:          0 PREFETCH ISSUED TO LOWER LEVEL:          0  ACCURACY: -nan
DTLB TIMELY PREFETCHES:          0 LATE PREFETCHES: 0 DROPPED PREFETCHES: 0
DTLB PREFETCHES SAME FILL-ORIGIN LEVEL: 0 DIFFERENT FILL-ORIGIN LEVEL: 0
DTLB AVERAGE MISS LATENCY: 145.148 cycles
DTLB RQ	ACCESS:   79452604	FORWARD:          0	MERGED:   18745303	TO_CACHE:   60707301

STLB TOTAL     ACCESS:   13108280  HIT:   13089466  MISS:      18814  HIT %:    99.8565  MISS %:   0.143528   MPKI: 0.09407
STLB LOAD TRANSLATION ACCESS:     103901  HIT:      86902  MISS:      16999  HIT %:    83.6392  MISS %:    16.3608   MPKI: 0.084995
STLB TRANSLATION FROM L1D PREFETCHER ACCESS:   13004379  HIT:   13002564  MISS:       1815  HIT %:     99.986  MISS %:  0.0139568   MPKI: 0.009075
STLB PREFETCH  REQUESTED:          0  ISSUED:          0  USEFUL:       7110  USELESS:          2
STLB USEFUL LOAD PREFETCHES:       7110 PREFETCH ISSUED TO LOWER LEVEL:          0  ACCURACY: inf
STLB TIMELY PREFETCHES:       7110 LATE PREFETCHES: 2417 DROPPED PREFETCHES: 168794
STLB PREFETCHES SAME FILL-ORIGIN LEVEL: 0 DIFFERENT FILL-ORIGIN LEVEL: 0
STLB AVERAGE MISS LATENCY: 775.593 cycles
STLB RQ	ACCESS:   81914379	FORWARD:          0	MERGED:   66021353	TO_CACHE:   15893026

STLB Hit, L1D data hit: 0
STLB Hit, L2C data hit: 0
STLB Hit, LLC data hit: 0
STLB Hit, LLC data miss: 0
STLB STLB hints to L2: 0
L1D TOTAL     ACCESS:   91272497  HIT:   86280059  MISS:    4992438  HIT %:    94.5302  MISS %:    5.46982   MPKI: 24.9622
L1D LOAD      ACCESS:   22520099  HIT:   21628510  MISS:     891589  HIT %:    96.0409  MISS %:    3.95908   MPKI: 4.45794
L1D RFO       ACCESS:   30603122  HIT:   28405003  MISS:    2198119  HIT %:    92.8173  MISS %:    7.18266   MPKI: 10.9906
L1D PREFETCH  ACCESS:   38149276  HIT:   36246546  MISS:    1902730  HIT %:    95.0124  MISS %:    4.98759   MPKI: 9.51365
L1D PREFETCH  REQUESTED:  369116168  ISSUED:  254766187  USEFUL:    2150477  USELESS:      59396
L1D USEFUL LOAD PREFETCHES:    2150477 PREFETCH ISSUED TO LOWER LEVEL:   28665004  ACCURACY: 7.5021
L1D TIMELY PREFETCHES:    2150477 LATE PREFETCHES: 538929 DROPPED PREFETCHES: 429730
L1D PREFETCHES SAME FILL-ORIGIN LEVEL: 2759326 DIFFERENT FILL-ORIGIN LEVEL: 25905678
L1D AVERAGE MISS LATENCY: 449.456 cycles
L1D RQ	ACCESS:   58906405	FORWARD:          0	MERGED:   30176388	TO_CACHE:   28429450
L1D WQ	ACCESS:   52460510	FORWARD:     484241	MERGED:    1437356	TO_CACHE:   51023154
L1D PQ	ACCESS:  172979378	FORWARD:          0	MERGED:   91008895	TO_CACHE:   81786809

L1D UNIQUE REGIONS ACCESSED: 0
L1D REGIONS CONFLICTS: 0
L1D Cross Page Prefetch Requests: 19022620
L1D Same Page Prefetch Requests: 209426013
L1D ROI Sum of L1D PQ occupancy: 1627670163
L1D PREFETCHES PUSHED FROM L2C: 0
L1I TOTAL     ACCESS:   32402151  HIT:   32402151  MISS:          0  HIT %:        100  MISS %:          0   MPKI: 0
L1I LOAD      ACCESS:   32402151  HIT:   32402151  MISS:          0  HIT %:        100  MISS %:          0   MPKI: 0
L1I PREFETCH  REQUESTED:          0  ISSUED:          0  USEFUL:          0  USELESS:          0
L1I USEFUL LOAD PREFETCHES:          0 PREFETCH ISSUED TO LOWER LEVEL:          0  ACCURACY: -nan
L1I TIMELY PREFETCHES:          0 LATE PREFETCHES: 0 DROPPED PREFETCHES: 0
L1I PREFETCHES SAME FILL-ORIGIN LEVEL: 0 DIFFERENT FILL-ORIGIN LEVEL: 0
L1I AVERAGE MISS LATENCY: -nan cycles
L1I RQ	ACCESS:   60372244	FORWARD:          0	MERGED:   20709632	TO_CACHE:   39662612

BTB TOTAL     ACCESS:   20018734  HIT:   20018518  MISS:        216  HIT %:    99.9989  MISS %: 0.00107899   MPKI: 0.00108
BTB BRANCH_DIRECT_JUMP	ACCESS:       1907  HIT:       1897  MISS:         10
BTB BRANCH_INDIRECT	ACCESS:          0  HIT:          0  MISS:          0
BTB BRANCH_CONDITIONAL	ACCESS:   20014246  HIT:   20014218  MISS:         28
BTB BRANCH_DIRECT_CALL	ACCESS:       1291  HIT:       1282  MISS:          9
BTB BRANCH_INDIRECT_CALL	ACCESS:          0  HIT:          0  MISS:          0
BTB BRANCH_RETURN	ACCESS:       1290  HIT:       1121  MISS:        169
BTB BRANCH_OTHER ACCESS:          0  HIT:          0  MISS:          0

L2C TOTAL     ACCESS:   26758202  HIT:   22440154  MISS:    4318048  HIT %:    83.8627  MISS %:    16.1373   MPKI: 21.5902
L2C LOAD      ACCESS:     465271  HIT:     366309  MISS:      98962  HIT %:    78.7302  MISS %:    21.2698   MPKI: 0.49481
L2C DATA LOAD MPKI: 0.49481
L2C INSTRUCTION LOAD MPKI: 0
L2C RFO       ACCESS:    2197999  HIT:     143668  MISS:    2054331  HIT %:    6.53631  MISS %:    93.4637   MPKI: 10.2717
L2C PREFETCH  ACCESS:   21703229  HIT:   19629540  MISS:    2073689  HIT %:    90.4453  MISS %:    9.55475   MPKI: 10.3684
L2C DATA PREFETCH MPKI: 10.3684
L2C INSTRUCTION PREFETCH MPKI: 0
L2C WRITEBACK ACCESS:    2205153  HIT:    2117581  MISS:      87572  HIT %:    96.0288  MISS %:    3.97124   MPKI: 0.43786
L2C LOAD TRANSLATION ACCESS:      16835  HIT:      15094  MISS:       1741  HIT %:    89.6584  MISS %:    10.3416   MPKI: 0.008705
L2C TRANSLATION FROM L1D PREFETCHER ACCESS:     169715  HIT:     167962  MISS:       1753  HIT %:    98.9671  MISS %:    1.03291   MPKI: 0.008765
L2C PREFETCH  REQUESTED:          0  ISSUED:          0  USEFUL:     453768  USELESS:    2042853
L2C USEFUL LOAD PREFETCHES:     453768 PREFETCH ISSUED TO LOWER LEVEL:    2569714  ACCURACY: 17.6583
L2C TIMELY PREFETCHES:     453768 LATE PREFETCHES: 77555 DROPPED PREFETCHES: 0
L2C PREFETCHES SAME FILL-ORIGIN LEVEL: 1099876 DIFFERENT FILL-ORIGIN LEVEL: 0
L2C AVERAGE MISS LATENCY: 684.075 cycles
L2C RQ	ACCESS:    3425404	FORWARD:          0	MERGED:          0	TO_CACHE:    3425278
L2C WQ	ACCESS:    2717766	FORWARD:        158	MERGED:          0	TO_CACHE:    2717766
L2C PQ	ACCESS:   28502253	FORWARD:          0	MERGED:     473564	TO_CACHE:   28028657

L2C Instructions Evicting Data 0
L2C Translations Evicting Data 6326
L2C Data Evicting Data 5081138
L2C Instructions Evicting Instructions 0
L2C Translations Evicting Instructions 0
L2C Data Evicting Instructions 0
L2C Instructions Evicting Translations 0
L2C Translations Evicting Translations 9
L2C Data Evicting Translations 6174
L2C Dense regions hint from L2: 0
PSCL5 TOTAL     ACCESS:     186358  HIT:     186358  MISS:          0  HIT %:        100  MISS %:          0   MPKI: 0
PSCL5 LOAD TRANSLATION ACCESS:      16825  HIT:      16825  MISS:          0  HIT %:        100  MISS %:          0   MPKI: 0
PSCL5 TRANSLATION FROM L1D PREFETCHER ACCESS:     169533  HIT:     169533  MISS:          0  HIT %:        100  MISS %:          0   MPKI: 0
PSCL5 PREFETCH  REQUESTED:          0  ISSUED:          0  USEFUL:          0  USELESS:          0
PSCL5 USEFUL LOAD PREFETCHES:          0 PREFETCH ISSUED TO LOWER LEVEL:          0  ACCURACY: -nan
PSCL5 TIMELY PREFETCHES:          0 LATE PREFETCHES: 0 DROPPED PREFETCHES: 0
PSCL5 PREFETCHES SAME FILL-ORIGIN LEVEL: 0 DIFFERENT FILL-ORIGIN LEVEL: 0

PSCL4 TOTAL     ACCESS:     186358  HIT:     186358  MISS:          0  HIT %:        100  MISS %:          0   MPKI: 0
PSCL4 LOAD TRANSLATION ACCESS:      16825  HIT:      16825  MISS:          0  HIT %:        100  MISS %:          0   MPKI: 0
PSCL4 TRANSLATION FROM L1D PREFETCHER ACCESS:     169533  HIT:     169533  MISS:          0  HIT %:        100  MISS %:          0   MPKI: 0
PSCL4 PREFETCH  REQUESTED:          0  ISSUED:          0  USEFUL:          0  USELESS:          0
PSCL4 USEFUL LOAD PREFETCHES:          0 PREFETCH ISSUED TO LOWER LEVEL:          0  ACCURACY: -nan
PSCL4 TIMELY PREFETCHES:          0 LATE PREFETCHES: 0 DROPPED PREFETCHES: 0
PSCL4 PREFETCHES SAME FILL-ORIGIN LEVEL: 0 DIFFERENT FILL-ORIGIN LEVEL: 0

PSCL3 TOTAL     ACCESS:     186358  HIT:     186358  MISS:          0  HIT %:        100  MISS %:          0   MPKI: 0
PSCL3 LOAD TRANSLATION ACCESS:      16825  HIT:      16825  MISS:          0  HIT %:        100  MISS %:          0   MPKI: 0
PSCL3 TRANSLATION FROM L1D PREFETCHER ACCESS:     169533  HIT:     169533  MISS:          0  HIT %:        100  MISS %:          0   MPKI: 0
PSCL3 PREFETCH  REQUESTED:          0  ISSUED:          0  USEFUL:          0  USELESS:          0
PSCL3 USEFUL LOAD PREFETCHES:          0 PREFETCH ISSUED TO LOWER LEVEL:          0  ACCURACY: -nan
PSCL3 TIMELY PREFETCHES:          0 LATE PREFETCHES: 0 DROPPED PREFETCHES: 0
PSCL3 PREFETCHES SAME FILL-ORIGIN LEVEL: 0 DIFFERENT FILL-ORIGIN LEVEL: 0

PSCL2 TOTAL     ACCESS:     186135  HIT:     186095  MISS:         40  HIT %:    99.9785  MISS %:  0.0214898   MPKI: 0.0002
PSCL2 LOAD TRANSLATION ACCESS:      16827  HIT:      16787  MISS:         40  HIT %:    99.7623  MISS %:   0.237713   MPKI: 0.0002
PSCL2 TRANSLATION FROM L1D PREFETCHER ACCESS:     169308  HIT:     169308  MISS:          0  HIT %:        100  MISS %:          0   MPKI: 0
PSCL2 PREFETCH  REQUESTED:          0  ISSUED:          0  USEFUL:          0  USELESS:          0
PSCL2 USEFUL LOAD PREFETCHES:          0 PREFETCH ISSUED TO LOWER LEVEL:          0  ACCURACY: -nan
PSCL2 TIMELY PREFETCHES:          0 LATE PREFETCHES: 0 DROPPED PREFETCHES: 0
PSCL2 PREFETCHES SAME FILL-ORIGIN LEVEL: 0 DIFFERENT FILL-ORIGIN LEVEL: 0

LLC TOTAL     ACCESS:    6301240  HIT:    3570304  MISS:    2730936  HIT %:    56.6603  MISS %:    43.3397   MPKI: 13.6547
LLC LOAD      ACCESS:      43267  HIT:      27852  MISS:      15415  HIT %:    64.3724  MISS %:    35.6276   MPKI: 0.077075
LLC RFO       ACCESS:    2054289  HIT:     694101  MISS:    1360188  HIT %:    33.7879  MISS %:    66.2121   MPKI: 6.80094
LLC PREFETCH  ACCESS:    2129425  HIT:     788705  MISS:    1340720  HIT %:    37.0384  MISS %:    62.9616   MPKI: 6.7036
LLC WRITEBACK ACCESS:    2070765  HIT:    2058902  MISS:      11863  HIT %:    99.4271  MISS %:    0.57288   MPKI: 0.059315
LLC LOAD TRANSLATION ACCESS:       1741  HIT:        301  MISS:       1440  HIT %:    17.2889  MISS %:    82.7111   MPKI: 0.0072
LLC TRANSLATION FROM L1D PREFETCHER ACCESS:       1753  HIT:        443  MISS:       1310  HIT %:     25.271  MISS %:     74.729   MPKI: 0.00655
LLC PREFETCH  REQUESTED:          0  ISSUED:          0  USEFUL:     365760  USELESS:    6577822
LLC USEFUL LOAD PREFETCHES:     365760 PREFETCH ISSUED TO LOWER LEVEL:    7028782  ACCURACY: 5.20375
LLC TIMELY PREFETCHES:     365760 LATE PREFETCHES: 0 DROPPED PREFETCHES: 0
LLC PREFETCHES SAME FILL-ORIGIN LEVEL: 0 DIFFERENT FILL-ORIGIN LEVEL: 0
LLC AVERAGE MISS LATENCY: 3115.94 cycles
LLC RQ	ACCESS:    3903392	FORWARD:          0	MERGED:          0	TO_CACHE:    3903392
LLC WQ	ACCESS:    4974189	FORWARD:          2	MERGED:          0	TO_CACHE:    4974189
LLC PQ	ACCESS:    7852721	FORWARD:          0	MERGED:          0	TO_CACHE:    7852719

LLC Dense regions hint to LLC: 0

RAW hits: 2963478
Loads Generated: 51137970
Loads sent to L1D: 48174488
Stores Generated: 42918900
Stores sent to L1D: 42918897
Major fault: 0 Minor fault: 20715
Allocated PAGES: 90139

DRAM Statistics
 CHANNEL 0
 RQ ROW_BUFFER_HIT:    2216744  ROW_BUFFER_MISS:    7873470
 DBUS_CONGESTED:          1
 WQ ROW_BUFFER_HIT:     413634  ROW_BUFFER_MISS:    4211268  FULL:        229

 AVG_CONGESTED_CYCLE: 2
 All warmup complete: 5
Channel 0 Bank busy for read cycles: 0
Channel 0 Bank busy for write cycles: 0
Channel 0
Rank 0
0banks busy for read cycles: 9597
0banks busy for write cycles: 0
1banks busy for read cycles: 1579265
1banks busy for write cycles: 474830
2banks busy for read cycles: 3117607
2banks busy for write cycles: 474826
3banks busy for read cycles: 5075670
3banks busy for write cycles: 474824
4banks busy for read cycles: 7632398
4banks busy for write cycles: 474895
5banks busy for read cycles: 11250858
5banks busy for write cycles: 482837
6banks busy for read cycles: 17267202
6banks busy for write cycles: 849478
7banks busy for read cycles: 35099109
7banks busy for write cycles: 11614721
8banks busy for read cycles: 125333689
8banks busy for write cycles: 107984170

CPU 0 Branch Prediction Accuracy: 97.5831% MPKI: 7.03623 Average ROB Occupancy at Mispredict: 78.88
Branch types
NOT_BRANCH: 191869063 69.7286%
BRANCH_DIRECT_JUMP: 11164788 4.05748%
BRANCH_INDIRECT: 0 0%
BRANCH_CONDITIONAL: 69792014 25.3636%
BRANCH_DIRECT_CALL: 1169955 0.425182%
BRANCH_INDIRECT_CALL: 0 0%
BRANCH_RETURN: 1169955 0.425182%
BRANCH_OTHER: 0 0%


CPU 1 Branch Prediction Accuracy: 99.6744% MPKI: 1.02272 Average ROB Occupancy at Mispredict: 27.6894
Branch types
NOT_BRANCH: 254439996 68.0703%
BRANCH_DIRECT_JUMP: 0 0%
BRANCH_INDIRECT: 0 0%
BRANCH_CONDITIONAL: 119350232 31.9297%
BRANCH_DIRECT_CALL: 0 0%
BRANCH_INDIRECT_CALL: 0 0%
BRANCH_RETURN: 0 0%
BRANCH_OTHER: 0 0%


CPU 2 Branch Prediction Accuracy: 99.7722% MPKI: 0.08495 Average ROB Occupancy at Mispredict: 251.402
Branch types
NOT_BRANCH: 192541524 96.2708%
BRANCH_DIRECT_JUMP: 1193 0.0005965%
BRANCH_INDIRECT: 0 0%
BRANCH_CONDITIONAL: 7457362 3.72868%
BRANCH_DIRECT_CALL: 137 6.85e-05%
BRANCH_INDIRECT_CALL: 0 0%
BRANCH_RETURN: 137 6.85e-05%
BRANCH_OTHER: 0 0%


CPU 3 Branch Prediction Accuracy: 99.0448% MPKI: 0.927657 Average ROB Occupancy at Mispredict: 115.148
Branch types
NOT_BRANCH: 219831740 89.8397%
BRANCH_DIRECT_JUMP: 3513 0.00143567%
BRANCH_INDIRECT: 0 0%
BRANCH_CONDITIONAL: 24853043 10.1568%
BRANCH_DIRECT_CALL: 2745 0.00112181%
BRANCH_INDIRECT_CALL: 0 0%
BRANCH_RETURN: 2748 0.00112304%
BRANCH_OTHER: 0 0%

DRAM PAGES: 1048576
Allocated PAGES: 90139
