
*** ChampSim Multicore Out-of-Order Simulator ***

Warmup Instructions: 50000000
Simulation Instructions: 200000000
Number of CPUs: 4
LLC sets: 8192
LLC ways: 16
Off-chip DRAM Size: 4096 MB Channels: 1 Width: 64-bit Data Rate: 6400 MT/s
CPU 0 runs ./traces/ligra/ligra_Triangle.com-lj.ungraph.gcc_6.3.0_O3.drop_6000M.length_250M.champsimtrace.xz
.xz
CPU 1 runs ./traces/spec/437.leslie3d-265B.champsimtrace.xz
.xz
CPU 2 runs ./traces/spec/654.roms_s-1390B.champsimtrace.xz
.xz
CPU 3 runs ./traces/ligra/ligra_Components.com-lj.ungraph.gcc_6.3.0_O3.drop_22750M.length_250M.champsimtrace.xz
.xz
BTB has LRU replacement policy
ITLB has LRU replacement policy
DTLB has LRU replacement policy
STLB has LRU replacement policy
L1I has LRU replacement policy
History Sets: 8
History Ways: 16
BERTI Size: 16
BERTI Stride Size: 8
L1D has LRU replacement policy
Initialize SRRIP state for L2C
Initialize DRRIP state for LLC
BTB has LRU replacement policy
ITLB has LRU replacement policy
DTLB has LRU replacement policy
STLB has LRU replacement policy
L1I has LRU replacement policy
History Sets: 8
History Ways: 16
BERTI Size: 16
BERTI Stride Size: 8
L1D has LRU replacement policy
Initialize SRRIP state for L2C
Initialize DRRIP state for LLC
BTB has LRU replacement policy
ITLB has LRU replacement policy
DTLB has LRU replacement policy
STLB has LRU replacement policy
L1I has LRU replacement policy
History Sets: 8
History Ways: 16
BERTI Size: 16
BERTI Stride Size: 8
L1D has LRU replacement policy
Initialize SRRIP state for L2C
Initialize DRRIP state for LLC
BTB has LRU replacement policy
ITLB has LRU replacement policy
DTLB has LRU replacement policy
STLB has LRU replacement policy
L1I has LRU replacement policy
History Sets: 8
History Ways: 16
BERTI Size: 16
BERTI Stride Size: 8
L1D has LRU replacement policy
Initialize SRRIP state for L2C
Initialize DRRIP state for LLC
Heartbeat CPU 3 instructions: 10000003 cycles: 2984783 heartbeat IPC: 3.35033 cumulative IPC: 3.35033 (Simulation time: 0 hr 4 min 20 sec) 
Heartbeat CPU 1 instructions: 10000002 cycles: 3214252 heartbeat IPC: 3.11114 cumulative IPC: 3.11114 (Simulation time: 0 hr 4 min 39 sec) 
Heartbeat CPU 2 instructions: 10000001 cycles: 3757144 heartbeat IPC: 2.6616 cumulative IPC: 2.6616 (Simulation time: 0 hr 5 min 24 sec) 
Heartbeat CPU 0 instructions: 10000001 cycles: 3836024 heartbeat IPC: 2.60687 cumulative IPC: 2.60687 (Simulation time: 0 hr 5 min 32 sec) 
Heartbeat CPU 3 instructions: 20000003 cycles: 5974761 heartbeat IPC: 3.34451 cumulative IPC: 3.34741 (Simulation time: 0 hr 8 min 16 sec) 
Heartbeat CPU 1 instructions: 20000002 cycles: 6426085 heartbeat IPC: 3.11349 cumulative IPC: 3.11232 (Simulation time: 0 hr 8 min 50 sec) 
Heartbeat CPU 2 instructions: 20000000 cycles: 7250387 heartbeat IPC: 2.86267 cumulative IPC: 2.75847 (Simulation time: 0 hr 9 min 57 sec) 
Heartbeat CPU 0 instructions: 20000001 cycles: 7671997 heartbeat IPC: 2.6069 cumulative IPC: 2.60688 (Simulation time: 0 hr 10 min 29 sec) 
Heartbeat CPU 3 instructions: 30000002 cycles: 8955751 heartbeat IPC: 3.35459 cumulative IPC: 3.3498 (Simulation time: 0 hr 12 min 11 sec) 
Heartbeat CPU 1 instructions: 30000000 cycles: 9639023 heartbeat IPC: 3.11242 cumulative IPC: 3.11235 (Simulation time: 0 hr 13 min 2 sec) 
Heartbeat CPU 2 instructions: 30000003 cycles: 10667117 heartbeat IPC: 2.92678 cumulative IPC: 2.81238 (Simulation time: 0 hr 14 min 24 sec) 
Heartbeat CPU 0 instructions: 30000002 cycles: 11507934 heartbeat IPC: 2.60693 cumulative IPC: 2.6069 (Simulation time: 0 hr 15 min 35 sec) 
Heartbeat CPU 3 instructions: 40000000 cycles: 11930899 heartbeat IPC: 3.36118 cumulative IPC: 3.35264 (Simulation time: 0 hr 16 min 13 sec) 
Heartbeat CPU 1 instructions: 40000001 cycles: 12851069 heartbeat IPC: 3.11328 cumulative IPC: 3.11258 (Simulation time: 0 hr 17 min 26 sec) 
Heartbeat CPU 2 instructions: 40000002 cycles: 14439153 heartbeat IPC: 2.65109 cumulative IPC: 2.77025 (Simulation time: 0 hr 19 min 45 sec) 
Heartbeat CPU 3 instructions: 50000000 cycles: 14900046 heartbeat IPC: 3.36797 cumulative IPC: 3.35569 (Simulation time: 0 hr 20 min 20 sec) 
Heartbeat CPU 0 instructions: 40000000 cycles: 15343949 heartbeat IPC: 2.60687 cumulative IPC: 2.60689 (Simulation time: 0 hr 20 min 50 sec) 
Heartbeat CPU 1 instructions: 50000002 cycles: 16065286 heartbeat IPC: 3.11118 cumulative IPC: 3.1123 (Simulation time: 0 hr 21 min 44 sec) 
Heartbeat CPU 3 instructions: 60000001 cycles: 18745074 heartbeat IPC: 2.60076 cumulative IPC: 0.533474 (Simulation time: 0 hr 25 min 2 sec) 
Heartbeat CPU 2 instructions: 50000000 cycles: 18784561 heartbeat IPC: 2.30128 cumulative IPC: 2.66176 (Simulation time: 0 hr 25 min 4 sec) 
Heartbeat CPU 0 instructions: 50000002 cycles: 19179891 heartbeat IPC: 2.60692 cumulative IPC: 2.6069 (Simulation time: 0 hr 25 min 31 sec) 

Warmup complete CPU 0 instructions: 50000002 cycles: 19179891 (Simulation time: 0 hr 25 min 31 sec) 
Warmup complete CPU 1 instructions: 59675170 cycles: 19179890 (Simulation time: 0 hr 25 min 31 sec) 
Warmup complete CPU 2 instructions: 51193742 cycles: 19179890 (Simulation time: 0 hr 25 min 31 sec) 
Warmup complete CPU 3 instructions: 61118476 cycles: 19179890 (Simulation time: 0 hr 25 min 31 sec) 

Heartbeat CPU 1 instructions: 60000001 cycles: 19418014 heartbeat IPC: 2.98265 cumulative IPC: 1.36413 (Simulation time: 0 hr 25 min 37 sec) 
Heartbeat CPU 1 instructions: 70000000 cycles: 26235710 heartbeat IPC: 1.46677 cumulative IPC: 1.46331 (Simulation time: 0 hr 28 min 48 sec) 
Heartbeat CPU 2 instructions: 60000001 cycles: 26284009 heartbeat IPC: 1.33343 cumulative IPC: 1.2396 (Simulation time: 0 hr 28 min 49 sec) 
Heartbeat CPU 0 instructions: 60000001 cycles: 27425656 heartbeat IPC: 1.21274 cumulative IPC: 1.21274 (Simulation time: 0 hr 29 min 21 sec) 
Heartbeat CPU 1 instructions: 80000002 cycles: 32925102 heartbeat IPC: 1.4949 cumulative IPC: 1.47868 (Simulation time: 0 hr 31 min 57 sec) 
Heartbeat CPU 2 instructions: 70000003 cycles: 33956004 heartbeat IPC: 1.30344 cumulative IPC: 1.27275 (Simulation time: 0 hr 32 min 28 sec) 
Heartbeat CPU 0 instructions: 70000002 cycles: 35551752 heartbeat IPC: 1.2306 cumulative IPC: 1.22161 (Simulation time: 0 hr 33 min 15 sec) 
Heartbeat CPU 1 instructions: 90000003 cycles: 39638538 heartbeat IPC: 1.48955 cumulative IPC: 1.48225 (Simulation time: 0 hr 35 min 9 sec) 
Heartbeat CPU 2 instructions: 80000002 cycles: 41804205 heartbeat IPC: 1.27418 cumulative IPC: 1.27324 (Simulation time: 0 hr 36 min 9 sec) 
Heartbeat CPU 0 instructions: 80000002 cycles: 43703743 heartbeat IPC: 1.22669 cumulative IPC: 1.2233 (Simulation time: 0 hr 37 min 5 sec) 
Heartbeat CPU 1 instructions: 100000000 cycles: 46725016 heartbeat IPC: 1.41114 cumulative IPC: 1.46396 (Simulation time: 0 hr 38 min 25 sec) 
Heartbeat CPU 0 instructions: 90000000 cycles: 52439156 heartbeat IPC: 1.14477 cumulative IPC: 1.20267 (Simulation time: 0 hr 40 min 44 sec) 
Heartbeat CPU 2 instructions: 90000002 cycles: 53963133 heartbeat IPC: 0.822441 cumulative IPC: 1.11566 (Simulation time: 0 hr 41 min 25 sec) 
Heartbeat CPU 1 instructions: 110000000 cycles: 54361700 heartbeat IPC: 1.30947 cumulative IPC: 1.43042 (Simulation time: 0 hr 41 min 37 sec) 
Heartbeat CPU 0 instructions: 100000001 cycles: 60748543 heartbeat IPC: 1.20346 cumulative IPC: 1.20283 (Simulation time: 0 hr 44 min 23 sec) 
Heartbeat CPU 1 instructions: 120000003 cycles: 61406738 heartbeat IPC: 1.41944 cumulative IPC: 1.42859 (Simulation time: 0 hr 44 min 37 sec) 
Heartbeat CPU 2 instructions: 100000000 cycles: 67532487 heartbeat IPC: 0.736955 cumulative IPC: 1.00938 (Simulation time: 0 hr 47 min 13 sec) 
Heartbeat CPU 1 instructions: 130000001 cycles: 68652966 heartbeat IPC: 1.38003 cumulative IPC: 1.42148 (Simulation time: 0 hr 47 min 45 sec) 
Heartbeat CPU 0 instructions: 110000000 cycles: 69272771 heartbeat IPC: 1.17313 cumulative IPC: 1.19778 (Simulation time: 0 hr 48 min 1 sec) 
Heartbeat CPU 1 instructions: 140000003 cycles: 75972753 heartbeat IPC: 1.36616 cumulative IPC: 1.41435 (Simulation time: 0 hr 50 min 40 sec) 
Heartbeat CPU 0 instructions: 120000002 cycles: 77573462 heartbeat IPC: 1.20472 cumulative IPC: 1.19876 (Simulation time: 0 hr 51 min 15 sec) 
Heartbeat CPU 1 instructions: 150000003 cycles: 83106152 heartbeat IPC: 1.40186 cumulative IPC: 1.41295 (Simulation time: 0 hr 53 min 16 sec) 
Heartbeat CPU 0 instructions: 130000000 cycles: 85782818 heartbeat IPC: 1.21812 cumulative IPC: 1.20115 (Simulation time: 0 hr 54 min 18 sec) 
Heartbeat CPU 2 instructions: 110000000 cycles: 85852412 heartbeat IPC: 0.545854 cumulative IPC: 0.882016 (Simulation time: 0 hr 54 min 20 sec) 
Heartbeat CPU 1 instructions: 160000002 cycles: 89980962 heartbeat IPC: 1.45459 cumulative IPC: 1.417 (Simulation time: 0 hr 55 min 57 sec) 
Heartbeat CPU 3 instructions: 70000003 cycles: 90105718 heartbeat IPC: 0.140133 cumulative IPC: 0.125223 (Simulation time: 0 hr 56 min 0 sec) 
Heartbeat CPU 0 instructions: 140000002 cycles: 93838530 heartbeat IPC: 1.24136 cumulative IPC: 1.20549 (Simulation time: 0 hr 57 min 28 sec) 
Heartbeat CPU 1 instructions: 170000002 cycles: 96807596 heartbeat IPC: 1.46485 cumulative IPC: 1.4212 (Simulation time: 0 hr 58 min 33 sec) 
Heartbeat CPU 0 instructions: 150000001 cycles: 101945134 heartbeat IPC: 1.23356 cumulative IPC: 1.20824 (Simulation time: 1 hr 0 min 22 sec) 
Heartbeat CPU 2 instructions: 120000002 cycles: 102445242 heartbeat IPC: 0.60267 cumulative IPC: 0.826349 (Simulation time: 1 hr 0 min 33 sec) 
Heartbeat CPU 1 instructions: 180000002 cycles: 103799805 heartbeat IPC: 1.43016 cumulative IPC: 1.42194 (Simulation time: 1 hr 1 min 6 sec) 
Heartbeat CPU 0 instructions: 160000002 cycles: 110161846 heartbeat IPC: 1.21703 cumulative IPC: 1.20903 (Simulation time: 1 hr 3 min 36 sec) 
Heartbeat CPU 1 instructions: 190000001 cycles: 110808187 heartbeat IPC: 1.42686 cumulative IPC: 1.42232 (Simulation time: 1 hr 3 min 51 sec) 
Heartbeat CPU 1 instructions: 200000002 cycles: 118328135 heartbeat IPC: 1.3298 cumulative IPC: 1.4153 (Simulation time: 1 hr 6 min 31 sec) 
Heartbeat CPU 0 instructions: 170000000 cycles: 118363188 heartbeat IPC: 1.21931 cumulative IPC: 1.20988 (Simulation time: 1 hr 6 min 32 sec) 
Heartbeat CPU 2 instructions: 130000000 cycles: 120523895 heartbeat IPC: 0.553138 cumulative IPC: 0.777611 (Simulation time: 1 hr 7 min 17 sec) 
Heartbeat CPU 0 instructions: 180000000 cycles: 126815372 heartbeat IPC: 1.18313 cumulative IPC: 1.20778 (Simulation time: 1 hr 9 min 17 sec) 
Heartbeat CPU 1 instructions: 210000003 cycles: 127052469 heartbeat IPC: 1.14622 cumulative IPC: 1.39354 (Simulation time: 1 hr 9 min 21 sec) 
Heartbeat CPU 0 instructions: 190000001 cycles: 135422141 heartbeat IPC: 1.16188 cumulative IPC: 1.20438 (Simulation time: 1 hr 11 min 51 sec) 
Heartbeat CPU 1 instructions: 220000000 cycles: 136828045 heartbeat IPC: 1.02296 cumulative IPC: 1.36275 (Simulation time: 1 hr 12 min 20 sec) 
Heartbeat CPU 0 instructions: 200000002 cycles: 144267627 heartbeat IPC: 1.13052 cumulative IPC: 1.19916 (Simulation time: 1 hr 15 min 24 sec) 
Heartbeat CPU 1 instructions: 230000000 cycles: 144360927 heartbeat IPC: 1.32751 cumulative IPC: 1.36063 (Simulation time: 1 hr 15 min 27 sec) 
Heartbeat CPU 2 instructions: 140000000 cycles: 148857933 heartbeat IPC: 0.352932 cumulative IPC: 0.684821 (Simulation time: 1 hr 17 min 8 sec) 
Heartbeat CPU 1 instructions: 240000001 cycles: 151418633 heartbeat IPC: 1.41689 cumulative IPC: 1.36363 (Simulation time: 1 hr 18 min 10 sec) 
Heartbeat CPU 0 instructions: 210000002 cycles: 153627452 heartbeat IPC: 1.0684 cumulative IPC: 1.19006 (Simulation time: 1 hr 18 min 52 sec) 
Heartbeat CPU 1 instructions: 250000001 cycles: 158469951 heartbeat IPC: 1.41817 cumulative IPC: 1.36639 (Simulation time: 1 hr 20 min 5 sec) 
Finished CPU 1 instructions: 200000003 cycles: 146615711 cumulative IPC: 1.36411 (Simulation time: 1 hr 21 min 53 sec) 
Heartbeat CPU 1 instructions: 260000000 cycles: 166083706 heartbeat IPC: 1.31341 cumulative IPC: 1.36365 (Simulation time: 1 hr 21 min 57 sec) 
Heartbeat CPU 1 instructions: 270000002 cycles: 175714699 heartbeat IPC: 1.03831 cumulative IPC: 1.34363 (Simulation time: 1 hr 24 min 18 sec) 
Heartbeat CPU 2 instructions: 150000000 cycles: 175811303 heartbeat IPC: 0.371011 cumulative IPC: 0.63082 (Simulation time: 1 hr 24 min 19 sec) 
Heartbeat CPU 1 instructions: 280000002 cycles: 185059882 heartbeat IPC: 1.07007 cumulative IPC: 1.32822 (Simulation time: 1 hr 26 min 52 sec) 
Heartbeat CPU 3 instructions: 80000001 cycles: 191706431 heartbeat IPC: 0.0984245 cumulative IPC: 0.109441 (Simulation time: 1 hr 28 min 54 sec) 
Heartbeat CPU 2 instructions: 160000002 cycles: 192910133 heartbeat IPC: 0.584835 cumulative IPC: 0.626294 (Simulation time: 1 hr 29 min 12 sec) 
Heartbeat CPU 1 instructions: 290000000 cycles: 194459626 heartbeat IPC: 1.06386 cumulative IPC: 1.31404 (Simulation time: 1 hr 29 min 36 sec) 
Heartbeat CPU 0 instructions: 220000000 cycles: 201866035 heartbeat IPC: 0.207303 cumulative IPC: 0.930558 (Simulation time: 1 hr 31 min 41 sec) 
Heartbeat CPU 1 instructions: 300000001 cycles: 203796423 heartbeat IPC: 1.07103 cumulative IPC: 1.30175 (Simulation time: 1 hr 32 min 11 sec) 
Heartbeat CPU 2 instructions: 170000000 cycles: 208988873 heartbeat IPC: 0.621939 cumulative IPC: 0.625925 (Simulation time: 1 hr 33 min 32 sec) 
Heartbeat CPU 1 instructions: 310000002 cycles: 212845037 heartbeat IPC: 1.10514 cumulative IPC: 1.29257 (Simulation time: 1 hr 34 min 39 sec) 
Heartbeat CPU 1 instructions: 320000000 cycles: 221865317 heartbeat IPC: 1.10861 cumulative IPC: 1.28438 (Simulation time: 1 hr 37 min 8 sec) 
Heartbeat CPU 2 instructions: 180000003 cycles: 226597913 heartbeat IPC: 0.56789 cumulative IPC: 0.620998 (Simulation time: 1 hr 38 min 24 sec) 
Heartbeat CPU 1 instructions: 330000000 cycles: 230996309 heartbeat IPC: 1.09517 cumulative IPC: 1.27622 (Simulation time: 1 hr 39 min 32 sec) 
Heartbeat CPU 1 instructions: 340000001 cycles: 239771506 heartbeat IPC: 1.13958 cumulative IPC: 1.27079 (Simulation time: 1 hr 41 min 39 sec) 
Heartbeat CPU 0 instructions: 230000001 cycles: 246665194 heartbeat IPC: 0.223219 cumulative IPC: 0.79126 (Simulation time: 1 hr 43 min 21 sec) 
Heartbeat CPU 2 instructions: 190000002 cycles: 246925852 heartbeat IPC: 0.491934 cumulative IPC: 0.609478 (Simulation time: 1 hr 43 min 25 sec) 
Heartbeat CPU 1 instructions: 350000003 cycles: 248445637 heartbeat IPC: 1.15285 cumulative IPC: 1.26632 (Simulation time: 1 hr 43 min 50 sec) 
Heartbeat CPU 1 instructions: 360000003 cycles: 257092209 heartbeat IPC: 1.15653 cumulative IPC: 1.26233 (Simulation time: 1 hr 45 min 50 sec) 
Heartbeat CPU 1 instructions: 370000002 cycles: 265919971 heartbeat IPC: 1.13279 cumulative IPC: 1.2577 (Simulation time: 1 hr 47 min 47 sec) 
Heartbeat CPU 1 instructions: 380000001 cycles: 275258133 heartbeat IPC: 1.07087 cumulative IPC: 1.25089 (Simulation time: 1 hr 49 min 48 sec) 
Heartbeat CPU 2 instructions: 200000003 cycles: 276046853 heartbeat IPC: 0.343395 cumulative IPC: 0.579313 (Simulation time: 1 hr 49 min 59 sec) 
Heartbeat CPU 1 instructions: 390000001 cycles: 284806428 heartbeat IPC: 1.04731 cumulative IPC: 1.24357 (Simulation time: 1 hr 52 min 37 sec) 
Heartbeat CPU 2 instructions: 210000002 cycles: 291543703 heartbeat IPC: 0.645292 cumulative IPC: 0.583067 (Simulation time: 1 hr 54 min 28 sec) 
Heartbeat CPU 0 instructions: 240000002 cycles: 291773213 heartbeat IPC: 0.22169 cumulative IPC: 0.697009 (Simulation time: 1 hr 54 min 32 sec) 
Heartbeat CPU 1 instructions: 400000002 cycles: 294145403 heartbeat IPC: 1.07078 cumulative IPC: 1.2377 (Simulation time: 1 hr 55 min 12 sec) 
Heartbeat CPU 1 instructions: 410000003 cycles: 303403216 heartbeat IPC: 1.08017 cumulative IPC: 1.23257 (Simulation time: 1 hr 57 min 30 sec) 
Heartbeat CPU 1 instructions: 420000001 cycles: 311611301 heartbeat IPC: 1.21831 cumulative IPC: 1.23217 (Simulation time: 1 hr 59 min 30 sec) 
Heartbeat CPU 2 instructions: 220000000 cycles: 318217085 heartbeat IPC: 0.374906 cumulative IPC: 0.564499 (Simulation time: 2 hr 1 min 0 sec) 
Heartbeat CPU 1 instructions: 430000000 cycles: 320028158 heartbeat IPC: 1.18809 cumulative IPC: 1.23094 (Simulation time: 2 hr 1 min 26 sec) 
Heartbeat CPU 1 instructions: 440000000 cycles: 328450363 heartbeat IPC: 1.18734 cumulative IPC: 1.22975 (Simulation time: 2 hr 3 min 16 sec) 
Heartbeat CPU 1 instructions: 450000001 cycles: 337275750 heartbeat IPC: 1.13309 cumulative IPC: 1.22707 (Simulation time: 2 hr 5 min 17 sec) 
*** Reached end of trace for Core: 0 Repeating trace: ./traces/ligra/ligra_Triangle.com-lj.ungraph.gcc_6.3.0_O3.drop_6000M.length_250M.champsimtrace.xz
Heartbeat CPU 0 instructions: 250000002 cycles: 341951868 heartbeat IPC: 0.199288 cumulative IPC: 0.619632 (Simulation time: 2 hr 6 min 21 sec) 
Finished CPU 0 instructions: 200000000 cycles: 322771977 cumulative IPC: 0.619632 (Simulation time: 2 hr 6 min 21 sec) 
Heartbeat CPU 1 instructions: 460000003 cycles: 346104410 heartbeat IPC: 1.13267 cumulative IPC: 1.22452 (Simulation time: 2 hr 7 min 38 sec) 
Heartbeat CPU 2 instructions: 230000002 cycles: 349081863 heartbeat IPC: 0.323994 cumulative IPC: 0.541998 (Simulation time: 2 hr 8 min 36 sec) 
Heartbeat CPU 0 instructions: 260000001 cycles: 350398421 heartbeat IPC: 1.18391 cumulative IPC: 0.634022 (Simulation time: 2 hr 9 min 1 sec) 
Heartbeat CPU 3 instructions: 90000002 cycles: 355126873 heartbeat IPC: 0.0611919 cumulative IPC: 0.0859705 (Simulation time: 2 hr 10 min 32 sec) 
Heartbeat CPU 1 instructions: 470000002 cycles: 355215479 heartbeat IPC: 1.09757 cumulative IPC: 1.22108 (Simulation time: 2 hr 10 min 34 sec) 
Heartbeat CPU 0 instructions: 270000001 cycles: 358815684 heartbeat IPC: 1.18803 cumulative IPC: 0.647753 (Simulation time: 2 hr 11 min 36 sec) 
Heartbeat CPU 1 instructions: 480000000 cycles: 365927398 heartbeat IPC: 0.933539 cumulative IPC: 1.21219 (Simulation time: 2 hr 14 min 9 sec) 
Heartbeat CPU 0 instructions: 280000000 cycles: 368363556 heartbeat IPC: 1.04735 cumulative IPC: 0.658679 (Simulation time: 2 hr 15 min 15 sec) 
Heartbeat CPU 2 instructions: 240000002 cycles: 372251692 heartbeat IPC: 0.431596 cumulative IPC: 0.534753 (Simulation time: 2 hr 16 min 53 sec) 
Heartbeat CPU 1 instructions: 490000001 cycles: 372580005 heartbeat IPC: 1.50317 cumulative IPC: 1.21767 (Simulation time: 2 hr 17 min 1 sec) 
Heartbeat CPU 0 instructions: 290000000 cycles: 377720255 heartbeat IPC: 1.06875 cumulative IPC: 0.669381 (Simulation time: 2 hr 19 min 8 sec) 
Heartbeat CPU 1 instructions: 500000002 cycles: 379154444 heartbeat IPC: 1.52104 cumulative IPC: 1.22321 (Simulation time: 2 hr 19 min 44 sec) 
Heartbeat CPU 1 instructions: 510000001 cycles: 385737541 heartbeat IPC: 1.51904 cumulative IPC: 1.22852 (Simulation time: 2 hr 22 min 27 sec) 
Heartbeat CPU 0 instructions: 300000001 cycles: 387084325 heartbeat IPC: 1.06791 cumulative IPC: 0.679524 (Simulation time: 2 hr 22 min 51 sec) 
Heartbeat CPU 2 instructions: 250000003 cycles: 389021229 heartbeat IPC: 0.596319 cumulative IPC: 0.537545 (Simulation time: 2 hr 23 min 31 sec) 
Finished CPU 2 instructions: 200000000 cycles: 371441546 cumulative IPC: 0.538443 (Simulation time: 2 hr 24 min 7 sec) 
Heartbeat CPU 0 instructions: 310000001 cycles: 395270703 heartbeat IPC: 1.22154 cumulative IPC: 0.691322 (Simulation time: 2 hr 25 min 48 sec) 
Heartbeat CPU 1 instructions: 520000002 cycles: 396994801 heartbeat IPC: 0.888316 cumulative IPC: 1.21839 (Simulation time: 2 hr 26 min 30 sec) 
Heartbeat CPU 2 instructions: 260000002 cycles: 402962066 heartbeat IPC: 0.717317 cumulative IPC: 0.544075 (Simulation time: 2 hr 28 min 38 sec) 
Heartbeat CPU 0 instructions: 320000000 cycles: 403266622 heartbeat IPC: 1.25064 cumulative IPC: 0.702966 (Simulation time: 2 hr 28 min 45 sec) 
Heartbeat CPU 1 instructions: 530000000 cycles: 405761499 heartbeat IPC: 1.14068 cumulative IPC: 1.21662 (Simulation time: 2 hr 29 min 41 sec) 
Heartbeat CPU 2 instructions: 270000001 cycles: 410985425 heartbeat IPC: 1.24636 cumulative IPC: 0.558456 (Simulation time: 2 hr 31 min 48 sec) 
Heartbeat CPU 0 instructions: 330000000 cycles: 411093228 heartbeat IPC: 1.27769 cumulative IPC: 0.714444 (Simulation time: 2 hr 31 min 51 sec) 
Heartbeat CPU 1 instructions: 540000003 cycles: 413619313 heartbeat IPC: 1.27262 cumulative IPC: 1.21774 (Simulation time: 2 hr 32 min 53 sec) 
Heartbeat CPU 2 instructions: 280000002 cycles: 418680450 heartbeat IPC: 1.29954 cumulative IPC: 0.572731 (Simulation time: 2 hr 34 min 58 sec) 
Heartbeat CPU 0 instructions: 340000001 cycles: 418870571 heartbeat IPC: 1.28579 cumulative IPC: 0.725561 (Simulation time: 2 hr 35 min 3 sec) 
Heartbeat CPU 1 instructions: 550000000 cycles: 421444768 heartbeat IPC: 1.27788 cumulative IPC: 1.21891 (Simulation time: 2 hr 36 min 3 sec) 
Heartbeat CPU 0 instructions: 350000001 cycles: 426667721 heartbeat IPC: 1.28252 cumulative IPC: 0.736218 (Simulation time: 2 hr 38 min 12 sec) 
Heartbeat CPU 2 instructions: 290000002 cycles: 427123588 heartbeat IPC: 1.18439 cumulative IPC: 0.58539 (Simulation time: 2 hr 38 min 22 sec) 
Heartbeat CPU 1 instructions: 560000002 cycles: 431174783 heartbeat IPC: 1.02775 cumulative IPC: 1.2144 (Simulation time: 2 hr 39 min 46 sec) 
Heartbeat CPU 0 instructions: 360000000 cycles: 435108322 heartbeat IPC: 1.18475 cumulative IPC: 0.74532 (Simulation time: 2 hr 41 min 6 sec) 
Heartbeat CPU 1 instructions: 570000002 cycles: 440865201 heartbeat IPC: 1.03195 cumulative IPC: 1.2102 (Simulation time: 2 hr 43 min 12 sec) 
Heartbeat CPU 2 instructions: 300000003 cycles: 441507441 heartbeat IPC: 0.695224 cumulative IPC: 0.589131 (Simulation time: 2 hr 43 min 26 sec) 
Heartbeat CPU 0 instructions: 370000000 cycles: 442910389 heartbeat IPC: 1.28171 cumulative IPC: 0.755197 (Simulation time: 2 hr 43 min 55 sec) 
Heartbeat CPU 1 instructions: 580000001 cycles: 450580665 heartbeat IPC: 1.02929 cumulative IPC: 1.20613 (Simulation time: 2 hr 46 min 32 sec) 
Heartbeat CPU 0 instructions: 380000001 cycles: 451018115 heartbeat IPC: 1.23339 cumulative IPC: 0.764175 (Simulation time: 2 hr 46 min 42 sec) 
Heartbeat CPU 2 instructions: 310000003 cycles: 454349494 heartbeat IPC: 0.778692 cumulative IPC: 0.594725 (Simulation time: 2 hr 47 min 59 sec) 
Heartbeat CPU 0 instructions: 390000001 cycles: 458796192 heartbeat IPC: 1.28566 cumulative IPC: 0.773402 (Simulation time: 2 hr 49 min 39 sec) 
Heartbeat CPU 1 instructions: 590000000 cycles: 459281202 heartbeat IPC: 1.14935 cumulative IPC: 1.20501 (Simulation time: 2 hr 49 min 50 sec) 
Heartbeat CPU 0 instructions: 400000001 cycles: 466599418 heartbeat IPC: 1.28152 cumulative IPC: 0.782264 (Simulation time: 2 hr 52 min 16 sec) 
Heartbeat CPU 1 instructions: 600000001 cycles: 467572156 heartbeat IPC: 1.20613 cumulative IPC: 1.20503 (Simulation time: 2 hr 52 min 35 sec) 
Heartbeat CPU 3 instructions: 100000001 cycles: 468050952 heartbeat IPC: 0.0885551 cumulative IPC: 0.0866207 (Simulation time: 2 hr 52 min 45 sec) 
Heartbeat CPU 2 instructions: 320000002 cycles: 472912804 heartbeat IPC: 0.538697 cumulative IPC: 0.592433 (Simulation time: 2 hr 54 min 32 sec) 
Heartbeat CPU 0 instructions: 410000000 cycles: 474296061 heartbeat IPC: 1.29927 cumulative IPC: 0.791007 (Simulation time: 2 hr 55 min 0 sec) 
Heartbeat CPU 1 instructions: 610000002 cycles: 475066398 heartbeat IPC: 1.33436 cumulative IPC: 1.20715 (Simulation time: 2 hr 55 min 17 sec) 
Heartbeat CPU 0 instructions: 420000001 cycles: 481993579 heartbeat IPC: 1.29912 cumulative IPC: 0.799458 (Simulation time: 2 hr 57 min 42 sec) 
Heartbeat CPU 1 instructions: 620000002 cycles: 482835765 heartbeat IPC: 1.28711 cumulative IPC: 1.20849 (Simulation time: 2 hr 58 min 1 sec) 
Heartbeat CPU 2 instructions: 330000000 cycles: 487453274 heartbeat IPC: 0.687736 cumulative IPC: 0.595392 (Simulation time: 2 hr 59 min 46 sec) 
Heartbeat CPU 0 instructions: 430000001 cycles: 489742462 heartbeat IPC: 1.29051 cumulative IPC: 0.807544 (Simulation time: 3 hr 0 min 33 sec) 
Heartbeat CPU 1 instructions: 630000001 cycles: 490946857 heartbeat IPC: 1.23288 cumulative IPC: 1.20891 (Simulation time: 3 hr 0 min 57 sec) 
Heartbeat CPU 0 instructions: 440000000 cycles: 497431254 heartbeat IPC: 1.30059 cumulative IPC: 0.815471 (Simulation time: 3 hr 3 min 21 sec) 
Heartbeat CPU 1 instructions: 640000003 cycles: 498594878 heartbeat IPC: 1.30753 cumulative IPC: 1.21049 (Simulation time: 3 hr 3 min 48 sec) 
Heartbeat CPU 0 instructions: 450000000 cycles: 505184438 heartbeat IPC: 1.28979 cumulative IPC: 0.823038 (Simulation time: 3 hr 6 min 1 sec) 
Heartbeat CPU 1 instructions: 650000003 cycles: 507334622 heartbeat IPC: 1.1442 cumulative IPC: 1.2093 (Simulation time: 3 hr 6 min 46 sec) 
Heartbeat CPU 2 instructions: 340000003 cycles: 508330081 heartbeat IPC: 0.479001 cumulative IPC: 0.590425 (Simulation time: 3 hr 7 min 8 sec) 
Heartbeat CPU 0 instructions: 460000001 cycles: 513799798 heartbeat IPC: 1.16072 cumulative IPC: 0.828919 (Simulation time: 3 hr 9 min 9 sec) 
Heartbeat CPU 1 instructions: 660000000 cycles: 517965778 heartbeat IPC: 0.940631 cumulative IPC: 1.20357 (Simulation time: 3 hr 10 min 16 sec) 
Heartbeat CPU 1 instructions: 670000002 cycles: 532856210 heartbeat IPC: 0.671572 cumulative IPC: 1.18815 (Simulation time: 3 hr 13 min 21 sec) 
Heartbeat CPU 2 instructions: 350000000 cycles: 533306533 heartbeat IPC: 0.400377 cumulative IPC: 0.581192 (Simulation time: 3 hr 13 min 25 sec) 
Heartbeat CPU 1 instructions: 680000000 cycles: 549702413 heartbeat IPC: 0.593605 cumulative IPC: 1.16927 (Simulation time: 3 hr 16 min 27 sec) 
Heartbeat CPU 2 instructions: 360000001 cycles: 558990940 heartbeat IPC: 0.389341 cumulative IPC: 0.572064 (Simulation time: 3 hr 18 min 32 sec) 
Heartbeat CPU 0 instructions: 470000001 cycles: 565306728 heartbeat IPC: 0.194149 cumulative IPC: 0.769052 (Simulation time: 3 hr 19 min 55 sec) 
Heartbeat CPU 1 instructions: 690000003 cycles: 567207523 heartbeat IPC: 0.571262 cumulative IPC: 1.15017 (Simulation time: 3 hr 20 min 22 sec) 
Heartbeat CPU 2 instructions: 370000002 cycles: 579130227 heartbeat IPC: 0.496542 cumulative IPC: 0.569347 (Simulation time: 3 hr 23 min 7 sec) 
Heartbeat CPU 1 instructions: 700000000 cycles: 584191894 heartbeat IPC: 0.588776 cumulative IPC: 1.13329 (Simulation time: 3 hr 24 min 18 sec) 
Heartbeat CPU 3 instructions: 110000000 cycles: 593554012 heartbeat IPC: 0.0796793 cumulative IPC: 0.085104 (Simulation time: 3 hr 26 min 25 sec) 
Heartbeat CPU 2 instructions: 380000002 cycles: 596913038 heartbeat IPC: 0.562341 cumulative IPC: 0.569132 (Simulation time: 3 hr 27 min 5 sec) 
Heartbeat CPU 1 instructions: 710000003 cycles: 601111884 heartbeat IPC: 0.591017 cumulative IPC: 1.11753 (Simulation time: 3 hr 27 min 58 sec) 
Heartbeat CPU 1 instructions: 720000003 cycles: 615956307 heartbeat IPC: 0.673654 cumulative IPC: 1.10649 (Simulation time: 3 hr 30 min 54 sec) 
Heartbeat CPU 2 instructions: 390000001 cycles: 622192010 heartbeat IPC: 0.395586 cumulative IPC: 0.561856 (Simulation time: 3 hr 32 min 12 sec) 
Heartbeat CPU 0 instructions: 480000002 cycles: 623363603 heartbeat IPC: 0.172245 cumulative IPC: 0.711704 (Simulation time: 3 hr 32 min 25 sec) 
Heartbeat CPU 1 instructions: 730000001 cycles: 627319940 heartbeat IPC: 0.88 cumulative IPC: 1.10225 (Simulation time: 3 hr 33 min 13 sec) 
Heartbeat CPU 1 instructions: 740000002 cycles: 632870639 heartbeat IPC: 1.80158 cumulative IPC: 1.10858 (Simulation time: 3 hr 34 min 48 sec) 
Heartbeat CPU 1 instructions: 750000003 cycles: 638434887 heartbeat IPC: 1.79719 cumulative IPC: 1.11477 (Simulation time: 3 hr 36 min 22 sec) 
Heartbeat CPU 2 instructions: 400000000 cycles: 643008541 heartbeat IPC: 0.480387 cumulative IPC: 0.559138 (Simulation time: 3 hr 37 min 38 sec) 
Heartbeat CPU 1 instructions: 760000001 cycles: 643996675 heartbeat IPC: 1.79798 cumulative IPC: 1.12085 (Simulation time: 3 hr 37 min 54 sec) 
Heartbeat CPU 1 instructions: 770000000 cycles: 649548983 heartbeat IPC: 1.80105 cumulative IPC: 1.12684 (Simulation time: 3 hr 39 min 17 sec) 
Heartbeat CPU 1 instructions: 780000000 cycles: 655107236 heartbeat IPC: 1.79913 cumulative IPC: 1.13272 (Simulation time: 3 hr 40 min 38 sec) 
Heartbeat CPU 1 instructions: 790000001 cycles: 660674348 heartbeat IPC: 1.79626 cumulative IPC: 1.13847 (Simulation time: 3 hr 42 min 4 sec) 
Heartbeat CPU 1 instructions: 800000003 cycles: 667224944 heartbeat IPC: 1.52658 cumulative IPC: 1.1424 (Simulation time: 3 hr 43 min 31 sec) 
Heartbeat CPU 0 instructions: 490000001 cycles: 672476527 heartbeat IPC: 0.203612 cumulative IPC: 0.673507 (Simulation time: 3 hr 44 min 26 sec) 
Heartbeat CPU 2 instructions: 410000001 cycles: 678714177 heartbeat IPC: 0.280068 cumulative IPC: 0.54403 (Simulation time: 3 hr 45 min 39 sec) 
Heartbeat CPU 1 instructions: 810000003 cycles: 680295035 heartbeat IPC: 0.765106 cumulative IPC: 1.13494 (Simulation time: 3 hr 45 min 57 sec) 
Heartbeat CPU 1 instructions: 820000002 cycles: 692990803 heartbeat IPC: 0.787664 cumulative IPC: 1.12839 (Simulation time: 3 hr 48 min 31 sec) 
Heartbeat CPU 2 instructions: 420000000 cycles: 700590886 heartbeat IPC: 0.457107 cumulative IPC: 0.541239 (Simulation time: 3 hr 50 min 4 sec) 
Heartbeat CPU 1 instructions: 830000000 cycles: 702479375 heartbeat IPC: 1.0539 cumulative IPC: 1.12736 (Simulation time: 3 hr 50 min 36 sec) 
Heartbeat CPU 1 instructions: 840000003 cycles: 708950947 heartbeat IPC: 1.54522 cumulative IPC: 1.13128 (Simulation time: 3 hr 52 min 28 sec) 
Heartbeat CPU 1 instructions: 850000000 cycles: 715390876 heartbeat IPC: 1.55281 cumulative IPC: 1.13518 (Simulation time: 3 hr 54 min 24 sec) 
Heartbeat CPU 1 instructions: 860000000 cycles: 721819753 heartbeat IPC: 1.55548 cumulative IPC: 1.13903 (Simulation time: 3 hr 56 min 20 sec) 
*** Reached end of trace for Core: 0 Repeating trace: ./traces/ligra/ligra_Triangle.com-lj.ungraph.gcc_6.3.0_O3.drop_6000M.length_250M.champsimtrace.xz
Heartbeat CPU 0 instructions: 500000001 cycles: 724501035 heartbeat IPC: 0.192217 cumulative IPC: 0.638007 (Simulation time: 3 hr 57 min 2 sec) 
Heartbeat CPU 2 instructions: 430000000 cycles: 727500413 heartbeat IPC: 0.371616 cumulative IPC: 0.534795 (Simulation time: 3 hr 58 min 9 sec) 
Heartbeat CPU 1 instructions: 870000003 cycles: 728924213 heartbeat IPC: 1.40757 cumulative IPC: 1.14171 (Simulation time: 3 hr 58 min 39 sec) 
Heartbeat CPU 0 instructions: 510000002 cycles: 732648121 heartbeat IPC: 1.22743 cumulative IPC: 0.644738 (Simulation time: 4 hr 0 min 2 sec) 
Heartbeat CPU 1 instructions: 880000000 cycles: 735899451 heartbeat IPC: 1.43364 cumulative IPC: 1.14455 (Simulation time: 4 hr 1 min 13 sec) 
Heartbeat CPU 0 instructions: 520000002 cycles: 740690503 heartbeat IPC: 1.24341 cumulative IPC: 0.651411 (Simulation time: 4 hr 3 min 3 sec) 
Heartbeat CPU 1 instructions: 890000000 cycles: 742664156 heartbeat IPC: 1.47826 cumulative IPC: 1.14768 (Simulation time: 4 hr 3 min 50 sec) 
Heartbeat CPU 0 instructions: 530000000 cycles: 748648907 heartbeat IPC: 1.25653 cumulative IPC: 0.658013 (Simulation time: 4 hr 6 min 2 sec) 
Heartbeat CPU 2 instructions: 440000000 cycles: 749174010 heartbeat IPC: 0.461391 cumulative IPC: 0.532616 (Simulation time: 4 hr 6 min 14 sec) 
Heartbeat CPU 1 instructions: 900000002 cycles: 749335658 heartbeat IPC: 1.49891 cumulative IPC: 1.15088 (Simulation time: 4 hr 6 min 18 sec) 
Heartbeat CPU 1 instructions: 910000002 cycles: 756300257 heartbeat IPC: 1.43583 cumulative IPC: 1.15358 (Simulation time: 4 hr 8 min 56 sec) 
Heartbeat CPU 0 instructions: 540000001 cycles: 756845814 heartbeat IPC: 1.21997 cumulative IPC: 0.664257 (Simulation time: 4 hr 9 min 7 sec) 
Heartbeat CPU 1 instructions: 920000000 cycles: 763506602 heartbeat IPC: 1.38767 cumulative IPC: 1.15584 (Simulation time: 4 hr 11 min 53 sec) 
Heartbeat CPU 3 instructions: 120000002 cycles: 764179968 heartbeat IPC: 0.0586077 cumulative IPC: 0.0790356 (Simulation time: 4 hr 12 min 11 sec) 
Heartbeat CPU 0 instructions: 550000000 cycles: 765297539 heartbeat IPC: 1.18319 cumulative IPC: 0.670136 (Simulation time: 4 hr 12 min 40 sec) 
Heartbeat CPU 2 instructions: 450000000 cycles: 766883222 heartbeat IPC: 0.564678 cumulative IPC: 0.533375 (Simulation time: 4 hr 13 min 21 sec) 
Heartbeat CPU 1 instructions: 930000001 cycles: 770667533 heartbeat IPC: 1.39647 cumulative IPC: 1.15814 (Simulation time: 4 hr 14 min 54 sec) 
Heartbeat CPU 0 instructions: 560000002 cycles: 773488220 heartbeat IPC: 1.2209 cumulative IPC: 0.676116 (Simulation time: 4 hr 16 min 6 sec) 
Heartbeat CPU 1 instructions: 940000001 cycles: 777792054 heartbeat IPC: 1.4036 cumulative IPC: 1.16044 (Simulation time: 4 hr 17 min 41 sec) 
Heartbeat CPU 0 instructions: 570000000 cycles: 781699621 heartbeat IPC: 1.21782 cumulative IPC: 0.68195 (Simulation time: 4 hr 19 min 17 sec) 
Heartbeat CPU 2 instructions: 460000003 cycles: 782515992 heartbeat IPC: 0.639682 cumulative IPC: 0.535552 (Simulation time: 4 hr 19 min 39 sec) 
Heartbeat CPU 1 instructions: 950000001 cycles: 784921205 heartbeat IPC: 1.40269 cumulative IPC: 1.1627 (Simulation time: 4 hr 20 min 36 sec) 
Heartbeat CPU 0 instructions: 580000002 cycles: 789907034 heartbeat IPC: 1.21841 cumulative IPC: 0.687662 (Simulation time: 4 hr 22 min 40 sec) 
Heartbeat CPU 1 instructions: 960000000 cycles: 791898110 heartbeat IPC: 1.4333 cumulative IPC: 1.16514 (Simulation time: 4 hr 23 min 25 sec) 
Heartbeat CPU 2 instructions: 470000003 cycles: 797289200 heartbeat IPC: 0.676901 cumulative IPC: 0.538236 (Simulation time: 4 hr 25 min 35 sec) 
Heartbeat CPU 0 instructions: 590000001 cycles: 797961033 heartbeat IPC: 1.24162 cumulative IPC: 0.693391 (Simulation time: 4 hr 25 min 53 sec) 
Heartbeat CPU 1 instructions: 970000000 cycles: 798697435 heartbeat IPC: 1.47073 cumulative IPC: 1.16781 (Simulation time: 4 hr 26 min 11 sec) 
Heartbeat CPU 1 instructions: 980000002 cycles: 805312973 heartbeat IPC: 1.51159 cumulative IPC: 1.1707 (Simulation time: 4 hr 28 min 57 sec) 
Heartbeat CPU 2 instructions: 480000002 cycles: 805560368 heartbeat IPC: 1.20902 cumulative IPC: 0.545291 (Simulation time: 4 hr 29 min 4 sec) 
Heartbeat CPU 0 instructions: 600000002 cycles: 805829776 heartbeat IPC: 1.27085 cumulative IPC: 0.699167 (Simulation time: 4 hr 29 min 12 sec) 
Heartbeat CPU 1 instructions: 990000000 cycles: 811865887 heartbeat IPC: 1.52604 cumulative IPC: 1.17364 (Simulation time: 4 hr 31 min 40 sec) 
Heartbeat CPU 0 instructions: 610000000 cycles: 813647204 heartbeat IPC: 1.27919 cumulative IPC: 0.704875 (Simulation time: 4 hr 32 min 29 sec) 
Heartbeat CPU 2 instructions: 490000000 cycles: 813703033 heartbeat IPC: 1.2281 cumulative IPC: 0.552289 (Simulation time: 4 hr 32 min 30 sec) 
Heartbeat CPU 1 instructions: 1000000003 cycles: 818392735 heartbeat IPC: 1.53213 cumulative IPC: 1.17656 (Simulation time: 4 hr 34 min 31 sec) 
Heartbeat CPU 0 instructions: 620000000 cycles: 821577440 heartbeat IPC: 1.261 cumulative IPC: 0.710371 (Simulation time: 4 hr 35 min 57 sec) 
Heartbeat CPU 2 instructions: 500000002 cycles: 823173584 heartbeat IPC: 1.0559 cumulative IPC: 0.558221 (Simulation time: 4 hr 36 min 34 sec) 
Heartbeat CPU 1 instructions: 1010000000 cycles: 826277750 heartbeat IPC: 1.26823 cumulative IPC: 1.17746 (Simulation time: 4 hr 37 min 43 sec) 
Heartbeat CPU 0 instructions: 630000001 cycles: 830491486 heartbeat IPC: 1.12183 cumulative IPC: 0.714892 (Simulation time: 4 hr 39 min 10 sec) 
Heartbeat CPU 1 instructions: 1020000002 cycles: 834442060 heartbeat IPC: 1.22484 cumulative IPC: 1.17793 (Simulation time: 4 hr 40 min 42 sec) 
Heartbeat CPU 0 instructions: 640000002 cycles: 838576271 heartbeat IPC: 1.23689 cumulative IPC: 0.720042 (Simulation time: 4 hr 42 min 11 sec) 
Heartbeat CPU 2 instructions: 510000002 cycles: 840763585 heartbeat IPC: 0.568505 cumulative IPC: 0.558441 (Simulation time: 4 hr 42 min 58 sec) 
Heartbeat CPU 1 instructions: 1030000002 cycles: 841908599 heartbeat IPC: 1.33931 cumulative IPC: 1.1794 (Simulation time: 4 hr 43 min 21 sec) 
Heartbeat CPU 0 instructions: 650000000 cycles: 847117755 heartbeat IPC: 1.17076 cumulative IPC: 0.724692 (Simulation time: 4 hr 45 min 7 sec) 
Heartbeat CPU 1 instructions: 1040000001 cycles: 849755010 heartbeat IPC: 1.27447 cumulative IPC: 1.1803 (Simulation time: 4 hr 46 min 1 sec) 
Heartbeat CPU 0 instructions: 660000000 cycles: 855133276 heartbeat IPC: 1.24758 cumulative IPC: 0.729706 (Simulation time: 4 hr 47 min 58 sec) 
Heartbeat CPU 2 instructions: 520000001 cycles: 856598692 heartbeat IPC: 0.631508 cumulative IPC: 0.559823 (Simulation time: 4 hr 48 min 29 sec) 
Heartbeat CPU 1 instructions: 1050000001 cycles: 856972983 heartbeat IPC: 1.38543 cumulative IPC: 1.18206 (Simulation time: 4 hr 48 min 39 sec) 
Heartbeat CPU 0 instructions: 670000001 cycles: 863183979 heartbeat IPC: 1.24213 cumulative IPC: 0.734594 (Simulation time: 4 hr 50 min 36 sec) 
Heartbeat CPU 1 instructions: 1060000003 cycles: 864359542 heartbeat IPC: 1.35381 cumulative IPC: 1.18356 (Simulation time: 4 hr 50 min 58 sec) 
Heartbeat CPU 0 instructions: 680000001 cycles: 871088138 heartbeat IPC: 1.26516 cumulative IPC: 0.739516 (Simulation time: 4 hr 53 min 3 sec) 
Heartbeat CPU 1 instructions: 1070000002 cycles: 871297035 heartbeat IPC: 1.44144 cumulative IPC: 1.18566 (Simulation time: 4 hr 53 min 7 sec) 
Heartbeat CPU 3 instructions: 130000003 cycles: 876222987 heartbeat IPC: 0.0892514 cumulative IPC: 0.0803711 (Simulation time: 4 hr 54 min 32 sec) 
Heartbeat CPU 1 instructions: 1080000000 cycles: 878901567 heartbeat IPC: 1.31501 cumulative IPC: 1.18681 (Simulation time: 4 hr 55 min 21 sec) 
Heartbeat CPU 0 instructions: 690000000 cycles: 878964456 heartbeat IPC: 1.26963 cumulative IPC: 0.744372 (Simulation time: 4 hr 55 min 22 sec) 
Heartbeat CPU 2 instructions: 530000002 cycles: 881460886 heartbeat IPC: 0.402217 cumulative IPC: 0.555279 (Simulation time: 4 hr 56 min 8 sec) 
Heartbeat CPU 1 instructions: 1090000001 cycles: 886704205 heartbeat IPC: 1.28162 cumulative IPC: 1.18766 (Simulation time: 4 hr 57 min 46 sec) 
Heartbeat CPU 0 instructions: 700000000 cycles: 886869246 heartbeat IPC: 1.26506 cumulative IPC: 0.749116 (Simulation time: 4 hr 57 min 50 sec) 
Heartbeat CPU 1 instructions: 1100000000 cycles: 895869577 heartbeat IPC: 1.09106 cumulative IPC: 1.18665 (Simulation time: 5 hr 0 min 25 sec) 
Heartbeat CPU 0 instructions: 710000000 cycles: 895990430 heartbeat IPC: 1.09635 cumulative IPC: 0.752728 (Simulation time: 5 hr 0 min 27 sec) 
Heartbeat CPU 1 instructions: 1110000000 cycles: 902467388 heartbeat IPC: 1.51565 cumulative IPC: 1.18911 (Simulation time: 5 hr 2 min 3 sec) 
Heartbeat CPU 2 instructions: 540000000 cycles: 904644278 heartbeat IPC: 0.431343 cumulative IPC: 0.552034 (Simulation time: 5 hr 2 min 34 sec) 
Heartbeat CPU 1 instructions: 1120000002 cycles: 908973600 heartbeat IPC: 1.53699 cumulative IPC: 1.19165 (Simulation time: 5 hr 3 min 39 sec) 
Heartbeat CPU 1 instructions: 1130000002 cycles: 915457958 heartbeat IPC: 1.54217 cumulative IPC: 1.19419 (Simulation time: 5 hr 5 min 18 sec) 
Heartbeat CPU 1 instructions: 1140000000 cycles: 922818243 heartbeat IPC: 1.35864 cumulative IPC: 1.19553 (Simulation time: 5 hr 7 min 7 sec) 
Heartbeat CPU 1 instructions: 1150000001 cycles: 932106186 heartbeat IPC: 1.07666 cumulative IPC: 1.19432 (Simulation time: 5 hr 8 min 59 sec) 
Heartbeat CPU 2 instructions: 550000000 cycles: 941244546 heartbeat IPC: 0.273222 cumulative IPC: 0.540967 (Simulation time: 5 hr 10 min 55 sec) 
Heartbeat CPU 1 instructions: 1160000000 cycles: 941394493 heartbeat IPC: 1.07662 cumulative IPC: 1.19313 (Simulation time: 5 hr 10 min 57 sec) 
Heartbeat CPU 0 instructions: 720000000 cycles: 943419335 heartbeat IPC: 0.210842 cumulative IPC: 0.72492 (Simulation time: 5 hr 11 min 27 sec) 
Heartbeat CPU 1 instructions: 1170000001 cycles: 951264151 heartbeat IPC: 1.01321 cumulative IPC: 1.19123 (Simulation time: 5 hr 13 min 9 sec) 
Heartbeat CPU 1 instructions: 1180000000 cycles: 960856615 heartbeat IPC: 1.04248 cumulative IPC: 1.18971 (Simulation time: 5 hr 15 min 14 sec) 
Heartbeat CPU 1 instructions: 1190000000 cycles: 970127238 heartbeat IPC: 1.07868 cumulative IPC: 1.18863 (Simulation time: 5 hr 16 min 59 sec) 
Heartbeat CPU 2 instructions: 560000001 cycles: 971193773 heartbeat IPC: 0.333898 cumulative IPC: 0.534453 (Simulation time: 5 hr 17 min 12 sec) 
Heartbeat CPU 1 instructions: 1200000003 cycles: 980083779 heartbeat IPC: 1.00437 cumulative IPC: 1.18672 (Simulation time: 5 hr 19 min 14 sec) 
Heartbeat CPU 2 instructions: 570000001 cycles: 989823295 heartbeat IPC: 0.536782 cumulative IPC: 0.534497 (Simulation time: 5 hr 21 min 30 sec) 
Heartbeat CPU 1 instructions: 1210000000 cycles: 989890586 heartbeat IPC: 1.0197 cumulative IPC: 1.18503 (Simulation time: 5 hr 21 min 31 sec) 
Heartbeat CPU 0 instructions: 730000000 cycles: 990347380 heartbeat IPC: 0.213092 cumulative IPC: 0.700188 (Simulation time: 5 hr 21 min 38 sec) 
Heartbeat CPU 1 instructions: 1220000002 cycles: 999576506 heartbeat IPC: 1.03243 cumulative IPC: 1.18353 (Simulation time: 5 hr 23 min 51 sec) 
Heartbeat CPU 2 instructions: 580000000 cycles: 1007474638 heartbeat IPC: 0.566529 cumulative IPC: 0.535069 (Simulation time: 5 hr 25 min 59 sec) 
Heartbeat CPU 1 instructions: 1230000001 cycles: 1009173392 heartbeat IPC: 1.042 cumulative IPC: 1.18215 (Simulation time: 5 hr 26 min 20 sec) 
Heartbeat CPU 1 instructions: 1240000001 cycles: 1018486533 heartbeat IPC: 1.07375 cumulative IPC: 1.18114 (Simulation time: 5 hr 28 min 58 sec) 
Heartbeat CPU 2 instructions: 590000001 cycles: 1025332195 heartbeat IPC: 0.559987 cumulative IPC: 0.535512 (Simulation time: 5 hr 30 min 53 sec) 
Heartbeat CPU 1 instructions: 1250000003 cycles: 1027736108 heartbeat IPC: 1.08113 cumulative IPC: 1.18023 (Simulation time: 5 hr 31 min 27 sec) 
Heartbeat CPU 0 instructions: 740000000 cycles: 1035694773 heartbeat IPC: 0.22052 cumulative IPC: 0.67879 (Simulation time: 5 hr 33 min 31 sec) 
Heartbeat CPU 1 instructions: 1260000001 cycles: 1036984383 heartbeat IPC: 1.08128 cumulative IPC: 1.17933 (Simulation time: 5 hr 33 min 50 sec) 
Heartbeat CPU 3 instructions: 140000003 cycles: 1038111596 heartbeat IPC: 0.0617709 cumulative IPC: 0.0774159 (Simulation time: 5 hr 34 min 5 sec) 
Heartbeat CPU 1 instructions: 1270000000 cycles: 1046193602 heartbeat IPC: 1.08587 cumulative IPC: 1.17849 (Simulation time: 5 hr 36 min 6 sec) 
Heartbeat CPU 2 instructions: 600000003 cycles: 1046795023 heartbeat IPC: 0.465922 cumulative IPC: 0.534058 (Simulation time: 5 hr 36 min 14 sec) 
Heartbeat CPU 1 instructions: 1280000002 cycles: 1055276831 heartbeat IPC: 1.10093 cumulative IPC: 1.17781 (Simulation time: 5 hr 38 min 14 sec) 
Heartbeat CPU 1 instructions: 1290000003 cycles: 1065246362 heartbeat IPC: 1.00306 cumulative IPC: 1.17614 (Simulation time: 5 hr 40 min 28 sec) 
Heartbeat CPU 2 instructions: 610000003 cycles: 1066459661 heartbeat IPC: 0.508527 cumulative IPC: 0.533579 (Simulation time: 5 hr 40 min 44 sec) 
Heartbeat CPU 1 instructions: 1300000002 cycles: 1073891272 heartbeat IPC: 1.15675 cumulative IPC: 1.17599 (Simulation time: 5 hr 42 min 23 sec) 
*** Reached end of trace for Core: 0 Repeating trace: ./traces/ligra/ligra_Triangle.com-lj.ungraph.gcc_6.3.0_O3.drop_6000M.length_250M.champsimtrace.xz
Heartbeat CPU 0 instructions: 750000000 cycles: 1079980900 heartbeat IPC: 0.225804 cumulative IPC: 0.659879 (Simulation time: 5 hr 43 min 49 sec) 
Heartbeat CPU 1 instructions: 1310000001 cycles: 1082079409 heartbeat IPC: 1.22128 cumulative IPC: 1.17633 (Simulation time: 5 hr 44 min 29 sec) 
Heartbeat CPU 0 instructions: 760000000 cycles: 1088462316 heartbeat IPC: 1.17905 cumulative IPC: 0.663997 (Simulation time: 5 hr 46 min 35 sec) 
Heartbeat CPU 1 instructions: 1320000000 cycles: 1089735806 heartbeat IPC: 1.3061 cumulative IPC: 1.17726 (Simulation time: 5 hr 47 min 3 sec) 
Heartbeat CPU 2 instructions: 620000002 cycles: 1096345589 heartbeat IPC: 0.334606 cumulative IPC: 0.528058 (Simulation time: 5 hr 49 min 31 sec) 
Heartbeat CPU 0 instructions: 770000000 cycles: 1097096480 heartbeat IPC: 1.15819 cumulative IPC: 0.667955 (Simulation time: 5 hr 49 min 48 sec) 
Heartbeat CPU 1 instructions: 1330000000 cycles: 1097405328 heartbeat IPC: 1.30386 cumulative IPC: 1.17816 (Simulation time: 5 hr 49 min 54 sec) 
Heartbeat CPU 0 instructions: 780000001 cycles: 1105560362 heartbeat IPC: 1.18149 cumulative IPC: 0.671956 (Simulation time: 5 hr 52 min 40 sec) 
Heartbeat CPU 1 instructions: 1340000003 cycles: 1106180451 heartbeat IPC: 1.13959 cumulative IPC: 1.17785 (Simulation time: 5 hr 52 min 52 sec) 
Heartbeat CPU 2 instructions: 630000001 cycles: 1113107683 heartbeat IPC: 0.596584 cumulative IPC: 0.529108 (Simulation time: 5 hr 55 min 8 sec) 
Heartbeat CPU 0 instructions: 790000001 cycles: 1113827630 heartbeat IPC: 1.20959 cumulative IPC: 0.676017 (Simulation time: 5 hr 55 min 22 sec) 
Heartbeat CPU 1 instructions: 1350000001 cycles: 1115682657 heartbeat IPC: 1.05239 cumulative IPC: 1.17676 (Simulation time: 5 hr 56 min 0 sec) 
Heartbeat CPU 0 instructions: 800000000 cycles: 1122163374 heartbeat IPC: 1.19965 cumulative IPC: 0.679974 (Simulation time: 5 hr 57 min 56 sec) 
Heartbeat CPU 1 instructions: 1360000002 cycles: 1124405260 heartbeat IPC: 1.14645 cumulative IPC: 1.17652 (Simulation time: 5 hr 58 min 45 sec) 
Heartbeat CPU 0 instructions: 810000000 cycles: 1130309938 heartbeat IPC: 1.22751 cumulative IPC: 0.683988 (Simulation time: 6 hr 1 min 8 sec) 
Heartbeat CPU 1 instructions: 1370000000 cycles: 1130834228 heartbeat IPC: 1.55546 cumulative IPC: 1.17872 (Simulation time: 6 hr 1 min 19 sec) 
Heartbeat CPU 2 instructions: 640000003 cycles: 1136015342 heartbeat IPC: 0.436535 cumulative IPC: 0.52721 (Simulation time: 6 hr 3 min 19 sec) 
Heartbeat CPU 1 instructions: 1380000001 cycles: 1137274839 heartbeat IPC: 1.55265 cumulative IPC: 1.18087 (Simulation time: 6 hr 3 min 49 sec) 
Heartbeat CPU 0 instructions: 820000001 cycles: 1138567587 heartbeat IPC: 1.211 cumulative IPC: 0.687876 (Simulation time: 6 hr 4 min 15 sec) 
Heartbeat CPU 1 instructions: 1390000000 cycles: 1145232172 heartbeat IPC: 1.2567 cumulative IPC: 1.18141 (Simulation time: 6 hr 6 min 19 sec) 
Heartbeat CPU 0 instructions: 830000001 cycles: 1146576595 heartbeat IPC: 1.24859 cumulative IPC: 0.691859 (Simulation time: 6 hr 6 min 44 sec) 
Heartbeat CPU 1 instructions: 1400000001 cycles: 1153631105 heartbeat IPC: 1.19063 cumulative IPC: 1.18147 (Simulation time: 6 hr 9 min 7 sec) 
Heartbeat CPU 0 instructions: 840000001 cycles: 1154351734 heartbeat IPC: 1.28615 cumulative IPC: 0.69593 (Simulation time: 6 hr 9 min 21 sec) 
Heartbeat CPU 2 instructions: 650000003 cycles: 1157896877 heartbeat IPC: 0.457006 cumulative IPC: 0.52586 (Simulation time: 6 hr 10 min 27 sec) 
Heartbeat CPU 0 instructions: 850000000 cycles: 1162287695 heartbeat IPC: 1.26009 cumulative IPC: 0.699847 (Simulation time: 6 hr 12 min 2 sec) 
Heartbeat CPU 1 instructions: 1410000003 cycles: 1162334042 heartbeat IPC: 1.14904 cumulative IPC: 1.18123 (Simulation time: 6 hr 12 min 2 sec) 
Heartbeat CPU 0 instructions: 860000001 cycles: 1170370060 heartbeat IPC: 1.23726 cumulative IPC: 0.70362 (Simulation time: 6 hr 15 min 4 sec) 
Heartbeat CPU 1 instructions: 1420000002 cycles: 1171775294 heartbeat IPC: 1.05918 cumulative IPC: 1.18023 (Simulation time: 6 hr 15 min 37 sec) 
Heartbeat CPU 2 instructions: 660000000 cycles: 1172672462 heartbeat IPC: 0.676792 cumulative IPC: 0.527794 (Simulation time: 6 hr 15 min 55 sec) 
Heartbeat CPU 3 instructions: 150000000 cycles: 1175256630 heartbeat IPC: 0.0729155 cumulative IPC: 0.076882 (Simulation time: 6 hr 16 min 51 sec) 
Heartbeat CPU 0 instructions: 870000001 cycles: 1178438665 heartbeat IPC: 1.23937 cumulative IPC: 0.707349 (Simulation time: 6 hr 18 min 4 sec) 
Heartbeat CPU 1 instructions: 1430000000 cycles: 1181223305 heartbeat IPC: 1.05842 cumulative IPC: 1.17924 (Simulation time: 6 hr 19 min 6 sec) 
Heartbeat CPU 0 instructions: 880000000 cycles: 1186472195 heartbeat IPC: 1.24478 cumulative IPC: 0.711047 (Simulation time: 6 hr 20 min 58 sec) 
Heartbeat CPU 2 instructions: 670000000 cycles: 1186593294 heartbeat IPC: 0.718348 cumulative IPC: 0.530066 (Simulation time: 6 hr 21 min 0 sec) 
Heartbeat CPU 1 instructions: 1440000000 cycles: 1190735286 heartbeat IPC: 1.05131 cumulative IPC: 1.1782 (Simulation time: 6 hr 22 min 37 sec) 
Heartbeat CPU 0 instructions: 890000000 cycles: 1194442698 heartbeat IPC: 1.25463 cumulative IPC: 0.714734 (Simulation time: 6 hr 23 min 49 sec) 
Heartbeat CPU 2 instructions: 680000000 cycles: 1199483120 heartbeat IPC: 0.775806 cumulative IPC: 0.53275 (Simulation time: 6 hr 25 min 39 sec) 
Heartbeat CPU 1 instructions: 1450000000 cycles: 1199519070 heartbeat IPC: 1.13846 cumulative IPC: 1.1779 (Simulation time: 6 hr 25 min 40 sec) 
Heartbeat CPU 0 instructions: 900000001 cycles: 1202349899 heartbeat IPC: 1.26467 cumulative IPC: 0.718409 (Simulation time: 6 hr 26 min 45 sec) 
Heartbeat CPU 2 instructions: 690000002 cycles: 1207361148 heartbeat IPC: 1.26935 cumulative IPC: 0.537634 (Simulation time: 6 hr 28 min 47 sec) 
Heartbeat CPU 1 instructions: 1460000001 cycles: 1207475338 heartbeat IPC: 1.25687 cumulative IPC: 1.17843 (Simulation time: 6 hr 28 min 50 sec) 
Heartbeat CPU 0 instructions: 910000001 cycles: 1210112524 heartbeat IPC: 1.28822 cumulative IPC: 0.722123 (Simulation time: 6 hr 29 min 53 sec) 
Heartbeat CPU 2 instructions: 700000002 cycles: 1215242281 heartbeat IPC: 1.26885 cumulative IPC: 0.542452 (Simulation time: 6 hr 31 min 52 sec) 
Heartbeat CPU 1 instructions: 1470000001 cycles: 1215254538 heartbeat IPC: 1.28548 cumulative IPC: 1.17913 (Simulation time: 6 hr 31 min 52 sec) 
Heartbeat CPU 0 instructions: 920000002 cycles: 1217890227 heartbeat IPC: 1.28573 cumulative IPC: 0.72578 (Simulation time: 6 hr 32 min 53 sec) 
Heartbeat CPU 1 instructions: 1480000002 cycles: 1224575910 heartbeat IPC: 1.0728 cumulative IPC: 1.17831 (Simulation time: 6 hr 35 min 26 sec) 
Heartbeat CPU 2 instructions: 710000001 cycles: 1224981868 heartbeat IPC: 1.02674 cumulative IPC: 0.546364 (Simulation time: 6 hr 35 min 32 sec) 
Heartbeat CPU 0 instructions: 930000001 cycles: 1226240893 heartbeat IPC: 1.19751 cumulative IPC: 0.729044 (Simulation time: 6 hr 35 min 54 sec) 
Heartbeat CPU 0 instructions: 940000000 cycles: 1234212779 heartbeat IPC: 1.25441 cumulative IPC: 0.73249 (Simulation time: 6 hr 38 min 33 sec) 
Heartbeat CPU 1 instructions: 1490000002 cycles: 1234592076 heartbeat IPC: 0.998386 cumulative IPC: 1.17682 (Simulation time: 6 hr 38 min 41 sec) 
Heartbeat CPU 2 instructions: 720000003 cycles: 1238972851 heartbeat IPC: 0.714746 cumulative IPC: 0.548295 (Simulation time: 6 hr 40 min 10 sec) 
Heartbeat CPU 0 instructions: 950000001 cycles: 1242313731 heartbeat IPC: 1.23442 cumulative IPC: 0.735815 (Simulation time: 6 hr 41 min 14 sec) 
Heartbeat CPU 1 instructions: 1500000003 cycles: 1244096605 heartbeat IPC: 1.05213 cumulative IPC: 1.17586 (Simulation time: 6 hr 41 min 50 sec) 
Heartbeat CPU 0 instructions: 960000003 cycles: 1250610964 heartbeat IPC: 1.20522 cumulative IPC: 0.738978 (Simulation time: 6 hr 43 min 58 sec) 
Heartbeat CPU 1 instructions: 1510000001 cycles: 1253354478 heartbeat IPC: 1.08016 cumulative IPC: 1.17514 (Simulation time: 6 hr 44 min 31 sec) 
Heartbeat CPU 2 instructions: 730000002 cycles: 1253642859 heartbeat IPC: 0.681663 cumulative IPC: 0.54988 (Simulation time: 6 hr 44 min 35 sec) 
Heartbeat CPU 1 instructions: 1520000000 cycles: 1263851295 heartbeat IPC: 0.95267 cumulative IPC: 1.17326 (Simulation time: 6 hr 46 min 27 sec) 
Heartbeat CPU 1 instructions: 1530000000 cycles: 1273255680 heartbeat IPC: 1.06333 cumulative IPC: 1.17244 (Simulation time: 6 hr 48 min 25 sec) 
Heartbeat CPU 3 instructions: 160000000 cycles: 1281528338 heartbeat IPC: 0.0940984 cumulative IPC: 0.0783314 (Simulation time: 6 hr 50 min 12 sec) 
Heartbeat CPU 1 instructions: 1540000000 cycles: 1282663620 heartbeat IPC: 1.06293 cumulative IPC: 1.17162 (Simulation time: 6 hr 50 min 25 sec) 
Heartbeat CPU 2 instructions: 740000003 cycles: 1285056245 heartbeat IPC: 0.318336 cumulative IPC: 0.544134 (Simulation time: 6 hr 50 min 54 sec) 
Heartbeat CPU 0 instructions: 970000000 cycles: 1285886733 heartbeat IPC: 0.283481 cumulative IPC: 0.726293 (Simulation time: 6 hr 51 min 3 sec) 
Heartbeat CPU 1 instructions: 1550000001 cycles: 1296757102 heartbeat IPC: 0.709548 cumulative IPC: 1.16652 (Simulation time: 6 hr 52 min 58 sec) 
Heartbeat CPU 2 instructions: 750000003 cycles: 1311778983 heartbeat IPC: 0.374213 cumulative IPC: 0.540621 (Simulation time: 6 hr 55 min 29 sec) 
Heartbeat CPU 1 instructions: 1560000003 cycles: 1311887769 heartbeat IPC: 0.66091 cumulative IPC: 1.16061 (Simulation time: 6 hr 55 min 30 sec) 
Heartbeat CPU 1 instructions: 1570000000 cycles: 1326354228 heartbeat IPC: 0.691254 cumulative IPC: 1.15541 (Simulation time: 6 hr 57 min 54 sec) 
Heartbeat CPU 0 instructions: 980000003 cycles: 1333446194 heartbeat IPC: 0.210263 cumulative IPC: 0.707619 (Simulation time: 6 hr 59 min 2 sec) 
Heartbeat CPU 1 instructions: 1580000003 cycles: 1341719372 heartbeat IPC: 0.650824 cumulative IPC: 1.14955 (Simulation time: 7 hr 0 min 23 sec) 
Heartbeat CPU 2 instructions: 760000000 cycles: 1353127669 heartbeat IPC: 0.241846 cumulative IPC: 0.53136 (Simulation time: 7 hr 2 min 18 sec) 
Heartbeat CPU 1 instructions: 1590000000 cycles: 1363024207 heartbeat IPC: 0.469377 cumulative IPC: 1.13877 (Simulation time: 7 hr 3 min 49 sec) 
Heartbeat CPU 1 instructions: 1600000003 cycles: 1371210938 heartbeat IPC: 1.22149 cumulative IPC: 1.13927 (Simulation time: 7 hr 5 min 40 sec) 
Heartbeat CPU 1 instructions: 1610000003 cycles: 1378450425 heartbeat IPC: 1.38131 cumulative IPC: 1.14056 (Simulation time: 7 hr 7 min 18 sec) 
Heartbeat CPU 1 instructions: 1620000000 cycles: 1385254277 heartbeat IPC: 1.46976 cumulative IPC: 1.1422 (Simulation time: 7 hr 8 min 36 sec) 
Heartbeat CPU 2 instructions: 770000000 cycles: 1391021197 heartbeat IPC: 0.263897 cumulative IPC: 0.523972 (Simulation time: 7 hr 10 min 0 sec) 
Heartbeat CPU 1 instructions: 1630000002 cycles: 1391104667 heartbeat IPC: 1.70929 cumulative IPC: 1.14461 (Simulation time: 7 hr 10 min 2 sec) 
Heartbeat CPU 0 instructions: 990000000 cycles: 1391835300 heartbeat IPC: 0.171265 cumulative IPC: 0.684804 (Simulation time: 7 hr 10 min 14 sec) 
Heartbeat CPU 1 instructions: 1640000003 cycles: 1396873057 heartbeat IPC: 1.73359 cumulative IPC: 1.14708 (Simulation time: 7 hr 11 min 33 sec) 
Heartbeat CPU 1 instructions: 1650000000 cycles: 1402705758 heartbeat IPC: 1.71447 cumulative IPC: 1.14947 (Simulation time: 7 hr 13 min 10 sec) 
Heartbeat CPU 1 instructions: 1660000002 cycles: 1408388138 heartbeat IPC: 1.75983 cumulative IPC: 1.15197 (Simulation time: 7 hr 14 min 44 sec) 
Heartbeat CPU 2 instructions: 780000000 cycles: 1412618042 heartbeat IPC: 0.463031 cumulative IPC: 0.523027 (Simulation time: 7 hr 15 min 58 sec) 
Heartbeat CPU 1 instructions: 1670000003 cycles: 1414031097 heartbeat IPC: 1.77212 cumulative IPC: 1.15448 (Simulation time: 7 hr 16 min 20 sec) 
Heartbeat CPU 1 instructions: 1680000000 cycles: 1424414094 heartbeat IPC: 0.963113 cumulative IPC: 1.15306 (Simulation time: 7 hr 18 min 37 sec) 
Heartbeat CPU 2 instructions: 790000003 cycles: 1432385389 heartbeat IPC: 0.505885 cumulative IPC: 0.522788 (Simulation time: 7 hr 20 min 23 sec) 
Heartbeat CPU 1 instructions: 1690000000 cycles: 1437217407 heartbeat IPC: 0.781048 cumulative IPC: 1.14971 (Simulation time: 7 hr 21 min 28 sec) 
*** Reached end of trace for Core: 0 Repeating trace: ./traces/ligra/ligra_Triangle.com-lj.ungraph.gcc_6.3.0_O3.drop_6000M.length_250M.champsimtrace.xz
Heartbeat CPU 0 instructions: 1000000000 cycles: 1446000713 heartbeat IPC: 0.18462 cumulative IPC: 0.665816 (Simulation time: 7 hr 23 min 16 sec) 
Heartbeat CPU 1 instructions: 1700000002 cycles: 1449339224 heartbeat IPC: 0.824959 cumulative IPC: 1.14695 (Simulation time: 7 hr 24 min 21 sec) 
Heartbeat CPU 2 instructions: 800000003 cycles: 1451175926 heartbeat IPC: 0.532183 cumulative IPC: 0.522911 (Simulation time: 7 hr 25 min 3 sec) 
Heartbeat CPU 0 instructions: 1010000000 cycles: 1455117456 heartbeat IPC: 1.09688 cumulative IPC: 0.668553 (Simulation time: 7 hr 26 min 45 sec) 
Heartbeat CPU 1 instructions: 1710000003 cycles: 1455770311 heartbeat IPC: 1.55495 cumulative IPC: 1.14878 (Simulation time: 7 hr 27 min 3 sec) 
Heartbeat CPU 1 instructions: 1720000001 cycles: 1462119040 heartbeat IPC: 1.57512 cumulative IPC: 1.15065 (Simulation time: 7 hr 29 min 27 sec) 
Heartbeat CPU 0 instructions: 1020000002 cycles: 1463653814 heartbeat IPC: 1.17146 cumulative IPC: 0.671525 (Simulation time: 7 hr 30 min 7 sec) 
Heartbeat CPU 1 instructions: 1730000003 cycles: 1468484500 heartbeat IPC: 1.57098 cumulative IPC: 1.1525 (Simulation time: 7 hr 31 min 55 sec) 
Heartbeat CPU 2 instructions: 810000001 cycles: 1470034037 heartbeat IPC: 0.530276 cumulative IPC: 0.523007 (Simulation time: 7 hr 32 min 33 sec) 
Heartbeat CPU 0 instructions: 1030000001 cycles: 1472126463 heartbeat IPC: 1.18027 cumulative IPC: 0.674491 (Simulation time: 7 hr 33 min 20 sec) 
Heartbeat CPU 1 instructions: 1740000002 cycles: 1475121301 heartbeat IPC: 1.50675 cumulative IPC: 1.15412 (Simulation time: 7 hr 34 min 26 sec) 
Heartbeat CPU 3 instructions: 170000001 cycles: 1475383106 heartbeat IPC: 0.051585 cumulative IPC: 0.0747708 (Simulation time: 7 hr 34 min 32 sec) 
Heartbeat CPU 0 instructions: 1040000002 cycles: 1480230944 heartbeat IPC: 1.23389 cumulative IPC: 0.677594 (Simulation time: 7 hr 36 min 21 sec) 
Heartbeat CPU 1 instructions: 1750000000 cycles: 1481889616 heartbeat IPC: 1.47747 cumulative IPC: 1.15561 (Simulation time: 7 hr 36 min 57 sec) 
Heartbeat CPU 2 instructions: 820000002 cycles: 1483583039 heartbeat IPC: 0.738062 cumulative IPC: 0.524996 (Simulation time: 7 hr 37 min 32 sec) 
Heartbeat CPU 0 instructions: 1050000000 cycles: 1488158713 heartbeat IPC: 1.26139 cumulative IPC: 0.680745 (Simulation time: 7 hr 39 min 3 sec) 
Heartbeat CPU 1 instructions: 1760000000 cycles: 1488570997 heartbeat IPC: 1.4967 cumulative IPC: 1.15716 (Simulation time: 7 hr 39 min 11 sec) 
Heartbeat CPU 1 instructions: 1770000000 cycles: 1495507483 heartbeat IPC: 1.44165 cumulative IPC: 1.1585 (Simulation time: 7 hr 41 min 29 sec) 
Heartbeat CPU 0 instructions: 1060000000 cycles: 1496180272 heartbeat IPC: 1.24664 cumulative IPC: 0.683818 (Simulation time: 7 hr 41 min 44 sec) 
Heartbeat CPU 1 instructions: 1780000002 cycles: 1502482937 heartbeat IPC: 1.4336 cumulative IPC: 1.15979 (Simulation time: 7 hr 44 min 15 sec) 
Heartbeat CPU 2 instructions: 830000002 cycles: 1503947506 heartbeat IPC: 0.491051 cumulative IPC: 0.524531 (Simulation time: 7 hr 44 min 50 sec) 
Heartbeat CPU 0 instructions: 1070000001 cycles: 1504204018 heartbeat IPC: 1.2463 cumulative IPC: 0.686858 (Simulation time: 7 hr 44 min 56 sec) 
Heartbeat CPU 1 instructions: 1790000000 cycles: 1509221112 heartbeat IPC: 1.48408 cumulative IPC: 1.16126 (Simulation time: 7 hr 47 min 3 sec) 
Heartbeat CPU 0 instructions: 1080000002 cycles: 1512061639 heartbeat IPC: 1.27265 cumulative IPC: 0.689941 (Simulation time: 7 hr 48 min 12 sec) 
Heartbeat CPU 1 instructions: 1800000002 cycles: 1515844438 heartbeat IPC: 1.50982 cumulative IPC: 1.1628 (Simulation time: 7 hr 49 min 49 sec) 
Heartbeat CPU 2 instructions: 840000003 cycles: 1516863733 heartbeat IPC: 0.77422 cumulative IPC: 0.526684 (Simulation time: 7 hr 50 min 12 sec) 
Heartbeat CPU 0 instructions: 1090000000 cycles: 1519859069 heartbeat IPC: 1.28247 cumulative IPC: 0.69302 (Simulation time: 7 hr 51 min 25 sec) 
Heartbeat CPU 1 instructions: 1810000001 cycles: 1522507730 heartbeat IPC: 1.50076 cumulative IPC: 1.1643 (Simulation time: 7 hr 52 min 33 sec) 
Heartbeat CPU 0 instructions: 1100000000 cycles: 1527657877 heartbeat IPC: 1.28225 cumulative IPC: 0.696066 (Simulation time: 7 hr 54 min 22 sec) 
Heartbeat CPU 1 instructions: 1820000002 cycles: 1529174178 heartbeat IPC: 1.50005 cumulative IPC: 1.16578 (Simulation time: 7 hr 54 min 54 sec) 
Heartbeat CPU 2 instructions: 850000002 cycles: 1534037081 heartbeat IPC: 0.582298 cumulative IPC: 0.527315 (Simulation time: 7 hr 56 min 34 sec) 
Heartbeat CPU 0 instructions: 1110000001 cycles: 1535614523 heartbeat IPC: 1.25681 cumulative IPC: 0.699008 (Simulation time: 7 hr 57 min 11 sec) 
Heartbeat CPU 1 instructions: 1830000001 cycles: 1536094704 heartbeat IPC: 1.44498 cumulative IPC: 1.16706 (Simulation time: 7 hr 57 min 22 sec) 
Heartbeat CPU 1 instructions: 1840000003 cycles: 1542939909 heartbeat IPC: 1.46088 cumulative IPC: 1.16838 (Simulation time: 7 hr 59 min 46 sec) 
Heartbeat CPU 0 instructions: 1120000001 cycles: 1543545250 heartbeat IPC: 1.26092 cumulative IPC: 0.701931 (Simulation time: 7 hr 59 min 57 sec) 
Heartbeat CPU 1 instructions: 1850000001 cycles: 1549608148 heartbeat IPC: 1.49965 cumulative IPC: 1.16982 (Simulation time: 8 hr 2 min 7 sec) 
Heartbeat CPU 0 instructions: 1130000000 cycles: 1551392237 heartbeat IPC: 1.27437 cumulative IPC: 0.704863 (Simulation time: 8 hr 2 min 46 sec) 
Heartbeat CPU 2 instructions: 860000002 cycles: 1554894126 heartbeat IPC: 0.479454 cumulative IPC: 0.526665 (Simulation time: 8 hr 4 min 1 sec) 
Heartbeat CPU 1 instructions: 1860000003 cycles: 1556646075 heartbeat IPC: 1.42087 cumulative IPC: 1.17097 (Simulation time: 8 hr 4 min 40 sec) 
Heartbeat CPU 0 instructions: 1140000000 cycles: 1559728846 heartbeat IPC: 1.19953 cumulative IPC: 0.70754 (Simulation time: 8 hr 5 min 50 sec) 
Heartbeat CPU 1 instructions: 1870000000 cycles: 1563973971 heartbeat IPC: 1.36465 cumulative IPC: 1.17189 (Simulation time: 8 hr 7 min 28 sec) 
Heartbeat CPU 0 instructions: 1150000001 cycles: 1568016432 heartbeat IPC: 1.20662 cumulative IPC: 0.710211 (Simulation time: 8 hr 9 min 4 sec) 
Heartbeat CPU 2 instructions: 870000001 cycles: 1569673971 heartbeat IPC: 0.676597 cumulative IPC: 0.528094 (Simulation time: 8 hr 9 min 41 sec) 
Heartbeat CPU 1 instructions: 1880000003 cycles: 1571139811 heartbeat IPC: 1.39551 cumulative IPC: 1.17292 (Simulation time: 8 hr 10 min 13 sec) 
Heartbeat CPU 0 instructions: 1160000001 cycles: 1576356846 heartbeat IPC: 1.19898 cumulative IPC: 0.712828 (Simulation time: 8 hr 12 min 8 sec) 
Heartbeat CPU 1 instructions: 1890000002 cycles: 1579268274 heartbeat IPC: 1.23024 cumulative IPC: 1.17322 (Simulation time: 8 hr 13 min 9 sec) 
Heartbeat CPU 0 instructions: 1170000000 cycles: 1584953934 heartbeat IPC: 1.16318 cumulative IPC: 0.715301 (Simulation time: 8 hr 15 min 13 sec) 
Heartbeat CPU 2 instructions: 880000000 cycles: 1585323057 heartbeat IPC: 0.639015 cumulative IPC: 0.529202 (Simulation time: 8 hr 15 min 22 sec) 
Heartbeat CPU 1 instructions: 1900000003 cycles: 1587439383 heartbeat IPC: 1.22382 cumulative IPC: 1.17348 (Simulation time: 8 hr 16 min 5 sec) 
Heartbeat CPU 0 instructions: 1180000000 cycles: 1593172193 heartbeat IPC: 1.2168 cumulative IPC: 0.71792 (Simulation time: 8 hr 17 min 57 sec) 
Heartbeat CPU 1 instructions: 1910000003 cycles: 1594925203 heartbeat IPC: 1.33586 cumulative IPC: 1.17425 (Simulation time: 8 hr 18 min 31 sec) 
Heartbeat CPU 2 instructions: 890000002 cycles: 1599628384 heartbeat IPC: 0.69904 cumulative IPC: 0.530739 (Simulation time: 8 hr 20 min 9 sec) 
Heartbeat CPU 0 instructions: 1190000000 cycles: 1601335175 heartbeat IPC: 1.22504 cumulative IPC: 0.720536 (Simulation time: 8 hr 20 min 44 sec) 
Heartbeat CPU 1 instructions: 1920000000 cycles: 1602240767 heartbeat IPC: 1.36695 cumulative IPC: 1.17514 (Simulation time: 8 hr 21 min 4 sec) 
Heartbeat CPU 3 instructions: 180000003 cycles: 1604054727 heartbeat IPC: 0.0777172 cumulative IPC: 0.07501 (Simulation time: 8 hr 21 min 45 sec) 
Heartbeat CPU 2 instructions: 900000002 cycles: 1608623289 heartbeat IPC: 1.11174 cumulative IPC: 0.534027 (Simulation time: 8 hr 23 min 30 sec) 
Heartbeat CPU 1 instructions: 1930000000 cycles: 1609269758 heartbeat IPC: 1.42268 cumulative IPC: 1.17624 (Simulation time: 8 hr 23 min 45 sec) 
Heartbeat CPU 0 instructions: 1200000001 cycles: 1609314603 heartbeat IPC: 1.25322 cumulative IPC: 0.723209 (Simulation time: 8 hr 23 min 46 sec) 
Heartbeat CPU 1 instructions: 1940000001 cycles: 1616341603 heartbeat IPC: 1.41406 cumulative IPC: 1.17729 (Simulation time: 8 hr 26 min 9 sec) 
Heartbeat CPU 2 instructions: 910000000 cycles: 1617215369 heartbeat IPC: 1.16386 cumulative IPC: 0.537414 (Simulation time: 8 hr 26 min 26 sec) 
Heartbeat CPU 0 instructions: 1210000000 cycles: 1617928698 heartbeat IPC: 1.16089 cumulative IPC: 0.725567 (Simulation time: 8 hr 26 min 36 sec) 
Heartbeat CPU 1 instructions: 1950000002 cycles: 1626249727 heartbeat IPC: 1.00927 cumulative IPC: 1.17626 (Simulation time: 8 hr 28 min 27 sec) 
Heartbeat CPU 2 instructions: 920000002 cycles: 1633880986 heartbeat IPC: 0.600038 cumulative IPC: 0.53806 (Simulation time: 8 hr 29 min 50 sec) 
Heartbeat CPU 1 instructions: 1960000000 cycles: 1640533633 heartbeat IPC: 0.700089 cumulative IPC: 1.17206 (Simulation time: 8 hr 31 min 5 sec) 
Heartbeat CPU 1 instructions: 1970000001 cycles: 1653000712 heartbeat IPC: 0.802113 cumulative IPC: 1.16924 (Simulation time: 8 hr 33 min 20 sec) 
Heartbeat CPU 2 instructions: 930000001 cycles: 1656621324 heartbeat IPC: 0.439747 cumulative IPC: 0.536695 (Simulation time: 8 hr 34 min 1 sec) 
Heartbeat CPU 1 instructions: 1980000000 cycles: 1662405987 heartbeat IPC: 1.06323 cumulative IPC: 1.16863 (Simulation time: 8 hr 35 min 22 sec) 
Heartbeat CPU 1 instructions: 1990000000 cycles: 1668986314 heartbeat IPC: 1.51968 cumulative IPC: 1.17003 (Simulation time: 8 hr 37 min 11 sec) 
Heartbeat CPU 0 instructions: 1220000002 cycles: 1673776874 heartbeat IPC: 0.179057 cumulative IPC: 0.707121 (Simulation time: 8 hr 38 min 30 sec) 
*** Reached end of trace for Core: 1 Repeating trace: ./traces/spec/437.leslie3d-265B.champsimtrace.xz
Heartbeat CPU 1 instructions: 2000000002 cycles: 1675536214 heartbeat IPC: 1.52674 cumulative IPC: 1.17144 (Simulation time: 8 hr 38 min 57 sec) 
Heartbeat CPU 1 instructions: 2010000002 cycles: 1683318265 heartbeat IPC: 1.28501 cumulative IPC: 1.17197 (Simulation time: 8 hr 40 min 43 sec) 
Heartbeat CPU 2 instructions: 940000003 cycles: 1683380743 heartbeat IPC: 0.3737 cumulative IPC: 0.534074 (Simulation time: 8 hr 40 min 44 sec) 
Heartbeat CPU 1 instructions: 2020000003 cycles: 1690488828 heartbeat IPC: 1.39459 cumulative IPC: 1.17293 (Simulation time: 8 hr 42 min 20 sec) 
Heartbeat CPU 1 instructions: 2030000000 cycles: 1697523042 heartbeat IPC: 1.42162 cumulative IPC: 1.17397 (Simulation time: 8 hr 44 min 1 sec) 
Heartbeat CPU 1 instructions: 2040000001 cycles: 1704542749 heartbeat IPC: 1.42456 cumulative IPC: 1.17501 (Simulation time: 8 hr 45 min 44 sec) 
Heartbeat CPU 1 instructions: 2050000001 cycles: 1711656412 heartbeat IPC: 1.40575 cumulative IPC: 1.17598 (Simulation time: 8 hr 47 min 26 sec) 
Heartbeat CPU 0 instructions: 1230000002 cycles: 1711859371 heartbeat IPC: 0.262588 cumulative IPC: 0.69712 (Simulation time: 8 hr 47 min 28 sec) 
Heartbeat CPU 2 instructions: 950000000 cycles: 1712044933 heartbeat IPC: 0.348867 cumulative IPC: 0.530938 (Simulation time: 8 hr 47 min 32 sec) 
Heartbeat CPU 1 instructions: 2060000002 cycles: 1719035121 heartbeat IPC: 1.35525 cumulative IPC: 1.17676 (Simulation time: 8 hr 49 min 6 sec) 
Heartbeat CPU 1 instructions: 2070000000 cycles: 1726401963 heartbeat IPC: 1.35743 cumulative IPC: 1.17754 (Simulation time: 8 hr 50 min 52 sec) 
Heartbeat CPU 1 instructions: 2080000001 cycles: 1733585983 heartbeat IPC: 1.39198 cumulative IPC: 1.17844 (Simulation time: 8 hr 52 min 28 sec) 
Heartbeat CPU 2 instructions: 960000000 cycles: 1735296467 heartbeat IPC: 0.430079 cumulative IPC: 0.529571 (Simulation time: 8 hr 52 min 55 sec) 
Heartbeat CPU 1 instructions: 2090000000 cycles: 1740714284 heartbeat IPC: 1.40286 cumulative IPC: 1.17937 (Simulation time: 8 hr 54 min 13 sec) 
Heartbeat CPU 1 instructions: 2100000002 cycles: 1747882851 heartbeat IPC: 1.39498 cumulative IPC: 1.18026 (Simulation time: 8 hr 56 min 0 sec) 
Heartbeat CPU 0 instructions: 1240000000 cycles: 1751767672 heartbeat IPC: 0.250574 cumulative IPC: 0.686834 (Simulation time: 8 hr 56 min 56 sec) 
Heartbeat CPU 1 instructions: 2110000000 cycles: 1755328785 heartbeat IPC: 1.34301 cumulative IPC: 1.18096 (Simulation time: 8 hr 57 min 47 sec) 
Heartbeat CPU 1 instructions: 2120000000 cycles: 1762819593 heartbeat IPC: 1.33497 cumulative IPC: 1.18162 (Simulation time: 8 hr 59 min 35 sec) 
Heartbeat CPU 3 instructions: 190000003 cycles: 1763445136 heartbeat IPC: 0.062739 cumulative IPC: 0.0738887 (Simulation time: 8 hr 59 min 45 sec) 
Heartbeat CPU 2 instructions: 970000002 cycles: 1768805491 heartbeat IPC: 0.298427 cumulative IPC: 0.525145 (Simulation time: 9 hr 1 min 13 sec) 
Heartbeat CPU 1 instructions: 2130000001 cycles: 1770730426 heartbeat IPC: 1.26409 cumulative IPC: 1.182 (Simulation time: 9 hr 1 min 46 sec) 
Heartbeat CPU 1 instructions: 2140000003 cycles: 1779972097 heartbeat IPC: 1.08206 cumulative IPC: 1.18147 (Simulation time: 9 hr 4 min 12 sec) 
Heartbeat CPU 1 instructions: 2150000001 cycles: 1787845939 heartbeat IPC: 1.27003 cumulative IPC: 1.18187 (Simulation time: 9 hr 5 min 57 sec) 
Heartbeat CPU 1 instructions: 2160000000 cycles: 1795909393 heartbeat IPC: 1.24016 cumulative IPC: 1.18213 (Simulation time: 9 hr 7 min 41 sec) 
Heartbeat CPU 2 instructions: 980000000 cycles: 1798725210 heartbeat IPC: 0.334228 cumulative IPC: 0.521935 (Simulation time: 9 hr 8 min 21 sec) 
*** Reached end of trace for Core: 0 Repeating trace: ./traces/ligra/ligra_Triangle.com-lj.ungraph.gcc_6.3.0_O3.drop_6000M.length_250M.champsimtrace.xz
Heartbeat CPU 0 instructions: 1250000002 cycles: 1799700394 heartbeat IPC: 0.208626 cumulative IPC: 0.67396 (Simulation time: 9 hr 8 min 34 sec) 
Heartbeat CPU 1 instructions: 2170000002 cycles: 1804369310 heartbeat IPC: 1.18204 cumulative IPC: 1.18213 (Simulation time: 9 hr 10 min 4 sec) 
Heartbeat CPU 0 instructions: 1260000001 cycles: 1808716580 heartbeat IPC: 1.10912 cumulative IPC: 0.676153 (Simulation time: 9 hr 11 min 38 sec) 
Heartbeat CPU 1 instructions: 2180000001 cycles: 1812073601 heartbeat IPC: 1.29798 cumulative IPC: 1.18263 (Simulation time: 9 hr 12 min 51 sec) 
Heartbeat CPU 2 instructions: 990000000 cycles: 1814803363 heartbeat IPC: 0.621962 cumulative IPC: 0.52283 (Simulation time: 9 hr 13 min 53 sec) 
Heartbeat CPU 0 instructions: 1270000001 cycles: 1817191046 heartbeat IPC: 1.18002 cumulative IPC: 0.678527 (Simulation time: 9 hr 14 min 50 sec) 
Heartbeat CPU 1 instructions: 2190000001 cycles: 1819577875 heartbeat IPC: 1.33257 cumulative IPC: 1.18325 (Simulation time: 9 hr 15 min 45 sec) 
Heartbeat CPU 0 instructions: 1280000001 cycles: 1825907339 heartbeat IPC: 1.14728 cumulative IPC: 0.680789 (Simulation time: 9 hr 17 min 47 sec) 
Heartbeat CPU 1 instructions: 2200000000 cycles: 1829018499 heartbeat IPC: 1.05925 cumulative IPC: 1.18261 (Simulation time: 9 hr 18 min 48 sec) 
Heartbeat CPU 2 instructions: 1000000000 cycles: 1830017330 heartbeat IPC: 0.657291 cumulative IPC: 0.52396 (Simulation time: 9 hr 19 min 6 sec) 
Heartbeat CPU 0 instructions: 1290000000 cycles: 1834565543 heartbeat IPC: 1.15497 cumulative IPC: 0.68305 (Simulation time: 9 hr 20 min 33 sec) 
Heartbeat CPU 1 instructions: 2210000002 cycles: 1838861452 heartbeat IPC: 1.01596 cumulative IPC: 1.1817 (Simulation time: 9 hr 21 min 56 sec) 
Heartbeat CPU 0 instructions: 1300000001 cycles: 1842986067 heartbeat IPC: 1.18757 cumulative IPC: 0.68538 (Simulation time: 9 hr 23 min 11 sec) 
Heartbeat CPU 2 instructions: 1010000001 cycles: 1847168327 heartbeat IPC: 0.583057 cumulative IPC: 0.524514 (Simulation time: 9 hr 24 min 28 sec) 
Heartbeat CPU 1 instructions: 2220000001 cycles: 1848868953 heartbeat IPC: 0.99925 cumulative IPC: 1.18071 (Simulation time: 9 hr 25 min 2 sec) 
Heartbeat CPU 0 instructions: 1310000001 cycles: 1851268535 heartbeat IPC: 1.20737 cumulative IPC: 0.68774 (Simulation time: 9 hr 25 min 58 sec) 
Heartbeat CPU 1 instructions: 2230000001 cycles: 1855618544 heartbeat IPC: 1.48157 cumulative IPC: 1.18181 (Simulation time: 9 hr 27 min 39 sec) 
Heartbeat CPU 0 instructions: 1320000000 cycles: 1859500205 heartbeat IPC: 1.21482 cumulative IPC: 0.690097 (Simulation time: 9 hr 29 min 4 sec) 
Heartbeat CPU 1 instructions: 2240000001 cycles: 1862048841 heartbeat IPC: 1.55514 cumulative IPC: 1.18311 (Simulation time: 9 hr 29 min 55 sec) 
Heartbeat CPU 2 instructions: 1020000002 cycles: 1866460314 heartbeat IPC: 0.51835 cumulative IPC: 0.52445 (Simulation time: 9 hr 31 min 35 sec) 
Heartbeat CPU 0 instructions: 1330000000 cycles: 1867669710 heartbeat IPC: 1.22406 cumulative IPC: 0.692457 (Simulation time: 9 hr 32 min 1 sec) 
Heartbeat CPU 1 instructions: 2250000001 cycles: 1868471013 heartbeat IPC: 1.55711 cumulative IPC: 1.18441 (Simulation time: 9 hr 32 min 20 sec) 
Heartbeat CPU 1 instructions: 2260000000 cycles: 1875227426 heartbeat IPC: 1.48008 cumulative IPC: 1.18549 (Simulation time: 9 hr 34 min 47 sec) 
Heartbeat CPU 0 instructions: 1340000001 cycles: 1875727988 heartbeat IPC: 1.24096 cumulative IPC: 0.694838 (Simulation time: 9 hr 34 min 59 sec) 
Heartbeat CPU 1 instructions: 2270000001 cycles: 1882798148 heartbeat IPC: 1.32088 cumulative IPC: 1.18604 (Simulation time: 9 hr 37 min 17 sec) 
Heartbeat CPU 2 instructions: 1030000003 cycles: 1883562905 heartbeat IPC: 0.584707 cumulative IPC: 0.525003 (Simulation time: 9 hr 37 min 31 sec) 
Heartbeat CPU 0 instructions: 1350000001 cycles: 1883584733 heartbeat IPC: 1.27279 cumulative IPC: 0.697273 (Simulation time: 9 hr 37 min 31 sec) 
Heartbeat CPU 1 instructions: 2280000002 cycles: 1890806275 heartbeat IPC: 1.24873 cumulative IPC: 1.18631 (Simulation time: 9 hr 39 min 47 sec) 
Heartbeat CPU 0 instructions: 1360000002 cycles: 1891616265 heartbeat IPC: 1.24509 cumulative IPC: 0.699623 (Simulation time: 9 hr 40 min 2 sec) 
Heartbeat CPU 1 instructions: 2290000000 cycles: 1899020880 heartbeat IPC: 1.21734 cumulative IPC: 1.18644 (Simulation time: 9 hr 42 min 41 sec) 
Heartbeat CPU 0 instructions: 1370000001 cycles: 1899773266 heartbeat IPC: 1.22594 cumulative IPC: 0.701906 (Simulation time: 9 hr 42 min 59 sec) 
Heartbeat CPU 2 instructions: 1040000000 cycles: 1902228757 heartbeat IPC: 0.535738 cumulative IPC: 0.525109 (Simulation time: 9 hr 43 min 52 sec) 
Heartbeat CPU 1 instructions: 2300000001 cycles: 1906872990 heartbeat IPC: 1.27354 cumulative IPC: 1.18681 (Simulation time: 9 hr 45 min 43 sec) 
Heartbeat CPU 0 instructions: 1380000000 cycles: 1907762185 heartbeat IPC: 1.25173 cumulative IPC: 0.704232 (Simulation time: 9 hr 46 min 4 sec) 
Heartbeat CPU 1 instructions: 2310000000 cycles: 1914491507 heartbeat IPC: 1.31259 cumulative IPC: 1.18731 (Simulation time: 9 hr 48 min 43 sec) 
Heartbeat CPU 3 instructions: 200000001 cycles: 1915294277 heartbeat IPC: 0.0658548 cumulative IPC: 0.0732453 (Simulation time: 9 hr 48 min 59 sec) 
Heartbeat CPU 2 instructions: 1050000000 cycles: 1915539051 heartbeat IPC: 0.751298 cumulative IPC: 0.526697 (Simulation time: 9 hr 49 min 5 sec) 
Heartbeat CPU 0 instructions: 1390000001 cycles: 1915638306 heartbeat IPC: 1.26966 cumulative IPC: 0.70658 (Simulation time: 9 hr 49 min 7 sec) 
Heartbeat CPU 1 instructions: 2320000000 cycles: 1921965882 heartbeat IPC: 1.3379 cumulative IPC: 1.1879 (Simulation time: 9 hr 51 min 33 sec) 
Heartbeat CPU 0 instructions: 1400000002 cycles: 1923491071 heartbeat IPC: 1.27344 cumulative IPC: 0.708918 (Simulation time: 9 hr 52 min 3 sec) 
Heartbeat CPU 1 instructions: 2330000001 cycles: 1929361571 heartbeat IPC: 1.35214 cumulative IPC: 1.18854 (Simulation time: 9 hr 53 min 59 sec) 
Heartbeat CPU 0 instructions: 1410000002 cycles: 1931392020 heartbeat IPC: 1.26567 cumulative IPC: 0.711218 (Simulation time: 9 hr 54 min 37 sec) 
Heartbeat CPU 2 instructions: 1060000001 cycles: 1934701784 heartbeat IPC: 0.521846 cumulative IPC: 0.526648 (Simulation time: 9 hr 55 min 43 sec) 
Heartbeat CPU 1 instructions: 2340000003 cycles: 1937246142 heartbeat IPC: 1.2683 cumulative IPC: 1.18887 (Simulation time: 9 hr 56 min 31 sec) 
Heartbeat CPU 0 instructions: 1420000000 cycles: 1939348075 heartbeat IPC: 1.2569 cumulative IPC: 0.713479 (Simulation time: 9 hr 57 min 9 sec) 
Heartbeat CPU 1 instructions: 2350000003 cycles: 1945045597 heartbeat IPC: 1.28214 cumulative IPC: 1.18924 (Simulation time: 9 hr 59 min 3 sec) 
Heartbeat CPU 0 instructions: 1430000000 cycles: 1947229188 heartbeat IPC: 1.26886 cumulative IPC: 0.715749 (Simulation time: 9 hr 59 min 42 sec) 
Heartbeat CPU 1 instructions: 2360000003 cycles: 1952904240 heartbeat IPC: 1.27248 cumulative IPC: 1.18958 (Simulation time: 10 hr 1 min 26 sec) 
Heartbeat CPU 0 instructions: 1440000003 cycles: 1955266275 heartbeat IPC: 1.24423 cumulative IPC: 0.717943 (Simulation time: 10 hr 2 min 7 sec) 
Heartbeat CPU 2 instructions: 1070000002 cycles: 1956765868 heartbeat IPC: 0.453225 cumulative IPC: 0.525812 (Simulation time: 10 hr 2 min 35 sec) 
Heartbeat CPU 1 instructions: 2370000003 cycles: 1961159155 heartbeat IPC: 1.2114 cumulative IPC: 1.18968 (Simulation time: 10 hr 3 min 55 sec) 
Heartbeat CPU 0 instructions: 1450000002 cycles: 1963496459 heartbeat IPC: 1.21504 cumulative IPC: 0.720047 (Simulation time: 10 hr 4 min 33 sec) 
Heartbeat CPU 1 instructions: 2380000001 cycles: 1970750576 heartbeat IPC: 1.0426 cumulative IPC: 1.18895 (Simulation time: 10 hr 6 min 48 sec) 
Heartbeat CPU 0 instructions: 1460000001 cycles: 1973549461 heartbeat IPC: 0.994728 cumulative IPC: 0.72146 (Simulation time: 10 hr 7 min 33 sec) 
Heartbeat CPU 2 instructions: 1080000003 cycles: 1981424154 heartbeat IPC: 0.405543 cumulative IPC: 0.524301 (Simulation time: 10 hr 9 min 17 sec) 
Heartbeat CPU 1 instructions: 2390000001 cycles: 1981554391 heartbeat IPC: 0.925599 cumulative IPC: 1.1875 (Simulation time: 10 hr 9 min 19 sec) 
Heartbeat CPU 1 instructions: 2400000002 cycles: 1992615783 heartbeat IPC: 0.904045 cumulative IPC: 1.18591 (Simulation time: 10 hr 11 min 49 sec) 
Heartbeat CPU 1 instructions: 2410000003 cycles: 2003932800 heartbeat IPC: 0.883625 cumulative IPC: 1.18419 (Simulation time: 10 hr 14 min 4 sec) 
Heartbeat CPU 1 instructions: 2420000000 cycles: 2013109733 heartbeat IPC: 1.08969 cumulative IPC: 1.18376 (Simulation time: 10 hr 15 min 49 sec) 
Heartbeat CPU 2 instructions: 1090000001 cycles: 2013309024 heartbeat IPC: 0.313628 cumulative IPC: 0.520932 (Simulation time: 10 hr 15 min 52 sec) 
Heartbeat CPU 1 instructions: 2430000002 cycles: 2021534629 heartbeat IPC: 1.18696 cumulative IPC: 1.18377 (Simulation time: 10 hr 17 min 47 sec) 
Heartbeat CPU 2 instructions: 1100000000 cycles: 2025010449 heartbeat IPC: 0.854597 cumulative IPC: 0.522879 (Simulation time: 10 hr 18 min 36 sec) 
Heartbeat CPU 0 instructions: 1470000001 cycles: 2027189476 heartbeat IPC: 0.186428 cumulative IPC: 0.707168 (Simulation time: 10 hr 19 min 7 sec) 
Heartbeat CPU 1 instructions: 2440000003 cycles: 2029557532 heartbeat IPC: 1.24643 cumulative IPC: 1.18402 (Simulation time: 10 hr 19 min 43 sec) 
Heartbeat CPU 2 instructions: 1110000001 cycles: 2036524336 heartbeat IPC: 0.868517 cumulative IPC: 0.524852 (Simulation time: 10 hr 21 min 24 sec) 
Heartbeat CPU 1 instructions: 2450000001 cycles: 2037663737 heartbeat IPC: 1.23362 cumulative IPC: 1.18422 (Simulation time: 10 hr 21 min 42 sec) 
Heartbeat CPU 1 instructions: 2460000003 cycles: 2046805738 heartbeat IPC: 1.09385 cumulative IPC: 1.18381 (Simulation time: 10 hr 23 min 50 sec) 
Heartbeat CPU 2 instructions: 1120000001 cycles: 2047749832 heartbeat IPC: 0.890829 cumulative IPC: 0.526877 (Simulation time: 10 hr 24 min 3 sec) 
Heartbeat CPU 1 instructions: 2470000000 cycles: 2061048214 heartbeat IPC: 0.702125 cumulative IPC: 1.18045 (Simulation time: 10 hr 26 min 35 sec) 
Heartbeat CPU 2 instructions: 1130000003 cycles: 2069123026 heartbeat IPC: 0.467876 cumulative IPC: 0.526262 (Simulation time: 10 hr 28 min 5 sec) 
[...]
L2C AVERAGE MISS LATENCY: 7795.58 cycles
L2C RQ	ACCESS:   15685411	FORWARD:          0	MERGED:          0	TO_CACHE:   15685122
L2C WQ	ACCESS:   11284196	FORWARD:        391	MERGED:          0	TO_CACHE:   11284196
L2C PQ	ACCESS:  171068844	FORWARD:          0	MERGED:    2960882	TO_CACHE:  168107860

L2C Instructions Evicting Data 5375
L2C Translations Evicting Data 186535
L2C Data Evicting Data 40793191
L2C Instructions Evicting Instructions 42
L2C Translations Evicting Instructions 22
L2C Data Evicting Instructions 5358
L2C Instructions Evicting Translations 43
L2C Translations Evicting Translations 729
L2C Data Evicting Translations 183760
L2C Dense regions hint from L2: 0
PSCL5 TOTAL     ACCESS:     282047  HIT:     282047  MISS:          0  HIT %:        100  MISS %:          0   MPKI: 0
PSCL5 LOAD TRANSLATION ACCESS:      58364  HIT:      58364  MISS:          0  HIT %:        100  MISS %:          0   MPKI: 0
PSCL5 TRANSLATION FROM L1D PREFETCHER ACCESS:     223683  HIT:     223683  MISS:          0  HIT %:        100  MISS %:          0   MPKI: 0
PSCL5 PREFETCH  REQUESTED:          0  ISSUED:          0  USEFUL:          0  USELESS:          0
PSCL5 USEFUL LOAD PREFETCHES:          0 PREFETCH ISSUED TO LOWER LEVEL:          0  ACCURACY: -nan
PSCL5 TIMELY PREFETCHES:          0 LATE PREFETCHES: 0 DROPPED PREFETCHES: 0
PSCL5 PREFETCHES SAME FILL-ORIGIN LEVEL: 0 DIFFERENT FILL-ORIGIN LEVEL: 0

PSCL4 TOTAL     ACCESS:     282047  HIT:     282047  MISS:          0  HIT %:        100  MISS %:          0   MPKI: 0
PSCL4 LOAD TRANSLATION ACCESS:      58364  HIT:      58364  MISS:          0  HIT %:        100  MISS %:          0   MPKI: 0
PSCL4 TRANSLATION FROM L1D PREFETCHER ACCESS:     223683  HIT:     223683  MISS:          0  HIT %:        100  MISS %:          0   MPKI: 0
PSCL4 PREFETCH  REQUESTED:          0  ISSUED:          0  USEFUL:          0  USELESS:          0
PSCL4 USEFUL LOAD PREFETCHES:          0 PREFETCH ISSUED TO LOWER LEVEL:          0  ACCURACY: -nan
PSCL4 TIMELY PREFETCHES:          0 LATE PREFETCHES: 0 DROPPED PREFETCHES: 0
PSCL4 PREFETCHES SAME FILL-ORIGIN LEVEL: 0 DIFFERENT FILL-ORIGIN LEVEL: 0

PSCL3 TOTAL     ACCESS:     217523  HIT:     217518  MISS:          5  HIT %:    99.9977  MISS %: 0.00229861   MPKI: 2.5e-05
PSCL3 LOAD TRANSLATION ACCESS:      58301  HIT:      58296  MISS:          5  HIT %:    99.9914  MISS %: 0.00857618   MPKI: 2.5e-05
PSCL3 TRANSLATION FROM L1D PREFETCHER ACCESS:     159222  HIT:     159222  MISS:          0  HIT %:        100  MISS %:          0   MPKI: 0
PSCL3 PREFETCH  REQUESTED:          0  ISSUED:          0  USEFUL:          0  USELESS:          0
PSCL3 USEFUL LOAD PREFETCHES:          0 PREFETCH ISSUED TO LOWER LEVEL:          0  ACCURACY: -nan
PSCL3 TIMELY PREFETCHES:          0 LATE PREFETCHES: 0 DROPPED PREFETCHES: 0
PSCL3 PREFETCHES SAME FILL-ORIGIN LEVEL: 0 DIFFERENT FILL-ORIGIN LEVEL: 0

PSCL2 TOTAL     ACCESS:     216910  HIT:     216206  MISS:        704  HIT %:    99.6754  MISS %:   0.324559   MPKI: 0.00352
PSCL2 LOAD TRANSLATION ACCESS:      58497  HIT:      57793  MISS:        704  HIT %:    98.7965  MISS %:    1.20348   MPKI: 0.00352
PSCL2 TRANSLATION FROM L1D PREFETCHER ACCESS:     158413  HIT:     158413  MISS:          0  HIT %:        100  MISS %:          0   MPKI: 0
PSCL2 PREFETCH  REQUESTED:          0  ISSUED:          0  USEFUL:          0  USELESS:          0
PSCL2 USEFUL LOAD PREFETCHES:          0 PREFETCH ISSUED TO LOWER LEVEL:          0  ACCURACY: -nan
PSCL2 TIMELY PREFETCHES:          0 LATE PREFETCHES: 0 DROPPED PREFETCHES: 0
PSCL2 PREFETCHES SAME FILL-ORIGIN LEVEL: 0 DIFFERENT FILL-ORIGIN LEVEL: 0

LLC TOTAL     ACCESS:    6860629  HIT:    1489022  MISS:    5371607  HIT %:    21.7039  MISS %:    78.2961   MPKI: 26.858
LLC LOAD      ACCESS:     139254  HIT:       2846  MISS:     136408  HIT %:    2.04375  MISS %:    97.9563   MPKI: 0.68204
LLC RFO       ACCESS:    1118598  HIT:        670  MISS:    1117928  HIT %:  0.0598964  MISS %:    99.9401   MPKI: 5.58964
LLC PREFETCH  ACCESS:    4125604  HIT:      52546  MISS:    4073058  HIT %:    1.27366  MISS %:    98.7263   MPKI: 20.3653
LLC WRITEBACK ACCESS:    1452550  HIT:    1432290  MISS:      20260  HIT %:    98.6052  MISS %:    1.39479   MPKI: 0.1013
LLC LOAD TRANSLATION ACCESS:      13848  HIT:        271  MISS:      13577  HIT %:    1.95696  MISS %:     98.043   MPKI: 0.067885
LLC TRANSLATION FROM L1D PREFETCHER ACCESS:      10775  HIT:        399  MISS:      10376  HIT %:    3.70302  MISS %:     96.297   MPKI: 0.05188
LLC PREFETCH  REQUESTED:          0  ISSUED:          0  USEFUL:     627646  USELESS:   67047164
LLC USEFUL LOAD PREFETCHES:     627646 PREFETCH ISSUED TO LOWER LEVEL:  558351228  ACCURACY: 0.112411
LLC TIMELY PREFETCHES:     627646 LATE PREFETCHES: 0 DROPPED PREFETCHES: 0
LLC PREFETCHES SAME FILL-ORIGIN LEVEL: 0 DIFFERENT FILL-ORIGIN LEVEL: 0
LLC AVERAGE MISS LATENCY: 19817.2 cycles
LLC RQ	ACCESS:   42746586	FORWARD:          0	MERGED:          0	TO_CACHE:   42746581
LLC WQ	ACCESS:   35393666	FORWARD:          9	MERGED:          0	TO_CACHE:   35393666
LLC PQ	ACCESS:   70911595	FORWARD:          0	MERGED:          0	TO_CACHE:   70911591

LLC Dense regions hint to LLC: 0

RAW hits: 2280121
Loads Generated: 78790586
Loads sent to L1D: 76510453
Stores Generated: 12396042
Stores sent to L1D: 12396042
Major fault: 0 Minor fault: 97116
Allocated PAGES: 216621

CPU 3 cumulative IPC: 0.0687572 instructions: 200000000 cycles: 2908786388
ITLB TOTAL     ACCESS:   44625632  HIT:   44625632  MISS:          0  HIT %:        100  MISS %:          0   MPKI: 0
ITLB LOAD TRANSLATION ACCESS:   44625632  HIT:   44625632  MISS:          0  HIT %:        100  MISS %:          0   MPKI: 0
ITLB PREFETCH  REQUESTED:          0  ISSUED:          0  USEFUL:          0  USELESS:          0
ITLB USEFUL LOAD PREFETCHES:          0 PREFETCH ISSUED TO LOWER LEVEL:          0  ACCURACY: -nan
ITLB TIMELY PREFETCHES:          0 LATE PREFETCHES: 0 DROPPED PREFETCHES: 0
ITLB PREFETCHES SAME FILL-ORIGIN LEVEL: 0 DIFFERENT FILL-ORIGIN LEVEL: 0
ITLB AVERAGE MISS LATENCY: -nan cycles
ITLB RQ	ACCESS:   44625631	FORWARD:          0	MERGED:          0	TO_CACHE:   44625631

DTLB TOTAL     ACCESS:   56195817  HIT:   44153535  MISS:   12042282  HIT %:    78.5709  MISS %:    21.4291   MPKI: 60.2114
DTLB LOAD TRANSLATION ACCESS:   56195817  HIT:   44153535  MISS:   12042282  HIT %:    78.5709  MISS %:    21.4291   MPKI: 60.2114
DTLB PREFETCH  REQUESTED:          0  ISSUED:          0  USEFUL:          0  USELESS:          0
DTLB USEFUL LOAD PREFETCHES:          0 PREFETCH ISSUED TO LOWER LEVEL:          0  ACCURACY: -nan
DTLB TIMELY PREFETCHES:          0 LATE PREFETCHES: 0 DROPPED PREFETCHES: 0
DTLB PREFETCHES SAME FILL-ORIGIN LEVEL: 0 DIFFERENT FILL-ORIGIN LEVEL: 0
DTLB AVERAGE MISS LATENCY: 21.1091 cycles
DTLB RQ	ACCESS:   58586832	FORWARD:          0	MERGED:    2220302	TO_CACHE:   56366530

STLB TOTAL     ACCESS:   26599711  HIT:   25018509  MISS:    1581202  HIT %:    94.0556  MISS %:    5.94443   MPKI: 7.90601
STLB LOAD TRANSLATION ACCESS:   12042282  HIT:   10462855  MISS:    1579427  HIT %:    86.8843  MISS %:    13.1157   MPKI: 7.89713
STLB TRANSLATION FROM L1D PREFETCHER ACCESS:   14557429  HIT:   14555654  MISS:       1775  HIT %:    99.9878  MISS %:  0.0121931   MPKI: 0.008875
STLB PREFETCH  REQUESTED:          0  ISSUED:          0  USEFUL:       1682  USELESS:         93
STLB USEFUL LOAD PREFETCHES:       1682 PREFETCH ISSUED TO LOWER LEVEL:          0  ACCURACY: inf
STLB TIMELY PREFETCHES:       1682 LATE PREFETCHES: 2244 DROPPED PREFETCHES: 1092082
STLB PREFETCHES SAME FILL-ORIGIN LEVEL: 0 DIFFERENT FILL-ORIGIN LEVEL: 0
STLB AVERAGE MISS LATENCY: 89.1032 cycles
STLB RQ	ACCESS:   99564316	FORWARD:          0	MERGED:   71826765	TO_CACHE:   27737551

STLB Hit, L1D data hit: 0
STLB Hit, L2C data hit: 0
STLB Hit, LLC data hit: 0
STLB Hit, LLC data miss: 0
STLB STLB hints to L2: 0
L1D TOTAL     ACCESS:  106738635  HIT:   93145376  MISS:   13593259  HIT %:    87.2649  MISS %:    12.7351   MPKI: 67.9663
L1D LOAD      ACCESS:   56322935  HIT:   44418920  MISS:   11904015  HIT %:    78.8647  MISS %:    21.1353   MPKI: 59.5201
L1D RFO       ACCESS:    1905097  HIT:    1874737  MISS:      30360  HIT %:    98.4064  MISS %:    1.59362   MPKI: 0.1518
L1D PREFETCH  ACCESS:   48510603  HIT:   46851719  MISS:    1658884  HIT %:    96.5804  MISS %:    3.41963   MPKI: 8.29442
L1D PREFETCH  REQUESTED:  288846763  ISSUED:  279001197  USEFUL:    1656790  USELESS:       2095
L1D USEFUL LOAD PREFETCHES:    1656790 PREFETCH ISSUED TO LOWER LEVEL:   34206569  ACCURACY: 4.84348
L1D TIMELY PREFETCHES:    1656790 LATE PREFETCHES: 23299 DROPPED PREFETCHES: 4376585
L1D PREFETCHES SAME FILL-ORIGIN LEVEL: 1686039 DIFFERENT FILL-ORIGIN LEVEL: 32520530
L1D AVERAGE MISS LATENCY: 748.85 cycles
L1D RQ	ACCESS:   78157630	FORWARD:          0	MERGED:   21511771	TO_CACHE:   56645859
L1D WQ	ACCESS:    1940973	FORWARD:          0	MERGED:          0	TO_CACHE:    1940973
L1D PQ	ACCESS:  191479163	FORWARD:          0	MERGED:  103957129	TO_CACHE:   87522034

L1D UNIQUE REGIONS ACCESSED: 0
L1D REGIONS CONFLICTS: 0
L1D Cross Page Prefetch Requests: 14932829
L1D Same Page Prefetch Requests: 217745303
L1D ROI Sum of L1D PQ occupancy: 1661376295
L1D PREFETCHES PUSHED FROM L2C: 0
L1I TOTAL     ACCESS:   44625632  HIT:   44625632  MISS:          0  HIT %:        100  MISS %:          0   MPKI: 0
L1I LOAD      ACCESS:   44625632  HIT:   44625632  MISS:          0  HIT %:        100  MISS %:          0   MPKI: 0
L1I PREFETCH  REQUESTED:          0  ISSUED:          0  USEFUL:          0  USELESS:          0
L1I USEFUL LOAD PREFETCHES:          0 PREFETCH ISSUED TO LOWER LEVEL:          0  ACCURACY: -nan
L1I TIMELY PREFETCHES:          0 LATE PREFETCHES: 0 DROPPED PREFETCHES: 0
L1I PREFETCHES SAME FILL-ORIGIN LEVEL: 0 DIFFERENT FILL-ORIGIN LEVEL: 0
L1I AVERAGE MISS LATENCY: -nan cycles
L1I RQ	ACCESS:   48142472	FORWARD:          0	MERGED:    3516841	TO_CACHE:   44625631

BTB TOTAL     ACCESS:   48060543  HIT:   48060542  MISS:          1  HIT %:        100  MISS %: 2.08071e-06   MPKI: 5e-06
BTB BRANCH_DIRECT_JUMP	ACCESS:          0  HIT:          0  MISS:          0
BTB BRANCH_INDIRECT	ACCESS:          0  HIT:          0  MISS:          0
BTB BRANCH_CONDITIONAL	ACCESS:   48060543  HIT:   48060542  MISS:          1
BTB BRANCH_DIRECT_CALL	ACCESS:          0  HIT:          0  MISS:          0
BTB BRANCH_INDIRECT_CALL	ACCESS:          0  HIT:          0  MISS:          0
BTB BRANCH_RETURN	ACCESS:          0  HIT:          0  MISS:          0
BTB BRANCH_OTHER ACCESS:          0  HIT:          0  MISS:          0

L2C TOTAL     ACCESS:   46306511  HIT:   34240546  MISS:   12065965  HIT %:    73.9433  MISS %:    26.0567   MPKI: 60.3298
L2C LOAD      ACCESS:   11880715  HIT:    1924928  MISS:    9955787  HIT %:    16.2021  MISS %:    83.7979   MPKI: 49.7789
L2C DATA LOAD MPKI: 49.7789
L2C INSTRUCTION LOAD MPKI: 0
L2C RFO       ACCESS:      30360  HIT:         29  MISS:      30331  HIT %:  0.0955204  MISS %:    99.9045   MPKI: 0.151655
L2C PREFETCH  ACCESS:   31689539  HIT:   29863595  MISS:    1825944  HIT %:     94.238  MISS %:    5.76198   MPKI: 9.12972
L2C DATA PREFETCH MPKI: 9.12972
L2C INSTRUCTION PREFETCH MPKI: 0
L2C WRITEBACK ACCESS:      30359  HIT:      26133  MISS:       4226  HIT %:    86.0799  MISS %:    13.9201   MPKI: 0.02113
L2C LOAD TRANSLATION ACCESS:    1579434  HIT:    1334747  MISS:     244687  HIT %:    84.5079  MISS %:    15.4921   MPKI: 1.22344
L2C TRANSLATION FROM L1D PREFETCHER ACCESS:    1096104  HIT:    1091114  MISS:       4990  HIT %:    99.5448  MISS %:   0.455249   MPKI: 0.02495
L2C PREFETCH  REQUESTED:          0  ISSUED:          0  USEFUL:      69458  USELESS:    1761311
L2C USEFUL LOAD PREFETCHES:      69458 PREFETCH ISSUED TO LOWER LEVEL:    1828388  ACCURACY: 3.79887
L2C TIMELY PREFETCHES:      69458 LATE PREFETCHES: 2444 DROPPED PREFETCHES: 0
L2C PREFETCHES SAME FILL-ORIGIN LEVEL: 1429497 DIFFERENT FILL-ORIGIN LEVEL: 0
L2C AVERAGE MISS LATENCY: 956.815 cycles
L2C RQ	ACCESS:   14586613	FORWARD:          0	MERGED:          0	TO_CACHE:   14586613
L2C WQ	ACCESS:      30359	FORWARD:          0	MERGED:          0	TO_CACHE:      30359
L2C PQ	ACCESS:   34075000	FORWARD:          0	MERGED:      49838	TO_CACHE:   34025162

L2C Instructions Evicting Data 0
L2C Translations Evicting Data 249365
L2C Data Evicting Data 11562796
L2C Instructions Evicting Instructions 0
L2C Translations Evicting Instructions 0
L2C Data Evicting Instructions 0
L2C Instructions Evicting Translations 0
L2C Translations Evicting Translations 312
L2C Data Evicting Translations 249266
L2C Dense regions hint from L2: 0
PSCL5 TOTAL     ACCESS:    2675516  HIT:    2675516  MISS:          0  HIT %:        100  MISS %:          0   MPKI: 0
PSCL5 LOAD TRANSLATION ACCESS:    1579415  HIT:    1579415  MISS:          0  HIT %:        100  MISS %:          0   MPKI: 0
PSCL5 TRANSLATION FROM L1D PREFETCHER ACCESS:    1096101  HIT:    1096101  MISS:          0  HIT %:        100  MISS %:          0   MPKI: 0
PSCL5 PREFETCH  REQUESTED:          0  ISSUED:          0  USEFUL:          0  USELESS:          0
PSCL5 USEFUL LOAD PREFETCHES:          0 PREFETCH ISSUED TO LOWER LEVEL:          0  ACCURACY: -nan
PSCL5 TIMELY PREFETCHES:          0 LATE PREFETCHES: 0 DROPPED PREFETCHES: 0
PSCL5 PREFETCHES SAME FILL-ORIGIN LEVEL: 0 DIFFERENT FILL-ORIGIN LEVEL: 0

PSCL4 TOTAL     ACCESS:    2675516  HIT:    2675516  MISS:          0  HIT %:        100  MISS %:          0   MPKI: 0
PSCL4 LOAD TRANSLATION ACCESS:    1579415  HIT:    1579415  MISS:          0  HIT %:        100  MISS %:          0   MPKI: 0
PSCL4 TRANSLATION FROM L1D PREFETCHER ACCESS:    1096101  HIT:    1096101  MISS:          0  HIT %:        100  MISS %:          0   MPKI: 0
PSCL4 PREFETCH  REQUESTED:          0  ISSUED:          0  USEFUL:          0  USELESS:          0
PSCL4 USEFUL LOAD PREFETCHES:          0 PREFETCH ISSUED TO LOWER LEVEL:          0  ACCURACY: -nan
PSCL4 TIMELY PREFETCHES:          0 LATE PREFETCHES: 0 DROPPED PREFETCHES: 0
PSCL4 PREFETCHES SAME FILL-ORIGIN LEVEL: 0 DIFFERENT FILL-ORIGIN LEVEL: 0

PSCL3 TOTAL     ACCESS:    2675516  HIT:    2675516  MISS:          0  HIT %:        100  MISS %:          0   MPKI: 0
PSCL3 LOAD TRANSLATION ACCESS:    1579415  HIT:    1579415  MISS:          0  HIT %:        100  MISS %:          0   MPKI: 0
PSCL3 TRANSLATION FROM L1D PREFETCHER ACCESS:    1096101  HIT:    1096101  MISS:          0  HIT %:        100  MISS %:          0   MPKI: 0
PSCL3 PREFETCH  REQUESTED:          0  ISSUED:          0  USEFUL:          0  USELESS:          0
PSCL3 USEFUL LOAD PREFETCHES:          0 PREFETCH ISSUED TO LOWER LEVEL:          0  ACCURACY: -nan
PSCL3 TIMELY PREFETCHES:          0 LATE PREFETCHES: 0 DROPPED PREFETCHES: 0
PSCL3 PREFETCHES SAME FILL-ORIGIN LEVEL: 0 DIFFERENT FILL-ORIGIN LEVEL: 0

PSCL2 TOTAL     ACCESS:    2673510  HIT:    2673436  MISS:         74  HIT %:    99.9972  MISS %:  0.0027679   MPKI: 0.00037
PSCL2 LOAD TRANSLATION ACCESS:    1579418  HIT:    1579344  MISS:         74  HIT %:    99.9953  MISS %: 0.00468527   MPKI: 0.00037
PSCL2 TRANSLATION FROM L1D PREFETCHER ACCESS:    1094092  HIT:    1094092  MISS:          0  HIT %:        100  MISS %:          0   MPKI: 0
PSCL2 PREFETCH  REQUESTED:          0  ISSUED:          0  USEFUL:          0  USELESS:          0
PSCL2 USEFUL LOAD PREFETCHES:          0 PREFETCH ISSUED TO LOWER LEVEL:          0  ACCURACY: -nan
PSCL2 TIMELY PREFETCHES:          0 LATE PREFETCHES: 0 DROPPED PREFETCHES: 0
PSCL2 PREFETCHES SAME FILL-ORIGIN LEVEL: 0 DIFFERENT FILL-ORIGIN LEVEL: 0

LLC TOTAL     ACCESS:   12092073  HIT:    2073401  MISS:   10018672  HIT %:    17.1468  MISS %:    82.8532   MPKI: 50.0934
LLC LOAD      ACCESS:    9953343  HIT:    1810261  MISS:    8143082  HIT %:    18.1875  MISS %:    81.8125   MPKI: 40.7154
LLC RFO       ACCESS:      30331  HIT:          1  MISS:      30330  HIT %: 0.00329696  MISS %:    99.9967   MPKI: 0.15165
LLC PREFETCH  ACCESS:    1828388  HIT:      26952  MISS:    1801436  HIT %:    1.47409  MISS %:    98.5259   MPKI: 9.00718
LLC WRITEBACK ACCESS:      30334  HIT:      22217  MISS:       8117  HIT %:    73.2412  MISS %:    26.7588   MPKI: 0.040585
LLC LOAD TRANSLATION ACCESS:     244687  HIT:     212539  MISS:      32148  HIT %:    86.8616  MISS %:    13.1384   MPKI: 0.16074
LLC TRANSLATION FROM L1D PREFETCHER ACCESS:       4990  HIT:       1431  MISS:       3559  HIT %:    28.6774  MISS %:    71.3226   MPKI: 0.017795
LLC PREFETCH  REQUESTED:          0  ISSUED:          0  USEFUL:     627646  USELESS:   67047164
LLC USEFUL LOAD PREFETCHES:     627646 PREFETCH ISSUED TO LOWER LEVEL:  558351228  ACCURACY: 0.112411
LLC TIMELY PREFETCHES:     627646 LATE PREFETCHES: 0 DROPPED PREFETCHES: 0
LLC PREFETCHES SAME FILL-ORIGIN LEVEL: 0 DIFFERENT FILL-ORIGIN LEVEL: 0
LLC AVERAGE MISS LATENCY: 10625.2 cycles
LLC RQ	ACCESS:   42746586	FORWARD:          0	MERGED:          0	TO_CACHE:   42746581
LLC WQ	ACCESS:   35393666	FORWARD:          9	MERGED:          0	TO_CACHE:   35393666
LLC PQ	ACCESS:   70911595	FORWARD:          0	MERGED:          0	TO_CACHE:   70911591

LLC Dense regions hint to LLC: 0

RAW hits: 0
Loads Generated: 78157620
Loads sent to L1D: 78157630
Stores Generated: 1940973
Stores sent to L1D: 1940973
Major fault: 0 Minor fault: 35029
Allocated PAGES: 216621

DRAM Statistics
 CHANNEL 0
 RQ ROW_BUFFER_HIT:   28733681  ROW_BUFFER_MISS:   78504845
 DBUS_CONGESTED:          6
 WQ ROW_BUFFER_HIT:    2986706  ROW_BUFFER_MISS:   31806178  FULL:          0

 AVG_CONGESTED_CYCLE: 7
 All warmup complete: 5
Channel 0 Bank busy for read cycles: 0
Channel 0 Bank busy for write cycles: 0
Channel 0
Rank 0
0banks busy for read cycles: 7526
0banks busy for write cycles: 0
1banks busy for read cycles: 4786559
1banks busy for write cycles: 3644999
2banks busy for read cycles: 9525849
2banks busy for write cycles: 3644996
3banks busy for read cycles: 20101134
3banks busy for write cycles: 3645009
4banks busy for read cycles: 38504180
4banks busy for write cycles: 3646870
5banks busy for read cycles: 70646620
5banks busy for write cycles: 3753959
6banks busy for read cycles: 132757124
6banks busy for write cycles: 8398936
7banks busy for read cycles: 332894380
7banks busy for write cycles: 111021665
8banks busy for read cycles: 1369324073
8banks busy for write cycles: 792482509

CPU 0 Branch Prediction Accuracy: 99.9772% MPKI: 0.077889 Average ROB Occupancy at Mispredict: 212.308
Branch types
NOT_BRANCH: 1306439183 65.7886%
BRANCH_DIRECT_JUMP: 112 5.64e-06%
BRANCH_INDIRECT: 0 0%
BRANCH_CONDITIONAL: 679374402 34.2114%
BRANCH_DIRECT_CALL: 48 2.41714e-06%
BRANCH_INDIRECT_CALL: 8 4.02857e-07%
BRANCH_RETURN: 64 3.22286e-06%
BRANCH_OTHER: 0 0%


CPU 1 Branch Prediction Accuracy: 99.885% MPKI: 0.0286428 Average ROB Occupancy at Mispredict: 296.565
Branch types
NOT_BRANCH: 3310615376 97.5027%
BRANCH_DIRECT_JUMP: 253232 0.00745807%
BRANCH_INDIRECT: 68 2.0027e-06%
BRANCH_CONDITIONAL: 84536336 2.48973%
BRANCH_DIRECT_CALL: 1401 4.12616e-05%
BRANCH_INDIRECT_CALL: 24 7.06837e-07%
BRANCH_RETURN: 1424 4.1939e-05%
BRANCH_OTHER: 0 0%


CPU 2 Branch Prediction Accuracy: 99.7752% MPKI: 0.0815724 Average ROB Occupancy at Mispredict: 256.019
Branch types
NOT_BRANCH: 1448723733 96.3689%
BRANCH_DIRECT_JUMP: 8342 0.000554909%
BRANCH_INDIRECT: 0 0%
BRANCH_CONDITIONAL: 54575754 3.63037%
BRANCH_DIRECT_CALL: 955 6.35265e-05%
BRANCH_INDIRECT_CALL: 0 0%
BRANCH_RETURN: 955 6.35265e-05%
BRANCH_OTHER: 0 0%


CPU 3 Branch Prediction Accuracy: 95.9718% MPKI: 9.17003 Average ROB Occupancy at Mispredict: 57.7687
Branch types
NOT_BRANCH: 151939559 75.9698%
BRANCH_DIRECT_JUMP: 0 0%
BRANCH_INDIRECT: 0 0%
BRANCH_CONDITIONAL: 48060543 24.0303%
BRANCH_DIRECT_CALL: 0 0%
BRANCH_INDIRECT_CALL: 0 0%
BRANCH_RETURN: 0 0%
BRANCH_OTHER: 0 0%

DRAM PAGES: 1048576
Allocated PAGES: 216621
