
*** ChampSim Multicore Out-of-Order Simulator ***

Warmup Instructions: 50000000
Simulation Instructions: 200000000
Number of CPUs: 4
LLC sets: 8192
LLC ways: 16
Off-chip DRAM Size: 4096 MB Channels: 1 Width: 64-bit Data Rate: 6400 MT/s
CPU 0 runs ./traces/spec/483.xalancbmk-127B.champsimtrace.xz
.xz
CPU 1 runs ./traces/spec/483.xalancbmk-127B.champsimtrace.xz
.xz
CPU 2 runs ./traces/spec/483.xalancbmk-127B.champsimtrace.xz
.xz
CPU 3 runs ./traces/spec/483.xalancbmk-127B.champsimtrace.xz
.xz
BTB has LRU replacement policy
ITLB has LRU replacement policy
DTLB has LRU replacement policy
STLB has LRU replacement policy
L1I has LRU replacement policy
History Sets: 8
History Ways: 16
BERTI Size: 16
BERTI Stride Size: 8
L1D has LRU replacement policy
Initialize SRRIP state for L2C
Initialize DRRIP state for LLC
BTB has LRU replacement policy
ITLB has LRU replacement policy
DTLB has LRU replacement policy
STLB has LRU replacement policy
L1I has LRU replacement policy
History Sets: 8
History Ways: 16
BERTI Size: 16
BERTI Stride Size: 8
L1D has LRU replacement policy
Initialize SRRIP state for L2C
Initialize DRRIP state for LLC
BTB has LRU replacement policy
ITLB has LRU replacement policy
DTLB has LRU replacement policy
STLB has LRU replacement policy
L1I has LRU replacement policy
History Sets: 8
History Ways: 16
BERTI Size: 16
BERTI Stride Size: 8
L1D has LRU replacement policy
Initialize SRRIP state for L2C
Initialize DRRIP state for LLC
BTB has LRU replacement policy
ITLB has LRU replacement policy
DTLB has LRU replacement policy
STLB has LRU replacement policy
L1I has LRU replacement policy
History Sets: 8
History Ways: 16
BERTI Size: 16
BERTI Stride Size: 8
L1D has LRU replacement policy
Initialize SRRIP state for L2C
Initialize DRRIP state for LLC
Heartbeat CPU 0 instructions: 10000000 cycles: 2979079 heartbeat IPC: 3.35674 cumulative IPC: 3.35674 (Simulation time: 0 hr 3 min 19 sec) 
Heartbeat CPU 1 instructions: 10000000 cycles: 2981330 heartbeat IPC: 3.35421 cumulative IPC: 3.35421 (Simulation time: 0 hr 3 min 19 sec) 
Heartbeat CPU 2 instructions: 10000000 cycles: 2984792 heartbeat IPC: 3.35032 cumulative IPC: 3.35032 (Simulation time: 0 hr 3 min 19 sec) 
Heartbeat CPU 3 instructions: 10000000 cycles: 2986103 heartbeat IPC: 3.34885 cumulative IPC: 3.34885 (Simulation time: 0 hr 3 min 19 sec) 
Heartbeat CPU 0 instructions: 20000003 cycles: 5956164 heartbeat IPC: 3.35899 cumulative IPC: 3.35787 (Simulation time: 0 hr 6 min 18 sec) 
Heartbeat CPU 1 instructions: 20000003 cycles: 5960953 heartbeat IPC: 3.35613 cumulative IPC: 3.35517 (Simulation time: 0 hr 6 min 19 sec) 
Heartbeat CPU 2 instructions: 20000003 cycles: 5966728 heartbeat IPC: 3.35353 cumulative IPC: 3.35192 (Simulation time: 0 hr 6 min 19 sec) 
Heartbeat CPU 3 instructions: 20000003 cycles: 5970661 heartbeat IPC: 3.35058 cumulative IPC: 3.34971 (Simulation time: 0 hr 6 min 19 sec) 
Heartbeat CPU 0 instructions: 30000003 cycles: 8989251 heartbeat IPC: 3.29697 cumulative IPC: 3.33732 (Simulation time: 0 hr 9 min 30 sec) 
Heartbeat CPU 1 instructions: 30000003 cycles: 8999585 heartbeat IPC: 3.29095 cumulative IPC: 3.33349 (Simulation time: 0 hr 9 min 31 sec) 
Heartbeat CPU 2 instructions: 30000003 cycles: 9008838 heartbeat IPC: 3.28719 cumulative IPC: 3.33006 (Simulation time: 0 hr 9 min 32 sec) 
Heartbeat CPU 3 instructions: 30000003 cycles: 9017817 heartbeat IPC: 3.28175 cumulative IPC: 3.32675 (Simulation time: 0 hr 9 min 33 sec) 
Heartbeat CPU 0 instructions: 40000001 cycles: 11979300 heartbeat IPC: 3.34443 cumulative IPC: 3.33909 (Simulation time: 0 hr 12 min 56 sec) 
Heartbeat CPU 1 instructions: 40000001 cycles: 11993390 heartbeat IPC: 3.34023 cumulative IPC: 3.33517 (Simulation time: 0 hr 12 min 57 sec) 
Heartbeat CPU 2 instructions: 40000001 cycles: 12003973 heartbeat IPC: 3.33875 cumulative IPC: 3.33223 (Simulation time: 0 hr 12 min 57 sec) 
Heartbeat CPU 3 instructions: 40000001 cycles: 12016177 heartbeat IPC: 3.33516 cumulative IPC: 3.32885 (Simulation time: 0 hr 12 min 58 sec) 
Heartbeat CPU 0 instructions: 50000001 cycles: 15007442 heartbeat IPC: 3.30236 cumulative IPC: 3.33168 (Simulation time: 0 hr 16 min 12 sec) 
Heartbeat CPU 1 instructions: 50000001 cycles: 15025748 heartbeat IPC: 3.29776 cumulative IPC: 3.32762 (Simulation time: 0 hr 16 min 13 sec) 
Heartbeat CPU 2 instructions: 50000001 cycles: 15038379 heartbeat IPC: 3.29554 cumulative IPC: 3.32483 (Simulation time: 0 hr 16 min 14 sec) 
Heartbeat CPU 3 instructions: 50000001 cycles: 15057451 heartbeat IPC: 3.2881 cumulative IPC: 3.32062 (Simulation time: 0 hr 16 min 15 sec) 

Warmup complete CPU 0 instructions: 50153513 cycles: 15057451 (Simulation time: 0 hr 16 min 15 sec) 
Warmup complete CPU 1 instructions: 50097022 cycles: 15057451 (Simulation time: 0 hr 16 min 15 sec) 
Warmup complete CPU 2 instructions: 50057893 cycles: 15057451 (Simulation time: 0 hr 16 min 15 sec) 
Warmup complete CPU 3 instructions: 50000001 cycles: 15057451 (Simulation time: 0 hr 16 min 15 sec) 

Heartbeat CPU 0 instructions: 60000000 cycles: 56865716 heartbeat IPC: 0.238901 cumulative IPC: 0.235515 (Simulation time: 0 hr 22 min 3 sec) 
Heartbeat CPU 1 instructions: 60000000 cycles: 57124362 heartbeat IPC: 0.237537 cumulative IPC: 0.23541 (Simulation time: 0 hr 22 min 5 sec) 
Heartbeat CPU 2 instructions: 60000000 cycles: 57143968 heartbeat IPC: 0.237498 cumulative IPC: 0.23623 (Simulation time: 0 hr 22 min 5 sec) 
Heartbeat CPU 3 instructions: 60000000 cycles: 57520934 heartbeat IPC: 0.235496 cumulative IPC: 0.235496 (Simulation time: 0 hr 22 min 9 sec) 
Heartbeat CPU 0 instructions: 70000000 cycles: 101458346 heartbeat IPC: 0.224252 cumulative IPC: 0.229702 (Simulation time: 0 hr 28 min 27 sec) 
Heartbeat CPU 2 instructions: 70000000 cycles: 101541017 heartbeat IPC: 0.22524 cumulative IPC: 0.230588 (Simulation time: 0 hr 28 min 28 sec) 
Heartbeat CPU 1 instructions: 70000000 cycles: 101597604 heartbeat IPC: 0.224854 cumulative IPC: 0.229985 (Simulation time: 0 hr 28 min 28 sec) 
Heartbeat CPU 3 instructions: 70000000 cycles: 102310068 heartbeat IPC: 0.223268 cumulative IPC: 0.229219 (Simulation time: 0 hr 28 min 35 sec) 
Heartbeat CPU 0 instructions: 80000001 cycles: 142464527 heartbeat IPC: 0.243866 cumulative IPC: 0.234261 (Simulation time: 0 hr 34 min 11 sec) 
Heartbeat CPU 1 instructions: 80000001 cycles: 142500689 heartbeat IPC: 0.24448 cumulative IPC: 0.234638 (Simulation time: 0 hr 34 min 11 sec) 
Heartbeat CPU 2 instructions: 80000001 cycles: 142981066 heartbeat IPC: 0.241312 cumulative IPC: 0.234062 (Simulation time: 0 hr 34 min 15 sec) 
Heartbeat CPU 3 instructions: 80000001 cycles: 143920324 heartbeat IPC: 0.240325 cumulative IPC: 0.232806 (Simulation time: 0 hr 34 min 22 sec) 
Heartbeat CPU 0 instructions: 90000000 cycles: 188349793 heartbeat IPC: 0.217935 cumulative IPC: 0.229938 (Simulation time: 0 hr 39 min 53 sec) 
Heartbeat CPU 1 instructions: 90000000 cycles: 188407340 heartbeat IPC: 0.217833 cumulative IPC: 0.230188 (Simulation time: 0 hr 39 min 53 sec) 
Heartbeat CPU 2 instructions: 90000000 cycles: 188983053 heartbeat IPC: 0.217382 cumulative IPC: 0.229651 (Simulation time: 0 hr 39 min 58 sec) 
Heartbeat CPU 3 instructions: 90000000 cycles: 189687308 heartbeat IPC: 0.218498 cumulative IPC: 0.229056 (Simulation time: 0 hr 40 min 5 sec) 
Heartbeat CPU 0 instructions: 100000001 cycles: 228979863 heartbeat IPC: 0.246123 cumulative IPC: 0.233012 (Simulation time: 0 hr 45 min 23 sec) 
Heartbeat CPU 1 instructions: 100000001 cycles: 229002289 heartbeat IPC: 0.246336 cumulative IPC: 0.233252 (Simulation time: 0 hr 45 min 23 sec) 
Heartbeat CPU 2 instructions: 100000001 cycles: 229678909 heartbeat IPC: 0.245725 cumulative IPC: 0.232699 (Simulation time: 0 hr 45 min 28 sec) 
Heartbeat CPU 3 instructions: 100000001 cycles: 230516685 heartbeat IPC: 0.244922 cumulative IPC: 0.232062 (Simulation time: 0 hr 45 min 34 sec) 
Heartbeat CPU 0 instructions: 110000000 cycles: 274736649 heartbeat IPC: 0.218547 cumulative IPC: 0.230463 (Simulation time: 0 hr 51 min 13 sec) 
Heartbeat CPU 1 instructions: 110000000 cycles: 274847964 heartbeat IPC: 0.218123 cumulative IPC: 0.230582 (Simulation time: 0 hr 51 min 14 sec) 
Heartbeat CPU 2 instructions: 110000000 cycles: 275615863 heartbeat IPC: 0.21769 cumulative IPC: 0.230052 (Simulation time: 0 hr 51 min 19 sec) 
Heartbeat CPU 3 instructions: 110000000 cycles: 276331226 heartbeat IPC: 0.218271 cumulative IPC: 0.229644 (Simulation time: 0 hr 51 min 25 sec) 
Heartbeat CPU 0 instructions: 120000000 cycles: 321239577 heartbeat IPC: 0.21504 cumulative IPC: 0.228121 (Simulation time: 0 hr 57 min 7 sec) 
Heartbeat CPU 1 instructions: 120000000 cycles: 321500423 heartbeat IPC: 0.214351 cumulative IPC: 0.228111 (Simulation time: 0 hr 57 min 9 sec) 
Heartbeat CPU 2 instructions: 120000000 cycles: 322072375 heartbeat IPC: 0.215255 cumulative IPC: 0.227813 (Simulation time: 0 hr 57 min 14 sec) 
Heartbeat CPU 3 instructions: 120000000 cycles: 322742209 heartbeat IPC: 0.215466 cumulative IPC: 0.227506 (Simulation time: 0 hr 57 min 20 sec) 
Heartbeat CPU 0 instructions: 130000001 cycles: 365673820 heartbeat IPC: 0.225052 cumulative IPC: 0.227732 (Simulation time: 1 hr 2 min 58 sec) 
Heartbeat CPU 1 instructions: 130000001 cycles: 366053523 heartbeat IPC: 0.224451 cumulative IPC: 0.227646 (Simulation time: 1 hr 3 min 1 sec) 
Heartbeat CPU 2 instructions: 130000001 cycles: 366884840 heartbeat IPC: 0.223152 cumulative IPC: 0.22722 (Simulation time: 1 hr 3 min 9 sec) 
Heartbeat CPU 3 instructions: 130000001 cycles: 367868573 heartbeat IPC: 0.2216 cumulative IPC: 0.22675 (Simulation time: 1 hr 3 min 17 sec) 
Heartbeat CPU 0 instructions: 140000001 cycles: 407703068 heartbeat IPC: 0.23793 cumulative IPC: 0.228823 (Simulation time: 1 hr 8 min 31 sec) 
Heartbeat CPU 1 instructions: 140000001 cycles: 408021252 heartbeat IPC: 0.238278 cumulative IPC: 0.228782 (Simulation time: 1 hr 8 min 34 sec) 
Heartbeat CPU 2 instructions: 140000001 cycles: 408918352 heartbeat IPC: 0.237905 cumulative IPC: 0.22836 (Simulation time: 1 hr 8 min 44 sec) 
Heartbeat CPU 3 instructions: 140000001 cycles: 409953408 heartbeat IPC: 0.237615 cumulative IPC: 0.227908 (Simulation time: 1 hr 8 min 52 sec) 
Heartbeat CPU 0 instructions: 150000001 cycles: 447110556 heartbeat IPC: 0.253759 cumulative IPC: 0.231098 (Simulation time: 1 hr 14 min 17 sec) 
Heartbeat CPU 1 instructions: 150000001 cycles: 447621252 heartbeat IPC: 0.252525 cumulative IPC: 0.230955 (Simulation time: 1 hr 14 min 21 sec) 
Heartbeat CPU 2 instructions: 150000001 cycles: 448829254 heartbeat IPC: 0.250558 cumulative IPC: 0.230402 (Simulation time: 1 hr 14 min 30 sec) 
Heartbeat CPU 3 instructions: 150000001 cycles: 450322061 heartbeat IPC: 0.247717 cumulative IPC: 0.229745 (Simulation time: 1 hr 14 min 42 sec) 
Heartbeat CPU 0 instructions: 160000001 cycles: 488916587 heartbeat IPC: 0.2392 cumulative IPC: 0.231813 (Simulation time: 1 hr 19 min 52 sec) 
Heartbeat CPU 1 instructions: 160000001 cycles: 489412813 heartbeat IPC: 0.239283 cumulative IPC: 0.231689 (Simulation time: 1 hr 19 min 56 sec) 
Heartbeat CPU 2 instructions: 160000001 cycles: 490514616 heartbeat IPC: 0.239892 cumulative IPC: 0.231235 (Simulation time: 1 hr 20 min 7 sec) 
Heartbeat CPU 3 instructions: 160000001 cycles: 492225220 heartbeat IPC: 0.238645 cumulative IPC: 0.230527 (Simulation time: 1 hr 20 min 23 sec) 
Heartbeat CPU 0 instructions: 170000000 cycles: 530064063 heartbeat IPC: 0.243028 cumulative IPC: 0.232709 (Simulation time: 1 hr 25 min 41 sec) 
Heartbeat CPU 1 instructions: 170000000 cycles: 530537470 heartbeat IPC: 0.243163 cumulative IPC: 0.232605 (Simulation time: 1 hr 25 min 44 sec) 
Heartbeat CPU 2 instructions: 170000000 cycles: 531621111 heartbeat IPC: 0.243271 cumulative IPC: 0.232192 (Simulation time: 1 hr 25 min 52 sec) 
Heartbeat CPU 3 instructions: 170000000 cycles: 533650887 heartbeat IPC: 0.241396 cumulative IPC: 0.231395 (Simulation time: 1 hr 26 min 10 sec) 
Heartbeat CPU 0 instructions: 180000001 cycles: 572053258 heartbeat IPC: 0.238157 cumulative IPC: 0.233119 (Simulation time: 1 hr 31 min 22 sec) 
Heartbeat CPU 1 instructions: 180000001 cycles: 572689648 heartbeat IPC: 0.237236 cumulative IPC: 0.232955 (Simulation time: 1 hr 31 min 27 sec) 
Heartbeat CPU 2 instructions: 180000001 cycles: 573804596 heartbeat IPC: 0.23706 cumulative IPC: 0.23256 (Simulation time: 1 hr 31 min 35 sec) 
Heartbeat CPU 3 instructions: 180000001 cycles: 575418916 heartbeat IPC: 0.239418 cumulative IPC: 0.231993 (Simulation time: 1 hr 31 min 46 sec) 
Heartbeat CPU 0 instructions: 190000001 cycles: 622337120 heartbeat IPC: 0.198871 cumulative IPC: 0.230283 (Simulation time: 1 hr 38 min 0 sec) 
Heartbeat CPU 1 instructions: 190000001 cycles: 622921798 heartbeat IPC: 0.199076 cumulative IPC: 0.230155 (Simulation time: 1 hr 38 min 4 sec) 
Heartbeat CPU 2 instructions: 190000001 cycles: 623803195 heartbeat IPC: 0.200006 cumulative IPC: 0.229886 (Simulation time: 1 hr 38 min 13 sec) 
Heartbeat CPU 3 instructions: 190000001 cycles: 625087539 heartbeat IPC: 0.201334 cumulative IPC: 0.229497 (Simulation time: 1 hr 38 min 24 sec) 
Heartbeat CPU 0 instructions: 200000000 cycles: 668557216 heartbeat IPC: 0.216356 cumulative IPC: 0.229298 (Simulation time: 1 hr 44 min 35 sec) 
Heartbeat CPU 1 instructions: 200000000 cycles: 669083254 heartbeat IPC: 0.216631 cumulative IPC: 0.2292 (Simulation time: 1 hr 44 min 39 sec) 
Heartbeat CPU 2 instructions: 200000000 cycles: 669911827 heartbeat IPC: 0.216879 cumulative IPC: 0.22897 (Simulation time: 1 hr 44 min 47 sec) 
Heartbeat CPU 3 instructions: 200000000 cycles: 671047137 heartbeat IPC: 0.217582 cumulative IPC: 0.228662 (Simulation time: 1 hr 44 min 58 sec) 
Heartbeat CPU 0 instructions: 210000000 cycles: 714734194 heartbeat IPC: 0.216558 cumulative IPC: 0.228458 (Simulation time: 1 hr 51 min 30 sec) 
Heartbeat CPU 1 instructions: 210000000 cycles: 715181479 heartbeat IPC: 0.216928 cumulative IPC: 0.228392 (Simulation time: 1 hr 51 min 34 sec) 
Heartbeat CPU 2 instructions: 210000000 cycles: 715986679 heartbeat IPC: 0.217038 cumulative IPC: 0.228186 (Simulation time: 1 hr 51 min 42 sec) 
Heartbeat CPU 3 instructions: 210000000 cycles: 717037048 heartbeat IPC: 0.217439 cumulative IPC: 0.227927 (Simulation time: 1 hr 51 min 53 sec) 
Heartbeat CPU 0 instructions: 220000000 cycles: 756101906 heartbeat IPC: 0.241734 cumulative IPC: 0.229199 (Simulation time: 1 hr 57 min 48 sec) 
Heartbeat CPU 1 instructions: 220000000 cycles: 756539038 heartbeat IPC: 0.241794 cumulative IPC: 0.22914 (Simulation time: 1 hr 57 min 51 sec) 
Heartbeat CPU 2 instructions: 220000000 cycles: 757537156 heartbeat IPC: 0.240671 cumulative IPC: 0.228885 (Simulation time: 1 hr 57 min 58 sec) 
Heartbeat CPU 3 instructions: 220000000 cycles: 759237690 heartbeat IPC: 0.236963 cumulative IPC: 0.228439 (Simulation time: 1 hr 58 min 13 sec) 
Heartbeat CPU 0 instructions: 230000001 cycles: 798888770 heartbeat IPC: 0.233717 cumulative IPC: 0.229445 (Simulation time: 2 hr 4 min 25 sec) 
Heartbeat CPU 1 instructions: 230000001 cycles: 799367808 heartbeat IPC: 0.233488 cumulative IPC: 0.229377 (Simulation time: 2 hr 4 min 30 sec) 
Heartbeat CPU 2 instructions: 230000001 cycles: 800898082 heartbeat IPC: 0.230622 cumulative IPC: 0.22898 (Simulation time: 2 hr 4 min 44 sec) 
Heartbeat CPU 3 instructions: 230000001 cycles: 803333298 heartbeat IPC: 0.22678 cumulative IPC: 0.228346 (Simulation time: 2 hr 5 min 8 sec) 
Heartbeat CPU 0 instructions: 240000001 cycles: 844067263 heartbeat IPC: 0.221344 cumulative IPC: 0.229004 (Simulation time: 2 hr 11 min 30 sec) 
Heartbeat CPU 1 instructions: 240000001 cycles: 844598451 heartbeat IPC: 0.221089 cumulative IPC: 0.228925 (Simulation time: 2 hr 11 min 35 sec) 
Heartbeat CPU 2 instructions: 240000001 cycles: 846733807 heartbeat IPC: 0.21817 cumulative IPC: 0.228385 (Simulation time: 2 hr 11 min 53 sec) 
Heartbeat CPU 3 instructions: 240000001 cycles: 849791581 heartbeat IPC: 0.215247 cumulative IPC: 0.227617 (Simulation time: 2 hr 12 min 20 sec) 
Heartbeat CPU 0 instructions: 250000000 cycles: 886270650 heartbeat IPC: 0.236948 cumulative IPC: 0.229389 (Simulation time: 2 hr 17 min 22 sec) 
Heartbeat CPU 1 instructions: 250000000 cycles: 886698156 heartbeat IPC: 0.237531 cumulative IPC: 0.229341 (Simulation time: 2 hr 17 min 26 sec) 
Finished CPU 0 instructions: 200000001 cycles: 871844759 cumulative IPC: 0.229399 (Simulation time: 2 hr 17 min 28 sec) 
Finished CPU 1 instructions: 200000003 cycles: 872056402 cumulative IPC: 0.229343 (Simulation time: 2 hr 17 min 30 sec) 
Heartbeat CPU 2 instructions: 250000000 cycles: 888842806 heartbeat IPC: 0.237479 cumulative IPC: 0.228823 (Simulation time: 2 hr 17 min 45 sec) 
Finished CPU 2 instructions: 200000000 cycles: 874014290 cumulative IPC: 0.228829 (Simulation time: 2 hr 17 min 46 sec) 
Heartbeat CPU 3 instructions: 250000000 cycles: 891946031 heartbeat IPC: 0.237223 cumulative IPC: 0.228079 (Simulation time: 2 hr 18 min 11 sec) 
Finished CPU 3 instructions: 200000002 cycles: 876888584 cumulative IPC: 0.228079 (Simulation time: 2 hr 18 min 11 sec) 

ChampSim completed all CPUs

Total Simulation Statistics (not including warmup)

CPU 0 cumulative IPC: 0.229499 instructions: 201245381 cycles: 876888584
ITLB TOTAL     ACCESS:   37516600  HIT:   37459280  MISS:      57320  HIT %:    99.8472  MISS %:   0.152786   MPKI: 0.284826
ITLB LOAD      ACCESS:          0  HIT:          0  MISS:          0  HIT %:       -nan  MISS %:       -nan   MPKI: 0
ITLB RFO       ACCESS:          0  HIT:          0  MISS:          0  HIT %:       -nan  MISS %:       -nan   MPKI: 0
ITLB PREFETCH  ACCESS:          0  HIT:          0  MISS:          0  HIT %:       -nan  MISS %:       -nan   MPKI: 0
ITLB WRITEBACK ACCESS:          0  HIT:          0  MISS:          0  HIT %:       -nan  MISS %:       -nan   MPKI: 0
DTLB TOTAL     ACCESS:   32816843  HIT:   32001621  MISS:     815222  HIT %:    97.5158  MISS %:    2.48416   MPKI: 4.05089
DTLB LOAD      ACCESS:          0  HIT:          0  MISS:          0  HIT %:       -nan  MISS %:       -nan   MPKI: 0
DTLB RFO       ACCESS:          0  HIT:          0  MISS:          0  HIT %:       -nan  MISS %:       -nan   MPKI: 0
DTLB PREFETCH  ACCESS:          0  HIT:          0  MISS:          0  HIT %:       -nan  MISS %:       -nan   MPKI: 0
DTLB WRITEBACK ACCESS:          0  HIT:          0  MISS:          0  HIT %:       -nan  MISS %:       -nan   MPKI: 0
STLB TOTAL     ACCESS:    8701328  HIT:    7980501  MISS:     720827  HIT %:    91.7159  MISS %:     8.2841   MPKI: 3.58183
STLB LOAD      ACCESS:          0  HIT:          0  MISS:          0  HIT %:       -nan  MISS %:       -nan   MPKI: 0
STLB RFO       ACCESS:          0  HIT:          0  MISS:          0  HIT %:       -nan  MISS %:       -nan   MPKI: 0
STLB PREFETCH  ACCESS:          0  HIT:          0  MISS:          0  HIT %:       -nan  MISS %:       -nan   MPKI: 0
STLB WRITEBACK ACCESS:          0  HIT:          0  MISS:          0  HIT %:       -nan  MISS %:       -nan   MPKI: 0
L1D TOTAL     ACCESS:   51162044  HIT:   45595444  MISS:    5566600  HIT %:    89.1197  MISS %:    10.8803   MPKI: 27.6608
L1D LOAD      ACCESS:   29284841  HIT:   23857267  MISS:    5427574  HIT %:    81.4663  MISS %:    18.5337   MPKI: 26.9699
L1D RFO       ACCESS:    6663880  HIT:    6639629  MISS:      24251  HIT %:    99.6361  MISS %:   0.363917   MPKI: 0.120505
L1D PREFETCH  ACCESS:   15213323  HIT:   15098548  MISS:     114775  HIT %:    99.2456  MISS %:   0.754437   MPKI: 0.570324
L1D WRITEBACK ACCESS:          0  HIT:          0  MISS:          0  HIT %:       -nan  MISS %:       -nan   MPKI: 0
L1I TOTAL     ACCESS:   42811351  HIT:   42553339  MISS:     258012  HIT %:    99.3973  MISS %:   0.602672   MPKI: 1.28208
L1I LOAD      ACCESS:   42811351  HIT:   42553339  MISS:     258012  HIT %:    99.3973  MISS %:   0.602672   MPKI: 1.28208
L1I RFO       ACCESS:          0  HIT:          0  MISS:          0  HIT %:       -nan  MISS %:       -nan   MPKI: 0
L1I PREFETCH  ACCESS:          0  HIT:          0  MISS:          0  HIT %:       -nan  MISS %:       -nan   MPKI: 0
L1I WRITEBACK ACCESS:          0  HIT:          0  MISS:          0  HIT %:       -nan  MISS %:       -nan   MPKI: 0
L2C TOTAL     ACCESS:   21677270  HIT:   12774189  MISS:    8903081  HIT %:     58.929  MISS %:     41.071   MPKI: 44.2399
L2C LOAD      ACCESS:    5683829  HIT:    1657387  MISS:    4026442  HIT %:    29.1597  MISS %:    70.8403   MPKI: 20.0076
L2C RFO       ACCESS:      24251  HIT:       6978  MISS:      17273  HIT %:    28.7741  MISS %:    71.2259   MPKI: 0.0858305
L2C PREFETCH  ACCESS:   14982539  HIT:   10398181  MISS:    4584358  HIT %:     69.402  MISS %:     30.598   MPKI: 22.7799
L2C WRITEBACK ACCESS:      51281  HIT:      42481  MISS:       8800  HIT %:    82.8396  MISS %:    17.1604   MPKI: 0.0437277
PSCL5 TOTAL     ACCESS:     885007  HIT:     885007  MISS:          0  HIT %:        100  MISS %:          0   MPKI: 0
PSCL5 LOAD      ACCESS:          0  HIT:          0  MISS:          0  HIT %:       -nan  MISS %:       -nan   MPKI: 0
PSCL5 RFO       ACCESS:          0  HIT:          0  MISS:          0  HIT %:       -nan  MISS %:       -nan   MPKI: 0
PSCL5 PREFETCH  ACCESS:          0  HIT:          0  MISS:          0  HIT %:       -nan  MISS %:       -nan   MPKI: 0
PSCL5 WRITEBACK ACCESS:          0  HIT:          0  MISS:          0  HIT %:       -nan  MISS %:       -nan   MPKI: 0
PSCL4 TOTAL     ACCESS:     885007  HIT:     885007  MISS:          0  HIT %:        100  MISS %:          0   MPKI: 0
PSCL4 LOAD      ACCESS:          0  HIT:          0  MISS:          0  HIT %:       -nan  MISS %:       -nan   MPKI: 0
PSCL4 RFO       ACCESS:          0  HIT:          0  MISS:          0  HIT %:       -nan  MISS %:       -nan   MPKI: 0
PSCL4 PREFETCH  ACCESS:          0  HIT:          0  MISS:          0  HIT %:       -nan  MISS %:       -nan   MPKI: 0
PSCL4 WRITEBACK ACCESS:          0  HIT:          0  MISS:          0  HIT %:       -nan  MISS %:       -nan   MPKI: 0
PSCL3 TOTAL     ACCESS:     885007  HIT:     885007  MISS:          0  HIT %:        100  MISS %:          0   MPKI: 0
PSCL3 LOAD      ACCESS:          0  HIT:          0  MISS:          0  HIT %:       -nan  MISS %:       -nan   MPKI: 0
PSCL3 RFO       ACCESS:          0  HIT:          0  MISS:          0  HIT %:       -nan  MISS %:       -nan   MPKI: 0
PSCL3 PREFETCH  ACCESS:          0  HIT:          0  MISS:          0  HIT %:       -nan  MISS %:       -nan   MPKI: 0
PSCL3 WRITEBACK ACCESS:          0  HIT:          0  MISS:          0  HIT %:       -nan  MISS %:       -nan   MPKI: 0
PSCL2 TOTAL     ACCESS:     876789  HIT:     834644  MISS:      42145  HIT %:    95.1933  MISS %:    4.80674   MPKI: 0.209421
PSCL2 LOAD      ACCESS:          0  HIT:          0  MISS:          0  HIT %:       -nan  MISS %:       -nan   MPKI: 0
PSCL2 RFO       ACCESS:          0  HIT:          0  MISS:          0  HIT %:       -nan  MISS %:       -nan   MPKI: 0
PSCL2 PREFETCH  ACCESS:          0  HIT:          0  MISS:          0  HIT %:       -nan  MISS %:       -nan   MPKI: 0
PSCL2 WRITEBACK ACCESS:          0  HIT:          0  MISS:          0  HIT %:       -nan  MISS %:       -nan   MPKI: 0
LLC TOTAL     ACCESS:    8931977  HIT:     368252  MISS:    8563725  HIT %:    4.12285  MISS %:    95.8772   MPKI: 42.5536
LLC LOAD      ACCESS:    3766740  HIT:     153798  MISS:    3612942  HIT %:    4.08305  MISS %:    95.9169   MPKI: 17.9529
LLC RFO       ACCESS:      17198  HIT:       2725  MISS:      14473  HIT %:    15.8449  MISS %:    84.1551   MPKI: 0.0719172
LLC PREFETCH  ACCESS:    4844135  HIT:     122626  MISS:    4721509  HIT %:    2.53143  MISS %:    97.4686   MPKI: 23.4615
LLC WRITEBACK ACCESS:      37696  HIT:      35678  MISS:       2018  HIT %:    94.6466  MISS %:    5.35335   MPKI: 0.0100276

RAW hits: 2538798
Loads Generated: 62895353
Loads sent to L1D: 60356551
Stores Generated: 6787443
Stores sent to L1D: 6787441

CPU 1 cumulative IPC: 0.229437 instructions: 201190445 cycles: 876888584
ITLB TOTAL     ACCESS:   37507033  HIT:   37449713  MISS:      57320  HIT %:    99.8472  MISS %:   0.152825   MPKI: 0.284904
ITLB LOAD      ACCESS:          0  HIT:          0  MISS:          0  HIT %:       -nan  MISS %:       -nan   MPKI: 0
ITLB RFO       ACCESS:          0  HIT:          0  MISS:          0  HIT %:       -nan  MISS %:       -nan   MPKI: 0
ITLB PREFETCH  ACCESS:          0  HIT:          0  MISS:          0  HIT %:       -nan  MISS %:       -nan   MPKI: 0
ITLB WRITEBACK ACCESS:          0  HIT:          0  MISS:          0  HIT %:       -nan  MISS %:       -nan   MPKI: 0
DTLB TOTAL     ACCESS:   32807584  HIT:   31992437  MISS:     815147  HIT %:    97.5154  MISS %:    2.48463   MPKI: 4.05162
DTLB LOAD      ACCESS:          0  HIT:          0  MISS:          0  HIT %:       -nan  MISS %:       -nan   MPKI: 0
DTLB RFO       ACCESS:          0  HIT:          0  MISS:          0  HIT %:       -nan  MISS %:       -nan   MPKI: 0
DTLB PREFETCH  ACCESS:          0  HIT:          0  MISS:          0  HIT %:       -nan  MISS %:       -nan   MPKI: 0
DTLB WRITEBACK ACCESS:          0  HIT:          0  MISS:          0  HIT %:       -nan  MISS %:       -nan   MPKI: 0
STLB TOTAL     ACCESS:    8680282  HIT:    7959631  MISS:     720651  HIT %:    91.6978  MISS %:    8.30216   MPKI: 3.58193
STLB LOAD      ACCESS:          0  HIT:          0  MISS:          0  HIT %:       -nan  MISS %:       -nan   MPKI: 0
STLB RFO       ACCESS:          0  HIT:          0  MISS:          0  HIT %:       -nan  MISS %:       -nan   MPKI: 0
STLB PREFETCH  ACCESS:          0  HIT:          0  MISS:          0  HIT %:       -nan  MISS %:       -nan   MPKI: 0
STLB WRITEBACK ACCESS:          0  HIT:          0  MISS:          0  HIT %:       -nan  MISS %:       -nan   MPKI: 0
L1D TOTAL     ACCESS:   50967382  HIT:   45402270  MISS:    5565112  HIT %:     89.081  MISS %:     10.919   MPKI: 27.6609
L1D LOAD      ACCESS:   29276327  HIT:   23850031  MISS:    5426296  HIT %:    81.4652  MISS %:    18.5348   MPKI: 26.9709
L1D RFO       ACCESS:    6662732  HIT:    6638517  MISS:      24215  HIT %:    99.6366  MISS %:    0.36344   MPKI: 0.120359
L1D PREFETCH  ACCESS:   15028323  HIT:   14913722  MISS:     114601  HIT %:    99.2374  MISS %:   0.762567   MPKI: 0.569615
L1D WRITEBACK ACCESS:          0  HIT:          0  MISS:          0  HIT %:       -nan  MISS %:       -nan   MPKI: 0
L1I TOTAL     ACCESS:   42799945  HIT:   42541933  MISS:     258012  HIT %:    99.3972  MISS %:   0.602833   MPKI: 1.28243
L1I LOAD      ACCESS:   42799945  HIT:   42541933  MISS:     258012  HIT %:    99.3972  MISS %:   0.602833   MPKI: 1.28243
L1I RFO       ACCESS:          0  HIT:          0  MISS:          0  HIT %:       -nan  MISS %:       -nan   MPKI: 0
L1I PREFETCH  ACCESS:          0  HIT:          0  MISS:          0  HIT %:       -nan  MISS %:       -nan   MPKI: 0
L1I WRITEBACK ACCESS:          0  HIT:          0  MISS:          0  HIT %:       -nan  MISS %:       -nan   MPKI: 0
L2C TOTAL     ACCESS:   21677191  HIT:   12773614  MISS:    8903577  HIT %:    58.9265  MISS %:    41.0735   MPKI: 44.2545
L2C LOAD      ACCESS:    5682523  HIT:    1656803  MISS:    4025720  HIT %:    29.1561  MISS %:    70.8439   MPKI: 20.0095
L2C RFO       ACCESS:      24214  HIT:       6915  MISS:      17299  HIT %:    28.5579  MISS %:    71.4421   MPKI: 0.0859832
L2C PREFETCH  ACCESS:   14984090  HIT:   10399290  MISS:    4584800  HIT %:    69.4022  MISS %:    30.5978   MPKI: 22.7884
L2C WRITEBACK ACCESS:      51264  HIT:      41821  MISS:       9443  HIT %:    81.5797  MISS %:    18.4203   MPKI: 0.0469356
PSCL5 TOTAL     ACCESS:     885863  HIT:     885863  MISS:          0  HIT %:        100  MISS %:          0   MPKI: 0
PSCL5 LOAD      ACCESS:          0  HIT:          0  MISS:          0  HIT %:       -nan  MISS %:       -nan   MPKI: 0
PSCL5 RFO       ACCESS:          0  HIT:          0  MISS:          0  HIT %:       -nan  MISS %:       -nan   MPKI: 0
PSCL5 PREFETCH  ACCESS:          0  HIT:          0  MISS:          0  HIT %:       -nan  MISS %:       -nan   MPKI: 0
PSCL5 WRITEBACK ACCESS:          0  HIT:          0  MISS:          0  HIT %:       -nan  MISS %:       -nan   MPKI: 0
PSCL4 TOTAL     ACCESS:     885863  HIT:     885863  MISS:          0  HIT %:        100  MISS %:          0   MPKI: 0
PSCL4 LOAD      ACCESS:          0  HIT:          0  MISS:          0  HIT %:       -nan  MISS %:       -nan   MPKI: 0
PSCL4 RFO       ACCESS:          0  HIT:          0  MISS:          0  HIT %:       -nan  MISS %:       -nan   MPKI: 0
PSCL4 PREFETCH  ACCESS:          0  HIT:          0  MISS:          0  HIT %:       -nan  MISS %:       -nan   MPKI: 0
PSCL4 WRITEBACK ACCESS:          0  HIT:          0  MISS:          0  HIT %:       -nan  MISS %:       -nan   MPKI: 0
PSCL3 TOTAL     ACCESS:     885863  HIT:     885863  MISS:          0  HIT %:        100  MISS %:          0   MPKI: 0
PSCL3 LOAD      ACCESS:          0  HIT:          0  MISS:          0  HIT %:       -nan  MISS %:       -nan   MPKI: 0
PSCL3 RFO       ACCESS:          0  HIT:          0  MISS:          0  HIT %:       -nan  MISS %:       -nan   MPKI: 0
PSCL3 PREFETCH  ACCESS:          0  HIT:          0  MISS:          0  HIT %:       -nan  MISS %:       -nan   MPKI: 0
PSCL3 WRITEBACK ACCESS:          0  HIT:          0  MISS:          0  HIT %:       -nan  MISS %:       -nan   MPKI: 0
PSCL2 TOTAL     ACCESS:     878779  HIT:     836626  MISS:      42153  HIT %:    95.2032  MISS %:    4.79677   MPKI: 0.209518
PSCL2 LOAD      ACCESS:          0  HIT:          0  MISS:          0  HIT %:       -nan  MISS %:       -nan   MPKI: 0
PSCL2 RFO       ACCESS:          0  HIT:          0  MISS:          0  HIT %:       -nan  MISS %:       -nan   MPKI: 0
PSCL2 PREFETCH  ACCESS:          0  HIT:          0  MISS:          0  HIT %:       -nan  MISS %:       -nan   MPKI: 0
PSCL2 WRITEBACK ACCESS:          0  HIT:          0  MISS:          0  HIT %:       -nan  MISS %:       -nan   MPKI: 0
LLC TOTAL     ACCESS:    8931859  HIT:     363224  MISS:    8568635  HIT %:    4.06661  MISS %:    95.9334   MPKI: 42.5897
LLC LOAD      ACCESS:    3765515  HIT:     153558  MISS:    3611957  HIT %:    4.07801  MISS %:     95.922   MPKI: 17.9529
LLC RFO       ACCESS:      17200  HIT:       2722  MISS:      14478  HIT %:    15.8256  MISS %:    84.1744   MPKI: 0.0719617
LLC PREFETCH  ACCESS:    4845104  HIT:     117250  MISS:    4727854  HIT %:    2.41997  MISS %:      97.58   MPKI: 23.4994
LLC WRITEBACK ACCESS:      37725  HIT:      35776  MISS:       1949  HIT %:    94.8337  MISS %:    5.16634   MPKI: 0.00968734

RAW hits: 2538350
Loads Generated: 62878177
Loads sent to L1D: 60339827
Stores Generated: 6786075
Stores sent to L1D: 6786078

CPU 2 cumulative IPC: 0.228873 instructions: 200696064 cycles: 876888584
ITLB TOTAL     ACCESS:   37418274  HIT:   37360954  MISS:      57320  HIT %:    99.8468  MISS %:   0.153187   MPKI: 0.285606
ITLB LOAD      ACCESS:          0  HIT:          0  MISS:          0  HIT %:       -nan  MISS %:       -nan   MPKI: 0
ITLB RFO       ACCESS:          0  HIT:          0  MISS:          0  HIT %:       -nan  MISS %:       -nan   MPKI: 0
ITLB PREFETCH  ACCESS:          0  HIT:          0  MISS:          0  HIT %:       -nan  MISS %:       -nan   MPKI: 0
ITLB WRITEBACK ACCESS:          0  HIT:          0  MISS:          0  HIT %:       -nan  MISS %:       -nan   MPKI: 0
DTLB TOTAL     ACCESS:   32735115  HIT:   31921085  MISS:     814030  HIT %:    97.5133  MISS %:    2.48672   MPKI: 4.05603
DTLB LOAD      ACCESS:          0  HIT:          0  MISS:          0  HIT %:       -nan  MISS %:       -nan   MPKI: 0
DTLB RFO       ACCESS:          0  HIT:          0  MISS:          0  HIT %:       -nan  MISS %:       -nan   MPKI: 0
DTLB PREFETCH  ACCESS:          0  HIT:          0  MISS:          0  HIT %:       -nan  MISS %:       -nan   MPKI: 0
DTLB WRITEBACK ACCESS:          0  HIT:          0  MISS:          0  HIT %:       -nan  MISS %:       -nan   MPKI: 0
STLB TOTAL     ACCESS:    8660719  HIT:    7941077  MISS:     719642  HIT %:    91.6907  MISS %:    8.30926   MPKI: 3.58573
STLB LOAD      ACCESS:          0  HIT:          0  MISS:          0  HIT %:       -nan  MISS %:       -nan   MPKI: 0
STLB RFO       ACCESS:          0  HIT:          0  MISS:          0  HIT %:       -nan  MISS %:       -nan   MPKI: 0
STLB PREFETCH  ACCESS:          0  HIT:          0  MISS:          0  HIT %:       -nan  MISS %:       -nan   MPKI: 0
STLB WRITEBACK ACCESS:          0  HIT:          0  MISS:          0  HIT %:       -nan  MISS %:       -nan   MPKI: 0
L1D TOTAL     ACCESS:   50901414  HIT:   45349754  MISS:    5551660  HIT %:    89.0933  MISS %:    10.9067   MPKI: 27.662
L1D LOAD      ACCESS:   29209183  HIT:   23796232  MISS:    5412951  HIT %:    81.4683  MISS %:    18.5317   MPKI: 26.9709
L1D RFO       ACCESS:    6651606  HIT:    6627386  MISS:      24220  HIT %:    99.6359  MISS %:   0.364123   MPKI: 0.12068
L1D PREFETCH  ACCESS:   15040625  HIT:   14926136  MISS:     114489  HIT %:    99.2388  MISS %:   0.761198   MPKI: 0.57046
L1D WRITEBACK ACCESS:          0  HIT:          0  MISS:          0  HIT %:       -nan  MISS %:       -nan   MPKI: 0
L1I TOTAL     ACCESS:   42696887  HIT:   42438875  MISS:     258012  HIT %:    99.3957  MISS %:   0.604288   MPKI: 1.28559
L1I LOAD      ACCESS:   42696887  HIT:   42438875  MISS:     258012  HIT %:    99.3957  MISS %:   0.604288   MPKI: 1.28559
L1I RFO       ACCESS:          0  HIT:          0  MISS:          0  HIT %:       -nan  MISS %:       -nan   MPKI: 0
L1I PREFETCH  ACCESS:          0  HIT:          0  MISS:          0  HIT %:       -nan  MISS %:       -nan   MPKI: 0
L1I WRITEBACK ACCESS:          0  HIT:          0  MISS:          0  HIT %:       -nan  MISS %:       -nan   MPKI: 0
L2C TOTAL     ACCESS:   21669421  HIT:   12789325  MISS:    8880096  HIT %:    59.0202  MISS %:    40.9798   MPKI: 44.2465
L2C LOAD      ACCESS:    5669257  HIT:    1651515  MISS:    4017742  HIT %:    29.1311  MISS %:    70.8689   MPKI: 20.019
L2C RFO       ACCESS:      24219  HIT:       6982  MISS:      17237  HIT %:    28.8286  MISS %:    71.1714   MPKI: 0.0858861
L2C PREFETCH  ACCESS:   14991812  HIT:   10422512  MISS:    4569300  HIT %:    69.5214  MISS %:    30.4786   MPKI: 22.7673
L2C WRITEBACK ACCESS:      51358  HIT:      41559  MISS:       9799  HIT %:    80.9202  MISS %:    19.0798   MPKI: 0.0488251
PSCL5 TOTAL     ACCESS:     882732  HIT:     882732  MISS:          0  HIT %:        100  MISS %:          0   MPKI: 0
PSCL5 LOAD      ACCESS:          0  HIT:          0  MISS:          0  HIT %:       -nan  MISS %:       -nan   MPKI: 0
PSCL5 RFO       ACCESS:          0  HIT:          0  MISS:          0  HIT %:       -nan  MISS %:       -nan   MPKI: 0
PSCL5 PREFETCH  ACCESS:          0  HIT:          0  MISS:          0  HIT %:       -nan  MISS %:       -nan   MPKI: 0
PSCL5 WRITEBACK ACCESS:          0  HIT:          0  MISS:          0  HIT %:       -nan  MISS %:       -nan   MPKI: 0
PSCL4 TOTAL     ACCESS:     882732  HIT:     882732  MISS:          0  HIT %:        100  MISS %:          0   MPKI: 0
PSCL4 LOAD      ACCESS:          0  HIT:          0  MISS:          0  HIT %:       -nan  MISS %:       -nan   MPKI: 0
PSCL4 RFO       ACCESS:          0  HIT:          0  MISS:          0  HIT %:       -nan  MISS %:       -nan   MPKI: 0
PSCL4 PREFETCH  ACCESS:          0  HIT:          0  MISS:          0  HIT %:       -nan  MISS %:       -nan   MPKI: 0
PSCL4 WRITEBACK ACCESS:          0  HIT:          0  MISS:          0  HIT %:       -nan  MISS %:       -nan   MPKI: 0
PSCL3 TOTAL     ACCESS:     882732  HIT:     882732  MISS:          0  HIT %:        100  MISS %:          0   MPKI: 0
PSCL3 LOAD      ACCESS:          0  HIT:          0  MISS:          0  HIT %:       -nan  MISS %:       -nan   MPKI: 0
PSCL3 RFO       ACCESS:          0  HIT:          0  MISS:          0  HIT %:       -nan  MISS %:       -nan   MPKI: 0
PSCL3 PREFETCH  ACCESS:          0  HIT:          0  MISS:          0  HIT %:       -nan  MISS %:       -nan   MPKI: 0
PSCL3 WRITEBACK ACCESS:          0  HIT:          0  MISS:          0  HIT %:       -nan  MISS %:       -nan   MPKI: 0
PSCL2 TOTAL     ACCESS:     874810  HIT:     832689  MISS:      42121  HIT %:    95.1851  MISS %:    4.81487   MPKI: 0.209875
PSCL2 LOAD      ACCESS:          0  HIT:          0  MISS:          0  HIT %:       -nan  MISS %:       -nan   MPKI: 0
PSCL2 RFO       ACCESS:          0  HIT:          0  MISS:          0  HIT %:       -nan  MISS %:       -nan   MPKI: 0
PSCL2 PREFETCH  ACCESS:          0  HIT:          0  MISS:          0  HIT %:       -nan  MISS %:       -nan   MPKI: 0
PSCL2 WRITEBACK ACCESS:          0  HIT:          0  MISS:          0  HIT %:       -nan  MISS %:       -nan   MPKI: 0
LLC TOTAL     ACCESS:    8908170  HIT:     342051  MISS:    8566119  HIT %:    3.83974  MISS %:    96.1603   MPKI: 42.682
LLC LOAD      ACCESS:    3757828  HIT:     146615  MISS:    3611213  HIT %:    3.90159  MISS %:    96.0984   MPKI: 17.9934
LLC RFO       ACCESS:      17178  HIT:       2679  MISS:      14499  HIT %:    15.5955  MISS %:    84.4045   MPKI: 0.0722436
LLC PREFETCH  ACCESS:    4829273  HIT:     102461  MISS:    4726812  HIT %:    2.12167  MISS %:    97.8783   MPKI: 23.5521
LLC WRITEBACK ACCESS:      37873  HIT:      35929  MISS:       1944  HIT %:    94.8671  MISS %:    5.13294   MPKI: 0.00968629

RAW hits: 2532177
Loads Generated: 62723439
Loads sent to L1D: 60191262
Stores Generated: 6773539
Stores sent to L1D: 6773539

CPU 3 cumulative IPC: 0.228079 instructions: 200000002 cycles: 876888584
ITLB TOTAL     ACCESS:   37294690  HIT:   37237370  MISS:      57320  HIT %:    99.8463  MISS %:   0.153695   MPKI: 0.2866
ITLB LOAD      ACCESS:          0  HIT:          0  MISS:          0  HIT %:       -nan  MISS %:       -nan   MPKI: 0
ITLB RFO       ACCESS:          0  HIT:          0  MISS:          0  HIT %:       -nan  MISS %:       -nan   MPKI: 0
ITLB PREFETCH  ACCESS:          0  HIT:          0  MISS:          0  HIT %:       -nan  MISS %:       -nan   MPKI: 0
ITLB WRITEBACK ACCESS:          0  HIT:          0  MISS:          0  HIT %:       -nan  MISS %:       -nan   MPKI: 0
DTLB TOTAL     ACCESS:   32628771  HIT:   31816274  MISS:     812497  HIT %:    97.5099  MISS %:    2.49012   MPKI: 4.06248
DTLB LOAD      ACCESS:          0  HIT:          0  MISS:          0  HIT %:       -nan  MISS %:       -nan   MPKI: 0
DTLB RFO       ACCESS:          0  HIT:          0  MISS:          0  HIT %:       -nan  MISS %:       -nan   MPKI: 0
DTLB PREFETCH  ACCESS:          0  HIT:          0  MISS:          0  HIT %:       -nan  MISS %:       -nan   MPKI: 0
DTLB WRITEBACK ACCESS:          0  HIT:          0  MISS:          0  HIT %:       -nan  MISS %:       -nan   MPKI: 0
STLB TOTAL     ACCESS:    8631990  HIT:    7913932  MISS:     718058  HIT %:    91.6814  MISS %:    8.31857   MPKI: 3.59029
STLB LOAD      ACCESS:          0  HIT:          0  MISS:          0  HIT %:       -nan  MISS %:       -nan   MPKI: 0
STLB RFO       ACCESS:          0  HIT:          0  MISS:          0  HIT %:       -nan  MISS %:       -nan   MPKI: 0
STLB PREFETCH  ACCESS:          0  HIT:          0  MISS:          0  HIT %:       -nan  MISS %:       -nan   MPKI: 0
STLB WRITEBACK ACCESS:          0  HIT:          0  MISS:          0  HIT %:       -nan  MISS %:       -nan   MPKI: 0
L1D TOTAL     ACCESS:   50641949  HIT:   45109520  MISS:    5532429  HIT %:    89.0754  MISS %:    10.9246   MPKI: 27.6621
L1D LOAD      ACCESS:   29111655  HIT:   23717609  MISS:    5394046  HIT %:    81.4712  MISS %:    18.5288   MPKI: 26.9702
L1D RFO       ACCESS:    6632926  HIT:    6608712  MISS:      24214  HIT %:    99.6349  MISS %:   0.365058   MPKI: 0.12107
L1D PREFETCH  ACCESS:   14897368  HIT:   14783199  MISS:     114169  HIT %:    99.2336  MISS %:    0.76637   MPKI: 0.570845
L1D WRITEBACK ACCESS:          0  HIT:          0  MISS:          0  HIT %:       -nan  MISS %:       -nan   MPKI: 0
L1I TOTAL     ACCESS:   42553272  HIT:   42295260  MISS:     258012  HIT %:    99.3937  MISS %:   0.606327   MPKI: 1.29006
L1I LOAD      ACCESS:   42553272  HIT:   42295260  MISS:     258012  HIT %:    99.3937  MISS %:   0.606327   MPKI: 1.29006
L1I RFO       ACCESS:          0  HIT:          0  MISS:          0  HIT %:       -nan  MISS %:       -nan   MPKI: 0
L1I PREFETCH  ACCESS:          0  HIT:          0  MISS:          0  HIT %:       -nan  MISS %:       -nan   MPKI: 0
L1I WRITEBACK ACCESS:          0  HIT:          0  MISS:          0  HIT %:       -nan  MISS %:       -nan   MPKI: 0
L2C TOTAL     ACCESS:   21596752  HIT:   12744118  MISS:    8852634  HIT %:    59.0094  MISS %:    40.9906   MPKI: 44.2632
L2C LOAD      ACCESS:    5650247  HIT:    1642897  MISS:    4007350  HIT %:    29.0766  MISS %:    70.9234   MPKI: 20.0367
L2C RFO       ACCESS:      24213  HIT:       6925  MISS:      17288  HIT %:    28.6003  MISS %:    71.3997   MPKI: 0.08644
L2C PREFETCH  ACCESS:   14943191  HIT:   10389539  MISS:    4553652  HIT %:    69.5269  MISS %:    30.4731   MPKI: 22.7683
L2C WRITEBACK ACCESS:      51346  HIT:      42360  MISS:       8986  HIT %:    82.4991  MISS %:    17.5009   MPKI: 0.04493
PSCL5 TOTAL     ACCESS:     879556  HIT:     879556  MISS:          0  HIT %:        100  MISS %:          0   MPKI: 0
PSCL5 LOAD      ACCESS:          0  HIT:          0  MISS:          0  HIT %:       -nan  MISS %:       -nan   MPKI: 0
PSCL5 RFO       ACCESS:          0  HIT:          0  MISS:          0  HIT %:       -nan  MISS %:       -nan   MPKI: 0
PSCL5 PREFETCH  ACCESS:          0  HIT:          0  MISS:          0  HIT %:       -nan  MISS %:       -nan   MPKI: 0
PSCL5 WRITEBACK ACCESS:          0  HIT:          0  MISS:          0  HIT %:       -nan  MISS %:       -nan   MPKI: 0
PSCL4 TOTAL     ACCESS:     879556  HIT:     879556  MISS:          0  HIT %:        100  MISS %:          0   MPKI: 0
PSCL4 LOAD      ACCESS:          0  HIT:          0  MISS:          0  HIT %:       -nan  MISS %:       -nan   MPKI: 0
PSCL4 RFO       ACCESS:          0  HIT:          0  MISS:          0  HIT %:       -nan  MISS %:       -nan   MPKI: 0
PSCL4 PREFETCH  ACCESS:          0  HIT:          0  MISS:          0  HIT %:       -nan  MISS %:       -nan   MPKI: 0
PSCL4 WRITEBACK ACCESS:          0  HIT:          0  MISS:          0  HIT %:       -nan  MISS %:       -nan   MPKI: 0
PSCL3 TOTAL     ACCESS:     879556  HIT:     879556  MISS:          0  HIT %:        100  MISS %:          0   MPKI: 0
PSCL3 LOAD      ACCESS:          0  HIT:          0  MISS:          0  HIT %:       -nan  MISS %:       -nan   MPKI: 0
PSCL3 RFO       ACCESS:          0  HIT:          0  MISS:          0  HIT %:       -nan  MISS %:       -nan   MPKI: 0
PSCL3 PREFETCH  ACCESS:          0  HIT:          0  MISS:          0  HIT %:       -nan  MISS %:       -nan   MPKI: 0
PSCL3 WRITEBACK ACCESS:          0  HIT:          0  MISS:          0  HIT %:       -nan  MISS %:       -nan   MPKI: 0
PSCL2 TOTAL     ACCESS:     873474  HIT:     831357  MISS:      42117  HIT %:    95.1782  MISS %:    4.82178   MPKI: 0.210585
PSCL2 LOAD      ACCESS:          0  HIT:          0  MISS:          0  HIT %:       -nan  MISS %:       -nan   MPKI: 0
PSCL2 RFO       ACCESS:          0  HIT:          0  MISS:          0  HIT %:       -nan  MISS %:       -nan   MPKI: 0
PSCL2 PREFETCH  ACCESS:          0  HIT:          0  MISS:          0  HIT %:       -nan  MISS %:       -nan   MPKI: 0
PSCL2 WRITEBACK ACCESS:          0  HIT:          0  MISS:          0  HIT %:       -nan  MISS %:       -nan   MPKI: 0
LLC TOTAL     ACCESS:    8881312  HIT:     301985  MISS:    8579327  HIT %:    3.40023  MISS %:    96.5998   MPKI: 42.8966
LLC LOAD      ACCESS:    3748390  HIT:     132327  MISS:    3616063  HIT %:    3.53024  MISS %:    96.4698   MPKI: 18.0803
LLC RFO       ACCESS:      17205  HIT:       2622  MISS:      14583  HIT %:    15.2398  MISS %:    84.7602   MPKI: 0.072915
LLC PREFETCH  ACCESS:    4812695  HIT:      77143  MISS:    4735552  HIT %:    1.60291  MISS %:    98.3971   MPKI: 23.6778
LLC WRITEBACK ACCESS:      37664  HIT:      35653  MISS:       2011  HIT %:    94.6607  MISS %:    5.33932   MPKI: 0.010055

RAW hits: 2524231
Loads Generated: 62505528
Loads sent to L1D: 59981293
Stores Generated: 6755889
Stores sent to L1D: 6755891

Region of Interest Statistics

CPU 0 cumulative IPC: 0.229399 instructions: 200000001 cycles: 871844759
ITLB TOTAL     ACCESS:   37290483  HIT:   37233163  MISS:      57320  HIT %:    99.8463  MISS %:   0.153712   MPKI: 0.2866
ITLB LOAD TRANSLATION ACCESS:   37290483  HIT:   37233163  MISS:      57320  HIT %:    99.8463  MISS %:   0.153712   MPKI: 0.2866
ITLB PREFETCH  REQUESTED:          0  ISSUED:          0  USEFUL:          0  USELESS:          0
ITLB USEFUL LOAD PREFETCHES:          0 PREFETCH ISSUED TO LOWER LEVEL:          0  ACCURACY: -nan
ITLB TIMELY PREFETCHES:          0 LATE PREFETCHES: 0 DROPPED PREFETCHES: 0
ITLB PREFETCHES SAME FILL-ORIGIN LEVEL: 0 DIFFERENT FILL-ORIGIN LEVEL: 0
ITLB AVERAGE MISS LATENCY: 25.4284 cycles
ITLB RQ	ACCESS:   42879692	FORWARD:          0	MERGED:    5343947	TO_CACHE:   37535745

DTLB TOTAL     ACCESS:   32625837  HIT:   31813364  MISS:     812473  HIT %:    97.5097  MISS %:    2.49027   MPKI: 4.06236
DTLB LOAD TRANSLATION ACCESS:   32625837  HIT:   31813364  MISS:     812473  HIT %:    97.5097  MISS %:    2.49027   MPKI: 4.06236
DTLB PREFETCH  REQUESTED:          0  ISSUED:          0  USEFUL:          0  USELESS:          0
DTLB USEFUL LOAD PREFETCHES:          0 PREFETCH ISSUED TO LOWER LEVEL:          0  ACCURACY: -nan
DTLB TIMELY PREFETCHES:          0 LATE PREFETCHES: 0 DROPPED PREFETCHES: 0
DTLB PREFETCHES SAME FILL-ORIGIN LEVEL: 0 DIFFERENT FILL-ORIGIN LEVEL: 0
DTLB AVERAGE MISS LATENCY: 235.525 cycles
DTLB RQ	ACCESS:   36856537	FORWARD:          0	MERGED:    3936221	TO_CACHE:   32920316

STLB TOTAL     ACCESS:    8651091  HIT:    7933037  MISS:     718054  HIT %:    91.6998  MISS %:    8.30016   MPKI: 3.59027
STLB LOAD TRANSLATION ACCESS:     869793  HIT:     237708  MISS:     632085  HIT %:    27.3293  MISS %:    72.6707   MPKI: 3.16042
STLB TRANSLATION FROM L1D PREFETCHER ACCESS:    7781298  HIT:    7695329  MISS:      85969  HIT %:    98.8952  MISS %:    1.10482   MPKI: 0.429845
STLB PREFETCH  REQUESTED:          0  ISSUED:          0  USEFUL:      82572  USELESS:       4076
STLB USEFUL LOAD PREFETCHES:      82572 PREFETCH ISSUED TO LOWER LEVEL:          0  ACCURACY: inf
STLB TIMELY PREFETCHES:      82572 LATE PREFETCHES: 1224 DROPPED PREFETCHES: 164158
STLB PREFETCHES SAME FILL-ORIGIN LEVEL: 0 DIFFERENT FILL-ORIGIN LEVEL: 0
STLB AVERAGE MISS LATENCY: 264.878 cycles
STLB RQ	ACCESS:   33777732	FORWARD:          0	MERGED:   24883832	TO_CACHE:    8893900

STLB Hit, L1D data hit: 0
STLB Hit, L2C data hit: 0
STLB Hit, LLC data hit: 0
STLB Hit, LLC data miss: 0
STLB STLB hints to L2: 0
L1D TOTAL     ACCESS:   50884114  HIT:   45352056  MISS:    5532058  HIT %:    89.1281  MISS %:    10.8719   MPKI: 27.6603
L1D LOAD      ACCESS:   29111615  HIT:   23717916  MISS:    5393699  HIT %:    81.4723  MISS %:    18.5277   MPKI: 26.9685
L1D RFO       ACCESS:    6632236  HIT:    6607985  MISS:      24251  HIT %:    99.6343  MISS %:   0.365653   MPKI: 0.121255
L1D PREFETCH  ACCESS:   15140263  HIT:   15026155  MISS:     114108  HIT %:    99.2463  MISS %:   0.753673   MPKI: 0.57054
L1D PREFETCH  REQUESTED:   77809085  ISSUED:   77309827  USEFUL:     108936  USELESS:       5846
L1D USEFUL LOAD PREFETCHES:     108936 PREFETCH ISSUED TO LOWER LEVEL:   16988987  ACCURACY: 0.641215
L1D TIMELY PREFETCHES:     108936 LATE PREFETCHES: 1757 DROPPED PREFETCHES: 293183
L1D PREFETCHES SAME FILL-ORIGIN LEVEL: 116532 DIFFERENT FILL-ORIGIN LEVEL: 16872455
L1D AVERAGE MISS LATENCY: 201.441 cycles
L1D RQ	ACCESS:   60356551	FORWARD:          0	MERGED:   29706546	TO_CACHE:   30095624
L1D WQ	ACCESS:    6787441	FORWARD:     555826	MERGED:      26528	TO_CACHE:    6760913
L1D PQ	ACCESS:   44404637	FORWARD:          0	MERGED:   11498002	TO_CACHE:   32905190

L1D UNIQUE REGIONS ACCESSED: 0
L1D REGIONS CONFLICTS: 0
L1D Cross Page Prefetch Requests: 4511039
L1D Same Page Prefetch Requests: 53968393
L1D ROI Sum of L1D PQ occupancy: 466573379
L1D PREFETCHES PUSHED FROM L2C: 0
L1I TOTAL     ACCESS:   42549760  HIT:   42291748  MISS:     258012  HIT %:    99.3936  MISS %:   0.606377   MPKI: 1.29006
L1I LOAD      ACCESS:   42549760  HIT:   42291748  MISS:     258012  HIT %:    99.3936  MISS %:   0.606377   MPKI: 1.29006
L1I PREFETCH  REQUESTED:          0  ISSUED:          0  USEFUL:          0  USELESS:          0
L1I USEFUL LOAD PREFETCHES:          0 PREFETCH ISSUED TO LOWER LEVEL:          0  ACCURACY: -nan
L1I TIMELY PREFETCHES:          0 LATE PREFETCHES: 0 DROPPED PREFETCHES: 0
L1I PREFETCHES SAME FILL-ORIGIN LEVEL: 0 DIFFERENT FILL-ORIGIN LEVEL: 0
L1I AVERAGE MISS LATENCY: 87.8631 cycles
L1I RQ	ACCESS:   73234060	FORWARD:          0	MERGED:   30354368	TO_CACHE:   42879692

BTB TOTAL     ACCESS:   39023169  HIT:   38919224  MISS:     103945  HIT %:    99.7336  MISS %:   0.266367   MPKI: 0.519725
BTB BRANCH_DIRECT_JUMP	ACCESS:    1744368  HIT:    1742906  MISS:       1462
BTB BRANCH_INDIRECT	ACCESS:       8014  HIT:       4978  MISS:       3036
BTB BRANCH_CONDITIONAL	ACCESS:   31885549  HIT:   31881886  MISS:       3663
BTB BRANCH_DIRECT_CALL	ACCESS:    1818399  HIT:    1816137  MISS:       2262
BTB BRANCH_INDIRECT_CALL	ACCESS:     874220  HIT:     870441  MISS:       3779
BTB BRANCH_RETURN	ACCESS:    2692619  HIT:    2602876  MISS:      89743
BTB BRANCH_OTHER ACCESS:          0  HIT:          0  MISS:          0

L2C TOTAL     ACCESS:   21532794  HIT:   12687533  MISS:    8845261  HIT %:    58.9219  MISS %:    41.0781   MPKI: 44.2263
L2C LOAD      ACCESS:    5649954  HIT:    1645267  MISS:    4004687  HIT %:      29.12  MISS %:      70.88   MPKI: 20.0234
L2C DATA LOAD MPKI: 19.4654
L2C INSTRUCTION LOAD MPKI: 0.558025
L2C RFO       ACCESS:      24251  HIT:       6978  MISS:      17273  HIT %:    28.7741  MISS %:    71.2259   MPKI: 0.086365
L2C PREFETCH  ACCESS:   14875808  HIT:   10326805  MISS:    4549003  HIT %:    69.4201  MISS %:    30.5799   MPKI: 22.745
L2C DATA PREFETCH MPKI: 22.745
L2C INSTRUCTION PREFETCH MPKI: 0
L2C WRITEBACK ACCESS:      51281  HIT:      42481  MISS:       8800  HIT %:    82.8396  MISS %:    17.1604   MPKI: 0.044
L2C LOAD TRANSLATION ACCESS:     672431  HIT:     422552  MISS:     249879  HIT %:    62.8395  MISS %:    37.1605   MPKI: 1.24939
L2C TRANSLATION FROM L1D PREFETCHER ACCESS:     259069  HIT:     243450  MISS:      15619  HIT %:    93.9711  MISS %:     6.0289   MPKI: 0.078095
L2C PREFETCH  REQUESTED:          0  ISSUED:          0  USEFUL:    1487710  USELESS:    3112567
L2C USEFUL LOAD PREFETCHES:    1487710 PREFETCH ISSUED TO LOWER LEVEL:    4844135  ACCURACY: 30.7116
L2C TIMELY PREFETCHES:    1487710 LATE PREFETCHES: 259777 DROPPED PREFETCHES: 0
L2C PREFETCHES SAME FILL-ORIGIN LEVEL: 4818044 DIFFERENT FILL-ORIGIN LEVEL: 0
L2C AVERAGE MISS LATENCY: 276.305 cycles
L2C RQ	ACCESS:    6643451	FORWARD:          0	MERGED:          0	TO_CACHE:    6643451
L2C WQ	ACCESS:      51281	FORWARD:          1	MERGED:          0	TO_CACHE:      51281
L2C PQ	ACCESS:   16988906	FORWARD:          0	MERGED:      27282	TO_CACHE:   16961623

L2C Instructions Evicting Data 98209
L2C Translations Evicting Data 243550
L2C Data Evicting Data 8176631
L2C Instructions Evicting Instructions 4776
L2C Translations Evicting Instructions 6965
L2C Data Evicting Instructions 98930
L2C Instructions Evicting Translations 8620
L2C Translations Evicting Translations 15693
L2C Data Evicting Translations 240907
L2C Dense regions hint from L2: 0
PSCL5 TOTAL     ACCESS:     881157  HIT:     881157  MISS:          0  HIT %:        100  MISS %:          0   MPKI: 0
PSCL5 LOAD TRANSLATION ACCESS:     630899  HIT:     630899  MISS:          0  HIT %:        100  MISS %:          0   MPKI: 0
PSCL5 TRANSLATION FROM L1D PREFETCHER ACCESS:     250258  HIT:     250258  MISS:          0  HIT %:        100  MISS %:          0   MPKI: 0
PSCL5 PREFETCH  REQUESTED:          0  ISSUED:          0  USEFUL:          0  USELESS:          0
PSCL5 USEFUL LOAD PREFETCHES:          0 PREFETCH ISSUED TO LOWER LEVEL:          0  ACCURACY: -nan
PSCL5 TIMELY PREFETCHES:          0 LATE PREFETCHES: 0 DROPPED PREFETCHES: 0
PSCL5 PREFETCHES SAME FILL-ORIGIN LEVEL: 0 DIFFERENT FILL-ORIGIN LEVEL: 0

PSCL4 TOTAL     ACCESS:     881157  HIT:     881157  MISS:          0  HIT %:        100  MISS %:          0   MPKI: 0
PSCL4 LOAD TRANSLATION ACCESS:     630899  HIT:     630899  MISS:          0  HIT %:        100  MISS %:          0   MPKI: 0
PSCL4 TRANSLATION FROM L1D PREFETCHER ACCESS:     250258  HIT:     250258  MISS:          0  HIT %:        100  MISS %:          0   MPKI: 0
PSCL4 PREFETCH  REQUESTED:          0  ISSUED:          0  USEFUL:          0  USELESS:          0
PSCL4 USEFUL LOAD PREFETCHES:          0 PREFETCH ISSUED TO LOWER LEVEL:          0  ACCURACY: -nan
PSCL4 TIMELY PREFETCHES:          0 LATE PREFETCHES: 0 DROPPED PREFETCHES: 0
PSCL4 PREFETCHES SAME FILL-ORIGIN LEVEL: 0 DIFFERENT FILL-ORIGIN LEVEL: 0

PSCL3 TOTAL     ACCESS:     881157  HIT:     881157  MISS:          0  HIT %:        100  MISS %:          0   MPKI: 0
PSCL3 LOAD TRANSLATION ACCESS:     630899  HIT:     630899  MISS:          0  HIT %:        100  MISS %:          0   MPKI: 0
PSCL3 TRANSLATION FROM L1D PREFETCHER ACCESS:     250258  HIT:     250258  MISS:          0  HIT %:        100  MISS %:          0   MPKI: 0
PSCL3 PREFETCH  REQUESTED:          0  ISSUED:          0  USEFUL:          0  USELESS:          0
PSCL3 USEFUL LOAD PREFETCHES:          0 PREFETCH ISSUED TO LOWER LEVEL:          0  ACCURACY: -nan
PSCL3 TIMELY PREFETCHES:          0 LATE PREFETCHES: 0 DROPPED PREFETCHES: 0
PSCL3 PREFETCHES SAME FILL-ORIGIN LEVEL: 0 DIFFERENT FILL-ORIGIN LEVEL: 0

PSCL2 TOTAL     ACCESS:     872939  HIT:     830814  MISS:      42125  HIT %:    95.1743  MISS %:    4.82565   MPKI: 0.210625
PSCL2 LOAD TRANSLATION ACCESS:     631492  HIT:     589367  MISS:      42125  HIT %:    93.3293  MISS %:    6.67071   MPKI: 0.210625
PSCL2 TRANSLATION FROM L1D PREFETCHER ACCESS:     241447  HIT:     241447  MISS:          0  HIT %:        100  MISS %:          0   MPKI: 0
PSCL2 PREFETCH  REQUESTED:          0  ISSUED:          0  USEFUL:          0  USELESS:          0
PSCL2 USEFUL LOAD PREFETCHES:          0 PREFETCH ISSUED TO LOWER LEVEL:          0  ACCURACY: -nan
PSCL2 TIMELY PREFETCHES:          0 LATE PREFETCHES: 0 DROPPED PREFETCHES: 0
PSCL2 PREFETCHES SAME FILL-ORIGIN LEVEL: 0 DIFFERENT FILL-ORIGIN LEVEL: 0

LLC TOTAL     ACCESS:    8874157  HIT:     368180  MISS:    8505977  HIT %:     4.1489  MISS %:    95.8511   MPKI: 42.5299
LLC LOAD      ACCESS:    3747161  HIT:     153791  MISS:    3593370  HIT %:     4.1042  MISS %:    95.8958   MPKI: 17.9668
LLC RFO       ACCESS:      17198  HIT:       2725  MISS:      14473  HIT %:    15.8449  MISS %:    84.1551   MPKI: 0.072365
LLC PREFETCH  ACCESS:    4806604  HIT:     122597  MISS:    4684007  HIT %:    2.55059  MISS %:    97.4494   MPKI: 23.42
LLC WRITEBACK ACCESS:      37696  HIT:      35678  MISS:       2018  HIT %:    94.6466  MISS %:    5.35335   MPKI: 0.01009
LLC LOAD TRANSLATION ACCESS:     249879  HIT:      50689  MISS:     199190  HIT %:    20.2854  MISS %:    79.7146   MPKI: 0.99595
LLC TRANSLATION FROM L1D PREFETCHER ACCESS:      15619  HIT:       2700  MISS:      12919  HIT %:    17.2866  MISS %:    82.7134   MPKI: 0.064595
LLC PREFETCH  REQUESTED:          0  ISSUED:          0  USEFUL:      83309  USELESS:   18875433
LLC USEFUL LOAD PREFETCHES:      83309 PREFETCH ISSUED TO LOWER LEVEL:   18911732  ACCURACY: 0.440515
LLC TIMELY PREFETCHES:      83309 LATE PREFETCHES: 0 DROPPED PREFETCHES: 0
LLC PREFETCHES SAME FILL-ORIGIN LEVEL: 0 DIFFERENT FILL-ORIGIN LEVEL: 0
LLC AVERAGE MISS LATENCY: 1044.5 cycles
LLC RQ	ACCESS:   16171161	FORWARD:          0	MERGED:          0	TO_CACHE:   16171161
LLC WQ	ACCESS:     150958	FORWARD:          0	MERGED:          0	TO_CACHE:     150958
LLC PQ	ACCESS:   19331213	FORWARD:          0	MERGED:          0	TO_CACHE:   19331213

LLC Dense regions hint to LLC: 0

RAW hits: 2523596
Loads Generated: 62505553
Loads sent to L1D: 59981957
Stores Generated: 6755797
Stores sent to L1D: 6755797
Major fault: 0 Minor fault: 22757
Allocated PAGES: 91028

CPU 1 cumulative IPC: 0.229343 instructions: 200000003 cycles: 872056402
ITLB TOTAL     ACCESS:   37290906  HIT:   37233586  MISS:      57320  HIT %:    99.8463  MISS %:    0.15371   MPKI: 0.2866
ITLB LOAD TRANSLATION ACCESS:   37290906  HIT:   37233586  MISS:      57320  HIT %:    99.8463  MISS %:    0.15371   MPKI: 0.2866
ITLB PREFETCH  REQUESTED:          0  ISSUED:          0  USEFUL:          0  USELESS:          0
ITLB USEFUL LOAD PREFETCHES:          0 PREFETCH ISSUED TO LOWER LEVEL:          0  ACCURACY: -nan
ITLB TIMELY PREFETCHES:          0 LATE PREFETCHES: 0 DROPPED PREFETCHES: 0
ITLB PREFETCHES SAME FILL-ORIGIN LEVEL: 0 DIFFERENT FILL-ORIGIN LEVEL: 0
ITLB AVERAGE MISS LATENCY: 25.4697 cycles
ITLB RQ	ACCESS:   42868272	FORWARD:          0	MERGED:    5342094	TO_CACHE:   37526178

DTLB TOTAL     ACCESS:   32624889  HIT:   31812394  MISS:     812495  HIT %:    97.5096  MISS %:    2.49041   MPKI: 4.06247
DTLB LOAD TRANSLATION ACCESS:   32624889  HIT:   31812394  MISS:     812495  HIT %:    97.5096  MISS %:    2.49041   MPKI: 4.06247
DTLB PREFETCH  REQUESTED:          0  ISSUED:          0  USEFUL:          0  USELESS:          0
DTLB USEFUL LOAD PREFETCHES:          0 PREFETCH ISSUED TO LOWER LEVEL:          0  ACCURACY: -nan
DTLB TIMELY PREFETCHES:          0 LATE PREFETCHES: 0 DROPPED PREFETCHES: 0
DTLB PREFETCHES SAME FILL-ORIGIN LEVEL: 0 DIFFERENT FILL-ORIGIN LEVEL: 0
DTLB AVERAGE MISS LATENCY: 232.115 cycles
DTLB RQ	ACCESS:   36845781	FORWARD:          0	MERGED:    3935175	TO_CACHE:   32910606

STLB TOTAL     ACCESS:    8632279  HIT:    7914289  MISS:     717990  HIT %:    91.6825  MISS %:     8.3175   MPKI: 3.58995
STLB LOAD TRANSLATION ACCESS:     869815  HIT:     237915  MISS:     631900  HIT %:    27.3524  MISS %:    72.6476   MPKI: 3.1595
STLB TRANSLATION FROM L1D PREFETCHER ACCESS:    7762464  HIT:    7676374  MISS:      86090  HIT %:    98.8909  MISS %:    1.10906   MPKI: 0.43045
STLB PREFETCH  REQUESTED:          0  ISSUED:          0  USEFUL:      82566  USELESS:       4180
STLB USEFUL LOAD PREFETCHES:      82566 PREFETCH ISSUED TO LOWER LEVEL:          0  ACCURACY: inf
STLB TIMELY PREFETCHES:      82566 LATE PREFETCHES: 1244 DROPPED PREFETCHES: 165191
STLB PREFETCHES SAME FILL-ORIGIN LEVEL: 0 DIFFERENT FILL-ORIGIN LEVEL: 0
STLB AVERAGE MISS LATENCY: 261.077 cycles
STLB RQ	ACCESS:   33595349	FORWARD:          0	MERGED:   24720480	TO_CACHE:    8874869

STLB Hit, L1D data hit: 0
STLB Hit, L2C data hit: 0
STLB Hit, LLC data hit: 0
STLB Hit, LLC data miss: 0
STLB STLB hints to L2: 0
L1D TOTAL     ACCESS:   50699915  HIT:   45167825  MISS:    5532090  HIT %:    89.0886  MISS %:    10.9114   MPKI: 27.6604
L1D LOAD      ACCESS:   29110523  HIT:   23716614  MISS:    5393909  HIT %:    81.4709  MISS %:    18.5291   MPKI: 26.9695
L1D RFO       ACCESS:    6632486  HIT:    6608271  MISS:      24215  HIT %:    99.6349  MISS %:   0.365097   MPKI: 0.121075
L1D PREFETCH  ACCESS:   14956906  HIT:   14842940  MISS:     113966  HIT %:     99.238  MISS %:   0.761962   MPKI: 0.56983
L1D PREFETCH  REQUESTED:   77389658  ISSUED:   76884720  USEFUL:     108825  USELESS:       5784
L1D USEFUL LOAD PREFETCHES:     108825 PREFETCH ISSUED TO LOWER LEVEL:   16991823  ACCURACY: 0.640455
L1D TIMELY PREFETCHES:     108825 LATE PREFETCHES: 1784 DROPPED PREFETCHES: 292944
L1D PREFETCHES SAME FILL-ORIGIN LEVEL: 116385 DIFFERENT FILL-ORIGIN LEVEL: 16875438
L1D AVERAGE MISS LATENCY: 201.456 cycles
L1D RQ	ACCESS:   60339827	FORWARD:          0	MERGED:   29699275	TO_CACHE:   30086321
L1D WQ	ACCESS:    6786078	FORWARD:     555603	MERGED:      26618	TO_CACHE:    6759460
L1D PQ	ACCESS:   44161838	FORWARD:          0	MERGED:   11437584	TO_CACHE:   32722882

L1D UNIQUE REGIONS ACCESSED: 0
L1D REGIONS CONFLICTS: 0
L1D Cross Page Prefetch Requests: 4509241
L1D Same Page Prefetch Requests: 53729971
L1D ROI Sum of L1D PQ occupancy: 465121420
L1D PREFETCHES PUSHED FROM L2C: 0
L1I TOTAL     ACCESS:   42549907  HIT:   42291895  MISS:     258012  HIT %:    99.3936  MISS %:   0.606375   MPKI: 1.29006
L1I LOAD      ACCESS:   42549907  HIT:   42291895  MISS:     258012  HIT %:    99.3936  MISS %:   0.606375   MPKI: 1.29006
L1I PREFETCH  REQUESTED:          0  ISSUED:          0  USEFUL:          0  USELESS:          0
L1I USEFUL LOAD PREFETCHES:          0 PREFETCH ISSUED TO LOWER LEVEL:          0  ACCURACY: -nan
L1I TIMELY PREFETCHES:          0 LATE PREFETCHES: 0 DROPPED PREFETCHES: 0
L1I PREFETCHES SAME FILL-ORIGIN LEVEL: 0 DIFFERENT FILL-ORIGIN LEVEL: 0
L1I AVERAGE MISS LATENCY: 85.8779 cycles
L1I RQ	ACCESS:   73215780	FORWARD:          0	MERGED:   30347508	TO_CACHE:   42868272

BTB TOTAL     ACCESS:   39021475  HIT:   38917530  MISS:     103945  HIT %:    99.7336  MISS %:   0.266379   MPKI: 0.519725
BTB BRANCH_DIRECT_JUMP	ACCESS:    1744376  HIT:    1742914  MISS:       1462
BTB BRANCH_INDIRECT	ACCESS:       8014  HIT:       4978  MISS:       3036
BTB BRANCH_CONDITIONAL	ACCESS:   31883823  HIT:   31880160  MISS:       3663
BTB BRANCH_DIRECT_CALL	ACCESS:    1818407  HIT:    1816145  MISS:       2262
BTB BRANCH_INDIRECT_CALL	ACCESS:     874224  HIT:     870445  MISS:       3779
BTB BRANCH_RETURN	ACCESS:    2692631  HIT:    2602888  MISS:      89743
BTB BRANCH_OTHER ACCESS:          0  HIT:          0  MISS:          0

L2C TOTAL     ACCESS:   21539158  HIT:   12690922  MISS:    8848236  HIT %:    58.9202  MISS %:    41.0798   MPKI: 44.2412
L2C LOAD      ACCESS:    5650136  HIT:    1644994  MISS:    4005142  HIT %:    29.1142  MISS %:    70.8858   MPKI: 20.0257
L2C DATA LOAD MPKI: 19.4631
L2C INSTRUCTION LOAD MPKI: 0.56263
L2C RFO       ACCESS:      24214  HIT:       6915  MISS:      17299  HIT %:    28.5579  MISS %:    71.4421   MPKI: 0.086495
L2C PREFETCH  ACCESS:   14882173  HIT:   10331446  MISS:    4550727  HIT %:    69.4216  MISS %:    30.5784   MPKI: 22.7536
L2C DATA PREFETCH MPKI: 22.7536
L2C INSTRUCTION PREFETCH MPKI: 0
L2C WRITEBACK ACCESS:      51264  HIT:      41821  MISS:       9443  HIT %:    81.5797  MISS %:    18.4203   MPKI: 0.047215
L2C LOAD TRANSLATION ACCESS:     672220  HIT:     422289  MISS:     249931  HIT %:    62.8201  MISS %:    37.1799   MPKI: 1.24965
L2C TRANSLATION FROM L1D PREFETCHER ACCESS:     259151  HIT:     243457  MISS:      15694  HIT %:    93.9441  MISS %:    6.05593   MPKI: 0.07847
L2C PREFETCH  REQUESTED:          0  ISSUED:          0  USEFUL:    1487896  USELESS:    3112768
L2C USEFUL LOAD PREFETCHES:    1487896 PREFETCH ISSUED TO LOWER LEVEL:    4845104  ACCURACY: 30.7093
L2C TIMELY PREFETCHES:    1487896 LATE PREFETCHES: 260304 DROPPED PREFETCHES: 0
L2C PREFETCHES SAME FILL-ORIGIN LEVEL: 4819277 DIFFERENT FILL-ORIGIN LEVEL: 0
L2C AVERAGE MISS LATENCY: 276.42 cycles
L2C RQ	ACCESS:    6641843	FORWARD:          0	MERGED:          0	TO_CACHE:    6641841
L2C WQ	ACCESS:      51264	FORWARD:          5	MERGED:          0	TO_CACHE:      51264
L2C PQ	ACCESS:   16991739	FORWARD:          0	MERGED:      27962	TO_CACHE:   16963774

L2C Instructions Evicting Data 99466
L2C Translations Evicting Data 243481
L2C Data Evicting Data 8174346
L2C Instructions Evicting Instructions 4252
L2C Translations Evicting Instructions 7106
L2C Data Evicting Instructions 100135
L2C Instructions Evicting Translations 8808
L2C Translations Evicting Translations 15728
L2C Data Evicting Translations 240812
L2C Dense regions hint from L2: 0
PSCL5 TOTAL     ACCESS:     882153  HIT:     882153  MISS:          0  HIT %:        100  MISS %:          0   MPKI: 0
PSCL5 LOAD TRANSLATION ACCESS:     630688  HIT:     630688  MISS:          0  HIT %:        100  MISS %:          0   MPKI: 0
PSCL5 TRANSLATION FROM L1D PREFETCHER ACCESS:     251465  HIT:     251465  MISS:          0  HIT %:        100  MISS %:          0   MPKI: 0
PSCL5 PREFETCH  REQUESTED:          0  ISSUED:          0  USEFUL:          0  USELESS:          0
PSCL5 USEFUL LOAD PREFETCHES:          0 PREFETCH ISSUED TO LOWER LEVEL:          0  ACCURACY: -nan
PSCL5 TIMELY PREFETCHES:          0 LATE PREFETCHES: 0 DROPPED PREFETCHES: 0
PSCL5 PREFETCHES SAME FILL-ORIGIN LEVEL: 0 DIFFERENT FILL-ORIGIN LEVEL: 0

PSCL4 TOTAL     ACCESS:     882153  HIT:     882153  MISS:          0  HIT %:        100  MISS %:          0   MPKI: 0
PSCL4 LOAD TRANSLATION ACCESS:     630688  HIT:     630688  MISS:          0  HIT %:        100  MISS %:          0   MPKI: 0
PSCL4 TRANSLATION FROM L1D PREFETCHER ACCESS:     251465  HIT:     251465  MISS:          0  HIT %:        100  MISS %:          0   MPKI: 0
PSCL4 PREFETCH  REQUESTED:          0  ISSUED:          0  USEFUL:          0  USELESS:          0
PSCL4 USEFUL LOAD PREFETCHES:          0 PREFETCH ISSUED TO LOWER LEVEL:          0  ACCURACY: -nan
PSCL4 TIMELY PREFETCHES:          0 LATE PREFETCHES: 0 DROPPED PREFETCHES: 0
PSCL4 PREFETCHES SAME FILL-ORIGIN LEVEL: 0 DIFFERENT FILL-ORIGIN LEVEL: 0

PSCL3 TOTAL     ACCESS:     882153  HIT:     882153  MISS:          0  HIT %:        100  MISS %:          0   MPKI: 0
PSCL3 LOAD TRANSLATION ACCESS:     630688  HIT:     630688  MISS:          0  HIT %:        100  MISS %:          0   MPKI: 0
PSCL3 TRANSLATION FROM L1D PREFETCHER ACCESS:     251465  HIT:     251465  MISS:          0  HIT %:        100  MISS %:          0   MPKI: 0
PSCL3 PREFETCH  REQUESTED:          0  ISSUED:          0  USEFUL:          0  USELESS:          0
PSCL3 USEFUL LOAD PREFETCHES:          0 PREFETCH ISSUED TO LOWER LEVEL:          0  ACCURACY: -nan
PSCL3 TIMELY PREFETCHES:          0 LATE PREFETCHES: 0 DROPPED PREFETCHES: 0
PSCL3 PREFETCHES SAME FILL-ORIGIN LEVEL: 0 DIFFERENT FILL-ORIGIN LEVEL: 0

PSCL2 TOTAL     ACCESS:     875069  HIT:     832935  MISS:      42134  HIT %:    95.1851  MISS %:    4.81493   MPKI: 0.21067
PSCL2 LOAD TRANSLATION ACCESS:     631290  HIT:     589156  MISS:      42134  HIT %:    93.3257  MISS %:    6.67427   MPKI: 0.21067
PSCL2 TRANSLATION FROM L1D PREFETCHER ACCESS:     243779  HIT:     243779  MISS:          0  HIT %:        100  MISS %:          0   MPKI: 0
PSCL2 PREFETCH  REQUESTED:          0  ISSUED:          0  USEFUL:          0  USELESS:          0
PSCL2 USEFUL LOAD PREFETCHES:          0 PREFETCH ISSUED TO LOWER LEVEL:          0  ACCURACY: -nan
PSCL2 TIMELY PREFETCHES:          0 LATE PREFETCHES: 0 DROPPED PREFETCHES: 0
PSCL2 PREFETCHES SAME FILL-ORIGIN LEVEL: 0 DIFFERENT FILL-ORIGIN LEVEL: 0

LLC TOTAL     ACCESS:    8876518  HIT:     363149  MISS:    8513369  HIT %:    4.09112  MISS %:    95.9089   MPKI: 42.5668
LLC LOAD      ACCESS:    3746884  HIT:     153549  MISS:    3593335  HIT %:    4.09805  MISS %:     95.902   MPKI: 17.9667
LLC RFO       ACCESS:      17200  HIT:       2722  MISS:      14478  HIT %:    15.8256  MISS %:    84.1744   MPKI: 0.07239
LLC PREFETCH  ACCESS:    4809084  HIT:     117218  MISS:    4691866  HIT %:    2.43743  MISS %:    97.5626   MPKI: 23.4593
LLC WRITEBACK ACCESS:      37725  HIT:      35776  MISS:       1949  HIT %:    94.8337  MISS %:    5.16634   MPKI: 0.009745
LLC LOAD TRANSLATION ACCESS:     249931  HIT:      51169  MISS:     198762  HIT %:    20.4733  MISS %:    79.5267   MPKI: 0.99381
LLC TRANSLATION FROM L1D PREFETCHER ACCESS:      15694  HIT:       2715  MISS:      12979  HIT %:    17.2996  MISS %:    82.7004   MPKI: 0.064895
LLC PREFETCH  REQUESTED:          0  ISSUED:          0  USEFUL:      83309  USELESS:   18875433
LLC USEFUL LOAD PREFETCHES:      83309 PREFETCH ISSUED TO LOWER LEVEL:   18911732  ACCURACY: 0.440515
LLC TIMELY PREFETCHES:      83309 LATE PREFETCHES: 0 DROPPED PREFETCHES: 0
LLC PREFETCHES SAME FILL-ORIGIN LEVEL: 0 DIFFERENT FILL-ORIGIN LEVEL: 0
LLC AVERAGE MISS LATENCY: 1043.59 cycles
LLC RQ	ACCESS:   16171161	FORWARD:          0	MERGED:          0	TO_CACHE:   16171161
LLC WQ	ACCESS:     150958	FORWARD:          0	MERGED:          0	TO_CACHE:     150958
LLC PQ	ACCESS:   19331213	FORWARD:          0	MERGED:          0	TO_CACHE:   19331213

LLC Dense regions hint to LLC: 0

RAW hits: 2523848
Loads Generated: 62505552
Loads sent to L1D: 59981704
Stores Generated: 6755829
Stores sent to L1D: 6755832
Major fault: 0 Minor fault: 22757
Allocated PAGES: 91028

CPU 2 cumulative IPC: 0.228829 instructions: 200000000 cycles: 874014290
ITLB TOTAL     ACCESS:   37292115  HIT:   37234795  MISS:      57320  HIT %:    99.8463  MISS %:   0.153705   MPKI: 0.2866
ITLB LOAD TRANSLATION ACCESS:   37292115  HIT:   37234795  MISS:      57320  HIT %:    99.8463  MISS %:   0.153705   MPKI: 0.2866
ITLB PREFETCH  REQUESTED:          0  ISSUED:          0  USEFUL:          0  USELESS:          0
ITLB USEFUL LOAD PREFETCHES:          0 PREFETCH ISSUED TO LOWER LEVEL:          0  ACCURACY: -nan
ITLB TIMELY PREFETCHES:          0 LATE PREFETCHES: 0 DROPPED PREFETCHES: 0
ITLB PREFETCHES SAME FILL-ORIGIN LEVEL: 0 DIFFERENT FILL-ORIGIN LEVEL: 0
ITLB AVERAGE MISS LATENCY: 25.6991 cycles
ITLB RQ	ACCESS:   42764848	FORWARD:          0	MERGED:    5327422	TO_CACHE:   37437426

DTLB TOTAL     ACCESS:   32628150  HIT:   31815678  MISS:     812472  HIT %:    97.5099  MISS %:     2.4901   MPKI: 4.06236
DTLB LOAD TRANSLATION ACCESS:   32628150  HIT:   31815678  MISS:     812472  HIT %:    97.5099  MISS %:     2.4901   MPKI: 4.06236
DTLB PREFETCH  REQUESTED:          0  ISSUED:          0  USEFUL:          0  USELESS:          0
DTLB USEFUL LOAD PREFETCHES:          0 PREFETCH ISSUED TO LOWER LEVEL:          0  ACCURACY: -nan
DTLB TIMELY PREFETCHES:          0 LATE PREFETCHES: 0 DROPPED PREFETCHES: 0
DTLB PREFETCHES SAME FILL-ORIGIN LEVEL: 0 DIFFERENT FILL-ORIGIN LEVEL: 0
DTLB AVERAGE MISS LATENCY: 233.838 cycles
DTLB RQ	ACCESS:   36765571	FORWARD:          0	MERGED:    3927827	TO_CACHE:   32837744

STLB TOTAL     ACCESS:    8632753  HIT:    7914669  MISS:     718084  HIT %:    91.6819  MISS %:    8.31813   MPKI: 3.59042
STLB LOAD TRANSLATION ACCESS:     869792  HIT:     237917  MISS:     631875  HIT %:    27.3533  MISS %:    72.6467   MPKI: 3.15937
STLB TRANSLATION FROM L1D PREFETCHER ACCESS:    7762961  HIT:    7676752  MISS:      86209  HIT %:    98.8895  MISS %:    1.11052   MPKI: 0.431045
STLB PREFETCH  REQUESTED:          0  ISSUED:          0  USEFUL:      82433  USELESS:       4150
STLB USEFUL LOAD PREFETCHES:      82433 PREFETCH ISSUED TO LOWER LEVEL:          0  ACCURACY: inf
STLB TIMELY PREFETCHES:      82433 LATE PREFETCHES: 1244 DROPPED PREFETCHES: 163070
STLB PREFETCHES SAME FILL-ORIGIN LEVEL: 0 DIFFERENT FILL-ORIGIN LEVEL: 0
STLB AVERAGE MISS LATENCY: 262.989 cycles
STLB RQ	ACCESS:   33607304	FORWARD:          0	MERGED:   24755889	TO_CACHE:    8851415

STLB Hit, L1D data hit: 0
STLB Hit, L2C data hit: 0
STLB Hit, LLC data hit: 0
STLB Hit, LLC data miss: 0
STLB STLB hints to L2: 0
L1D TOTAL     ACCESS:   50742795  HIT:   45210438  MISS:    5532357  HIT %:    89.0973  MISS %:    10.9027   MPKI: 27.6618
L1D LOAD      ACCESS:   29112141  HIT:   23718123  MISS:    5394018  HIT %:    81.4716  MISS %:    18.5284   MPKI: 26.9701
L1D RFO       ACCESS:    6633924  HIT:    6609704  MISS:      24220  HIT %:    99.6349  MISS %:   0.365093   MPKI: 0.1211
L1D PREFETCH  ACCESS:   14996730  HIT:   14882611  MISS:     114119  HIT %:     99.239  MISS %:   0.760959   MPKI: 0.570595
L1D PREFETCH  REQUESTED:   77399503  ISSUED:   76891857  USEFUL:     108627  USELESS:       5869
L1D USEFUL LOAD PREFETCHES:     108627 PREFETCH ISSUED TO LOWER LEVEL:   16995263  ACCURACY: 0.63916
L1D TIMELY PREFETCHES:     108627 LATE PREFETCHES: 1705 DROPPED PREFETCHES: 291207
L1D PREFETCHES SAME FILL-ORIGIN LEVEL: 116194 DIFFERENT FILL-ORIGIN LEVEL: 16879069
L1D AVERAGE MISS LATENCY: 201.753 cycles
L1D RQ	ACCESS:   60191262	FORWARD:          0	MERGED:   29619984	TO_CACHE:   30018421
L1D WQ	ACCESS:    6773539	FORWARD:     554243	MERGED:      26389	TO_CACHE:    6747150
L1D PQ	ACCESS:   44155903	FORWARD:          0	MERGED:   11418563	TO_CACHE:   32735954

L1D UNIQUE REGIONS ACCESSED: 0
L1D REGIONS CONFLICTS: 0
L1D Cross Page Prefetch Requests: 4511056
L1D Same Page Prefetch Requests: 53678645
L1D ROI Sum of L1D PQ occupancy: 464485904
L1D PREFETCHES PUSHED FROM L2C: 0
L1I TOTAL     ACCESS:   42550910  HIT:   42292898  MISS:     258012  HIT %:    99.3936  MISS %:   0.606361   MPKI: 1.29006
L1I LOAD      ACCESS:   42550910  HIT:   42292898  MISS:     258012  HIT %:    99.3936  MISS %:   0.606361   MPKI: 1.29006
L1I PREFETCH  REQUESTED:          0  ISSUED:          0  USEFUL:          0  USELESS:          0
L1I USEFUL LOAD PREFETCHES:          0 PREFETCH ISSUED TO LOWER LEVEL:          0  ACCURACY: -nan
L1I TIMELY PREFETCHES:          0 LATE PREFETCHES: 0 DROPPED PREFETCHES: 0
L1I PREFETCHES SAME FILL-ORIGIN LEVEL: 0 DIFFERENT FILL-ORIGIN LEVEL: 0
L1I AVERAGE MISS LATENCY: 84.6556 cycles
L1I RQ	ACCESS:   73037178	FORWARD:          0	MERGED:   30272330	TO_CACHE:   42764848

BTB TOTAL     ACCESS:   39020337  HIT:   38916392  MISS:     103945  HIT %:    99.7336  MISS %:   0.266387   MPKI: 0.519725
BTB BRANCH_DIRECT_JUMP	ACCESS:    1744386  HIT:    1742924  MISS:       1462
BTB BRANCH_INDIRECT	ACCESS:       8014  HIT:       4978  MISS:       3036
BTB BRANCH_CONDITIONAL	ACCESS:   31882646  HIT:   31878983  MISS:       3663
BTB BRANCH_DIRECT_CALL	ACCESS:    1818417  HIT:    1816155  MISS:       2262
BTB BRANCH_INDIRECT_CALL	ACCESS:     874228  HIT:     870449  MISS:       3779
BTB BRANCH_RETURN	ACCESS:    2692646  HIT:    2602903  MISS:      89743
BTB BRANCH_OTHER ACCESS:          0  HIT:          0  MISS:          0

L2C TOTAL     ACCESS:   21592979  HIT:   12745229  MISS:    8847750  HIT %:    59.0249  MISS %:    40.9751   MPKI: 44.2388
L2C LOAD      ACCESS:    5650324  HIT:    1644831  MISS:    4005493  HIT %:    29.1104  MISS %:    70.8896   MPKI: 20.0275
L2C DATA LOAD MPKI: 19.4705
L2C INSTRUCTION LOAD MPKI: 0.55695
L2C RFO       ACCESS:      24219  HIT:       6982  MISS:      17237  HIT %:    28.8286  MISS %:    71.1714   MPKI: 0.086185
L2C PREFETCH  ACCESS:   14936514  HIT:   10386893  MISS:    4549621  HIT %:    69.5403  MISS %:    30.4597   MPKI: 22.7481
L2C DATA PREFETCH MPKI: 22.7481
L2C INSTRUCTION PREFETCH MPKI: 0
L2C WRITEBACK ACCESS:      51358  HIT:      41559  MISS:       9799  HIT %:    80.9202  MISS %:    19.0798   MPKI: 0.048995
L2C LOAD TRANSLATION ACCESS:     672166  HIT:     422365  MISS:     249801  HIT %:    62.8364  MISS %:    37.1636   MPKI: 1.249
L2C TRANSLATION FROM L1D PREFETCHER ACCESS:     258398  HIT:     242599  MISS:      15799  HIT %:    93.8858  MISS %:    6.11421   MPKI: 0.078995
L2C PREFETCH  REQUESTED:          0  ISSUED:          0  USEFUL:    1481740  USELESS:    3103499
L2C USEFUL LOAD PREFETCHES:    1481740 PREFETCH ISSUED TO LOWER LEVEL:    4829278  ACCURACY: 30.6824
L2C TIMELY PREFETCHES:    1481740 LATE PREFETCHES: 259973 DROPPED PREFETCHES: 0
L2C PREFETCHES SAME FILL-ORIGIN LEVEL: 4802475 DIFFERENT FILL-ORIGIN LEVEL: 0
L2C AVERAGE MISS LATENCY: 276.499 cycles
L2C RQ	ACCESS:    6626256	FORWARD:          0	MERGED:          0	TO_CACHE:    6626254
L2C WQ	ACCESS:      51358	FORWARD:          4	MERGED:          0	TO_CACHE:      51358
L2C PQ	ACCESS:   16995190	FORWARD:          0	MERGED:      27718	TO_CACHE:   16967470

L2C Instructions Evicting Data 98286
L2C Translations Evicting Data 243294
L2C Data Evicting Data 8153364
L2C Instructions Evicting Instructions 4482
L2C Translations Evicting Instructions 6765
L2C Data Evicting Instructions 99247
L2C Instructions Evicting Translations 8622
L2C Translations Evicting Translations 15959
L2C Data Evicting Translations 240278
L2C Dense regions hint from L2: 0
PSCL5 TOTAL     ACCESS:     880530  HIT:     880530  MISS:          0  HIT %:        100  MISS %:          0   MPKI: 0
PSCL5 LOAD TRANSLATION ACCESS:     630656  HIT:     630656  MISS:          0  HIT %:        100  MISS %:          0   MPKI: 0
PSCL5 TRANSLATION FROM L1D PREFETCHER ACCESS:     249874  HIT:     249874  MISS:          0  HIT %:        100  MISS %:          0   MPKI: 0
PSCL5 PREFETCH  REQUESTED:          0  ISSUED:          0  USEFUL:          0  USELESS:          0
PSCL5 USEFUL LOAD PREFETCHES:          0 PREFETCH ISSUED TO LOWER LEVEL:          0  ACCURACY: -nan
PSCL5 TIMELY PREFETCHES:          0 LATE PREFETCHES: 0 DROPPED PREFETCHES: 0
PSCL5 PREFETCHES SAME FILL-ORIGIN LEVEL: 0 DIFFERENT FILL-ORIGIN LEVEL: 0

PSCL4 TOTAL     ACCESS:     880530  HIT:     880530  MISS:          0  HIT %:        100  MISS %:          0   MPKI: 0
PSCL4 LOAD TRANSLATION ACCESS:     630656  HIT:     630656  MISS:          0  HIT %:        100  MISS %:          0   MPKI: 0
PSCL4 TRANSLATION FROM L1D PREFETCHER ACCESS:     249874  HIT:     249874  MISS:          0  HIT %:        100  MISS %:          0   MPKI: 0
PSCL4 PREFETCH  REQUESTED:          0  ISSUED:          0  USEFUL:          0  USELESS:          0
PSCL4 USEFUL LOAD PREFETCHES:          0 PREFETCH ISSUED TO LOWER LEVEL:          0  ACCURACY: -nan
PSCL4 TIMELY PREFETCHES:          0 LATE PREFETCHES: 0 DROPPED PREFETCHES: 0
PSCL4 PREFETCHES SAME FILL-ORIGIN LEVEL: 0 DIFFERENT FILL-ORIGIN LEVEL: 0

PSCL3 TOTAL     ACCESS:     880530  HIT:     880530  MISS:          0  HIT %:        100  MISS %:          0   MPKI: 0
PSCL3 LOAD TRANSLATION ACCESS:     630656  HIT:     630656  MISS:          0  HIT %:        100  MISS %:          0   MPKI: 0
PSCL3 TRANSLATION FROM L1D PREFETCHER ACCESS:     249874  HIT:     249874  MISS:          0  HIT %:        100  MISS %:          0   MPKI: 0
PSCL3 PREFETCH  REQUESTED:          0  ISSUED:          0  USEFUL:          0  USELESS:          0
PSCL3 USEFUL LOAD PREFETCHES:          0 PREFETCH ISSUED TO LOWER LEVEL:          0  ACCURACY: -nan
PSCL3 TIMELY PREFETCHES:          0 LATE PREFETCHES: 0 DROPPED PREFETCHES: 0
PSCL3 PREFETCHES SAME FILL-ORIGIN LEVEL: 0 DIFFERENT FILL-ORIGIN LEVEL: 0

PSCL2 TOTAL     ACCESS:     872608  HIT:     830496  MISS:      42112  HIT %:     95.174  MISS %:    4.82599   MPKI: 0.21056
PSCL2 LOAD TRANSLATION ACCESS:     631258  HIT:     589146  MISS:      42112  HIT %:    93.3289  MISS %:    6.67112   MPKI: 0.21056
PSCL2 TRANSLATION FROM L1D PREFETCHER ACCESS:     241350  HIT:     241350  MISS:          0  HIT %:        100  MISS %:          0   MPKI: 0
PSCL2 PREFETCH  REQUESTED:          0  ISSUED:          0  USEFUL:          0  USELESS:          0
PSCL2 USEFUL LOAD PREFETCHES:          0 PREFETCH ISSUED TO LOWER LEVEL:          0  ACCURACY: -nan
PSCL2 TIMELY PREFETCHES:          0 LATE PREFETCHES: 0 DROPPED PREFETCHES: 0
PSCL2 PREFETCHES SAME FILL-ORIGIN LEVEL: 0 DIFFERENT FILL-ORIGIN LEVEL: 0

LLC TOTAL     ACCESS:    8875824  HIT:     342007  MISS:    8533817  HIT %:    3.85324  MISS %:    96.1468   MPKI: 42.6691
LLC LOAD      ACCESS:    3746739  HIT:     146607  MISS:    3600132  HIT %:    3.91292  MISS %:    96.0871   MPKI: 18.0007
LLC RFO       ACCESS:      17178  HIT:       2679  MISS:      14499  HIT %:    15.5955  MISS %:    84.4045   MPKI: 0.072495
LLC PREFETCH  ACCESS:    4808434  HIT:     102445  MISS:    4705989  HIT %:    2.13053  MISS %:    97.8695   MPKI: 23.5299
LLC WRITEBACK ACCESS:      37873  HIT:      35929  MISS:       1944  HIT %:    94.8671  MISS %:    5.13294   MPKI: 0.00972
LLC LOAD TRANSLATION ACCESS:     249801  HIT:      51551  MISS:     198250  HIT %:    20.6368  MISS %:    79.3632   MPKI: 0.99125
LLC TRANSLATION FROM L1D PREFETCHER ACCESS:      15799  HIT:       2796  MISS:      13003  HIT %:    17.6973  MISS %:    82.3027   MPKI: 0.065015
LLC PREFETCH  REQUESTED:          0  ISSUED:          0  USEFUL:      83309  USELESS:   18875433
LLC USEFUL LOAD PREFETCHES:      83309 PREFETCH ISSUED TO LOWER LEVEL:   18911732  ACCURACY: 0.440515
LLC TIMELY PREFETCHES:      83309 LATE PREFETCHES: 0 DROPPED PREFETCHES: 0
LLC PREFETCHES SAME FILL-ORIGIN LEVEL: 0 DIFFERENT FILL-ORIGIN LEVEL: 0
LLC AVERAGE MISS LATENCY: 1041.09 cycles
LLC RQ	ACCESS:   16171161	FORWARD:          0	MERGED:          0	TO_CACHE:   16171161
LLC WQ	ACCESS:     150958	FORWARD:          0	MERGED:          0	TO_CACHE:     150958
LLC PQ	ACCESS:   19331213	FORWARD:          0	MERGED:          0	TO_CACHE:   19331213

LLC Dense regions hint to LLC: 0

RAW hits: 2523674
Loads Generated: 62505546
Loads sent to L1D: 59981869
Stores Generated: 6755857
Stores sent to L1D: 6755857
Major fault: 0 Minor fault: 22757
Allocated PAGES: 91028

CPU 3 cumulative IPC: 0.228079 instructions: 200000002 cycles: 876888584
ITLB TOTAL     ACCESS:   37294690  HIT:   37237370  MISS:      57320  HIT %:    99.8463  MISS %:   0.153695   MPKI: 0.2866
ITLB LOAD TRANSLATION ACCESS:   37294690  HIT:   37237370  MISS:      57320  HIT %:    99.8463  MISS %:   0.153695   MPKI: 0.2866
ITLB PREFETCH  REQUESTED:          0  ISSUED:          0  USEFUL:          0  USELESS:          0
ITLB USEFUL LOAD PREFETCHES:          0 PREFETCH ISSUED TO LOWER LEVEL:          0  ACCURACY: -nan
ITLB TIMELY PREFETCHES:          0 LATE PREFETCHES: 0 DROPPED PREFETCHES: 0
ITLB PREFETCHES SAME FILL-ORIGIN LEVEL: 0 DIFFERENT FILL-ORIGIN LEVEL: 0
ITLB AVERAGE MISS LATENCY: 26.7717 cycles
ITLB RQ	ACCESS:   42621380	FORWARD:          0	MERGED:    5307550	TO_CACHE:   37313830

DTLB TOTAL     ACCESS:   32628771  HIT:   31816274  MISS:     812497  HIT %:    97.5099  MISS %:    2.49012   MPKI: 4.06248
DTLB LOAD TRANSLATION ACCESS:   32628771  HIT:   31816274  MISS:     812497  HIT %:    97.5099  MISS %:    2.49012   MPKI: 4.06248
DTLB PREFETCH  REQUESTED:          0  ISSUED:          0  USEFUL:          0  USELESS:          0
DTLB USEFUL LOAD PREFETCHES:          0 PREFETCH ISSUED TO LOWER LEVEL:          0  ACCURACY: -nan
DTLB TIMELY PREFETCHES:          0 LATE PREFETCHES: 0 DROPPED PREFETCHES: 0
DTLB PREFETCHES SAME FILL-ORIGIN LEVEL: 0 DIFFERENT FILL-ORIGIN LEVEL: 0
DTLB AVERAGE MISS LATENCY: 234.085 cycles
DTLB RQ	ACCESS:   36647968	FORWARD:          0	MERGED:    3916956	TO_CACHE:   32731012

STLB TOTAL     ACCESS:    8631990  HIT:    7913932  MISS:     718058  HIT %:    91.6814  MISS %:    8.31857   MPKI: 3.59029
STLB LOAD TRANSLATION ACCESS:     869817  HIT:     237810  MISS:     632007  HIT %:    27.3402  MISS %:    72.6598   MPKI: 3.16003
STLB TRANSLATION FROM L1D PREFETCHER ACCESS:    7762173  HIT:    7676122  MISS:      86051  HIT %:    98.8914  MISS %:    1.10859   MPKI: 0.430255
STLB PREFETCH  REQUESTED:          0  ISSUED:          0  USEFUL:      82045  USELESS:       3997
STLB USEFUL LOAD PREFETCHES:      82045 PREFETCH ISSUED TO LOWER LEVEL:          0  ACCURACY: inf
STLB TIMELY PREFETCHES:      82045 LATE PREFETCHES: 1254 DROPPED PREFETCHES: 161480
STLB PREFETCHES SAME FILL-ORIGIN LEVEL: 0 DIFFERENT FILL-ORIGIN LEVEL: 0
STLB AVERAGE MISS LATENCY: 263.34 cycles
STLB RQ	ACCESS:   33407653	FORWARD:          0	MERGED:   24584392	TO_CACHE:    8823261

STLB Hit, L1D data hit: 0
STLB Hit, L2C data hit: 0
STLB Hit, LLC data hit: 0
STLB Hit, LLC data miss: 0
STLB STLB hints to L2: 0
L1D TOTAL     ACCESS:   50641949  HIT:   45109520  MISS:    5532429  HIT %:    89.0754  MISS %:    10.9246   MPKI: 27.6621
L1D LOAD      ACCESS:   29111655  HIT:   23717609  MISS:    5394046  HIT %:    81.4712  MISS %:    18.5288   MPKI: 26.9702
L1D RFO       ACCESS:    6632926  HIT:    6608712  MISS:      24214  HIT %:    99.6349  MISS %:   0.365058   MPKI: 0.12107
L1D PREFETCH  ACCESS:   14897368  HIT:   14783199  MISS:     114169  HIT %:    99.2336  MISS %:    0.76637   MPKI: 0.570845
L1D PREFETCH  REQUESTED:   76946848  ISSUED:   76445931  USEFUL:     108301  USELESS:       5873
L1D USEFUL LOAD PREFETCHES:     108301 PREFETCH ISSUED TO LOWER LEVEL:   16943243  ACCURACY: 0.639199
L1D TIMELY PREFETCHES:     108301 LATE PREFETCHES: 1811 DROPPED PREFETCHES: 289554
L1D PREFETCHES SAME FILL-ORIGIN LEVEL: 115980 DIFFERENT FILL-ORIGIN LEVEL: 16827263
L1D AVERAGE MISS LATENCY: 201.88 cycles
L1D RQ	ACCESS:   59981293	FORWARD:          0	MERGED:   29511680	TO_CACHE:   29918647
L1D WQ	ACCESS:    6755891	FORWARD:     552349	MERGED:      26570	TO_CACHE:    6729321
L1D PQ	ACCESS:   43908095	FORWARD:          0	MERGED:   11368876	TO_CACHE:   32537836

L1D UNIQUE REGIONS ACCESSED: 0
L1D REGIONS CONFLICTS: 0
L1D Cross Page Prefetch Requests: 4492534
L1D Same Page Prefetch Requests: 53433807
L1D ROI Sum of L1D PQ occupancy: 461920040
L1D PREFETCHES PUSHED FROM L2C: 0
L1I TOTAL     ACCESS:   42553272  HIT:   42295260  MISS:     258012  HIT %:    99.3937  MISS %:   0.606327   MPKI: 1.29006
L1I LOAD      ACCESS:   42553272  HIT:   42295260  MISS:     258012  HIT %:    99.3937  MISS %:   0.606327   MPKI: 1.29006
L1I PREFETCH  REQUESTED:          0  ISSUED:          0  USEFUL:          0  USELESS:          0
L1I USEFUL LOAD PREFETCHES:          0 PREFETCH ISSUED TO LOWER LEVEL:          0  ACCURACY: -nan
L1I TIMELY PREFETCHES:          0 LATE PREFETCHES: 0 DROPPED PREFETCHES: 0
L1I PREFETCHES SAME FILL-ORIGIN LEVEL: 0 DIFFERENT FILL-ORIGIN LEVEL: 0
L1I AVERAGE MISS LATENCY: 86.9305 cycles
L1I RQ	ACCESS:   72786109	FORWARD:          0	MERGED:   30164729	TO_CACHE:   42621380

BTB TOTAL     ACCESS:   39018595  HIT:   38914632  MISS:     103963  HIT %:    99.7336  MISS %:   0.266445   MPKI: 0.519815
BTB BRANCH_DIRECT_JUMP	ACCESS:    1744394  HIT:    1742930  MISS:       1464
BTB BRANCH_INDIRECT	ACCESS:       8014  HIT:       4978  MISS:       3036
BTB BRANCH_CONDITIONAL	ACCESS:   31880870  HIT:   31877197  MISS:       3673
BTB BRANCH_DIRECT_CALL	ACCESS:    1818425  HIT:    1816161  MISS:       2264
BTB BRANCH_INDIRECT_CALL	ACCESS:     874234  HIT:     870454  MISS:       3780
BTB BRANCH_RETURN	ACCESS:    2692658  HIT:    2602912  MISS:      89746
BTB BRANCH_OTHER ACCESS:          0  HIT:          0  MISS:          0

L2C TOTAL     ACCESS:   21596752  HIT:   12744118  MISS:    8852634  HIT %:    59.0094  MISS %:    40.9906   MPKI: 44.2632
L2C LOAD      ACCESS:    5650247  HIT:    1642897  MISS:    4007350  HIT %:    29.0766  MISS %:    70.9234   MPKI: 20.0367
L2C DATA LOAD MPKI: 19.4726
L2C INSTRUCTION LOAD MPKI: 0.564165
L2C RFO       ACCESS:      24213  HIT:       6925  MISS:      17288  HIT %:    28.6003  MISS %:    71.3997   MPKI: 0.08644
L2C PREFETCH  ACCESS:   14943191  HIT:   10389539  MISS:    4553652  HIT %:    69.5269  MISS %:    30.4731   MPKI: 22.7683
L2C DATA PREFETCH MPKI: 22.7683
L2C INSTRUCTION PREFETCH MPKI: 0
L2C WRITEBACK ACCESS:      51346  HIT:      42360  MISS:       8986  HIT %:    82.4991  MISS %:    17.5009   MPKI: 0.04493
L2C LOAD TRANSLATION ACCESS:     672298  HIT:     422530  MISS:     249768  HIT %:    62.8486  MISS %:    37.1514   MPKI: 1.24884
L2C TRANSLATION FROM L1D PREFETCHER ACCESS:     255457  HIT:     239867  MISS:      15590  HIT %:    93.8972  MISS %:    6.10279   MPKI: 0.07795
L2C PREFETCH  REQUESTED:          0  ISSUED:          0  USEFUL:    1474046  USELESS:    3095180
L2C USEFUL LOAD PREFETCHES:    1474046 PREFETCH ISSUED TO LOWER LEVEL:    4812696  ACCURACY: 30.6283
L2C TIMELY PREFETCHES:    1474046 LATE PREFETCHES: 259043 DROPPED PREFETCHES: 0
L2C PREFETCHES SAME FILL-ORIGIN LEVEL: 4786210 DIFFERENT FILL-ORIGIN LEVEL: 0
L2C AVERAGE MISS LATENCY: 276.358 cycles
L2C RQ	ACCESS:    6602216	FORWARD:          0	MERGED:          0	TO_CACHE:    6602215
L2C WQ	ACCESS:      51346	FORWARD:          2	MERGED:          0	TO_CACHE:      51346
L2C PQ	ACCESS:   16943185	FORWARD:          0	MERGED:      27577	TO_CACHE:   16915607

L2C Instructions Evicting Data 98914
L2C Translations Evicting Data 242444
L2C Data Evicting Data 8125954
L2C Instructions Evicting Instructions 5442
L2C Translations Evicting Instructions 7248
L2C Data Evicting Instructions 99246
L2C Instructions Evicting Translations 8477
L2C Translations Evicting Translations 15666
L2C Data Evicting Translations 240257
L2C Dense regions hint from L2: 0
PSCL5 TOTAL     ACCESS:     879556  HIT:     879556  MISS:          0  HIT %:        100  MISS %:          0   MPKI: 0
PSCL5 LOAD TRANSLATION ACCESS:     630771  HIT:     630771  MISS:          0  HIT %:        100  MISS %:          0   MPKI: 0
PSCL5 TRANSLATION FROM L1D PREFETCHER ACCESS:     248785  HIT:     248785  MISS:          0  HIT %:        100  MISS %:          0   MPKI: 0
PSCL5 PREFETCH  REQUESTED:          0  ISSUED:          0  USEFUL:          0  USELESS:          0
PSCL5 USEFUL LOAD PREFETCHES:          0 PREFETCH ISSUED TO LOWER LEVEL:          0  ACCURACY: -nan
PSCL5 TIMELY PREFETCHES:          0 LATE PREFETCHES: 0 DROPPED PREFETCHES: 0
PSCL5 PREFETCHES SAME FILL-ORIGIN LEVEL: 0 DIFFERENT FILL-ORIGIN LEVEL: 0

PSCL4 TOTAL     ACCESS:     879556  HIT:     879556  MISS:          0  HIT %:        100  MISS %:          0   MPKI: 0
PSCL4 LOAD TRANSLATION ACCESS:     630771  HIT:     630771  MISS:          0  HIT %:        100  MISS %:          0   MPKI: 0
PSCL4 TRANSLATION FROM L1D PREFETCHER ACCESS:     248785  HIT:     248785  MISS:          0  HIT %:        100  MISS %:          0   MPKI: 0
PSCL4 PREFETCH  REQUESTED:          0  ISSUED:          0  USEFUL:          0  USELESS:          0
PSCL4 USEFUL LOAD PREFETCHES:          0 PREFETCH ISSUED TO LOWER LEVEL:          0  ACCURACY: -nan
PSCL4 TIMELY PREFETCHES:          0 LATE PREFETCHES: 0 DROPPED PREFETCHES: 0
PSCL4 PREFETCHES SAME FILL-ORIGIN LEVEL: 0 DIFFERENT FILL-ORIGIN LEVEL: 0

PSCL3 TOTAL     ACCESS:     879556  HIT:     879556  MISS:          0  HIT %:        100  MISS %:          0   MPKI: 0
PSCL3 LOAD TRANSLATION ACCESS:     630771  HIT:     630771  MISS:          0  HIT %:        100  MISS %:          0   MPKI: 0
PSCL3 TRANSLATION FROM L1D PREFETCHER ACCESS:     248785  HIT:     248785  MISS:          0  HIT %:        100  MISS %:          0   MPKI: 0
PSCL3 PREFETCH  REQUESTED:          0  ISSUED:          0  USEFUL:          0  USELESS:          0
PSCL3 USEFUL LOAD PREFETCHES:          0 PREFETCH ISSUED TO LOWER LEVEL:          0  ACCURACY: -nan
PSCL3 TIMELY PREFETCHES:          0 LATE PREFETCHES: 0 DROPPED PREFETCHES: 0
PSCL3 PREFETCHES SAME FILL-ORIGIN LEVEL: 0 DIFFERENT FILL-ORIGIN LEVEL: 0

PSCL2 TOTAL     ACCESS:     873474  HIT:     831357  MISS:      42117  HIT %:    95.1782  MISS %:    4.82178   MPKI: 0.210585
PSCL2 LOAD TRANSLATION ACCESS:     631361  HIT:     589244  MISS:      42117  HIT %:    93.3292  MISS %:    6.67083   MPKI: 0.210585
PSCL2 TRANSLATION FROM L1D PREFETCHER ACCESS:     242113  HIT:     242113  MISS:          0  HIT %:        100  MISS %:          0   MPKI: 0
PSCL2 PREFETCH  REQUESTED:          0  ISSUED:          0  USEFUL:          0  USELESS:          0
PSCL2 USEFUL LOAD PREFETCHES:          0 PREFETCH ISSUED TO LOWER LEVEL:          0  ACCURACY: -nan
PSCL2 TIMELY PREFETCHES:          0 LATE PREFETCHES: 0 DROPPED PREFETCHES: 0
PSCL2 PREFETCHES SAME FILL-ORIGIN LEVEL: 0 DIFFERENT FILL-ORIGIN LEVEL: 0

LLC TOTAL     ACCESS:    8881312  HIT:     301985  MISS:    8579327  HIT %:    3.40023  MISS %:    96.5998   MPKI: 42.8966
LLC LOAD      ACCESS:    3748390  HIT:     132327  MISS:    3616063  HIT %:    3.53024  MISS %:    96.4698   MPKI: 18.0803
LLC RFO       ACCESS:      17205  HIT:       2622  MISS:      14583  HIT %:    15.2398  MISS %:    84.7602   MPKI: 0.072915
LLC PREFETCH  ACCESS:    4812695  HIT:      77143  MISS:    4735552  HIT %:    1.60291  MISS %:    98.3971   MPKI: 23.6778
LLC WRITEBACK ACCESS:      37664  HIT:      35653  MISS:       2011  HIT %:    94.6607  MISS %:    5.33932   MPKI: 0.010055
LLC LOAD TRANSLATION ACCESS:     249768  HIT:      51684  MISS:     198084  HIT %:    20.6928  MISS %:    79.3072   MPKI: 0.99042
LLC TRANSLATION FROM L1D PREFETCHER ACCESS:      15590  HIT:       2556  MISS:      13034  HIT %:    16.3951  MISS %:    83.6049   MPKI: 0.06517
LLC PREFETCH  REQUESTED:          0  ISSUED:          0  USEFUL:      83309  USELESS:   18875433
LLC USEFUL LOAD PREFETCHES:      83309 PREFETCH ISSUED TO LOWER LEVEL:   18911732  ACCURACY: 0.440515
LLC TIMELY PREFETCHES:      83309 LATE PREFETCHES: 0 DROPPED PREFETCHES: 0
LLC PREFETCHES SAME FILL-ORIGIN LEVEL: 0 DIFFERENT FILL-ORIGIN LEVEL: 0
LLC AVERAGE MISS LATENCY: 1035.57 cycles
LLC RQ	ACCESS:   16171161	FORWARD:          0	MERGED:          0	TO_CACHE:   16171161
LLC WQ	ACCESS:     150958	FORWARD:          0	MERGED:          0	TO_CACHE:     150958
LLC PQ	ACCESS:   19331213	FORWARD:          0	MERGED:          0	TO_CACHE:   19331213

LLC Dense regions hint to LLC: 0

RAW hits: 2524231
Loads Generated: 62505528
Loads sent to L1D: 59981293
Stores Generated: 6755889
Stores sent to L1D: 6755891
Major fault: 0 Minor fault: 22757
Allocated PAGES: 91028

DRAM Statistics
 CHANNEL 0
 RQ ROW_BUFFER_HIT:    7493682  ROW_BUFFER_MISS:   26773040
 DBUS_CONGESTED:       1093
 WQ ROW_BUFFER_HIT:       6302  ROW_BUFFER_MISS:     106633  FULL:          0

 AVG_CONGESTED_CYCLE: 5
 All warmup complete: 5
Channel 0 Bank busy for read cycles: 0
Channel 0 Bank busy for write cycles: 0
Channel 0
Rank 0
0banks busy for read cycles: 978475
0banks busy for write cycles: 237
1banks busy for read cycles: 27190481
1banks busy for write cycles: 252698
2banks busy for read cycles: 70225653
2banks busy for write cycles: 195397
3banks busy for read cycles: 113217583
3banks busy for write cycles: 183376
4banks busy for read cycles: 137186385
4banks busy for write cycles: 167102
5banks busy for read cycles: 140972254
5banks busy for write cycles: 181405
6banks busy for read cycles: 134999691
6banks busy for write cycles: 185136
7banks busy for read cycles: 127509860
7banks busy for write cycles: 365871
8banks busy for read cycles: 116076224
8banks busy for write cycles: 7000757

CPU 0 Branch Prediction Accuracy: 99.4339% MPKI: 1.61663 Average ROB Occupancy at Mispredict: 206.793
Branch types
NOT_BRANCH: 143728992 71.4198%
BRANCH_DIRECT_JUMP: 1754914 0.872027%
BRANCH_INDIRECT: 8014 0.0039822%
BRANCH_CONDITIONAL: 50336535 25.0125%
BRANCH_DIRECT_CALL: 1828945 0.908813%
BRANCH_INDIRECT_CALL: 879492 0.437025%
BRANCH_RETURN: 2708438 1.34584%
BRANCH_OTHER: 0 0%


CPU 1 Branch Prediction Accuracy: 99.434% MPKI: 1.61698 Average ROB Occupancy at Mispredict: 206.804
Branch types
NOT_BRANCH: 143690314 71.42%
BRANCH_DIRECT_JUMP: 1754460 0.872039%
BRANCH_INDIRECT: 8014 0.00398329%
BRANCH_CONDITIONAL: 50322373 25.0123%
BRANCH_DIRECT_CALL: 1828491 0.908836%
BRANCH_INDIRECT_CALL: 879266 0.437032%
BRANCH_RETURN: 2707757 1.34587%
BRANCH_OTHER: 0 0%


CPU 2 Branch Prediction Accuracy: 99.4343% MPKI: 1.61615 Average ROB Occupancy at Mispredict: 206.823
Branch types
NOT_BRANCH: 143340147 71.4215%
BRANCH_DIRECT_JUMP: 1750280 0.872105%
BRANCH_INDIRECT: 8014 0.0039931%
BRANCH_CONDITIONAL: 50194762 25.0103%
BRANCH_DIRECT_CALL: 1824311 0.908992%
BRANCH_INDIRECT_CALL: 877176 0.437067%
BRANCH_RETURN: 2701487 1.34606%
BRANCH_OTHER: 0 0%


CPU 3 Branch Prediction Accuracy: 99.4349% MPKI: 1.61473 Average ROB Occupancy at Mispredict: 206.922
Branch types
NOT_BRANCH: 142846955 71.4235%
BRANCH_DIRECT_JUMP: 1744394 0.872197%
BRANCH_INDIRECT: 8014 0.004007%
BRANCH_CONDITIONAL: 50015021 25.0075%
BRANCH_DIRECT_CALL: 1818425 0.909212%
BRANCH_INDIRECT_CALL: 874234 0.437117%
BRANCH_RETURN: 2692658 1.34633%
BRANCH_OTHER: 0 0%

DRAM PAGES: 1048576
Allocated PAGES: 91028
