
*** ChampSim Multicore Out-of-Order Simulator ***

Warmup Instructions: 50000000
Simulation Instructions: 200000000
Number of CPUs: 4
LLC sets: 8192
LLC ways: 16
Off-chip DRAM Size: 4096 MB Channels: 1 Width: 64-bit Data Rate: 6400 MT/s
CPU 0 runs ./traces/ligra/ligra_BFSCC.com-lj.ungraph.gcc_6.3.0_O3.drop_18750M.length_250M.champsimtrace.xz
.xz
CPU 1 runs ./traces/ligra/ligra_BFSCC.com-lj.ungraph.gcc_6.3.0_O3.drop_18750M.length_250M.champsimtrace.xz
.xz
CPU 2 runs ./traces/ligra/ligra_BFSCC.com-lj.ungraph.gcc_6.3.0_O3.drop_18750M.length_250M.champsimtrace.xz
.xz
CPU 3 runs ./traces/ligra/ligra_BFSCC.com-lj.ungraph.gcc_6.3.0_O3.drop_18750M.length_250M.champsimtrace.xz
.xz
BTB has LRU replacement policy
ITLB has LRU replacement policy
DTLB has LRU replacement policy
STLB has LRU replacement policy
L1I has LRU replacement policy
History Sets: 8
History Ways: 16
BERTI Size: 16
BERTI Stride Size: 8
L1D has LRU replacement policy
Initialize SRRIP state for L2C
Initialize DRRIP state for LLC
BTB has LRU replacement policy
ITLB has LRU replacement policy
DTLB has LRU replacement policy
STLB has LRU replacement policy
L1I has LRU replacement policy
History Sets: 8
History Ways: 16
BERTI Size: 16
BERTI Stride Size: 8
L1D has LRU replacement policy
Initialize SRRIP state for L2C
Initialize DRRIP state for LLC
BTB has LRU replacement policy
ITLB has LRU replacement policy
DTLB has LRU replacement policy
STLB has LRU replacement policy
L1I has LRU replacement policy
History Sets: 8
History Ways: 16
BERTI Size: 16
BERTI Stride Size: 8
L1D has LRU replacement policy
Initialize SRRIP state for L2C
Initialize DRRIP state for LLC
BTB has LRU replacement policy
ITLB has LRU replacement policy
DTLB has LRU replacement policy
STLB has LRU replacement policy
L1I has LRU replacement policy
History Sets: 8
History Ways: 16
BERTI Size: 16
BERTI Stride Size: 8
L1D has LRU replacement policy
Initialize SRRIP state for L2C
Initialize DRRIP state for LLC
Heartbeat CPU 2 instructions: 10000002 cycles: 2550643 heartbeat IPC: 3.92058 cumulative IPC: 3.92058 (Simulation time: 0 hr 3 min 37 sec) 
Heartbeat CPU 3 instructions: 10000002 cycles: 2550792 heartbeat IPC: 3.92035 cumulative IPC: 3.92035 (Simulation time: 0 hr 3 min 37 sec) 
Heartbeat CPU 0 instructions: 10000002 cycles: 2550905 heartbeat IPC: 3.92018 cumulative IPC: 3.92018 (Simulation time: 0 hr 3 min 37 sec) 
Heartbeat CPU 1 instructions: 10000002 cycles: 2550962 heartbeat IPC: 3.92009 cumulative IPC: 3.92009 (Simulation time: 0 hr 3 min 37 sec) 
Heartbeat CPU 2 instructions: 20000003 cycles: 5100854 heartbeat IPC: 3.92124 cumulative IPC: 3.92091 (Simulation time: 0 hr 6 min 48 sec) 
Heartbeat CPU 3 instructions: 20000003 cycles: 5100908 heartbeat IPC: 3.92139 cumulative IPC: 3.92087 (Simulation time: 0 hr 6 min 48 sec) 
Heartbeat CPU 1 instructions: 20000003 cycles: 5100971 heartbeat IPC: 3.92156 cumulative IPC: 3.92082 (Simulation time: 0 hr 6 min 48 sec) 
Heartbeat CPU 0 instructions: 20000003 cycles: 5101246 heartbeat IPC: 3.92104 cumulative IPC: 3.92061 (Simulation time: 0 hr 6 min 48 sec) 
Heartbeat CPU 2 instructions: 30000001 cycles: 7651062 heartbeat IPC: 3.92125 cumulative IPC: 3.92102 (Simulation time: 0 hr 9 min 50 sec) 
Heartbeat CPU 1 instructions: 30000001 cycles: 7651244 heartbeat IPC: 3.92115 cumulative IPC: 3.92093 (Simulation time: 0 hr 9 min 50 sec) 
Heartbeat CPU 3 instructions: 30000001 cycles: 7651299 heartbeat IPC: 3.92097 cumulative IPC: 3.9209 (Simulation time: 0 hr 9 min 50 sec) 
Heartbeat CPU 0 instructions: 30000001 cycles: 7651493 heartbeat IPC: 3.92119 cumulative IPC: 3.9208 (Simulation time: 0 hr 9 min 50 sec) 
Heartbeat CPU 2 instructions: 40000002 cycles: 10200954 heartbeat IPC: 3.92174 cumulative IPC: 3.9212 (Simulation time: 0 hr 12 min 47 sec) 
Heartbeat CPU 1 instructions: 40000002 cycles: 10201316 heartbeat IPC: 3.92146 cumulative IPC: 3.92106 (Simulation time: 0 hr 12 min 47 sec) 
Heartbeat CPU 3 instructions: 40000002 cycles: 10201338 heartbeat IPC: 3.92151 cumulative IPC: 3.92105 (Simulation time: 0 hr 12 min 47 sec) 
Heartbeat CPU 0 instructions: 40000002 cycles: 10201432 heartbeat IPC: 3.92166 cumulative IPC: 3.92102 (Simulation time: 0 hr 12 min 47 sec) 
Heartbeat CPU 2 instructions: 50000001 cycles: 12751222 heartbeat IPC: 3.92116 cumulative IPC: 3.92119 (Simulation time: 0 hr 16 min 9 sec) 
Heartbeat CPU 3 instructions: 50000001 cycles: 12751425 heartbeat IPC: 3.92143 cumulative IPC: 3.92113 (Simulation time: 0 hr 16 min 9 sec) 
Heartbeat CPU 0 instructions: 50000001 cycles: 12751501 heartbeat IPC: 3.92146 cumulative IPC: 3.92111 (Simulation time: 0 hr 16 min 9 sec) 
Heartbeat CPU 1 instructions: 50000001 cycles: 12751663 heartbeat IPC: 3.92103 cumulative IPC: 3.92106 (Simulation time: 0 hr 16 min 9 sec) 

Warmup complete CPU 0 instructions: 50000618 cycles: 12751663 (Simulation time: 0 hr 16 min 9 sec) 
Warmup complete CPU 1 instructions: 50000001 cycles: 12751663 (Simulation time: 0 hr 16 min 9 sec) 
Warmup complete CPU 2 instructions: 50001336 cycles: 12751662 (Simulation time: 0 hr 16 min 9 sec) 
Warmup complete CPU 3 instructions: 50000763 cycles: 12751662 (Simulation time: 0 hr 16 min 9 sec) 

Heartbeat CPU 1 instructions: 60000001 cycles: 34482532 heartbeat IPC: 0.460175 cumulative IPC: 0.460175 (Simulation time: 0 hr 19 min 33 sec) 
Heartbeat CPU 0 instructions: 60000001 cycles: 34512847 heartbeat IPC: 0.45953 cumulative IPC: 0.459505 (Simulation time: 0 hr 19 min 33 sec) 
Heartbeat CPU 3 instructions: 60000002 cycles: 34635881 heartbeat IPC: 0.456945 cumulative IPC: 0.456915 (Simulation time: 0 hr 19 min 34 sec) 
Heartbeat CPU 2 instructions: 60000001 cycles: 34797836 heartbeat IPC: 0.453584 cumulative IPC: 0.453533 (Simulation time: 0 hr 19 min 35 sec) 
Heartbeat CPU 1 instructions: 70000001 cycles: 56300540 heartbeat IPC: 0.458337 cumulative IPC: 0.459254 (Simulation time: 0 hr 23 min 4 sec) 
Heartbeat CPU 3 instructions: 70000001 cycles: 56340963 heartbeat IPC: 0.460722 cumulative IPC: 0.458811 (Simulation time: 0 hr 23 min 4 sec) 
Heartbeat CPU 0 instructions: 70000001 cycles: 56376237 heartbeat IPC: 0.457386 cumulative IPC: 0.458443 (Simulation time: 0 hr 23 min 5 sec) 
Heartbeat CPU 2 instructions: 70000001 cycles: 56559470 heartbeat IPC: 0.459524 cumulative IPC: 0.456509 (Simulation time: 0 hr 23 min 6 sec) 
Heartbeat CPU 3 instructions: 80000000 cycles: 78173635 heartbeat IPC: 0.458029 cumulative IPC: 0.45855 (Simulation time: 0 hr 26 min 46 sec) 
Heartbeat CPU 1 instructions: 80000001 cycles: 78193723 heartbeat IPC: 0.456763 cumulative IPC: 0.458421 (Simulation time: 0 hr 26 min 46 sec) 
Heartbeat CPU 0 instructions: 80000000 cycles: 78215442 heartbeat IPC: 0.457892 cumulative IPC: 0.458259 (Simulation time: 0 hr 26 min 46 sec) 
Heartbeat CPU 2 instructions: 80000001 cycles: 78563316 heartbeat IPC: 0.454466 cumulative IPC: 0.455826 (Simulation time: 0 hr 26 min 50 sec) 
Heartbeat CPU 3 instructions: 90000000 cycles: 100028749 heartbeat IPC: 0.457559 cumulative IPC: 0.458302 (Simulation time: 0 hr 30 min 28 sec) 
Heartbeat CPU 1 instructions: 90000000 cycles: 100186642 heartbeat IPC: 0.454692 cumulative IPC: 0.457483 (Simulation time: 0 hr 30 min 30 sec) 
Heartbeat CPU 0 instructions: 90000000 cycles: 100275687 heartbeat IPC: 0.453304 cumulative IPC: 0.45701 (Simulation time: 0 hr 30 min 31 sec) 
Heartbeat CPU 2 instructions: 90000000 cycles: 100608097 heartbeat IPC: 0.453622 cumulative IPC: 0.455273 (Simulation time: 0 hr 30 min 35 sec) 
Heartbeat CPU 3 instructions: 100000002 cycles: 122144374 heartbeat IPC: 0.452169 cumulative IPC: 0.457062 (Simulation time: 0 hr 34 min 14 sec) 
Heartbeat CPU 1 instructions: 100000002 cycles: 122281800 heartbeat IPC: 0.452588 cumulative IPC: 0.456495 (Simulation time: 0 hr 34 min 15 sec) 
Heartbeat CPU 0 instructions: 100000002 cycles: 122460848 heartbeat IPC: 0.450752 cumulative IPC: 0.455745 (Simulation time: 0 hr 34 min 17 sec) 
Heartbeat CPU 2 instructions: 100000002 cycles: 122589434 heartbeat IPC: 0.454931 cumulative IPC: 0.455205 (Simulation time: 0 hr 34 min 18 sec) 
Heartbeat CPU 3 instructions: 110000000 cycles: 144282166 heartbeat IPC: 0.451716 cumulative IPC: 0.456162 (Simulation time: 0 hr 37 min 50 sec) 
Heartbeat CPU 1 instructions: 110000000 cycles: 144573382 heartbeat IPC: 0.4486 cumulative IPC: 0.45516 (Simulation time: 0 hr 37 min 52 sec) 
Heartbeat CPU 2 instructions: 110000000 cycles: 144867862 heartbeat IPC: 0.448865 cumulative IPC: 0.454136 (Simulation time: 0 hr 37 min 55 sec) 
Heartbeat CPU 0 instructions: 110000000 cycles: 144927762 heartbeat IPC: 0.445099 cumulative IPC: 0.453935 (Simulation time: 0 hr 37 min 56 sec) 
Heartbeat CPU 3 instructions: 120000003 cycles: 167226432 heartbeat IPC: 0.435839 cumulative IPC: 0.453144 (Simulation time: 0 hr 40 min 58 sec) 
Heartbeat CPU 1 instructions: 120000003 cycles: 167731014 heartbeat IPC: 0.431823 cumulative IPC: 0.451673 (Simulation time: 0 hr 41 min 2 sec) 
Heartbeat CPU 0 instructions: 120000003 cycles: 167770341 heartbeat IPC: 0.437779 cumulative IPC: 0.451555 (Simulation time: 0 hr 41 min 3 sec) 
Heartbeat CPU 2 instructions: 120000003 cycles: 167878434 heartbeat IPC: 0.434583 cumulative IPC: 0.451235 (Simulation time: 0 hr 41 min 3 sec) 
Heartbeat CPU 3 instructions: 130000002 cycles: 190831572 heartbeat IPC: 0.423636 cumulative IPC: 0.449232 (Simulation time: 0 hr 44 min 9 sec) 
Heartbeat CPU 1 instructions: 130000002 cycles: 191372044 heartbeat IPC: 0.422993 cumulative IPC: 0.447877 (Simulation time: 0 hr 44 min 14 sec) 
Heartbeat CPU 0 instructions: 130000002 cycles: 191508339 heartbeat IPC: 0.421265 cumulative IPC: 0.447532 (Simulation time: 0 hr 44 min 15 sec) 
Heartbeat CPU 2 instructions: 130000002 cycles: 191558809 heartbeat IPC: 0.422291 cumulative IPC: 0.447402 (Simulation time: 0 hr 44 min 15 sec) 
Heartbeat CPU 3 instructions: 140000000 cycles: 215125761 heartbeat IPC: 0.411621 cumulative IPC: 0.444717 (Simulation time: 0 hr 47 min 31 sec) 
Heartbeat CPU 1 instructions: 140000000 cycles: 215638204 heartbeat IPC: 0.412096 cumulative IPC: 0.443598 (Simulation time: 0 hr 47 min 34 sec) 
Heartbeat CPU 0 instructions: 140000003 cycles: 215771371 heartbeat IPC: 0.41215 cumulative IPC: 0.443304 (Simulation time: 0 hr 47 min 36 sec) 
Heartbeat CPU 2 instructions: 140000003 cycles: 215913305 heartbeat IPC: 0.410602 cumulative IPC: 0.44299 (Simulation time: 0 hr 47 min 37 sec) 
Heartbeat CPU 3 instructions: 150000002 cycles: 235926890 heartbeat IPC: 0.480743 cumulative IPC: 0.448075 (Simulation time: 0 hr 51 min 17 sec) 
Heartbeat CPU 1 instructions: 150000001 cycles: 236233370 heartbeat IPC: 0.485551 cumulative IPC: 0.447464 (Simulation time: 0 hr 51 min 23 sec) 
Heartbeat CPU 0 instructions: 150000001 cycles: 236314965 heartbeat IPC: 0.48677 cumulative IPC: 0.447298 (Simulation time: 0 hr 51 min 25 sec) 
Heartbeat CPU 2 instructions: 150000002 cycles: 236411183 heartbeat IPC: 0.487855 cumulative IPC: 0.447102 (Simulation time: 0 hr 51 min 27 sec) 
Heartbeat CPU 3 instructions: 160000000 cycles: 247222396 heartbeat IPC: 0.885308 cumulative IPC: 0.469138 (Simulation time: 0 hr 55 min 8 sec) 
Heartbeat CPU 1 instructions: 160000000 cycles: 247511656 heartbeat IPC: 0.886659 cumulative IPC: 0.468564 (Simulation time: 0 hr 55 min 15 sec) 
Heartbeat CPU 0 instructions: 160000000 cycles: 247576058 heartbeat IPC: 0.888013 cumulative IPC: 0.468433 (Simulation time: 0 hr 55 min 16 sec) 
Heartbeat CPU 2 instructions: 160000000 cycles: 247671016 heartbeat IPC: 0.888112 cumulative IPC: 0.46824 (Simulation time: 0 hr 55 min 19 sec) 
Heartbeat CPU 3 instructions: 170000000 cycles: 259998514 heartbeat IPC: 0.78271 cumulative IPC: 0.485342 (Simulation time: 0 hr 59 min 4 sec) 
Heartbeat CPU 1 instructions: 170000000 cycles: 260446901 heartbeat IPC: 0.773082 cumulative IPC: 0.484466 (Simulation time: 0 hr 59 min 11 sec) 
Heartbeat CPU 0 instructions: 170000000 cycles: 260531807 heartbeat IPC: 0.771858 cumulative IPC: 0.484298 (Simulation time: 0 hr 59 min 13 sec) 
Heartbeat CPU 2 instructions: 170000000 cycles: 260742859 heartbeat IPC: 0.765003 cumulative IPC: 0.483883 (Simulation time: 0 hr 59 min 16 sec) 
Heartbeat CPU 3 instructions: 180000001 cycles: 277222023 heartbeat IPC: 0.580602 cumulative IPC: 0.491546 (Simulation time: 1 hr 2 min 50 sec) 
Heartbeat CPU 1 instructions: 180000001 cycles: 277548043 heartbeat IPC: 0.584756 cumulative IPC: 0.490943 (Simulation time: 1 hr 2 min 54 sec) 
Heartbeat CPU 2 instructions: 180000000 cycles: 277780427 heartbeat IPC: 0.586938 cumulative IPC: 0.490508 (Simulation time: 1 hr 2 min 58 sec) 
Heartbeat CPU 0 instructions: 180000001 cycles: 277786142 heartbeat IPC: 0.579565 cumulative IPC: 0.4905 (Simulation time: 1 hr 2 min 58 sec) 
Heartbeat CPU 3 instructions: 190000003 cycles: 296186491 heartbeat IPC: 0.527302 cumulative IPC: 0.493938 (Simulation time: 1 hr 7 min 26 sec) 
Heartbeat CPU 1 instructions: 190000001 cycles: 297781916 heartbeat IPC: 0.494221 cumulative IPC: 0.491176 (Simulation time: 1 hr 8 min 0 sec) 
Heartbeat CPU 2 instructions: 190000001 cycles: 298074259 heartbeat IPC: 0.492761 cumulative IPC: 0.490668 (Simulation time: 1 hr 8 min 6 sec) 
Heartbeat CPU 0 instructions: 190000001 cycles: 298201369 heartbeat IPC: 0.48983 cumulative IPC: 0.490452 (Simulation time: 1 hr 8 min 9 sec) 
Heartbeat CPU 3 instructions: 200000001 cycles: 347595968 heartbeat IPC: 0.194517 cumulative IPC: 0.447967 (Simulation time: 1 hr 28 min 43 sec) 
Heartbeat CPU 1 instructions: 200000001 cycles: 349045633 heartbeat IPC: 0.19507 cumulative IPC: 0.446038 (Simulation time: 1 hr 29 min 18 sec) 
Heartbeat CPU 2 instructions: 200000001 cycles: 349304371 heartbeat IPC: 0.195198 cumulative IPC: 0.445691 (Simulation time: 1 hr 29 min 23 sec) 
Heartbeat CPU 0 instructions: 200000003 cycles: 349522575 heartbeat IPC: 0.194851 cumulative IPC: 0.445405 (Simulation time: 1 hr 29 min 27 sec) 
Heartbeat CPU 3 instructions: 210000001 cycles: 398778063 heartbeat IPC: 0.195381 cumulative IPC: 0.414477 (Simulation time: 1 hr 52 min 25 sec) 
Heartbeat CPU 1 instructions: 210000001 cycles: 400253101 heartbeat IPC: 0.195284 cumulative IPC: 0.412902 (Simulation time: 1 hr 53 min 6 sec) 
Heartbeat CPU 2 instructions: 210000001 cycles: 400707891 heartbeat IPC: 0.194539 cumulative IPC: 0.412414 (Simulation time: 1 hr 53 min 24 sec) 
Heartbeat CPU 0 instructions: 210000001 cycles: 400770253 heartbeat IPC: 0.195131 cumulative IPC: 0.41235 (Simulation time: 1 hr 53 min 26 sec) 
Heartbeat CPU 3 instructions: 220000000 cycles: 450110915 heartbeat IPC: 0.194807 cumulative IPC: 0.388695 (Simulation time: 2 hr 16 min 35 sec) 
Heartbeat CPU 1 instructions: 220000000 cycles: 451711145 heartbeat IPC: 0.194333 cumulative IPC: 0.387279 (Simulation time: 2 hr 17 min 9 sec) 
Heartbeat CPU 2 instructions: 220000000 cycles: 452042894 heartbeat IPC: 0.194799 cumulative IPC: 0.386984 (Simulation time: 2 hr 17 min 17 sec) 
Heartbeat CPU 0 instructions: 220000000 cycles: 452047154 heartbeat IPC: 0.19502 cumulative IPC: 0.386982 (Simulation time: 2 hr 17 min 17 sec) 
Heartbeat CPU 3 instructions: 230000001 cycles: 501445362 heartbeat IPC: 0.194801 cumulative IPC: 0.368327 (Simulation time: 2 hr 37 min 13 sec) 
Heartbeat CPU 1 instructions: 230000003 cycles: 502859577 heartbeat IPC: 0.195509 cumulative IPC: 0.367266 (Simulation time: 2 hr 37 min 49 sec) 
Heartbeat CPU 2 instructions: 230000003 cycles: 503270390 heartbeat IPC: 0.195208 cumulative IPC: 0.366956 (Simulation time: 2 hr 37 min 57 sec) 
Heartbeat CPU 0 instructions: 230000003 cycles: 503355159 heartbeat IPC: 0.194901 cumulative IPC: 0.366894 (Simulation time: 2 hr 37 min 59 sec) 
Heartbeat CPU 3 instructions: 240000000 cycles: 557257831 heartbeat IPC: 0.179171 cumulative IPC: 0.348939 (Simulation time: 2 hr 57 min 26 sec) 
Heartbeat CPU 1 instructions: 240000000 cycles: 558341838 heartbeat IPC: 0.180238 cumulative IPC: 0.348247 (Simulation time: 2 hr 57 min 38 sec) 
Heartbeat CPU 2 instructions: 240000000 cycles: 558419220 heartbeat IPC: 0.181327 cumulative IPC: 0.348195 (Simulation time: 2 hr 57 min 39 sec) 
Heartbeat CPU 0 instructions: 240000000 cycles: 558430146 heartbeat IPC: 0.181571 cumulative IPC: 0.348189 (Simulation time: 2 hr 57 min 39 sec) 
*** Reached end of trace for Core: 3 Repeating trace: ./traces/ligra/ligra_BFSCC.com-lj.ungraph.gcc_6.3.0_O3.drop_18750M.length_250M.champsimtrace.xz
Heartbeat CPU 3 instructions: 250000000 cycles: 627498992 heartbeat IPC: 0.142367 cumulative IPC: 0.325336 (Simulation time: 3 hr 7 min 52 sec) 
Finished CPU 3 instructions: 200000000 cycles: 614750311 cumulative IPC: 0.325335 (Simulation time: 3 hr 7 min 52 sec) 
*** Reached end of trace for Core: 1 Repeating trace: ./traces/ligra/ligra_BFSCC.com-lj.ungraph.gcc_6.3.0_O3.drop_18750M.length_250M.champsimtrace.xz
Heartbeat CPU 1 instructions: 250000000 cycles: 628584868 heartbeat IPC: 0.142363 cumulative IPC: 0.324763 (Simulation time: 3 hr 8 min 3 sec) 
Finished CPU 1 instructions: 200000003 cycles: 615833212 cumulative IPC: 0.324763 (Simulation time: 3 hr 8 min 3 sec) 
*** Reached end of trace for Core: 2 Repeating trace: ./traces/ligra/ligra_BFSCC.com-lj.ungraph.gcc_6.3.0_O3.drop_18750M.length_250M.champsimtrace.xz
Heartbeat CPU 2 instructions: 250000000 cycles: 628662664 heartbeat IPC: 0.142362 cumulative IPC: 0.32472 (Simulation time: 3 hr 8 min 4 sec) 
*** Reached end of trace for Core: 0 Repeating trace: ./traces/ligra/ligra_BFSCC.com-lj.ungraph.gcc_6.3.0_O3.drop_18750M.length_250M.champsimtrace.xz
Heartbeat CPU 0 instructions: 250000000 cycles: 628673313 heartbeat IPC: 0.142363 cumulative IPC: 0.324716 (Simulation time: 3 hr 8 min 4 sec) 
Finished CPU 2 instructions: 200000000 cycles: 615932413 cumulative IPC: 0.324711 (Simulation time: 3 hr 8 min 4 sec) 
Finished CPU 0 instructions: 200000001 cycles: 615934329 cumulative IPC: 0.32471 (Simulation time: 3 hr 8 min 4 sec) 

ChampSim completed all CPUs

Total Simulation Statistics (not including warmup)

CPU 0 cumulative IPC: 0.32471 instructions: 200000001 cycles: 615934329
ITLB TOTAL     ACCESS:   42510320  HIT:   42510300  MISS:         20  HIT %:        100  MISS %: 4.70474e-05   MPKI: 0.0001
ITLB LOAD      ACCESS:          0  HIT:          0  MISS:          0  HIT %:       -nan  MISS %:       -nan   MPKI: 0
ITLB RFO       ACCESS:          0  HIT:          0  MISS:          0  HIT %:       -nan  MISS %:       -nan   MPKI: 0
ITLB PREFETCH  ACCESS:          0  HIT:          0  MISS:          0  HIT %:       -nan  MISS %:       -nan   MPKI: 0
ITLB WRITEBACK ACCESS:          0  HIT:          0  MISS:          0  HIT %:       -nan  MISS %:       -nan   MPKI: 0
DTLB TOTAL     ACCESS:   41384982  HIT:   41305644  MISS:      79338  HIT %:    99.8083  MISS %:   0.191707   MPKI: 0.39669
DTLB LOAD      ACCESS:          0  HIT:          0  MISS:          0  HIT %:       -nan  MISS %:       -nan   MPKI: 0
DTLB RFO       ACCESS:          0  HIT:          0  MISS:          0  HIT %:       -nan  MISS %:       -nan   MPKI: 0
DTLB PREFETCH  ACCESS:          0  HIT:          0  MISS:          0  HIT %:       -nan  MISS %:       -nan   MPKI: 0
DTLB WRITEBACK ACCESS:          0  HIT:          0  MISS:          0  HIT %:       -nan  MISS %:       -nan   MPKI: 0
STLB TOTAL     ACCESS:    6791743  HIT:    6712387  MISS:      79356  HIT %:    98.8316  MISS %:    1.16842   MPKI: 0.39678
STLB LOAD      ACCESS:          0  HIT:          0  MISS:          0  HIT %:       -nan  MISS %:       -nan   MPKI: 0
STLB RFO       ACCESS:          0  HIT:          0  MISS:          0  HIT %:       -nan  MISS %:       -nan   MPKI: 0
STLB PREFETCH  ACCESS:          0  HIT:          0  MISS:          0  HIT %:       -nan  MISS %:       -nan   MPKI: 0
STLB WRITEBACK ACCESS:          0  HIT:          0  MISS:          0  HIT %:       -nan  MISS %:       -nan   MPKI: 0
L1D TOTAL     ACCESS:   46388671  HIT:   41315838  MISS:    5072833  HIT %:    89.0645  MISS %:    10.9355   MPKI: 25.3642
L1D LOAD      ACCESS:   10033205  HIT:    9338480  MISS:     694725  HIT %:    93.0757  MISS %:    6.92426   MPKI: 3.47362
L1D RFO       ACCESS:   14350259  HIT:   11668089  MISS:    2682170  HIT %:    81.3093  MISS %:    18.6907   MPKI: 13.4108
L1D PREFETCH  ACCESS:   22005207  HIT:   20309269  MISS:    1695938  HIT %:     92.293  MISS %:    7.70698   MPKI: 8.47969
L1D WRITEBACK ACCESS:          0  HIT:          0  MISS:          0  HIT %:       -nan  MISS %:       -nan   MPKI: 0
L1I TOTAL     ACCESS:   43575465  HIT:   43575298  MISS:        167  HIT %:    99.9996  MISS %: 0.000383243   MPKI: 0.000835
L1I LOAD      ACCESS:   43575465  HIT:   43575298  MISS:        167  HIT %:    99.9996  MISS %: 0.000383243   MPKI: 0.000835
L1I RFO       ACCESS:          0  HIT:          0  MISS:          0  HIT %:       -nan  MISS %:       -nan   MPKI: 0
L1I PREFETCH  ACCESS:          0  HIT:          0  MISS:          0  HIT %:       -nan  MISS %:       -nan   MPKI: 0
L1I WRITEBACK ACCESS:          0  HIT:          0  MISS:          0  HIT %:       -nan  MISS %:       -nan   MPKI: 0
L2C TOTAL     ACCESS:   11095738  HIT:    5573315  MISS:    5522423  HIT %:    50.2293  MISS %:    49.7707   MPKI: 27.6121
L2C LOAD      ACCESS:     330941  HIT:     275446  MISS:      55495  HIT %:    83.2311  MISS %:    16.7689   MPKI: 0.277475
L2C RFO       ACCESS:    2682170  HIT:          0  MISS:    2682170  HIT %:          0  MISS %:        100   MPKI: 13.4108
L2C PREFETCH  ACCESS:    4310139  HIT:    1974437  MISS:    2335702  HIT %:    45.8091  MISS %:    54.1909   MPKI: 11.6785
L2C WRITEBACK ACCESS:    2934271  HIT:    2495430  MISS:     438841  HIT %:    85.0443  MISS %:    14.9557   MPKI: 2.1942
PSCL5 TOTAL     ACCESS:     838156  HIT:     838156  MISS:          0  HIT %:        100  MISS %:          0   MPKI: 0
PSCL5 LOAD      ACCESS:          0  HIT:          0  MISS:          0  HIT %:       -nan  MISS %:       -nan   MPKI: 0
PSCL5 RFO       ACCESS:          0  HIT:          0  MISS:          0  HIT %:       -nan  MISS %:       -nan   MPKI: 0
PSCL5 PREFETCH  ACCESS:          0  HIT:          0  MISS:          0  HIT %:       -nan  MISS %:       -nan   MPKI: 0
PSCL5 WRITEBACK ACCESS:          0  HIT:          0  MISS:          0  HIT %:       -nan  MISS %:       -nan   MPKI: 0
PSCL4 TOTAL     ACCESS:     838156  HIT:     838155  MISS:          1  HIT %:    99.9999  MISS %: 0.00011931   MPKI: 5e-06
PSCL4 LOAD      ACCESS:          0  HIT:          0  MISS:          0  HIT %:       -nan  MISS %:       -nan   MPKI: 0
PSCL4 RFO       ACCESS:          0  HIT:          0  MISS:          0  HIT %:       -nan  MISS %:       -nan   MPKI: 0
PSCL4 PREFETCH  ACCESS:          0  HIT:          0  MISS:          0  HIT %:       -nan  MISS %:       -nan   MPKI: 0
PSCL4 WRITEBACK ACCESS:          0  HIT:          0  MISS:          0  HIT %:       -nan  MISS %:       -nan   MPKI: 0
PSCL3 TOTAL     ACCESS:     838156  HIT:     838155  MISS:          1  HIT %:    99.9999  MISS %: 0.00011931   MPKI: 5e-06
PSCL3 LOAD      ACCESS:          0  HIT:          0  MISS:          0  HIT %:       -nan  MISS %:       -nan   MPKI: 0
PSCL3 RFO       ACCESS:          0  HIT:          0  MISS:          0  HIT %:       -nan  MISS %:       -nan   MPKI: 0
PSCL3 PREFETCH  ACCESS:          0  HIT:          0  MISS:          0  HIT %:       -nan  MISS %:       -nan   MPKI: 0
PSCL3 WRITEBACK ACCESS:          0  HIT:          0  MISS:          0  HIT %:       -nan  MISS %:       -nan   MPKI: 0
PSCL2 TOTAL     ACCESS:     837268  HIT:     837100  MISS:        168  HIT %:    99.9799  MISS %:  0.0200653   MPKI: 0.00084
PSCL2 LOAD      ACCESS:          0  HIT:          0  MISS:          0  HIT %:       -nan  MISS %:       -nan   MPKI: 0
PSCL2 RFO       ACCESS:          0  HIT:          0  MISS:          0  HIT %:       -nan  MISS %:       -nan   MPKI: 0
PSCL2 PREFETCH  ACCESS:          0  HIT:          0  MISS:          0  HIT %:       -nan  MISS %:       -nan   MPKI: 0
PSCL2 WRITEBACK ACCESS:          0  HIT:          0  MISS:          0  HIT %:       -nan  MISS %:       -nan   MPKI: 0
LLC TOTAL     ACCESS:    8014777  HIT:    2826132  MISS:    5188645  HIT %:    35.2615  MISS %:    64.7385   MPKI: 25.9432
LLC LOAD      ACCESS:      39714  HIT:          1  MISS:      39713  HIT %:   0.002518  MISS %:    99.9975   MPKI: 0.198565
LLC RFO       ACCESS:    2682170  HIT:          0  MISS:    2682170  HIT %:          0  MISS %:        100   MPKI: 13.4108
LLC PREFETCH  ACCESS:    2351483  HIT:        444  MISS:    2351039  HIT %:  0.0188817  MISS %:    99.9811   MPKI: 11.7552
LLC WRITEBACK ACCESS:    2931195  HIT:    2825594  MISS:     105601  HIT %:    96.3973  MISS %:    3.60266   MPKI: 0.528005

RAW hits: 7805
Loads Generated: 39277749
Loads sent to L1D: 39269944
Stores Generated: 39973668
Stores sent to L1D: 39973666

CPU 1 cumulative IPC: 0.324764 instructions: 200033212 cycles: 615934329
ITLB TOTAL     ACCESS:   42515058  HIT:   42515038  MISS:         20  HIT %:        100  MISS %: 4.70422e-05   MPKI: 9.99834e-05
ITLB LOAD      ACCESS:          0  HIT:          0  MISS:          0  HIT %:       -nan  MISS %:       -nan   MPKI: 0
ITLB RFO       ACCESS:          0  HIT:          0  MISS:          0  HIT %:       -nan  MISS %:       -nan   MPKI: 0
ITLB PREFETCH  ACCESS:          0  HIT:          0  MISS:          0  HIT %:       -nan  MISS %:       -nan   MPKI: 0
ITLB WRITEBACK ACCESS:          0  HIT:          0  MISS:          0  HIT %:       -nan  MISS %:       -nan   MPKI: 0
DTLB TOTAL     ACCESS:   41390716  HIT:   41311363  MISS:      79353  HIT %:    99.8083  MISS %:   0.191717   MPKI: 0.396699
DTLB LOAD      ACCESS:          0  HIT:          0  MISS:          0  HIT %:       -nan  MISS %:       -nan   MPKI: 0
DTLB RFO       ACCESS:          0  HIT:          0  MISS:          0  HIT %:       -nan  MISS %:       -nan   MPKI: 0
DTLB PREFETCH  ACCESS:          0  HIT:          0  MISS:          0  HIT %:       -nan  MISS %:       -nan   MPKI: 0
DTLB WRITEBACK ACCESS:          0  HIT:          0  MISS:          0  HIT %:       -nan  MISS %:       -nan   MPKI: 0
STLB TOTAL     ACCESS:    6793896  HIT:    6714525  MISS:      79371  HIT %:    98.8317  MISS %:    1.16827   MPKI: 0.396789
STLB LOAD      ACCESS:          0  HIT:          0  MISS:          0  HIT %:       -nan  MISS %:       -nan   MPKI: 0
STLB RFO       ACCESS:          0  HIT:          0  MISS:          0  HIT %:       -nan  MISS %:       -nan   MPKI: 0
STLB PREFETCH  ACCESS:          0  HIT:          0  MISS:          0  HIT %:       -nan  MISS %:       -nan   MPKI: 0
STLB WRITEBACK ACCESS:          0  HIT:          0  MISS:          0  HIT %:       -nan  MISS %:       -nan   MPKI: 0
L1D TOTAL     ACCESS:   46091914  HIT:   41018227  MISS:    5073687  HIT %:    88.9922  MISS %:    11.0078   MPKI: 25.3642
L1D LOAD      ACCESS:   10037794  HIT:    9342892  MISS:     694902  HIT %:    93.0771  MISS %:    6.92286   MPKI: 3.47393
L1D RFO       ACCESS:   13987890  HIT:   11305411  MISS:    2682479  HIT %:    80.8228  MISS %:    19.1772   MPKI: 13.4102
L1D PREFETCH  ACCESS:   22066230  HIT:   20369924  MISS:    1696306  HIT %:    92.3127  MISS %:    7.68734   MPKI: 8.48012
L1D WRITEBACK ACCESS:          0  HIT:          0  MISS:          0  HIT %:       -nan  MISS %:       -nan   MPKI: 0
L1I TOTAL     ACCESS:   43580367  HIT:   43580200  MISS:        167  HIT %:    99.9996  MISS %:  0.0003832   MPKI: 0.000834861
L1I LOAD      ACCESS:   43580367  HIT:   43580200  MISS:        167  HIT %:    99.9996  MISS %:  0.0003832   MPKI: 0.000834861
L1I RFO       ACCESS:          0  HIT:          0  MISS:          0  HIT %:       -nan  MISS %:       -nan   MPKI: 0
L1I PREFETCH  ACCESS:          0  HIT:          0  MISS:          0  HIT %:       -nan  MISS %:       -nan   MPKI: 0
L1I WRITEBACK ACCESS:          0  HIT:          0  MISS:          0  HIT %:       -nan  MISS %:       -nan   MPKI: 0
L2C TOTAL     ACCESS:   11064191  HIT:    5542400  MISS:    5521791  HIT %:    50.0931  MISS %:    49.9069   MPKI: 27.6044
L2C LOAD      ACCESS:     331264  HIT:     276176  MISS:      55088  HIT %:    83.3704  MISS %:    16.6296   MPKI: 0.275394
L2C RFO       ACCESS:    2682479  HIT:          0  MISS:    2682479  HIT %:          0  MISS %:        100   MPKI: 13.4102
L2C PREFETCH  ACCESS:    4300870  HIT:    1964165  MISS:    2336705  HIT %:     45.669  MISS %:     54.331   MPKI: 11.6816
L2C WRITEBACK ACCESS:    2935052  HIT:    2497775  MISS:     437277  HIT %:    85.1016  MISS %:    14.8984   MPKI: 2.18602
PSCL5 TOTAL     ACCESS:     814475  HIT:     814475  MISS:          0  HIT %:        100  MISS %:          0   MPKI: 0
PSCL5 LOAD      ACCESS:          0  HIT:          0  MISS:          0  HIT %:       -nan  MISS %:       -nan   MPKI: 0
PSCL5 RFO       ACCESS:          0  HIT:          0  MISS:          0  HIT %:       -nan  MISS %:       -nan   MPKI: 0
PSCL5 PREFETCH  ACCESS:          0  HIT:          0  MISS:          0  HIT %:       -nan  MISS %:       -nan   MPKI: 0
PSCL5 WRITEBACK ACCESS:          0  HIT:          0  MISS:          0  HIT %:       -nan  MISS %:       -nan   MPKI: 0
PSCL4 TOTAL     ACCESS:     814475  HIT:     814474  MISS:          1  HIT %:    99.9999  MISS %: 0.000122778   MPKI: 4.99917e-06
PSCL4 LOAD      ACCESS:          0  HIT:          0  MISS:          0  HIT %:       -nan  MISS %:       -nan   MPKI: 0
PSCL4 RFO       ACCESS:          0  HIT:          0  MISS:          0  HIT %:       -nan  MISS %:       -nan   MPKI: 0
PSCL4 PREFETCH  ACCESS:          0  HIT:          0  MISS:          0  HIT %:       -nan  MISS %:       -nan   MPKI: 0
PSCL4 WRITEBACK ACCESS:          0  HIT:          0  MISS:          0  HIT %:       -nan  MISS %:       -nan   MPKI: 0
PSCL3 TOTAL     ACCESS:     814475  HIT:     814474  MISS:          1  HIT %:    99.9999  MISS %: 0.000122778   MPKI: 4.99917e-06
PSCL3 LOAD      ACCESS:          0  HIT:          0  MISS:          0  HIT %:       -nan  MISS %:       -nan   MPKI: 0
PSCL3 RFO       ACCESS:          0  HIT:          0  MISS:          0  HIT %:       -nan  MISS %:       -nan   MPKI: 0
PSCL3 PREFETCH  ACCESS:          0  HIT:          0  MISS:          0  HIT %:       -nan  MISS %:       -nan   MPKI: 0
PSCL3 WRITEBACK ACCESS:          0  HIT:          0  MISS:          0  HIT %:       -nan  MISS %:       -nan   MPKI: 0
PSCL2 TOTAL     ACCESS:     813513  HIT:     813344  MISS:        169  HIT %:    99.9792  MISS %:  0.0207741   MPKI: 0.00084486
PSCL2 LOAD      ACCESS:          0  HIT:          0  MISS:          0  HIT %:       -nan  MISS %:       -nan   MPKI: 0
PSCL2 RFO       ACCESS:          0  HIT:          0  MISS:          0  HIT %:       -nan  MISS %:       -nan   MPKI: 0
PSCL2 PREFETCH  ACCESS:          0  HIT:          0  MISS:          0  HIT %:       -nan  MISS %:       -nan   MPKI: 0
PSCL2 WRITEBACK ACCESS:          0  HIT:          0  MISS:          0  HIT %:       -nan  MISS %:       -nan   MPKI: 0
LLC TOTAL     ACCESS:    8015426  HIT:    2827136  MISS:    5188290  HIT %:    35.2712  MISS %:    64.7288   MPKI: 25.9371
LLC LOAD      ACCESS:      39383  HIT:          0  MISS:      39383  HIT %:          0  MISS %:        100   MPKI: 0.196882
LLC RFO       ACCESS:    2682479  HIT:          0  MISS:    2682479  HIT %:          0  MISS %:        100   MPKI: 13.4102
LLC PREFETCH  ACCESS:    2352410  HIT:        461  MISS:    2351949  HIT %:  0.0195969  MISS %:    99.9804   MPKI: 11.7578
LLC WRITEBACK ACCESS:    2930912  HIT:    2826554  MISS:     104358  HIT %:    96.4394  MISS %:     3.5606   MPKI: 0.521703

RAW hits: 7803
Loads Generated: 39287023
Loads sent to L1D: 39279220
Stores Generated: 39978622
Stores sent to L1D: 39978640

CPU 2 cumulative IPC: 0.32471 instructions: 200000133 cycles: 615934330
ITLB TOTAL     ACCESS:   42509999  HIT:   42509979  MISS:         20  HIT %:        100  MISS %: 4.70478e-05   MPKI: 9.99999e-05
ITLB LOAD      ACCESS:          0  HIT:          0  MISS:          0  HIT %:       -nan  MISS %:       -nan   MPKI: 0
ITLB RFO       ACCESS:          0  HIT:          0  MISS:          0  HIT %:       -nan  MISS %:       -nan   MPKI: 0
ITLB PREFETCH  ACCESS:          0  HIT:          0  MISS:          0  HIT %:       -nan  MISS %:       -nan   MPKI: 0
ITLB WRITEBACK ACCESS:          0  HIT:          0  MISS:          0  HIT %:       -nan  MISS %:       -nan   MPKI: 0
DTLB TOTAL     ACCESS:   41383008  HIT:   41303670  MISS:      79338  HIT %:    99.8083  MISS %:   0.191716   MPKI: 0.39669
DTLB LOAD      ACCESS:          0  HIT:          0  MISS:          0  HIT %:       -nan  MISS %:       -nan   MPKI: 0
DTLB RFO       ACCESS:          0  HIT:          0  MISS:          0  HIT %:       -nan  MISS %:       -nan   MPKI: 0
DTLB PREFETCH  ACCESS:          0  HIT:          0  MISS:          0  HIT %:       -nan  MISS %:       -nan   MPKI: 0
DTLB WRITEBACK ACCESS:          0  HIT:          0  MISS:          0  HIT %:       -nan  MISS %:       -nan   MPKI: 0
STLB TOTAL     ACCESS:    6781103  HIT:    6701746  MISS:      79357  HIT %:    98.8297  MISS %:    1.17027   MPKI: 0.396785
STLB LOAD      ACCESS:          0  HIT:          0  MISS:          0  HIT %:       -nan  MISS %:       -nan   MPKI: 0
STLB RFO       ACCESS:          0  HIT:          0  MISS:          0  HIT %:       -nan  MISS %:       -nan   MPKI: 0
STLB PREFETCH  ACCESS:          0  HIT:          0  MISS:          0  HIT %:       -nan  MISS %:       -nan   MPKI: 0
STLB WRITEBACK ACCESS:          0  HIT:          0  MISS:          0  HIT %:       -nan  MISS %:       -nan   MPKI: 0
L1D TOTAL     ACCESS:   46335434  HIT:   41262594  MISS:    5072840  HIT %:    89.0519  MISS %:    10.9481   MPKI: 25.3642
L1D LOAD      ACCESS:   10036733  HIT:    9345265  MISS:     691468  HIT %:    93.1106  MISS %:    6.88937   MPKI: 3.45734
L1D RFO       ACCESS:   14223075  HIT:   11540901  MISS:    2682174  HIT %:    81.1421  MISS %:    18.8579   MPKI: 13.4109
L1D PREFETCH  ACCESS:   22075626  HIT:   20376428  MISS:    1699198  HIT %:    92.3028  MISS %:    7.69717   MPKI: 8.49598
L1D WRITEBACK ACCESS:          0  HIT:          0  MISS:          0  HIT %:       -nan  MISS %:       -nan   MPKI: 0
L1I TOTAL     ACCESS:   43575141  HIT:   43574974  MISS:        167  HIT %:    99.9996  MISS %: 0.000383246   MPKI: 0.000834999
L1I LOAD      ACCESS:   43575141  HIT:   43574974  MISS:        167  HIT %:    99.9996  MISS %: 0.000383246   MPKI: 0.000834999
L1I RFO       ACCESS:          0  HIT:          0  MISS:          0  HIT %:       -nan  MISS %:       -nan   MPKI: 0
L1I PREFETCH  ACCESS:          0  HIT:          0  MISS:          0  HIT %:       -nan  MISS %:       -nan   MPKI: 0
L1I WRITEBACK ACCESS:          0  HIT:          0  MISS:          0  HIT %:       -nan  MISS %:       -nan   MPKI: 0
L2C TOTAL     ACCESS:   11223561  HIT:    5709302  MISS:    5514259  HIT %:    50.8689  MISS %:    49.1311   MPKI: 27.5713
L2C LOAD      ACCESS:     331014  HIT:     272914  MISS:      58100  HIT %:    82.4479  MISS %:    17.5521   MPKI: 0.2905
L2C RFO       ACCESS:    2682174  HIT:          0  MISS:    2682174  HIT %:          0  MISS %:        100   MPKI: 13.4109
L2C PREFETCH  ACCESS:    4365077  HIT:    2031924  MISS:    2333153  HIT %:    46.5496  MISS %:    53.4504   MPKI: 11.6658
L2C WRITEBACK ACCESS:    2934293  HIT:    2503714  MISS:     430579  HIT %:     85.326  MISS %:     14.674   MPKI: 2.15289
PSCL5 TOTAL     ACCESS:     910943  HIT:     910943  MISS:          0  HIT %:        100  MISS %:          0   MPKI: 0
PSCL5 LOAD      ACCESS:          0  HIT:          0  MISS:          0  HIT %:       -nan  MISS %:       -nan   MPKI: 0
PSCL5 RFO       ACCESS:          0  HIT:          0  MISS:          0  HIT %:       -nan  MISS %:       -nan   MPKI: 0
PSCL5 PREFETCH  ACCESS:          0  HIT:          0  MISS:          0  HIT %:       -nan  MISS %:       -nan   MPKI: 0
PSCL5 WRITEBACK ACCESS:          0  HIT:          0  MISS:          0  HIT %:       -nan  MISS %:       -nan   MPKI: 0
PSCL4 TOTAL     ACCESS:     910943  HIT:     910942  MISS:          1  HIT %:    99.9999  MISS %: 0.000109776   MPKI: 5e-06
PSCL4 LOAD      ACCESS:          0  HIT:          0  MISS:          0  HIT %:       -nan  MISS %:       -nan   MPKI: 0
PSCL4 RFO       ACCESS:          0  HIT:          0  MISS:          0  HIT %:       -nan  MISS %:       -nan   MPKI: 0
PSCL4 PREFETCH  ACCESS:          0  HIT:          0  MISS:          0  HIT %:       -nan  MISS %:       -nan   MPKI: 0
PSCL4 WRITEBACK ACCESS:          0  HIT:          0  MISS:          0  HIT %:       -nan  MISS %:       -nan   MPKI: 0
PSCL3 TOTAL     ACCESS:     910943  HIT:     910942  MISS:          1  HIT %:    99.9999  MISS %: 0.000109776   MPKI: 5e-06
PSCL3 LOAD      ACCESS:          0  HIT:          0  MISS:          0  HIT %:       -nan  MISS %:       -nan   MPKI: 0
PSCL3 RFO       ACCESS:          0  HIT:          0  MISS:          0  HIT %:       -nan  MISS %:       -nan   MPKI: 0
PSCL3 PREFETCH  ACCESS:          0  HIT:          0  MISS:          0  HIT %:       -nan  MISS %:       -nan   MPKI: 0
PSCL3 WRITEBACK ACCESS:          0  HIT:          0  MISS:          0  HIT %:       -nan  MISS %:       -nan   MPKI: 0
PSCL2 TOTAL     ACCESS:     908978  HIT:     908810  MISS:        168  HIT %:    99.9815  MISS %:  0.0184823   MPKI: 0.000839999
PSCL2 LOAD      ACCESS:          0  HIT:          0  MISS:          0  HIT %:       -nan  MISS %:       -nan   MPKI: 0
PSCL2 RFO       ACCESS:          0  HIT:          0  MISS:          0  HIT %:       -nan  MISS %:       -nan   MPKI: 0
PSCL2 PREFETCH  ACCESS:          0  HIT:          0  MISS:          0  HIT %:       -nan  MISS %:       -nan   MPKI: 0
PSCL2 WRITEBACK ACCESS:          0  HIT:          0  MISS:          0  HIT %:       -nan  MISS %:       -nan   MPKI: 0
LLC TOTAL     ACCESS:    8013717  HIT:    2828332  MISS:    5185385  HIT %:    35.2936  MISS %:    64.7064   MPKI: 25.9269
LLC LOAD      ACCESS:      42014  HIT:         14  MISS:      42000  HIT %:  0.0333222  MISS %:    99.9667   MPKI: 0.21
LLC RFO       ACCESS:    2682174  HIT:          0  MISS:    2682174  HIT %:          0  MISS %:        100   MPKI: 13.4109
LLC PREFETCH  ACCESS:    2349239  HIT:        495  MISS:    2348744  HIT %:  0.0210707  MISS %:    99.9789   MPKI: 11.7437
LLC WRITEBACK ACCESS:    2930037  HIT:    2827700  MISS:     102337  HIT %:    96.5073  MISS %:    3.49269   MPKI: 0.511685

RAW hits: 7803
Loads Generated: 39277785
Loads sent to L1D: 39269980
Stores Generated: 39973678
Stores sent to L1D: 39973678

CPU 3 cumulative IPC: 0.325753 instructions: 200642432 cycles: 615934330
ITLB TOTAL     ACCESS:   42601317  HIT:   42601297  MISS:         20  HIT %:        100  MISS %: 4.69469e-05   MPKI: 9.96798e-05
ITLB LOAD      ACCESS:          0  HIT:          0  MISS:          0  HIT %:       -nan  MISS %:       -nan   MPKI: 0
ITLB RFO       ACCESS:          0  HIT:          0  MISS:          0  HIT %:       -nan  MISS %:       -nan   MPKI: 0
ITLB PREFETCH  ACCESS:          0  HIT:          0  MISS:          0  HIT %:       -nan  MISS %:       -nan   MPKI: 0
ITLB WRITEBACK ACCESS:          0  HIT:          0  MISS:          0  HIT %:       -nan  MISS %:       -nan   MPKI: 0
DTLB TOTAL     ACCESS:   41491808  HIT:   41412199  MISS:      79609  HIT %:    99.8081  MISS %:   0.191867   MPKI: 0.396771
DTLB LOAD      ACCESS:          0  HIT:          0  MISS:          0  HIT %:       -nan  MISS %:       -nan   MPKI: 0
DTLB RFO       ACCESS:          0  HIT:          0  MISS:          0  HIT %:       -nan  MISS %:       -nan   MPKI: 0
DTLB PREFETCH  ACCESS:          0  HIT:          0  MISS:          0  HIT %:       -nan  MISS %:       -nan   MPKI: 0
DTLB WRITEBACK ACCESS:          0  HIT:          0  MISS:          0  HIT %:       -nan  MISS %:       -nan   MPKI: 0
STLB TOTAL     ACCESS:    6824176  HIT:    6744549  MISS:      79627  HIT %:    98.8332  MISS %:    1.16684   MPKI: 0.39686
STLB LOAD      ACCESS:          0  HIT:          0  MISS:          0  HIT %:       -nan  MISS %:       -nan   MPKI: 0
STLB RFO       ACCESS:          0  HIT:          0  MISS:          0  HIT %:       -nan  MISS %:       -nan   MPKI: 0
STLB PREFETCH  ACCESS:          0  HIT:          0  MISS:          0  HIT %:       -nan  MISS %:       -nan   MPKI: 0
STLB WRITEBACK ACCESS:          0  HIT:          0  MISS:          0  HIT %:       -nan  MISS %:       -nan   MPKI: 0
L1D TOTAL     ACCESS:   46304188  HIT:   41214113  MISS:    5090075  HIT %:    89.0073  MISS %:    10.9927   MPKI: 25.3689
L1D LOAD      ACCESS:   10082585  HIT:    9388117  MISS:     694468  HIT %:    93.1122  MISS %:     6.8878   MPKI: 3.46122
L1D RFO       ACCESS:   13987345  HIT:   11299172  MISS:    2688173  HIT %:    80.7814  MISS %:    19.2186   MPKI: 13.3978
L1D PREFETCH  ACCESS:   22234258  HIT:   20526824  MISS:    1707434  HIT %:    92.3207  MISS %:    7.67929   MPKI: 8.50984
L1D WRITEBACK ACCESS:          0  HIT:          0  MISS:          0  HIT %:       -nan  MISS %:       -nan   MPKI: 0
L1I TOTAL     ACCESS:   43669375  HIT:   43669208  MISS:        167  HIT %:    99.9996  MISS %: 0.000382419   MPKI: 0.000832326
L1I LOAD      ACCESS:   43669375  HIT:   43669208  MISS:        167  HIT %:    99.9996  MISS %: 0.000382419   MPKI: 0.000832326
L1I RFO       ACCESS:          0  HIT:          0  MISS:          0  HIT %:       -nan  MISS %:       -nan   MPKI: 0
L1I PREFETCH  ACCESS:          0  HIT:          0  MISS:          0  HIT %:       -nan  MISS %:       -nan   MPKI: 0
L1I WRITEBACK ACCESS:          0  HIT:          0  MISS:          0  HIT %:       -nan  MISS %:       -nan   MPKI: 0
L2C TOTAL     ACCESS:   11133863  HIT:    5595198  MISS:    5538665  HIT %:    50.2539  MISS %:    49.7461   MPKI: 27.6047
L2C LOAD      ACCESS:     330946  HIT:     275592  MISS:      55354  HIT %:     83.274  MISS %:     16.726   MPKI: 0.275884
L2C RFO       ACCESS:    2688173  HIT:          0  MISS:    2688173  HIT %:          0  MISS %:        100   MPKI: 13.3978
L2C PREFETCH  ACCESS:    4338064  HIT:    1990510  MISS:    2347554  HIT %:    45.8848  MISS %:    54.1152   MPKI: 11.7002
L2C WRITEBACK ACCESS:    2940764  HIT:    2503434  MISS:     437330  HIT %:    85.1287  MISS %:    14.8713   MPKI: 2.17965
PSCL5 TOTAL     ACCESS:     835863  HIT:     835863  MISS:          0  HIT %:        100  MISS %:          0   MPKI: 0
PSCL5 LOAD      ACCESS:          0  HIT:          0  MISS:          0  HIT %:       -nan  MISS %:       -nan   MPKI: 0
PSCL5 RFO       ACCESS:          0  HIT:          0  MISS:          0  HIT %:       -nan  MISS %:       -nan   MPKI: 0
PSCL5 PREFETCH  ACCESS:          0  HIT:          0  MISS:          0  HIT %:       -nan  MISS %:       -nan   MPKI: 0
PSCL5 WRITEBACK ACCESS:          0  HIT:          0  MISS:          0  HIT %:       -nan  MISS %:       -nan   MPKI: 0
PSCL4 TOTAL     ACCESS:     835863  HIT:     835862  MISS:          1  HIT %:    99.9999  MISS %: 0.000119637   MPKI: 4.98399e-06
PSCL4 LOAD      ACCESS:          0  HIT:          0  MISS:          0  HIT %:       -nan  MISS %:       -nan   MPKI: 0
PSCL4 RFO       ACCESS:          0  HIT:          0  MISS:          0  HIT %:       -nan  MISS %:       -nan   MPKI: 0
PSCL4 PREFETCH  ACCESS:          0  HIT:          0  MISS:          0  HIT %:       -nan  MISS %:       -nan   MPKI: 0
PSCL4 WRITEBACK ACCESS:          0  HIT:          0  MISS:          0  HIT %:       -nan  MISS %:       -nan   MPKI: 0
PSCL3 TOTAL     ACCESS:     835863  HIT:     835862  MISS:          1  HIT %:    99.9999  MISS %: 0.000119637   MPKI: 4.98399e-06
PSCL3 LOAD      ACCESS:          0  HIT:          0  MISS:          0  HIT %:       -nan  MISS %:       -nan   MPKI: 0
PSCL3 RFO       ACCESS:          0  HIT:          0  MISS:          0  HIT %:       -nan  MISS %:       -nan   MPKI: 0
PSCL3 PREFETCH  ACCESS:          0  HIT:          0  MISS:          0  HIT %:       -nan  MISS %:       -nan   MPKI: 0
PSCL3 WRITEBACK ACCESS:          0  HIT:          0  MISS:          0  HIT %:       -nan  MISS %:       -nan   MPKI: 0
PSCL2 TOTAL     ACCESS:     835114  HIT:     834944  MISS:        170  HIT %:    99.9796  MISS %:  0.0203565   MPKI: 0.000847278
PSCL2 LOAD      ACCESS:          0  HIT:          0  MISS:          0  HIT %:       -nan  MISS %:       -nan   MPKI: 0
PSCL2 RFO       ACCESS:          0  HIT:          0  MISS:          0  HIT %:       -nan  MISS %:       -nan   MPKI: 0
PSCL2 PREFETCH  ACCESS:          0  HIT:          0  MISS:          0  HIT %:       -nan  MISS %:       -nan   MPKI: 0
PSCL2 WRITEBACK ACCESS:          0  HIT:          0  MISS:          0  HIT %:       -nan  MISS %:       -nan   MPKI: 0
LLC TOTAL     ACCESS:    8041711  HIT:    2837914  MISS:    5203797  HIT %:    35.2899  MISS %:    64.7101   MPKI: 25.9357
LLC LOAD      ACCESS:      39354  HIT:          1  MISS:      39353  HIT %: 0.00254104  MISS %:    99.9975   MPKI: 0.196135
LLC RFO       ACCESS:    2688173  HIT:          0  MISS:    2688173  HIT %:          0  MISS %:        100   MPKI: 13.3978
LLC PREFETCH  ACCESS:    2363554  HIT:        883  MISS:    2362671  HIT %:   0.037359  MISS %:    99.9626   MPKI: 11.7755
LLC WRITEBACK ACCESS:    2940376  HIT:    2836940  MISS:     103436  HIT %:    96.4822  MISS %:    3.51778   MPKI: 0.515524

RAW hits: 7804
Loads Generated: 39457976
Loads sent to L1D: 39450172
Stores Generated: 40069634
Stores sent to L1D: 40069635

Region of Interest Statistics

CPU 0 cumulative IPC: 0.32471 instructions: 200000001 cycles: 615934329
ITLB TOTAL     ACCESS:   42510320  HIT:   42510300  MISS:         20  HIT %:        100  MISS %: 4.70474e-05   MPKI: 0.0001
ITLB LOAD TRANSLATION ACCESS:   42510320  HIT:   42510300  MISS:         20  HIT %:        100  MISS %: 4.70474e-05   MPKI: 0.0001
ITLB PREFETCH  REQUESTED:          0  ISSUED:          0  USEFUL:          0  USELESS:          0
ITLB USEFUL LOAD PREFETCHES:          0 PREFETCH ISSUED TO LOWER LEVEL:          0  ACCURACY: -nan
ITLB TIMELY PREFETCHES:          0 LATE PREFETCHES: 0 DROPPED PREFETCHES: 0
ITLB PREFETCHES SAME FILL-ORIGIN LEVEL: 0 DIFFERENT FILL-ORIGIN LEVEL: 0
ITLB AVERAGE MISS LATENCY: 451.15 cycles
ITLB RQ	ACCESS:   43575492	FORWARD:          0	MERGED:    1065167	TO_CACHE:   42510325

DTLB TOTAL     ACCESS:   41384982  HIT:   41305644  MISS:      79338  HIT %:    99.8083  MISS %:   0.191707   MPKI: 0.39669
DTLB LOAD TRANSLATION ACCESS:   41384982  HIT:   41305644  MISS:      79338  HIT %:    99.8083  MISS %:   0.191707   MPKI: 0.39669
DTLB PREFETCH  REQUESTED:          0  ISSUED:          0  USEFUL:          0  USELESS:          0
DTLB USEFUL LOAD PREFETCHES:          0 PREFETCH ISSUED TO LOWER LEVEL:          0  ACCURACY: -nan
DTLB TIMELY PREFETCHES:          0 LATE PREFETCHES: 0 DROPPED PREFETCHES: 0
DTLB PREFETCHES SAME FILL-ORIGIN LEVEL: 0 DIFFERENT FILL-ORIGIN LEVEL: 0
DTLB AVERAGE MISS LATENCY: 244.897 cycles
DTLB RQ	ACCESS:   50762724	FORWARD:          0	MERGED:    9099807	TO_CACHE:   41662917

STLB TOTAL     ACCESS:    6791743  HIT:    6712387  MISS:      79356  HIT %:    98.8316  MISS %:    1.16842   MPKI: 0.39678
STLB LOAD TRANSLATION ACCESS:      79358  HIT:       7104  MISS:      72254  HIT %:    8.95184  MISS %:    91.0482   MPKI: 0.36127
STLB TRANSLATION FROM L1D PREFETCHER ACCESS:    6712385  HIT:    6705283  MISS:       7102  HIT %:    99.8942  MISS %:   0.105804   MPKI: 0.03551
STLB PREFETCH  REQUESTED:          0  ISSUED:          0  USEFUL:       7102  USELESS:          0
STLB USEFUL LOAD PREFETCHES:       7102 PREFETCH ISSUED TO LOWER LEVEL:          0  ACCURACY: inf
STLB TIMELY PREFETCHES:       7102 LATE PREFETCHES: 7949 DROPPED PREFETCHES: 750850
STLB PREFETCHES SAME FILL-ORIGIN LEVEL: 0 DIFFERENT FILL-ORIGIN LEVEL: 0
STLB AVERAGE MISS LATENCY: 253.476 cycles
STLB RQ	ACCESS:   45587445	FORWARD:          0	MERGED:   37866268	TO_CACHE:    7721177

STLB Hit, L1D data hit: 0
STLB Hit, L2C data hit: 0
STLB Hit, LLC data hit: 0
STLB Hit, LLC data miss: 0
STLB STLB hints to L2: 0
L1D TOTAL     ACCESS:   46388671  HIT:   41315838  MISS:    5072833  HIT %:    89.0645  MISS %:    10.9355   MPKI: 25.3642
L1D LOAD      ACCESS:   10033205  HIT:    9338480  MISS:     694725  HIT %:    93.0757  MISS %:    6.92426   MPKI: 3.47362
L1D RFO       ACCESS:   14350259  HIT:   11668089  MISS:    2682170  HIT %:    81.3093  MISS %:    18.6907   MPKI: 13.4108
L1D PREFETCH  ACCESS:   22005207  HIT:   20309269  MISS:    1695938  HIT %:     92.293  MISS %:    7.70698   MPKI: 8.47969
L1D PREFETCH  REQUESTED:  169627262  ISSUED:  168456532  USEFUL:    1695853  USELESS:         87
L1D USEFUL LOAD PREFETCHES:    1695853 PREFETCH ISSUED TO LOWER LEVEL:    7364555  ACCURACY: 23.0272
L1D TIMELY PREFETCHES:    1695853 LATE PREFETCHES: 363951 DROPPED PREFETCHES: 2400731
L1D PREFETCHES SAME FILL-ORIGIN LEVEL: 2060584 DIFFERENT FILL-ORIGIN LEVEL: 5303971
L1D AVERAGE MISS LATENCY: 1073.53 cycles
L1D RQ	ACCESS:   39269944	FORWARD:          0	MERGED:   28480864	TO_CACHE:   10789058
L1D WQ	ACCESS:   39973666	FORWARD:        126	MERGED:          0	TO_CACHE:   39973666
L1D PQ	ACCESS:  122948446	FORWARD:          0	MERGED:   77440256	TO_CACHE:   45508086

L1D UNIQUE REGIONS ACCESSED: 0
L1D REGIONS CONFLICTS: 0
L1D Cross Page Prefetch Requests: 15746475
L1D Same Page Prefetch Requests: 148511201
L1D ROI Sum of L1D PQ occupancy: 2409378062
L1D PREFETCHES PUSHED FROM L2C: 0
L1I TOTAL     ACCESS:   43575465  HIT:   43575298  MISS:        167  HIT %:    99.9996  MISS %: 0.000383243   MPKI: 0.000835
L1I LOAD      ACCESS:   43575465  HIT:   43575298  MISS:        167  HIT %:    99.9996  MISS %: 0.000383243   MPKI: 0.000835
L1I PREFETCH  REQUESTED:          0  ISSUED:          0  USEFUL:          0  USELESS:          0
L1I USEFUL LOAD PREFETCHES:          0 PREFETCH ISSUED TO LOWER LEVEL:          0  ACCURACY: -nan
L1I TIMELY PREFETCHES:          0 LATE PREFETCHES: 0 DROPPED PREFETCHES: 0
L1I PREFETCHES SAME FILL-ORIGIN LEVEL: 0 DIFFERENT FILL-ORIGIN LEVEL: 0
L1I AVERAGE MISS LATENCY: 499.725 cycles
L1I RQ	ACCESS:   62086057	FORWARD:          0	MERGED:   18510565	TO_CACHE:   43575492

BTB TOTAL     ACCESS:   28704511  HIT:   28704315  MISS:        196  HIT %:    99.9993  MISS %: 0.00068282   MPKI: 0.00098
BTB BRANCH_DIRECT_JUMP	ACCESS:         87  HIT:         47  MISS:         40
BTB BRANCH_INDIRECT	ACCESS:          2  HIT:          0  MISS:          2
BTB BRANCH_CONDITIONAL	ACCESS:   28704363  HIT:   28704256  MISS:        107
BTB BRANCH_DIRECT_CALL	ACCESS:         30  HIT:          6  MISS:         24
BTB BRANCH_INDIRECT_CALL	ACCESS:          0  HIT:          0  MISS:          0
BTB BRANCH_RETURN	ACCESS:         29  HIT:          6  MISS:         23
BTB BRANCH_OTHER ACCESS:          0  HIT:          0  MISS:          0

L2C TOTAL     ACCESS:   11095738  HIT:    5573315  MISS:    5522423  HIT %:    50.2293  MISS %:    49.7707   MPKI: 27.6121
L2C LOAD      ACCESS:     330941  HIT:     275446  MISS:      55495  HIT %:    83.2311  MISS %:    16.7689   MPKI: 0.277475
L2C DATA LOAD MPKI: 0.27664
L2C INSTRUCTION LOAD MPKI: 0.000835
L2C RFO       ACCESS:    2682170  HIT:          0  MISS:    2682170  HIT %:          0  MISS %:        100   MPKI: 13.4108
L2C PREFETCH  ACCESS:    4310139  HIT:    1974437  MISS:    2335702  HIT %:    45.8091  MISS %:    54.1909   MPKI: 11.6785
L2C DATA PREFETCH MPKI: 11.6785
L2C INSTRUCTION PREFETCH MPKI: 0
L2C WRITEBACK ACCESS:    2934271  HIT:    2495430  MISS:     438841  HIT %:    85.0443  MISS %:    14.9557   MPKI: 2.1942
L2C LOAD TRANSLATION ACCESS:      72268  HIT:      66321  MISS:       5947  HIT %:    91.7709  MISS %:    8.22909   MPKI: 0.029735
L2C TRANSLATION FROM L1D PREFETCHER ACCESS:     765949  HIT:     761681  MISS:       4268  HIT %:    99.4428  MISS %:   0.557217   MPKI: 0.02134
L2C PREFETCH  REQUESTED:          0  ISSUED:          0  USEFUL:     279690  USELESS:    2063716
L2C USEFUL LOAD PREFETCHES:     279690 PREFETCH ISSUED TO LOWER LEVEL:    2351485  ACCURACY: 11.8942
L2C TIMELY PREFETCHES:     279690 LATE PREFETCHES: 15781 DROPPED PREFETCHES: 0
L2C PREFETCHES SAME FILL-ORIGIN LEVEL: 1370369 DIFFERENT FILL-ORIGIN LEVEL: 0
L2C AVERAGE MISS LATENCY: 1240.12 cycles
L2C RQ	ACCESS:    3851334	FORWARD:          0	MERGED:          0	TO_CACHE:    3851334
L2C WQ	ACCESS:    2934271	FORWARD:          0	MERGED:          0	TO_CACHE:    2934271
L2C PQ	ACCESS:    7360068	FORWARD:          0	MERGED:      51011	TO_CACHE:    7309057

L2C Instructions Evicting Data 167
L2C Translations Evicting Data 10206
L2C Data Evicting Data 5063439
L2C Instructions Evicting Instructions 0
L2C Translations Evicting Instructions 0
L2C Data Evicting Instructions 157
L2C Instructions Evicting Translations 0
L2C Translations Evicting Translations 9
L2C Data Evicting Translations 9604
L2C Dense regions hint from L2: 0
PSCL5 TOTAL     ACCESS:     838156  HIT:     838156  MISS:          0  HIT %:        100  MISS %:          0   MPKI: 0
PSCL5 LOAD TRANSLATION ACCESS:      72255  HIT:      72255  MISS:          0  HIT %:        100  MISS %:          0   MPKI: 0
PSCL5 TRANSLATION FROM L1D PREFETCHER ACCESS:     765901  HIT:     765901  MISS:          0  HIT %:        100  MISS %:          0   MPKI: 0
PSCL5 PREFETCH  REQUESTED:          0  ISSUED:          0  USEFUL:          0  USELESS:          0
PSCL5 USEFUL LOAD PREFETCHES:          0 PREFETCH ISSUED TO LOWER LEVEL:          0  ACCURACY: -nan
PSCL5 TIMELY PREFETCHES:          0 LATE PREFETCHES: 0 DROPPED PREFETCHES: 0
PSCL5 PREFETCHES SAME FILL-ORIGIN LEVEL: 0 DIFFERENT FILL-ORIGIN LEVEL: 0

PSCL4 TOTAL     ACCESS:     838156  HIT:     838155  MISS:          1  HIT %:    99.9999  MISS %: 0.00011931   MPKI: 5e-06
PSCL4 LOAD TRANSLATION ACCESS:      72255  HIT:      72254  MISS:          1  HIT %:    99.9986  MISS %: 0.00138399   MPKI: 5e-06
PSCL4 TRANSLATION FROM L1D PREFETCHER ACCESS:     765901  HIT:     765901  MISS:          0  HIT %:        100  MISS %:          0   MPKI: 0
PSCL4 PREFETCH  REQUESTED:          0  ISSUED:          0  USEFUL:          0  USELESS:          0
PSCL4 USEFUL LOAD PREFETCHES:          0 PREFETCH ISSUED TO LOWER LEVEL:          0  ACCURACY: -nan
PSCL4 TIMELY PREFETCHES:          0 LATE PREFETCHES: 0 DROPPED PREFETCHES: 0
PSCL4 PREFETCHES SAME FILL-ORIGIN LEVEL: 0 DIFFERENT FILL-ORIGIN LEVEL: 0

PSCL3 TOTAL     ACCESS:     838156  HIT:     838155  MISS:          1  HIT %:    99.9999  MISS %: 0.00011931   MPKI: 5e-06
PSCL3 LOAD TRANSLATION ACCESS:      72255  HIT:      72254  MISS:          1  HIT %:    99.9986  MISS %: 0.00138399   MPKI: 5e-06
PSCL3 TRANSLATION FROM L1D PREFETCHER ACCESS:     765901  HIT:     765901  MISS:          0  HIT %:        100  MISS %:          0   MPKI: 0
PSCL3 PREFETCH  REQUESTED:          0  ISSUED:          0  USEFUL:          0  USELESS:          0
PSCL3 USEFUL LOAD PREFETCHES:          0 PREFETCH ISSUED TO LOWER LEVEL:          0  ACCURACY: -nan
PSCL3 TIMELY PREFETCHES:          0 LATE PREFETCHES: 0 DROPPED PREFETCHES: 0
PSCL3 PREFETCHES SAME FILL-ORIGIN LEVEL: 0 DIFFERENT FILL-ORIGIN LEVEL: 0

PSCL2 TOTAL     ACCESS:     837268  HIT:     837100  MISS:        168  HIT %:    99.9799  MISS %:  0.0200653   MPKI: 0.00084
PSCL2 LOAD TRANSLATION ACCESS:      72262  HIT:      72094  MISS:        168  HIT %:    99.7675  MISS %:   0.232487   MPKI: 0.00084
PSCL2 TRANSLATION FROM L1D PREFETCHER ACCESS:     765006  HIT:     765006  MISS:          0  HIT %:        100  MISS %:          0   MPKI: 0
PSCL2 PREFETCH  REQUESTED:          0  ISSUED:          0  USEFUL:          0  USELESS:          0
PSCL2 USEFUL LOAD PREFETCHES:          0 PREFETCH ISSUED TO LOWER LEVEL:          0  ACCURACY: -nan
PSCL2 TIMELY PREFETCHES:          0 LATE PREFETCHES: 0 DROPPED PREFETCHES: 0
PSCL2 PREFETCHES SAME FILL-ORIGIN LEVEL: 0 DIFFERENT FILL-ORIGIN LEVEL: 0

LLC TOTAL     ACCESS:    8014777  HIT:    2826132  MISS:    5188645  HIT %:    35.2615  MISS %:    64.7385   MPKI: 25.9432
LLC LOAD      ACCESS:      39714  HIT:          1  MISS:      39713  HIT %:   0.002518  MISS %:    99.9975   MPKI: 0.198565
LLC RFO       ACCESS:    2682170  HIT:          0  MISS:    2682170  HIT %:          0  MISS %:        100   MPKI: 13.4108
LLC PREFETCH  ACCESS:    2351483  HIT:        444  MISS:    2351039  HIT %:  0.0188817  MISS %:    99.9811   MPKI: 11.7552
LLC WRITEBACK ACCESS:    2931195  HIT:    2825594  MISS:     105601  HIT %:    96.3973  MISS %:    3.60266   MPKI: 0.528005
LLC LOAD TRANSLATION ACCESS:       5947  HIT:         73  MISS:       5874  HIT %:    1.22751  MISS %:    98.7725   MPKI: 0.02937
LLC TRANSLATION FROM L1D PREFETCHER ACCESS:       4268  HIT:         20  MISS:       4248  HIT %:   0.468604  MISS %:    99.5314   MPKI: 0.02124
LLC PREFETCH  REQUESTED:          0  ISSUED:          0  USEFUL:         91  USELESS:    9494221
LLC USEFUL LOAD PREFETCHES:         91 PREFETCH ISSUED TO LOWER LEVEL:  648493370  ACCURACY: 1.40325e-05
LLC TIMELY PREFETCHES:         91 LATE PREFETCHES: 0 DROPPED PREFETCHES: 0
LLC PREFETCHES SAME FILL-ORIGIN LEVEL: 0 DIFFERENT FILL-ORIGIN LEVEL: 0
LLC AVERAGE MISS LATENCY: 4824.81 cycles
LLC RQ	ACCESS:   10936447	FORWARD:          0	MERGED:          0	TO_CACHE:   10936447
LLC WQ	ACCESS:   11732521	FORWARD:          0	MERGED:          0	TO_CACHE:   11732521
LLC PQ	ACCESS:    9416717	FORWARD:          0	MERGED:          0	TO_CACHE:    9416717

LLC Dense regions hint to LLC: 0

RAW hits: 7805
Loads Generated: 39277749
Loads sent to L1D: 39269944
Stores Generated: 39973668
Stores sent to L1D: 39973666
Major fault: 0 Minor fault: 89531
Allocated PAGES: 358124

CPU 1 cumulative IPC: 0.324763 instructions: 200000003 cycles: 615833212
ITLB TOTAL     ACCESS:   42510253  HIT:   42510233  MISS:         20  HIT %:        100  MISS %: 4.70475e-05   MPKI: 0.0001
ITLB LOAD TRANSLATION ACCESS:   42510253  HIT:   42510233  MISS:         20  HIT %:        100  MISS %: 4.70475e-05   MPKI: 0.0001
ITLB PREFETCH  REQUESTED:          0  ISSUED:          0  USEFUL:          0  USELESS:          0
ITLB USEFUL LOAD PREFETCHES:          0 PREFETCH ISSUED TO LOWER LEVEL:          0  ACCURACY: -nan
ITLB TIMELY PREFETCHES:          0 LATE PREFETCHES: 0 DROPPED PREFETCHES: 0
ITLB PREFETCHES SAME FILL-ORIGIN LEVEL: 0 DIFFERENT FILL-ORIGIN LEVEL: 0
ITLB AVERAGE MISS LATENCY: 914.05 cycles
ITLB RQ	ACCESS:   43580392	FORWARD:          0	MERGED:    1065330	TO_CACHE:   42515062

DTLB TOTAL     ACCESS:   41385394  HIT:   41306058  MISS:      79336  HIT %:    99.8083  MISS %:     0.1917   MPKI: 0.39668
DTLB LOAD TRANSLATION ACCESS:   41385394  HIT:   41306058  MISS:      79336  HIT %:    99.8083  MISS %:     0.1917   MPKI: 0.39668
DTLB PREFETCH  REQUESTED:          0  ISSUED:          0  USEFUL:          0  USELESS:          0
DTLB USEFUL LOAD PREFETCHES:          0 PREFETCH ISSUED TO LOWER LEVEL:          0  ACCURACY: -nan
DTLB TIMELY PREFETCHES:          0 LATE PREFETCHES: 0 DROPPED PREFETCHES: 0
DTLB PREFETCHES SAME FILL-ORIGIN LEVEL: 0 DIFFERENT FILL-ORIGIN LEVEL: 0
DTLB AVERAGE MISS LATENCY: 243.477 cycles
DTLB RQ	ACCESS:   50770427	FORWARD:          0	MERGED:    9102547	TO_CACHE:   41667880

STLB TOTAL     ACCESS:    6792362  HIT:    6713008  MISS:      79354  HIT %:    98.8317  MISS %:    1.16828   MPKI: 0.39677
STLB LOAD TRANSLATION ACCESS:      79356  HIT:       7110  MISS:      72246  HIT %:    8.95962  MISS %:    91.0404   MPKI: 0.36123
STLB TRANSLATION FROM L1D PREFETCHER ACCESS:    6713006  HIT:    6705898  MISS:       7108  HIT %:    99.8941  MISS %:   0.105884   MPKI: 0.03554
STLB PREFETCH  REQUESTED:          0  ISSUED:          0  USEFUL:       7116  USELESS:          0
STLB USEFUL LOAD PREFETCHES:       7116 PREFETCH ISSUED TO LOWER LEVEL:          0  ACCURACY: inf
STLB TIMELY PREFETCHES:       7116 LATE PREFETCHES: 8025 DROPPED PREFETCHES: 727081
STLB PREFETCHES SAME FILL-ORIGIN LEVEL: 0 DIFFERENT FILL-ORIGIN LEVEL: 0
STLB AVERAGE MISS LATENCY: 251.394 cycles
STLB RQ	ACCESS:   45628431	FORWARD:          0	MERGED:   37930386	TO_CACHE:    7698045

STLB Hit, L1D data hit: 0
STLB Hit, L2C data hit: 0
STLB Hit, LLC data hit: 0
STLB Hit, LLC data miss: 0
STLB STLB hints to L2: 0
L1D TOTAL     ACCESS:   46083844  HIT:   41011044  MISS:    5072800  HIT %:    88.9922  MISS %:    11.0078   MPKI: 25.364
L1D LOAD      ACCESS:   10035808  HIT:    9341034  MISS:     694774  HIT %:     93.077  MISS %:    6.92295   MPKI: 3.47387
L1D RFO       ACCESS:   13987190  HIT:   11305014  MISS:    2682176  HIT %:    80.8241  MISS %:    19.1759   MPKI: 13.4109
L1D PREFETCH  ACCESS:   22060846  HIT:   20364996  MISS:    1695850  HIT %:    92.3129  MISS %:    7.68715   MPKI: 8.47925
L1D PREFETCH  REQUESTED:  169626976  ISSUED:  168425718  USEFUL:    1696255  USELESS:         57
L1D USEFUL LOAD PREFETCHES:    1696255 PREFETCH ISSUED TO LOWER LEVEL:    7357497  ACCURACY: 23.0548
L1D TIMELY PREFETCHES:    1696255 LATE PREFETCHES: 363806 DROPPED PREFETCHES: 2363073
L1D PREFETCHES SAME FILL-ORIGIN LEVEL: 2060605 DIFFERENT FILL-ORIGIN LEVEL: 5296892
L1D AVERAGE MISS LATENCY: 1074.03 cycles
L1D RQ	ACCESS:   39279220	FORWARD:          0	MERGED:   28487411	TO_CACHE:   10791787
L1D WQ	ACCESS:   39978640	FORWARD:        126	MERGED:          0	TO_CACHE:   39978640
L1D PQ	ACCESS:  122876660	FORWARD:          0	MERGED:   77327498	TO_CACHE:   45549058

L1D UNIQUE REGIONS ACCESSED: 0
L1D REGIONS CONFLICTS: 0
L1D Cross Page Prefetch Requests: 15878478
L1D Same Page Prefetch Requests: 148460014
L1D ROI Sum of L1D PQ occupancy: 2398520690
L1D PREFETCHES PUSHED FROM L2C: 0
L1I TOTAL     ACCESS:   43575401  HIT:   43575234  MISS:        167  HIT %:    99.9996  MISS %: 0.000383244   MPKI: 0.000835
L1I LOAD      ACCESS:   43575401  HIT:   43575234  MISS:        167  HIT %:    99.9996  MISS %: 0.000383244   MPKI: 0.000835
L1I PREFETCH  REQUESTED:          0  ISSUED:          0  USEFUL:          0  USELESS:          0
L1I USEFUL LOAD PREFETCHES:          0 PREFETCH ISSUED TO LOWER LEVEL:          0  ACCURACY: -nan
L1I TIMELY PREFETCHES:          0 LATE PREFETCHES: 0 DROPPED PREFETCHES: 0
L1I PREFETCHES SAME FILL-ORIGIN LEVEL: 0 DIFFERENT FILL-ORIGIN LEVEL: 0
L1I AVERAGE MISS LATENCY: 1169.56 cycles
L1I RQ	ACCESS:   62096393	FORWARD:          0	MERGED:   18516001	TO_CACHE:   43580392

BTB TOTAL     ACCESS:   28704466  HIT:   28704267  MISS:        199  HIT %:    99.9993  MISS %: 0.000693272   MPKI: 0.000995
BTB BRANCH_DIRECT_JUMP	ACCESS:         87  HIT:         47  MISS:         40
BTB BRANCH_INDIRECT	ACCESS:          2  HIT:          0  MISS:          2
BTB BRANCH_CONDITIONAL	ACCESS:   28704318  HIT:   28704208  MISS:        110
BTB BRANCH_DIRECT_CALL	ACCESS:         30  HIT:          6  MISS:         24
BTB BRANCH_INDIRECT_CALL	ACCESS:          0  HIT:          0  MISS:          0
BTB BRANCH_RETURN	ACCESS:         29  HIT:          6  MISS:         23
BTB BRANCH_OTHER ACCESS:          0  HIT:          0  MISS:          0

L2C TOTAL     ACCESS:   11061575  HIT:    5540757  MISS:    5520818  HIT %:    50.0901  MISS %:    49.9099   MPKI: 27.6041
L2C LOAD      ACCESS:     331227  HIT:     276149  MISS:      55078  HIT %:    83.3715  MISS %:    16.6285   MPKI: 0.27539
L2C DATA LOAD MPKI: 0.274555
L2C INSTRUCTION LOAD MPKI: 0.000835
L2C RFO       ACCESS:    2682176  HIT:          0  MISS:    2682176  HIT %:          0  MISS %:        100   MPKI: 13.4109
L2C PREFETCH  ACCESS:    4299413  HIT:    1963290  MISS:    2336123  HIT %:    45.6641  MISS %:    54.3359   MPKI: 11.6806
L2C DATA PREFETCH MPKI: 11.6806
L2C INSTRUCTION PREFETCH MPKI: 0
L2C WRITEBACK ACCESS:    2934253  HIT:    2497046  MISS:     437207  HIT %:    85.0999  MISS %:    14.9001   MPKI: 2.18603
L2C LOAD TRANSLATION ACCESS:      72258  HIT:      66292  MISS:       5966  HIT %:    91.7435  MISS %:    8.25653   MPKI: 0.02983
L2C TRANSLATION FROM L1D PREFETCHER ACCESS:     742248  HIT:     737980  MISS:       4268  HIT %:     99.425  MISS %:    0.57501   MPKI: 0.02134
L2C PREFETCH  REQUESTED:          0  ISSUED:          0  USEFUL:     280417  USELESS:    2064579
L2C USEFUL LOAD PREFETCHES:     280417 PREFETCH ISSUED TO LOWER LEVEL:    2352431  ACCURACY: 11.9203
L2C TIMELY PREFETCHES:     280417 LATE PREFETCHES: 15705 DROPPED PREFETCHES: 0
L2C PREFETCHES SAME FILL-ORIGIN LEVEL: 1365093 DIFFERENT FILL-ORIGIN LEVEL: 0
L2C AVERAGE MISS LATENCY: 1240.77 cycles
L2C RQ	ACCESS:    3828280	FORWARD:          0	MERGED:          0	TO_CACHE:    3828280
L2C WQ	ACCESS:    2935052	FORWARD:          0	MERGED:          0	TO_CACHE:    2935052
L2C PQ	ACCESS:    7353136	FORWARD:          0	MERGED:      50172	TO_CACHE:    7302964

L2C Instructions Evicting Data 166
L2C Translations Evicting Data 10227
L2C Data Evicting Data 5064318
L2C Instructions Evicting Instructions 1
L2C Translations Evicting Instructions 0
L2C Data Evicting Instructions 153
L2C Instructions Evicting Translations 0
L2C Translations Evicting Translations 15
L2C Data Evicting Translations 9634
L2C Dense regions hint from L2: 0
PSCL5 TOTAL     ACCESS:     814458  HIT:     814458  MISS:          0  HIT %:        100  MISS %:          0   MPKI: 0
PSCL5 LOAD TRANSLATION ACCESS:      72246  HIT:      72246  MISS:          0  HIT %:        100  MISS %:          0   MPKI: 0
PSCL5 TRANSLATION FROM L1D PREFETCHER ACCESS:     742212  HIT:     742212  MISS:          0  HIT %:        100  MISS %:          0   MPKI: 0
PSCL5 PREFETCH  REQUESTED:          0  ISSUED:          0  USEFUL:          0  USELESS:          0
PSCL5 USEFUL LOAD PREFETCHES:          0 PREFETCH ISSUED TO LOWER LEVEL:          0  ACCURACY: -nan
PSCL5 TIMELY PREFETCHES:          0 LATE PREFETCHES: 0 DROPPED PREFETCHES: 0
PSCL5 PREFETCHES SAME FILL-ORIGIN LEVEL: 0 DIFFERENT FILL-ORIGIN LEVEL: 0

PSCL4 TOTAL     ACCESS:     814458  HIT:     814457  MISS:          1  HIT %:    99.9999  MISS %: 0.000122781   MPKI: 5e-06
PSCL4 LOAD TRANSLATION ACCESS:      72246  HIT:      72245  MISS:          1  HIT %:    99.9986  MISS %: 0.00138416   MPKI: 5e-06
PSCL4 TRANSLATION FROM L1D PREFETCHER ACCESS:     742212  HIT:     742212  MISS:          0  HIT %:        100  MISS %:          0   MPKI: 0
PSCL4 PREFETCH  REQUESTED:          0  ISSUED:          0  USEFUL:          0  USELESS:          0
PSCL4 USEFUL LOAD PREFETCHES:          0 PREFETCH ISSUED TO LOWER LEVEL:          0  ACCURACY: -nan
PSCL4 TIMELY PREFETCHES:          0 LATE PREFETCHES: 0 DROPPED PREFETCHES: 0
PSCL4 PREFETCHES SAME FILL-ORIGIN LEVEL: 0 DIFFERENT FILL-ORIGIN LEVEL: 0

PSCL3 TOTAL     ACCESS:     814458  HIT:     814457  MISS:          1  HIT %:    99.9999  MISS %: 0.000122781   MPKI: 5e-06
PSCL3 LOAD TRANSLATION ACCESS:      72246  HIT:      72245  MISS:          1  HIT %:    99.9986  MISS %: 0.00138416   MPKI: 5e-06
PSCL3 TRANSLATION FROM L1D PREFETCHER ACCESS:     742212  HIT:     742212  MISS:          0  HIT %:        100  MISS %:          0   MPKI: 0
PSCL3 PREFETCH  REQUESTED:          0  ISSUED:          0  USEFUL:          0  USELESS:          0
PSCL3 USEFUL LOAD PREFETCHES:          0 PREFETCH ISSUED TO LOWER LEVEL:          0  ACCURACY: -nan
PSCL3 TIMELY PREFETCHES:          0 LATE PREFETCHES: 0 DROPPED PREFETCHES: 0
PSCL3 PREFETCHES SAME FILL-ORIGIN LEVEL: 0 DIFFERENT FILL-ORIGIN LEVEL: 0

PSCL2 TOTAL     ACCESS:     813496  HIT:     813330  MISS:        166  HIT %:    99.9796  MISS %:  0.0204058   MPKI: 0.00083
PSCL2 LOAD TRANSLATION ACCESS:      72254  HIT:      72088  MISS:        166  HIT %:    99.7703  MISS %:   0.229745   MPKI: 0.00083
PSCL2 TRANSLATION FROM L1D PREFETCHER ACCESS:     741242  HIT:     741242  MISS:          0  HIT %:        100  MISS %:          0   MPKI: 0
PSCL2 PREFETCH  REQUESTED:          0  ISSUED:          0  USEFUL:          0  USELESS:          0
PSCL2 USEFUL LOAD PREFETCHES:          0 PREFETCH ISSUED TO LOWER LEVEL:          0  ACCURACY: -nan
PSCL2 TIMELY PREFETCHES:          0 LATE PREFETCHES: 0 DROPPED PREFETCHES: 0
PSCL2 PREFETCHES SAME FILL-ORIGIN LEVEL: 0 DIFFERENT FILL-ORIGIN LEVEL: 0

LLC TOTAL     ACCESS:    8013681  HIT:    2826330  MISS:    5187351  HIT %:    35.2688  MISS %:    64.7312   MPKI: 25.9368
LLC LOAD      ACCESS:      39377  HIT:          0  MISS:      39377  HIT %:          0  MISS %:        100   MPKI: 0.196885
LLC RFO       ACCESS:    2682176  HIT:          0  MISS:    2682176  HIT %:          0  MISS %:        100   MPKI: 13.4109
LLC PREFETCH  ACCESS:    2351824  HIT:        461  MISS:    2351363  HIT %:  0.0196018  MISS %:    99.9804   MPKI: 11.7568
LLC WRITEBACK ACCESS:    2930070  HIT:    2825748  MISS:     104322  HIT %:    96.4396  MISS %:    3.56039   MPKI: 0.52161
LLC LOAD TRANSLATION ACCESS:       5966  HIT:         95  MISS:       5871  HIT %:    1.59236  MISS %:    98.4076   MPKI: 0.029355
LLC TRANSLATION FROM L1D PREFETCHER ACCESS:       4268  HIT:         26  MISS:       4242  HIT %:   0.609185  MISS %:    99.3908   MPKI: 0.02121
LLC PREFETCH  REQUESTED:          0  ISSUED:          0  USEFUL:         91  USELESS:    9494221
LLC USEFUL LOAD PREFETCHES:         91 PREFETCH ISSUED TO LOWER LEVEL:  648493370  ACCURACY: 1.40325e-05
LLC TIMELY PREFETCHES:         91 LATE PREFETCHES: 0 DROPPED PREFETCHES: 0
LLC PREFETCHES SAME FILL-ORIGIN LEVEL: 0 DIFFERENT FILL-ORIGIN LEVEL: 0
LLC AVERAGE MISS LATENCY: 4826.01 cycles
LLC RQ	ACCESS:   10936447	FORWARD:          0	MERGED:          0	TO_CACHE:   10936447
LLC WQ	ACCESS:   11732521	FORWARD:          0	MERGED:          0	TO_CACHE:   11732521
LLC PQ	ACCESS:    9416717	FORWARD:          0	MERGED:          0	TO_CACHE:    9416717

LLC Dense regions hint to LLC: 0

RAW hits: 7803
Loads Generated: 39277744
Loads sent to L1D: 39269904
Stores Generated: 39973649
Stores sent to L1D: 39973667
Major fault: 0 Minor fault: 89531
Allocated PAGES: 358124

CPU 2 cumulative IPC: 0.324711 instructions: 200000000 cycles: 615932413
ITLB TOTAL     ACCESS:   42509996  HIT:   42509976  MISS:         20  HIT %:        100  MISS %: 4.70478e-05   MPKI: 0.0001
ITLB LOAD TRANSLATION ACCESS:   42509996  HIT:   42509976  MISS:         20  HIT %:        100  MISS %: 4.70478e-05   MPKI: 0.0001
ITLB PREFETCH  REQUESTED:          0  ISSUED:          0  USEFUL:          0  USELESS:          0
ITLB USEFUL LOAD PREFETCHES:          0 PREFETCH ISSUED TO LOWER LEVEL:          0  ACCURACY: -nan
ITLB TIMELY PREFETCHES:          0 LATE PREFETCHES: 0 DROPPED PREFETCHES: 0
ITLB PREFETCHES SAME FILL-ORIGIN LEVEL: 0 DIFFERENT FILL-ORIGIN LEVEL: 0
ITLB AVERAGE MISS LATENCY: 482.05 cycles
ITLB RQ	ACCESS:   43575167	FORWARD:          0	MERGED:    1065163	TO_CACHE:   42510004

DTLB TOTAL     ACCESS:   41383005  HIT:   41303667  MISS:      79338  HIT %:    99.8083  MISS %:   0.191716   MPKI: 0.39669
DTLB LOAD TRANSLATION ACCESS:   41383005  HIT:   41303667  MISS:      79338  HIT %:    99.8083  MISS %:   0.191716   MPKI: 0.39669
DTLB PREFETCH  REQUESTED:          0  ISSUED:          0  USEFUL:          0  USELESS:          0
DTLB USEFUL LOAD PREFETCHES:          0 PREFETCH ISSUED TO LOWER LEVEL:          0  ACCURACY: -nan
DTLB TIMELY PREFETCHES:          0 LATE PREFETCHES: 0 DROPPED PREFETCHES: 0
DTLB PREFETCHES SAME FILL-ORIGIN LEVEL: 0 DIFFERENT FILL-ORIGIN LEVEL: 0
DTLB AVERAGE MISS LATENCY: 236.764 cycles
DTLB RQ	ACCESS:   50763204	FORWARD:          0	MERGED:    9104486	TO_CACHE:   41658718

STLB TOTAL     ACCESS:    6781099  HIT:    6701742  MISS:      79357  HIT %:    98.8297  MISS %:    1.17027   MPKI: 0.396785
STLB LOAD TRANSLATION ACCESS:      79358  HIT:       7109  MISS:      72249  HIT %:    8.95814  MISS %:    91.0419   MPKI: 0.361245
STLB TRANSLATION FROM L1D PREFETCHER ACCESS:    6701741  HIT:    6694633  MISS:       7108  HIT %:    99.8939  MISS %:   0.106062   MPKI: 0.03554
STLB PREFETCH  REQUESTED:          0  ISSUED:          0  USEFUL:       7108  USELESS:          0
STLB USEFUL LOAD PREFETCHES:       7108 PREFETCH ISSUED TO LOWER LEVEL:          0  ACCURACY: inf
STLB TIMELY PREFETCHES:       7108 LATE PREFETCHES: 7668 DROPPED PREFETCHES: 823918
STLB PREFETCHES SAME FILL-ORIGIN LEVEL: 0 DIFFERENT FILL-ORIGIN LEVEL: 0
STLB AVERAGE MISS LATENCY: 245.211 cycles
STLB RQ	ACCESS:   45540899	FORWARD:          0	MERGED:   37759207	TO_CACHE:    7781692

STLB Hit, L1D data hit: 0
STLB Hit, L2C data hit: 0
STLB Hit, LLC data hit: 0
STLB Hit, LLC data miss: 0
STLB STLB hints to L2: 0
L1D TOTAL     ACCESS:   46335425  HIT:   41262594  MISS:    5072831  HIT %:    89.0519  MISS %:    10.9481   MPKI: 25.3642
L1D LOAD      ACCESS:   10036731  HIT:    9345265  MISS:     691466  HIT %:    93.1106  MISS %:    6.88935   MPKI: 3.45733
L1D RFO       ACCESS:   14223074  HIT:   11540901  MISS:    2682173  HIT %:    81.1421  MISS %:    18.8579   MPKI: 13.4109
L1D PREFETCH  ACCESS:   22075620  HIT:   20376428  MISS:    1699192  HIT %:    92.3029  MISS %:    7.69714   MPKI: 8.49596
L1D PREFETCH  REQUESTED:  169610786  ISSUED:  168376711  USEFUL:    1699112  USELESS:         87
L1D USEFUL LOAD PREFETCHES:    1699112 PREFETCH ISSUED TO LOWER LEVEL:    7435314  ACCURACY: 22.8519
L1D TIMELY PREFETCHES:    1699112 LATE PREFETCHES: 360621 DROPPED PREFETCHES: 2546501
L1D PREFETCHES SAME FILL-ORIGIN LEVEL: 2059871 DIFFERENT FILL-ORIGIN LEVEL: 5375443
L1D AVERAGE MISS LATENCY: 1073.1 cycles
L1D RQ	ACCESS:   39269980	FORWARD:          0	MERGED:   28480431	TO_CACHE:   10789526
L1D WQ	ACCESS:   39973678	FORWARD:         59	MERGED:          0	TO_CACHE:   39973678
L1D PQ	ACCESS:  122915172	FORWARD:          0	MERGED:   77453597	TO_CACHE:   45461539

L1D UNIQUE REGIONS ACCESSED: 0
L1D REGIONS CONFLICTS: 0
L1D Cross Page Prefetch Requests: 15879655
L1D Same Page Prefetch Requests: 148450358
L1D ROI Sum of L1D PQ occupancy: 2413910224
L1D PREFETCHES PUSHED FROM L2C: 0
L1I TOTAL     ACCESS:   43575137  HIT:   43574970  MISS:        167  HIT %:    99.9996  MISS %: 0.000383246   MPKI: 0.000835
L1I LOAD      ACCESS:   43575137  HIT:   43574970  MISS:        167  HIT %:    99.9996  MISS %: 0.000383246   MPKI: 0.000835
L1I PREFETCH  REQUESTED:          0  ISSUED:          0  USEFUL:          0  USELESS:          0
L1I USEFUL LOAD PREFETCHES:          0 PREFETCH ISSUED TO LOWER LEVEL:          0  ACCURACY: -nan
L1I TIMELY PREFETCHES:          0 LATE PREFETCHES: 0 DROPPED PREFETCHES: 0
L1I PREFETCHES SAME FILL-ORIGIN LEVEL: 0 DIFFERENT FILL-ORIGIN LEVEL: 0
L1I AVERAGE MISS LATENCY: 552.874 cycles
L1I RQ	ACCESS:   62085644	FORWARD:          0	MERGED:   18510477	TO_CACHE:   43575167

BTB TOTAL     ACCESS:   28704536  HIT:   28704340  MISS:        196  HIT %:    99.9993  MISS %: 0.000682819   MPKI: 0.00098
BTB BRANCH_DIRECT_JUMP	ACCESS:         87  HIT:         47  MISS:         40
BTB BRANCH_INDIRECT	ACCESS:          2  HIT:          0  MISS:          2
BTB BRANCH_CONDITIONAL	ACCESS:   28704388  HIT:   28704281  MISS:        107
BTB BRANCH_DIRECT_CALL	ACCESS:         30  HIT:          6  MISS:         24
BTB BRANCH_INDIRECT_CALL	ACCESS:          0  HIT:          0  MISS:          0
BTB BRANCH_RETURN	ACCESS:         29  HIT:          6  MISS:         23
BTB BRANCH_OTHER ACCESS:          0  HIT:          0  MISS:          0

L2C TOTAL     ACCESS:   11223540  HIT:    5709296  MISS:    5514244  HIT %:    50.8689  MISS %:    49.1311   MPKI: 27.5712
L2C LOAD      ACCESS:     331014  HIT:     272914  MISS:      58100  HIT %:    82.4479  MISS %:    17.5521   MPKI: 0.2905
L2C DATA LOAD MPKI: 0.289665
L2C INSTRUCTION LOAD MPKI: 0.000835
L2C RFO       ACCESS:    2682173  HIT:          0  MISS:    2682173  HIT %:          0  MISS %:        100   MPKI: 13.4109
L2C PREFETCH  ACCESS:    4365067  HIT:    2031924  MISS:    2333143  HIT %:    46.5497  MISS %:    53.4503   MPKI: 11.6657
L2C DATA PREFETCH MPKI: 11.6657
L2C INSTRUCTION PREFETCH MPKI: 0
L2C WRITEBACK ACCESS:    2934284  HIT:    2503708  MISS:     430576  HIT %:     85.326  MISS %:     14.674   MPKI: 2.15288
L2C LOAD TRANSLATION ACCESS:      72263  HIT:      66293  MISS:       5970  HIT %:    91.7385  MISS %:    8.26149   MPKI: 0.02985
L2C TRANSLATION FROM L1D PREFETCHER ACCESS:     838739  HIT:     834457  MISS:       4282  HIT %:    99.4895  MISS %:   0.510528   MPKI: 0.02141
L2C PREFETCH  REQUESTED:          0  ISSUED:          0  USEFUL:     277160  USELESS:    2064860
L2C USEFUL LOAD PREFETCHES:     277160 PREFETCH ISSUED TO LOWER LEVEL:    2349240  ACCURACY: 11.7979
L2C TIMELY PREFETCHES:     277160 LATE PREFETCHES: 16086 DROPPED PREFETCHES: 0
L2C PREFETCHES SAME FILL-ORIGIN LEVEL: 1377555 DIFFERENT FILL-ORIGIN LEVEL: 0
L2C AVERAGE MISS LATENCY: 1242 cycles
L2C RQ	ACCESS:    3924192	FORWARD:          0	MERGED:          0	TO_CACHE:    3924192
L2C WQ	ACCESS:    2934293	FORWARD:          0	MERGED:          0	TO_CACHE:    2934293
L2C PQ	ACCESS:    7428575	FORWARD:          0	MERGED:      49617	TO_CACHE:    7378958

L2C Instructions Evicting Data 167
L2C Translations Evicting Data 10247
L2C Data Evicting Data 5063448
L2C Instructions Evicting Instructions 0
L2C Translations Evicting Instructions 2
L2C Data Evicting Instructions 144
L2C Instructions Evicting Translations 0
L2C Translations Evicting Translations 4
L2C Data Evicting Translations 9668
L2C Dense regions hint from L2: 0
PSCL5 TOTAL     ACCESS:     910943  HIT:     910943  MISS:          0  HIT %:        100  MISS %:          0   MPKI: 0
PSCL5 LOAD TRANSLATION ACCESS:      72250  HIT:      72250  MISS:          0  HIT %:        100  MISS %:          0   MPKI: 0
PSCL5 TRANSLATION FROM L1D PREFETCHER ACCESS:     838693  HIT:     838693  MISS:          0  HIT %:        100  MISS %:          0   MPKI: 0
PSCL5 PREFETCH  REQUESTED:          0  ISSUED:          0  USEFUL:          0  USELESS:          0
PSCL5 USEFUL LOAD PREFETCHES:          0 PREFETCH ISSUED TO LOWER LEVEL:          0  ACCURACY: -nan
PSCL5 TIMELY PREFETCHES:          0 LATE PREFETCHES: 0 DROPPED PREFETCHES: 0
PSCL5 PREFETCHES SAME FILL-ORIGIN LEVEL: 0 DIFFERENT FILL-ORIGIN LEVEL: 0

PSCL4 TOTAL     ACCESS:     910943  HIT:     910942  MISS:          1  HIT %:    99.9999  MISS %: 0.000109776   MPKI: 5e-06
PSCL4 LOAD TRANSLATION ACCESS:      72250  HIT:      72249  MISS:          1  HIT %:    99.9986  MISS %: 0.00138408   MPKI: 5e-06
PSCL4 TRANSLATION FROM L1D PREFETCHER ACCESS:     838693  HIT:     838693  MISS:          0  HIT %:        100  MISS %:          0   MPKI: 0
PSCL4 PREFETCH  REQUESTED:          0  ISSUED:          0  USEFUL:          0  USELESS:          0
PSCL4 USEFUL LOAD PREFETCHES:          0 PREFETCH ISSUED TO LOWER LEVEL:          0  ACCURACY: -nan
PSCL4 TIMELY PREFETCHES:          0 LATE PREFETCHES: 0 DROPPED PREFETCHES: 0
PSCL4 PREFETCHES SAME FILL-ORIGIN LEVEL: 0 DIFFERENT FILL-ORIGIN LEVEL: 0

PSCL3 TOTAL     ACCESS:     910943  HIT:     910942  MISS:          1  HIT %:    99.9999  MISS %: 0.000109776   MPKI: 5e-06
PSCL3 LOAD TRANSLATION ACCESS:      72250  HIT:      72249  MISS:          1  HIT %:    99.9986  MISS %: 0.00138408   MPKI: 5e-06
PSCL3 TRANSLATION FROM L1D PREFETCHER ACCESS:     838693  HIT:     838693  MISS:          0  HIT %:        100  MISS %:          0   MPKI: 0
PSCL3 PREFETCH  REQUESTED:          0  ISSUED:          0  USEFUL:          0  USELESS:          0
PSCL3 USEFUL LOAD PREFETCHES:          0 PREFETCH ISSUED TO LOWER LEVEL:          0  ACCURACY: -nan
PSCL3 TIMELY PREFETCHES:          0 LATE PREFETCHES: 0 DROPPED PREFETCHES: 0
PSCL3 PREFETCHES SAME FILL-ORIGIN LEVEL: 0 DIFFERENT FILL-ORIGIN LEVEL: 0

PSCL2 TOTAL     ACCESS:     908978  HIT:     908810  MISS:        168  HIT %:    99.9815  MISS %:  0.0184823   MPKI: 0.00084
PSCL2 LOAD TRANSLATION ACCESS:      72257  HIT:      72089  MISS:        168  HIT %:    99.7675  MISS %:   0.232503   MPKI: 0.00084
PSCL2 TRANSLATION FROM L1D PREFETCHER ACCESS:     836721  HIT:     836721  MISS:          0  HIT %:        100  MISS %:          0   MPKI: 0
PSCL2 PREFETCH  REQUESTED:          0  ISSUED:          0  USEFUL:          0  USELESS:          0
PSCL2 USEFUL LOAD PREFETCHES:          0 PREFETCH ISSUED TO LOWER LEVEL:          0  ACCURACY: -nan
PSCL2 TIMELY PREFETCHES:          0 LATE PREFETCHES: 0 DROPPED PREFETCHES: 0
PSCL2 PREFETCHES SAME FILL-ORIGIN LEVEL: 0 DIFFERENT FILL-ORIGIN LEVEL: 0

LLC TOTAL     ACCESS:    8013697  HIT:    2828329  MISS:    5185368  HIT %:    35.2937  MISS %:    64.7063   MPKI: 25.9268
LLC LOAD      ACCESS:      42014  HIT:         14  MISS:      42000  HIT %:  0.0333222  MISS %:    99.9667   MPKI: 0.21
LLC RFO       ACCESS:    2682173  HIT:          0  MISS:    2682173  HIT %:          0  MISS %:        100   MPKI: 13.4109
LLC PREFETCH  ACCESS:    2349229  HIT:        495  MISS:    2348734  HIT %:  0.0210707  MISS %:    99.9789   MPKI: 11.7437
LLC WRITEBACK ACCESS:    2930029  HIT:    2827697  MISS:     102332  HIT %:    96.5075  MISS %:    3.49253   MPKI: 0.51166
LLC LOAD TRANSLATION ACCESS:       5970  HIT:         93  MISS:       5877  HIT %:    1.55779  MISS %:    98.4422   MPKI: 0.029385
LLC TRANSLATION FROM L1D PREFETCHER ACCESS:       4282  HIT:         30  MISS:       4252  HIT %:   0.700607  MISS %:    99.2994   MPKI: 0.02126
LLC PREFETCH  REQUESTED:          0  ISSUED:          0  USEFUL:         91  USELESS:    9494221
LLC USEFUL LOAD PREFETCHES:         91 PREFETCH ISSUED TO LOWER LEVEL:  648493370  ACCURACY: 1.40325e-05
LLC TIMELY PREFETCHES:         91 LATE PREFETCHES: 0 DROPPED PREFETCHES: 0
LLC PREFETCHES SAME FILL-ORIGIN LEVEL: 0 DIFFERENT FILL-ORIGIN LEVEL: 0
LLC AVERAGE MISS LATENCY: 4827.86 cycles
LLC RQ	ACCESS:   10936447	FORWARD:          0	MERGED:          0	TO_CACHE:   10936447
LLC WQ	ACCESS:   11732521	FORWARD:          0	MERGED:          0	TO_CACHE:   11732521
LLC PQ	ACCESS:    9416717	FORWARD:          0	MERGED:          0	TO_CACHE:    9416717

LLC Dense regions hint to LLC: 0

RAW hits: 7803
Loads Generated: 39277773
Loads sent to L1D: 39269966
Stores Generated: 39973667
Stores sent to L1D: 39973659
Major fault: 0 Minor fault: 89531
Allocated PAGES: 358124

CPU 3 cumulative IPC: 0.325335 instructions: 200000000 cycles: 614750311
ITLB TOTAL     ACCESS:   42507776  HIT:   42507756  MISS:         20  HIT %:        100  MISS %: 4.70502e-05   MPKI: 0.0001
ITLB LOAD TRANSLATION ACCESS:   42507776  HIT:   42507756  MISS:         20  HIT %:        100  MISS %: 4.70502e-05   MPKI: 0.0001
ITLB PREFETCH  REQUESTED:          0  ISSUED:          0  USEFUL:          0  USELESS:          0
ITLB USEFUL LOAD PREFETCHES:          0 PREFETCH ISSUED TO LOWER LEVEL:          0  ACCURACY: -nan
ITLB TIMELY PREFETCHES:          0 LATE PREFETCHES: 0 DROPPED PREFETCHES: 0
ITLB PREFETCHES SAME FILL-ORIGIN LEVEL: 0 DIFFERENT FILL-ORIGIN LEVEL: 0
ITLB AVERAGE MISS LATENCY: 1240.85 cycles
ITLB RQ	ACCESS:   43669404	FORWARD:          0	MERGED:    1068083	TO_CACHE:   42601321

DTLB TOTAL     ACCESS:   41388781  HIT:   41309443  MISS:      79338  HIT %:    99.8083  MISS %:    0.19169   MPKI: 0.39669
DTLB LOAD TRANSLATION ACCESS:   41388781  HIT:   41309443  MISS:      79338  HIT %:    99.8083  MISS %:    0.19169   MPKI: 0.39669
DTLB PREFETCH  REQUESTED:          0  ISSUED:          0  USEFUL:          0  USELESS:          0
DTLB USEFUL LOAD PREFETCHES:          0 PREFETCH ISSUED TO LOWER LEVEL:          0  ACCURACY: -nan
DTLB TIMELY PREFETCHES:          0 LATE PREFETCHES: 0 DROPPED PREFETCHES: 0
DTLB PREFETCHES SAME FILL-ORIGIN LEVEL: 0 DIFFERENT FILL-ORIGIN LEVEL: 0
DTLB AVERAGE MISS LATENCY: 244.712 cycles
DTLB RQ	ACCESS:   50905607	FORWARD:          0	MERGED:    9133651	TO_CACHE:   41771956

STLB TOTAL     ACCESS:    6795173  HIT:    6715817  MISS:      79356  HIT %:    98.8322  MISS %:    1.16783   MPKI: 0.39678
STLB LOAD TRANSLATION ACCESS:      79358  HIT:       7091  MISS:      72267  HIT %:    8.93546  MISS %:    91.0645   MPKI: 0.361335
STLB TRANSLATION FROM L1D PREFETCHER ACCESS:    6715815  HIT:    6708726  MISS:       7089  HIT %:    99.8944  MISS %:   0.105557   MPKI: 0.035445
STLB PREFETCH  REQUESTED:          0  ISSUED:          0  USEFUL:       7260  USELESS:          0
STLB USEFUL LOAD PREFETCHES:       7260 PREFETCH ISSUED TO LOWER LEVEL:          0  ACCURACY: inf
STLB TIMELY PREFETCHES:       7260 LATE PREFETCHES: 8065 DROPPED PREFETCHES: 748177
STLB PREFETCHES SAME FILL-ORIGIN LEVEL: 0 DIFFERENT FILL-ORIGIN LEVEL: 0
STLB AVERAGE MISS LATENCY: 253.085 cycles
STLB RQ	ACCESS:   45861275	FORWARD:          0	MERGED:   38110428	TO_CACHE:    7750847

STLB Hit, L1D data hit: 0
STLB Hit, L2C data hit: 0
STLB Hit, LLC data hit: 0
STLB Hit, LLC data miss: 0
STLB STLB hints to L2: 0
L1D TOTAL     ACCESS:   46144454  HIT:   41071644  MISS:    5072810  HIT %:    89.0067  MISS %:    10.9933   MPKI: 25.364
L1D LOAD      ACCESS:   10044081  HIT:    9351535  MISS:     692546  HIT %:    93.1049  MISS %:    6.89507   MPKI: 3.46273
L1D RFO       ACCESS:   13973944  HIT:   11291775  MISS:    2682169  HIT %:    80.8059  MISS %:    19.1941   MPKI: 13.4108
L1D PREFETCH  ACCESS:   22126429  HIT:   20428334  MISS:    1698095  HIT %:    92.3255  MISS %:    7.67451   MPKI: 8.49047
L1D PREFETCH  REQUESTED:  170514155  ISSUED:  169342519  USEFUL:    1707373  USELESS:         63
L1D USEFUL LOAD PREFETCHES:    1707373 PREFETCH ISSUED TO LOWER LEVEL:    7446909  ACCURACY: 22.9273
L1D TIMELY PREFETCHES:    1707373 LATE PREFETCHES: 363690 DROPPED PREFETCHES: 2401149
L1D PREFETCHES SAME FILL-ORIGIN LEVEL: 2071125 DIFFERENT FILL-ORIGIN LEVEL: 5375784
L1D AVERAGE MISS LATENCY: 1074.44 cycles
L1D RQ	ACCESS:   39450172	FORWARD:          0	MERGED:   28614178	TO_CACHE:   10835972
L1D WQ	ACCESS:   40069635	FORWARD:        126	MERGED:          0	TO_CACHE:   40069635
L1D PQ	ACCESS:  123560873	FORWARD:          0	MERGED:   77779123	TO_CACHE:   45781646

L1D UNIQUE REGIONS ACCESSED: 0
L1D REGIONS CONFLICTS: 0
L1D Cross Page Prefetch Requests: 15802416
L1D Same Page Prefetch Requests: 149155848
L1D ROI Sum of L1D PQ occupancy: 2408574892
L1D PREFETCHES PUSHED FROM L2C: 0
L1I TOTAL     ACCESS:   43572915  HIT:   43572748  MISS:        167  HIT %:    99.9996  MISS %: 0.000383266   MPKI: 0.000835
L1I LOAD      ACCESS:   43572915  HIT:   43572748  MISS:        167  HIT %:    99.9996  MISS %: 0.000383266   MPKI: 0.000835
L1I PREFETCH  REQUESTED:          0  ISSUED:          0  USEFUL:          0  USELESS:          0
L1I USEFUL LOAD PREFETCHES:          0 PREFETCH ISSUED TO LOWER LEVEL:          0  ACCURACY: -nan
L1I TIMELY PREFETCHES:          0 LATE PREFETCHES: 0 DROPPED PREFETCHES: 0
L1I PREFETCHES SAME FILL-ORIGIN LEVEL: 0 DIFFERENT FILL-ORIGIN LEVEL: 0
L1I AVERAGE MISS LATENCY: 1376.09 cycles
L1I RQ	ACCESS:   62253514	FORWARD:          0	MERGED:   18584110	TO_CACHE:   43669404

BTB TOTAL     ACCESS:   28704515  HIT:   28704319  MISS:        196  HIT %:    99.9993  MISS %: 0.000682819   MPKI: 0.00098
BTB BRANCH_DIRECT_JUMP	ACCESS:         87  HIT:         47  MISS:         40
BTB BRANCH_INDIRECT	ACCESS:          2  HIT:          0  MISS:          2
BTB BRANCH_CONDITIONAL	ACCESS:   28704367  HIT:   28704260  MISS:        107
BTB BRANCH_DIRECT_CALL	ACCESS:         30  HIT:          6  MISS:         24
BTB BRANCH_INDIRECT_CALL	ACCESS:          0  HIT:          0  MISS:          0
BTB BRANCH_RETURN	ACCESS:         29  HIT:          6  MISS:         23
BTB BRANCH_OTHER ACCESS:          0  HIT:          0  MISS:          0

L2C TOTAL     ACCESS:   11097769  HIT:    5577959  MISS:    5519810  HIT %:     50.262  MISS %:     49.738   MPKI: 27.599
L2C LOAD      ACCESS:     330689  HIT:     275383  MISS:      55306  HIT %:    83.2755  MISS %:    16.7245   MPKI: 0.27653
L2C DATA LOAD MPKI: 0.275695
L2C INSTRUCTION LOAD MPKI: 0.000835
L2C RFO       ACCESS:    2682169  HIT:          0  MISS:    2682169  HIT %:          0  MISS %:        100   MPKI: 13.4108
L2C PREFETCH  ACCESS:    4314995  HIT:    1978646  MISS:    2336349  HIT %:    45.8551  MISS %:    54.1449   MPKI: 11.6817
L2C DATA PREFETCH MPKI: 11.6817
L2C INSTRUCTION PREFETCH MPKI: 0
L2C WRITEBACK ACCESS:    2934273  HIT:    2498503  MISS:     435770  HIT %:     85.149  MISS %:     14.851   MPKI: 2.17885
L2C LOAD TRANSLATION ACCESS:      72281  HIT:      66337  MISS:       5944  HIT %:    91.7765  MISS %:    8.22346   MPKI: 0.02972
L2C TRANSLATION FROM L1D PREFETCHER ACCESS:     763362  HIT:     759090  MISS:       4272  HIT %:    99.4404  MISS %:    0.55963   MPKI: 0.02136
L2C PREFETCH  REQUESTED:          0  ISSUED:          0  USEFUL:     279857  USELESS:    2072285
L2C USEFUL LOAD PREFETCHES:     279857 PREFETCH ISSUED TO LOWER LEVEL:    2363561  ACCURACY: 11.8405
L2C TIMELY PREFETCHES:     279857 LATE PREFETCHES: 16000 DROPPED PREFETCHES: 0
L2C PREFETCHES SAME FILL-ORIGIN LEVEL: 1381672 DIFFERENT FILL-ORIGIN LEVEL: 0
L2C AVERAGE MISS LATENCY: 1243.12 cycles
L2C RQ	ACCESS:    3855039	FORWARD:          0	MERGED:          0	TO_CACHE:    3855039
L2C WQ	ACCESS:    2940764	FORWARD:          0	MERGED:          0	TO_CACHE:    2940764
L2C PQ	ACCESS:    7436106	FORWARD:          0	MERGED:      53510	TO_CACHE:    7382596

L2C Instructions Evicting Data 167
L2C Translations Evicting Data 10247
L2C Data Evicting Data 5081088
L2C Instructions Evicting Instructions 0
L2C Translations Evicting Instructions 0
L2C Data Evicting Instructions 153
L2C Instructions Evicting Translations 0
L2C Translations Evicting Translations 7
L2C Data Evicting Translations 9673
L2C Dense regions hint from L2: 0
PSCL5 TOTAL     ACCESS:     835593  HIT:     835593  MISS:          0  HIT %:        100  MISS %:          0   MPKI: 0
PSCL5 LOAD TRANSLATION ACCESS:      72268  HIT:      72268  MISS:          0  HIT %:        100  MISS %:          0   MPKI: 0
PSCL5 TRANSLATION FROM L1D PREFETCHER ACCESS:     763325  HIT:     763325  MISS:          0  HIT %:        100  MISS %:          0   MPKI: 0
PSCL5 PREFETCH  REQUESTED:          0  ISSUED:          0  USEFUL:          0  USELESS:          0
PSCL5 USEFUL LOAD PREFETCHES:          0 PREFETCH ISSUED TO LOWER LEVEL:          0  ACCURACY: -nan
PSCL5 TIMELY PREFETCHES:          0 LATE PREFETCHES: 0 DROPPED PREFETCHES: 0
PSCL5 PREFETCHES SAME FILL-ORIGIN LEVEL: 0 DIFFERENT FILL-ORIGIN LEVEL: 0

PSCL4 TOTAL     ACCESS:     835593  HIT:     835592  MISS:          1  HIT %:    99.9999  MISS %: 0.000119675   MPKI: 5e-06
PSCL4 LOAD TRANSLATION ACCESS:      72268  HIT:      72267  MISS:          1  HIT %:    99.9986  MISS %: 0.00138374   MPKI: 5e-06
PSCL4 TRANSLATION FROM L1D PREFETCHER ACCESS:     763325  HIT:     763325  MISS:          0  HIT %:        100  MISS %:          0   MPKI: 0
PSCL4 PREFETCH  REQUESTED:          0  ISSUED:          0  USEFUL:          0  USELESS:          0
PSCL4 USEFUL LOAD PREFETCHES:          0 PREFETCH ISSUED TO LOWER LEVEL:          0  ACCURACY: -nan
PSCL4 TIMELY PREFETCHES:          0 LATE PREFETCHES: 0 DROPPED PREFETCHES: 0
PSCL4 PREFETCHES SAME FILL-ORIGIN LEVEL: 0 DIFFERENT FILL-ORIGIN LEVEL: 0

PSCL3 TOTAL     ACCESS:     835593  HIT:     835592  MISS:          1  HIT %:    99.9999  MISS %: 0.000119675   MPKI: 5e-06
PSCL3 LOAD TRANSLATION ACCESS:      72268  HIT:      72267  MISS:          1  HIT %:    99.9986  MISS %: 0.00138374   MPKI: 5e-06
PSCL3 TRANSLATION FROM L1D PREFETCHER ACCESS:     763325  HIT:     763325  MISS:          0  HIT %:        100  MISS %:          0   MPKI: 0
PSCL3 PREFETCH  REQUESTED:          0  ISSUED:          0  USEFUL:          0  USELESS:          0
PSCL3 USEFUL LOAD PREFETCHES:          0 PREFETCH ISSUED TO LOWER LEVEL:          0  ACCURACY: -nan
PSCL3 TIMELY PREFETCHES:          0 LATE PREFETCHES: 0 DROPPED PREFETCHES: 0
PSCL3 PREFETCHES SAME FILL-ORIGIN LEVEL: 0 DIFFERENT FILL-ORIGIN LEVEL: 0

PSCL2 TOTAL     ACCESS:     834843  HIT:     834675  MISS:        168  HIT %:    99.9799  MISS %:  0.0201235   MPKI: 0.00084
PSCL2 LOAD TRANSLATION ACCESS:      72275  HIT:      72107  MISS:        168  HIT %:    99.7676  MISS %:   0.232446   MPKI: 0.00084
PSCL2 TRANSLATION FROM L1D PREFETCHER ACCESS:     762568  HIT:     762568  MISS:          0  HIT %:        100  MISS %:          0   MPKI: 0
PSCL2 PREFETCH  REQUESTED:          0  ISSUED:          0  USEFUL:          0  USELESS:          0
PSCL2 USEFUL LOAD PREFETCHES:          0 PREFETCH ISSUED TO LOWER LEVEL:          0  ACCURACY: -nan
PSCL2 TIMELY PREFETCHES:          0 LATE PREFETCHES: 0 DROPPED PREFETCHES: 0
PSCL2 PREFETCHES SAME FILL-ORIGIN LEVEL: 0 DIFFERENT FILL-ORIGIN LEVEL: 0

LLC TOTAL     ACCESS:    8015003  HIT:    2829870  MISS:    5185133  HIT %:    35.3072  MISS %:    64.6928   MPKI: 25.9257
LLC LOAD      ACCESS:      39346  HIT:          1  MISS:      39345  HIT %: 0.00254155  MISS %:    99.9975   MPKI: 0.196725
LLC RFO       ACCESS:    2682169  HIT:          0  MISS:    2682169  HIT %:          0  MISS %:        100   MPKI: 13.4108
LLC PREFETCH  ACCESS:    2352309  HIT:        883  MISS:    2351426  HIT %:  0.0375376  MISS %:    99.9625   MPKI: 11.7571
LLC WRITEBACK ACCESS:    2930963  HIT:    2828897  MISS:     102066  HIT %:    96.5177  MISS %:    3.48234   MPKI: 0.51033
LLC LOAD TRANSLATION ACCESS:       5944  HIT:         67  MISS:       5877  HIT %:    1.12719  MISS %:    98.8728   MPKI: 0.029385
LLC TRANSLATION FROM L1D PREFETCHER ACCESS:       4272  HIT:         22  MISS:       4250  HIT %:   0.514981  MISS %:     99.485   MPKI: 0.02125
LLC PREFETCH  REQUESTED:          0  ISSUED:          0  USEFUL:         91  USELESS:    9494221
LLC USEFUL LOAD PREFETCHES:         91 PREFETCH ISSUED TO LOWER LEVEL:  648493370  ACCURACY: 1.40325e-05
LLC TIMELY PREFETCHES:         91 LATE PREFETCHES: 0 DROPPED PREFETCHES: 0
LLC PREFETCHES SAME FILL-ORIGIN LEVEL: 0 DIFFERENT FILL-ORIGIN LEVEL: 0
LLC AVERAGE MISS LATENCY: 4828.08 cycles
LLC RQ	ACCESS:   10936447	FORWARD:          0	MERGED:          0	TO_CACHE:   10936447
LLC WQ	ACCESS:   11732521	FORWARD:          0	MERGED:          0	TO_CACHE:   11732521
LLC PQ	ACCESS:    9416717	FORWARD:          0	MERGED:          0	TO_CACHE:    9416717

LLC Dense regions hint to LLC: 0

RAW hits: 7804
Loads Generated: 39277759
Loads sent to L1D: 39269955
Stores Generated: 39973670
Stores sent to L1D: 39973664
Major fault: 0 Minor fault: 89531
Allocated PAGES: 358124

DRAM Statistics
 CHANNEL 0
 RQ ROW_BUFFER_HIT:   10321888  ROW_BUFFER_MISS:   10028442
 DBUS_CONGESTED:       2236
 WQ ROW_BUFFER_HIT:    2524554  ROW_BUFFER_MISS:    9153728  FULL:      33569

 AVG_CONGESTED_CYCLE: 6
 All warmup complete: 5
Channel 0 Bank busy for read cycles: 0
Channel 0 Bank busy for write cycles: 0
Channel 0
Rank 0
0banks busy for read cycles: 392251
0banks busy for write cycles: 1000
1banks busy for read cycles: 37040036
1banks busy for write cycles: 1319409
2banks busy for read cycles: 23812175
2banks busy for write cycles: 1630658
3banks busy for read cycles: 5434005
3banks busy for write cycles: 1971542
4banks busy for read cycles: 3027036
4banks busy for write cycles: 2150953
5banks busy for read cycles: 5053163
5banks busy for write cycles: 1570119
6banks busy for read cycles: 8561145
6banks busy for write cycles: 1693514
7banks busy for read cycles: 31938593
7banks busy for write cycles: 16152638
8banks busy for read cycles: 233370902
8banks busy for write cycles: 240815191

CPU 0 Branch Prediction Accuracy: 92.8349% MPKI: 11.7396 Average ROB Occupancy at Mispredict: 21.8398
Branch types
NOT_BRANCH: 167230997 83.6155%
BRANCH_DIRECT_JUMP: 87 4.35e-05%
BRANCH_INDIRECT: 2 1e-06%
BRANCH_CONDITIONAL: 32768863 16.3844%
BRANCH_DIRECT_CALL: 30 1.5e-05%
BRANCH_INDIRECT_CALL: 0 0%
BRANCH_RETURN: 29 1.45e-05%
BRANCH_OTHER: 0 0%


CPU 1 Branch Prediction Accuracy: 92.8354% MPKI: 11.7394 Average ROB Occupancy at Mispredict: 21.8342
Branch types
NOT_BRANCH: 167256954 83.6146%
BRANCH_DIRECT_JUMP: 87 4.34928e-05%
BRANCH_INDIRECT: 2 9.99834e-07%
BRANCH_CONDITIONAL: 32775769 16.3852%
BRANCH_DIRECT_CALL: 30 1.49975e-05%
BRANCH_INDIRECT_CALL: 0 0%
BRANCH_RETURN: 29 1.44976e-05%
BRANCH_OTHER: 0 0%


CPU 2 Branch Prediction Accuracy: 92.835% MPKI: 11.7395 Average ROB Occupancy at Mispredict: 21.8264
Branch types
NOT_BRANCH: 167231089 83.6155%
BRANCH_DIRECT_JUMP: 87 4.35e-05%
BRANCH_INDIRECT: 2 9.99999e-07%
BRANCH_CONDITIONAL: 32768893 16.3844%
BRANCH_DIRECT_CALL: 30 1.5e-05%
BRANCH_INDIRECT_CALL: 0 0%
BRANCH_RETURN: 29 1.45e-05%
BRANCH_OTHER: 0 0%


CPU 3 Branch Prediction Accuracy: 92.8461% MPKI: 11.732 Average ROB Occupancy at Mispredict: 21.9155
Branch types
NOT_BRANCH: 167738359 83.6006%
BRANCH_DIRECT_JUMP: 87 4.33607e-05%
BRANCH_INDIRECT: 2 9.96798e-07%
BRANCH_CONDITIONAL: 32904033 16.3993%
BRANCH_DIRECT_CALL: 30 1.4952e-05%
BRANCH_INDIRECT_CALL: 0 0%
BRANCH_RETURN: 29 1.44536e-05%
BRANCH_OTHER: 0 0%

DRAM PAGES: 1048576
Allocated PAGES: 358124
