
*** ChampSim Multicore Out-of-Order Simulator ***

Warmup Instructions: 50000000
Simulation Instructions: 200000000
Number of CPUs: 4
LLC sets: 8192
LLC ways: 16
Off-chip DRAM Size: 4096 MB Channels: 1 Width: 64-bit Data Rate: 6400 MT/s
CPU 0 runs ./traces/cs/classification_phase2_core0.trace.xz
.xz
CPU 1 runs ./traces/cs/classification_phase2_core1.trace.xz
.xz
CPU 2 runs ./traces/cs/classification_phase2_core2.trace.xz
.xz
CPU 3 runs ./traces/cs/classification_phase2_core3.trace.xz
.xz
BTB has LRU replacement policy
ITLB has LRU replacement policy
DTLB has LRU replacement policy
STLB has LRU replacement policy
L1I has LRU replacement policy
History Sets: 8
History Ways: 16
BERTI Size: 16
BERTI Stride Size: 8
L1D has LRU replacement policy
Initialize SRRIP state for L2C
Initialize DRRIP state for LLC
BTB has LRU replacement policy
ITLB has LRU replacement policy
DTLB has LRU replacement policy
STLB has LRU replacement policy
L1I has LRU replacement policy
History Sets: 8
History Ways: 16
BERTI Size: 16
BERTI Stride Size: 8
L1D has LRU replacement policy
Initialize SRRIP state for L2C
Initialize DRRIP state for LLC
BTB has LRU replacement policy
ITLB has LRU replacement policy
DTLB has LRU replacement policy
STLB has LRU replacement policy
L1I has LRU replacement policy
History Sets: 8
History Ways: 16
BERTI Size: 16
BERTI Stride Size: 8
L1D has LRU replacement policy
Initialize SRRIP state for L2C
Initialize DRRIP state for LLC
BTB has LRU replacement policy
ITLB has LRU replacement policy
DTLB has LRU replacement policy
STLB has LRU replacement policy
L1I has LRU replacement policy
History Sets: 8
History Ways: 16
BERTI Size: 16
BERTI Stride Size: 8
L1D has LRU replacement policy
Initialize SRRIP state for L2C
Initialize DRRIP state for LLC
UNIQUE_ASID[0] = 
UNIQUE_ASID[1] = €
Heartbeat CPU 3 instructions: 10000000 cycles: 2633253 heartbeat IPC: 3.79758 cumulative IPC: 3.79758 (Simulation time: 0 hr 1 min 56 sec) 
Heartbeat CPU 1 instructions: 10000002 cycles: 2638773 heartbeat IPC: 3.78964 cumulative IPC: 3.78964 (Simulation time: 0 hr 1 min 56 sec) 
Heartbeat CPU 0 instructions: 10000000 cycles: 2658670 heartbeat IPC: 3.76128 cumulative IPC: 3.76128 (Simulation time: 0 hr 1 min 57 sec) 
Heartbeat CPU 2 instructions: 10000002 cycles: 2659446 heartbeat IPC: 3.76018 cumulative IPC: 3.76018 (Simulation time: 0 hr 1 min 57 sec) 
Heartbeat CPU 3 instructions: 20000002 cycles: 5272709 heartbeat IPC: 3.78866 cumulative IPC: 3.79312 (Simulation time: 0 hr 4 min 19 sec) 
Heartbeat CPU 1 instructions: 20000000 cycles: 5300530 heartbeat IPC: 3.75692 cumulative IPC: 3.77321 (Simulation time: 0 hr 4 min 20 sec) 
Heartbeat CPU 0 instructions: 20000000 cycles: 5310294 heartbeat IPC: 3.77127 cumulative IPC: 3.76627 (Simulation time: 0 hr 4 min 21 sec) 
Heartbeat CPU 2 instructions: 20000000 cycles: 5313166 heartbeat IPC: 3.76829 cumulative IPC: 3.76423 (Simulation time: 0 hr 4 min 21 sec) 
Heartbeat CPU 1 instructions: 30000002 cycles: 7938301 heartbeat IPC: 3.79108 cumulative IPC: 3.77915 (Simulation time: 0 hr 6 min 24 sec) 
Heartbeat CPU 0 instructions: 30000000 cycles: 7965476 heartbeat IPC: 3.76622 cumulative IPC: 3.76625 (Simulation time: 0 hr 6 min 25 sec) 
Heartbeat CPU 2 instructions: 30000002 cycles: 7977279 heartbeat IPC: 3.7536 cumulative IPC: 3.76068 (Simulation time: 0 hr 6 min 25 sec) 
Heartbeat CPU 3 instructions: 30000003 cycles: 7995321 heartbeat IPC: 3.67294 cumulative IPC: 3.75219 (Simulation time: 0 hr 6 min 26 sec) 
Heartbeat CPU 1 instructions: 40000000 cycles: 10576819 heartbeat IPC: 3.79001 cumulative IPC: 3.78186 (Simulation time: 0 hr 8 min 24 sec) 
Heartbeat CPU 0 instructions: 40000000 cycles: 10617425 heartbeat IPC: 3.77081 cumulative IPC: 3.76739 (Simulation time: 0 hr 8 min 26 sec) 
Heartbeat CPU 2 instructions: 40000003 cycles: 10632085 heartbeat IPC: 3.76675 cumulative IPC: 3.7622 (Simulation time: 0 hr 8 min 26 sec) 
Heartbeat CPU 3 instructions: 40000000 cycles: 10633144 heartbeat IPC: 3.791 cumulative IPC: 3.76182 (Simulation time: 0 hr 8 min 26 sec) 
Heartbeat CPU 1 instructions: 50000000 cycles: 13216688 heartbeat IPC: 3.78807 cumulative IPC: 3.7831 (Simulation time: 0 hr 10 min 18 sec) 
Heartbeat CPU 3 instructions: 50000002 cycles: 13262387 heartbeat IPC: 3.80338 cumulative IPC: 3.77006 (Simulation time: 0 hr 10 min 20 sec) 
Heartbeat CPU 0 instructions: 50000000 cycles: 13272426 heartbeat IPC: 3.76648 cumulative IPC: 3.76721 (Simulation time: 0 hr 10 min 21 sec) 
Heartbeat CPU 2 instructions: 50000002 cycles: 13303658 heartbeat IPC: 3.74311 cumulative IPC: 3.75836 (Simulation time: 0 hr 10 min 22 sec) 

Warmup complete CPU 0 instructions: 50115130 cycles: 13303658 (Simulation time: 0 hr 10 min 22 sec) 
Warmup complete CPU 1 instructions: 50323467 cycles: 13303658 (Simulation time: 0 hr 10 min 22 sec) 
Warmup complete CPU 2 instructions: 50000002 cycles: 13303658 (Simulation time: 0 hr 10 min 22 sec) 
Warmup complete CPU 3 instructions: 50146295 cycles: 13303657 (Simulation time: 0 hr 10 min 22 sec) 

Heartbeat CPU 2 instructions: 60000002 cycles: 21332295 heartbeat IPC: 1.24554 cumulative IPC: 1.24554 (Simulation time: 0 hr 12 min 53 sec) 
Heartbeat CPU 0 instructions: 60000002 cycles: 22505884 heartbeat IPC: 1.08302 cumulative IPC: 1.07418 (Simulation time: 0 hr 13 min 13 sec) 
Heartbeat CPU 3 instructions: 60000002 cycles: 23187365 heartbeat IPC: 1.00756 cumulative IPC: 0.996965 (Simulation time: 0 hr 13 min 22 sec) 
Heartbeat CPU 1 instructions: 60000000 cycles: 24450562 heartbeat IPC: 0.890165 cumulative IPC: 0.868092 (Simulation time: 0 hr 13 min 38 sec) 
Heartbeat CPU 0 instructions: 70000000 cycles: 32016225 heartbeat IPC: 1.05149 cumulative IPC: 1.06265 (Simulation time: 0 hr 15 min 34 sec) 
Heartbeat CPU 2 instructions: 70000002 cycles: 32128196 heartbeat IPC: 0.926277 cumulative IPC: 1.06244 (Simulation time: 0 hr 15 min 36 sec) 
Heartbeat CPU 3 instructions: 70000003 cycles: 33042927 heartbeat IPC: 1.01466 cumulative IPC: 1.0058 (Simulation time: 0 hr 15 min 48 sec) 
Heartbeat CPU 1 instructions: 70000002 cycles: 35854142 heartbeat IPC: 0.876918 cumulative IPC: 0.872555 (Simulation time: 0 hr 16 min 41 sec) 
Heartbeat CPU 2 instructions: 80000001 cycles: 41015580 heartbeat IPC: 1.12519 cumulative IPC: 1.08257 (Simulation time: 0 hr 18 min 30 sec) 
Heartbeat CPU 0 instructions: 80000001 cycles: 41721356 heartbeat IPC: 1.03038 cumulative IPC: 1.05163 (Simulation time: 0 hr 18 min 45 sec) 
Heartbeat CPU 3 instructions: 80000000 cycles: 42792328 heartbeat IPC: 1.0257 cumulative IPC: 1.01238 (Simulation time: 0 hr 19 min 8 sec) 
Heartbeat CPU 1 instructions: 80000002 cycles: 45692662 heartbeat IPC: 1.01641 cumulative IPC: 0.916253 (Simulation time: 0 hr 19 min 57 sec) 
Heartbeat CPU 2 instructions: 90000002 cycles: 49775453 heartbeat IPC: 1.14157 cumulative IPC: 1.09674 (Simulation time: 0 hr 21 min 10 sec) 
Heartbeat CPU 3 instructions: 90000002 cycles: 52709371 heartbeat IPC: 1.00837 cumulative IPC: 1.01137 (Simulation time: 0 hr 22 min 4 sec) 
Heartbeat CPU 0 instructions: 90000002 cycles: 53134057 heartbeat IPC: 0.876217 cumulative IPC: 1.00137 (Simulation time: 0 hr 22 min 13 sec) 
Heartbeat CPU 1 instructions: 90000001 cycles: 55141702 heartbeat IPC: 1.05831 cumulative IPC: 0.948336 (Simulation time: 0 hr 22 min 55 sec) 
Heartbeat CPU 2 instructions: 100000001 cycles: 58334719 heartbeat IPC: 1.16832 cumulative IPC: 1.11034 (Simulation time: 0 hr 24 min 2 sec) 
Heartbeat CPU 3 instructions: 100000003 cycles: 62210951 heartbeat IPC: 1.05246 cumulative IPC: 1.01935 (Simulation time: 0 hr 25 min 6 sec) 
Heartbeat CPU 0 instructions: 100000003 cycles: 62418297 heartbeat IPC: 1.07709 cumulative IPC: 1.01568 (Simulation time: 0 hr 25 min 10 sec) 
Heartbeat CPU 1 instructions: 100000001 cycles: 64471185 heartbeat IPC: 1.07187 cumulative IPC: 0.970861 (Simulation time: 0 hr 25 min 40 sec) 
Heartbeat CPU 2 instructions: 110000000 cycles: 70450921 heartbeat IPC: 0.825341 cumulative IPC: 1.04992 (Simulation time: 0 hr 27 min 14 sec) 
Heartbeat CPU 3 instructions: 110000000 cycles: 71398846 heartbeat IPC: 1.08839 cumulative IPC: 1.03027 (Simulation time: 0 hr 27 min 30 sec) 
Heartbeat CPU 0 instructions: 110000000 cycles: 74801862 heartbeat IPC: 0.807522 cumulative IPC: 0.973766 (Simulation time: 0 hr 28 min 31 sec) 
Heartbeat CPU 1 instructions: 110000000 cycles: 75709434 heartbeat IPC: 0.889818 cumulative IPC: 0.956266 (Simulation time: 0 hr 28 min 47 sec) 
Heartbeat CPU 2 instructions: 120000000 cycles: 79688031 heartbeat IPC: 1.08259 cumulative IPC: 1.05447 (Simulation time: 0 hr 30 min 1 sec) 
Heartbeat CPU 3 instructions: 120000003 cycles: 79898872 heartbeat IPC: 1.17647 cumulative IPC: 1.04893 (Simulation time: 0 hr 30 min 5 sec) 
Heartbeat CPU 0 instructions: 120000001 cycles: 84545056 heartbeat IPC: 1.02636 cumulative IPC: 0.980959 (Simulation time: 0 hr 31 min 13 sec) 
Heartbeat CPU 1 instructions: 120000001 cycles: 85844029 heartbeat IPC: 0.986719 cumulative IPC: 0.960521 (Simulation time: 0 hr 31 min 32 sec) 
Heartbeat CPU 2 instructions: 130000000 cycles: 89236720 heartbeat IPC: 1.04726 cumulative IPC: 1.05356 (Simulation time: 0 hr 32 min 24 sec) 
Heartbeat CPU 3 instructions: 130000001 cycles: 89949350 heartbeat IPC: 0.994977 cumulative IPC: 1.04186 (Simulation time: 0 hr 32 min 33 sec) 
Heartbeat CPU 0 instructions: 130000003 cycles: 94281632 heartbeat IPC: 1.02706 cumulative IPC: 0.986501 (Simulation time: 0 hr 33 min 49 sec) 
Heartbeat CPU 1 instructions: 130000001 cycles: 94590453 heartbeat IPC: 1.14332 cumulative IPC: 0.98019 (Simulation time: 0 hr 33 min 54 sec) 
Heartbeat CPU 2 instructions: 140000003 cycles: 98090796 heartbeat IPC: 1.12942 cumulative IPC: 1.06148 (Simulation time: 0 hr 35 min 5 sec) 
Heartbeat CPU 3 instructions: 140000000 cycles: 101129627 heartbeat IPC: 0.894432 cumulative IPC: 1.02309 (Simulation time: 0 hr 35 min 56 sec) 
Heartbeat CPU 1 instructions: 140000001 cycles: 102907393 heartbeat IPC: 1.20237 cumulative IPC: 1.00081 (Simulation time: 0 hr 36 min 31 sec) 
Heartbeat CPU 0 instructions: 140000001 cycles: 103448927 heartbeat IPC: 1.09083 cumulative IPC: 0.997111 (Simulation time: 0 hr 36 min 42 sec) 
Heartbeat CPU 2 instructions: 150000002 cycles: 107642112 heartbeat IPC: 1.04698 cumulative IPC: 1.06001 (Simulation time: 0 hr 38 min 7 sec) 
Heartbeat CPU 1 instructions: 150000003 cycles: 111323857 heartbeat IPC: 1.18815 cumulative IPC: 1.0169 (Simulation time: 0 hr 39 min 26 sec) 
Heartbeat CPU 3 instructions: 150000002 cycles: 111388885 heartbeat IPC: 0.97473 cumulative IPC: 1.01803 (Simulation time: 0 hr 39 min 28 sec) 
Heartbeat CPU 0 instructions: 150000002 cycles: 112875835 heartbeat IPC: 1.06079 cumulative IPC: 1.00314 (Simulation time: 0 hr 40 min 2 sec) 
Heartbeat CPU 2 instructions: 160000003 cycles: 115595709 heartbeat IPC: 1.25729 cumulative IPC: 1.07535 (Simulation time: 0 hr 40 min 55 sec) 
Heartbeat CPU 3 instructions: 160000003 cycles: 121148973 heartbeat IPC: 1.02458 cumulative IPC: 1.01862 (Simulation time: 0 hr 42 min 25 sec) 
Heartbeat CPU 0 instructions: 160000002 cycles: 121992681 heartbeat IPC: 1.09687 cumulative IPC: 1.011 (Simulation time: 0 hr 42 min 37 sec) 
Heartbeat CPU 1 instructions: 160000001 cycles: 122390861 heartbeat IPC: 0.903587 cumulative IPC: 1.0054 (Simulation time: 0 hr 42 min 45 sec) 
Heartbeat CPU 2 instructions: 170000001 cycles: 125971470 heartbeat IPC: 0.963785 cumulative IPC: 1.06508 (Simulation time: 0 hr 43 min 57 sec) 
Heartbeat CPU 3 instructions: 170000000 cycles: 130880077 heartbeat IPC: 1.02763 cumulative IPC: 1.01937 (Simulation time: 0 hr 45 min 21 sec) 
Heartbeat CPU 0 instructions: 170000000 cycles: 131370873 heartbeat IPC: 1.0663 cumulative IPC: 1.0154 (Simulation time: 0 hr 45 min 28 sec) 
Heartbeat CPU 1 instructions: 170000001 cycles: 133354166 heartbeat IPC: 0.912134 cumulative IPC: 0.996885 (Simulation time: 0 hr 45 min 55 sec) 
Heartbeat CPU 2 instructions: 180000001 cycles: 134765826 heartbeat IPC: 1.13709 cumulative IPC: 1.07029 (Simulation time: 0 hr 46 min 18 sec) 
Heartbeat CPU 3 instructions: 180000001 cycles: 140547835 heartbeat IPC: 1.03437 cumulative IPC: 1.02051 (Simulation time: 0 hr 48 min 0 sec) 
Heartbeat CPU 0 instructions: 180000001 cycles: 140812671 heartbeat IPC: 1.05912 cumulative IPC: 1.01863 (Simulation time: 0 hr 48 min 6 sec) 
Heartbeat CPU 1 instructions: 180000001 cycles: 143062622 heartbeat IPC: 1.03003 cumulative IPC: 0.999365 (Simulation time: 0 hr 48 min 47 sec) 
Heartbeat CPU 2 instructions: 190000000 cycles: 143460784 heartbeat IPC: 1.15009 cumulative IPC: 1.07562 (Simulation time: 0 hr 48 min 54 sec) 
Heartbeat CPU 3 instructions: 190000001 cycles: 150491118 heartbeat IPC: 1.0057 cumulative IPC: 1.01944 (Simulation time: 0 hr 50 min 56 sec) 
Heartbeat CPU 0 instructions: 190000002 cycles: 151920565 heartbeat IPC: 0.900261 cumulative IPC: 1.00915 (Simulation time: 0 hr 51 min 22 sec) 
Heartbeat CPU 2 instructions: 200000001 cycles: 151953200 heartbeat IPC: 1.17752 cumulative IPC: 1.08186 (Simulation time: 0 hr 51 min 23 sec) 
Heartbeat CPU 1 instructions: 190000003 cycles: 152466526 heartbeat IPC: 1.06339 cumulative IPC: 1.00369 (Simulation time: 0 hr 51 min 31 sec) 
Heartbeat CPU 3 instructions: 200000001 cycles: 160100821 heartbeat IPC: 1.04061 cumulative IPC: 1.02082 (Simulation time: 0 hr 53 min 28 sec) 
Heartbeat CPU 0 instructions: 200000003 cycles: 161211540 heartbeat IPC: 1.07631 cumulative IPC: 1.01337 (Simulation time: 0 hr 53 min 43 sec) 
Heartbeat CPU 1 instructions: 200000000 cycles: 161722779 heartbeat IPC: 1.08035 cumulative IPC: 1.00847 (Simulation time: 0 hr 53 min 50 sec) 
Heartbeat CPU 2 instructions: 210000002 cycles: 163426415 heartbeat IPC: 0.871595 cumulative IPC: 1.06579 (Simulation time: 0 hr 54 min 20 sec) 
Heartbeat CPU 3 instructions: 210000001 cycles: 169244223 heartbeat IPC: 1.09368 cumulative IPC: 1.02509 (Simulation time: 0 hr 56 min 7 sec) 
Heartbeat CPU 2 instructions: 220000000 cycles: 172840913 heartbeat IPC: 1.06219 cumulative IPC: 1.06558 (Simulation time: 0 hr 57 min 19 sec) 
Heartbeat CPU 1 instructions: 210000002 cycles: 173037896 heartbeat IPC: 0.883774 cumulative IPC: 0.999639 (Simulation time: 0 hr 57 min 22 sec) 
Heartbeat CPU 0 instructions: 210000001 cycles: 173397031 heartbeat IPC: 0.820648 cumulative IPC: 0.998698 (Simulation time: 0 hr 57 min 27 sec) 
Heartbeat CPU 3 instructions: 220000000 cycles: 177706182 heartbeat IPC: 1.18176 cumulative IPC: 1.03316 (Simulation time: 0 hr 58 min 43 sec) 
Heartbeat CPU 2 instructions: 230000000 cycles: 182312661 heartbeat IPC: 1.05577 cumulative IPC: 1.06503 (Simulation time: 1 hr 0 min 9 sec) 
Heartbeat CPU 0 instructions: 220000000 cycles: 183037242 heartbeat IPC: 1.03732 cumulative IPC: 1.00089 (Simulation time: 1 hr 0 min 21 sec) 
Heartbeat CPU 1 instructions: 220000000 cycles: 183121860 heartbeat IPC: 0.991673 cumulative IPC: 0.999166 (Simulation time: 1 hr 0 min 23 sec) 
Heartbeat CPU 3 instructions: 230000000 cycles: 187680448 heartbeat IPC: 1.00258 cumulative IPC: 1.03141 (Simulation time: 1 hr 1 min 41 sec) 
Heartbeat CPU 2 instructions: 240000003 cycles: 191154850 heartbeat IPC: 1.13094 cumulative IPC: 1.06831 (Simulation time: 1 hr 2 min 31 sec) 
Heartbeat CPU 1 instructions: 230000001 cycles: 191804365 heartbeat IPC: 1.15174 cumulative IPC: 1.00659 (Simulation time: 1 hr 2 min 42 sec) 
Heartbeat CPU 0 instructions: 230000003 cycles: 192628976 heartbeat IPC: 1.04256 cumulative IPC: 1.00312 (Simulation time: 1 hr 2 min 53 sec) 
Heartbeat CPU 3 instructions: 240000003 cycles: 198874853 heartbeat IPC: 0.893304 cumulative IPC: 1.02308 (Simulation time: 1 hr 4 min 36 sec) 
Heartbeat CPU 1 instructions: 240000000 cycles: 200107761 heartbeat IPC: 1.20433 cumulative IPC: 1.01538 (Simulation time: 1 hr 4 min 53 sec) 
Heartbeat CPU 2 instructions: 250000000 cycles: 200655597 heartbeat IPC: 1.05255 cumulative IPC: 1.06751 (Simulation time: 1 hr 5 min 0 sec) 
Finished CPU 2 instructions: 200000000 cycles: 187351947 cumulative IPC: 1.06751 (Simulation time: 1 hr 5 min 0 sec) 
Heartbeat CPU 0 instructions: 240000000 cycles: 201764354 heartbeat IPC: 1.09465 cumulative IPC: 1.00756 (Simulation time: 1 hr 5 min 16 sec) 
Heartbeat CPU 1 instructions: 250000000 cycles: 208491603 heartbeat IPC: 1.19277 cumulative IPC: 1.023 (Simulation time: 1 hr 6 min 53 sec) 
Heartbeat CPU 2 instructions: 260000001 cycles: 208596204 heartbeat IPC: 1.25935 cumulative IPC: 1.07531 (Simulation time: 1 hr 6 min 55 sec) 
Finished CPU 1 instructions: 200000003 cycles: 195479082 cumulative IPC: 1.02313 (Simulation time: 1 hr 6 min 58 sec) 
Heartbeat CPU 3 instructions: 250000001 cycles: 209128721 heartbeat IPC: 0.975242 cumulative IPC: 1.02057 (Simulation time: 1 hr 7 min 4 sec) 
Finished CPU 3 instructions: 200000001 cycles: 195924501 cumulative IPC: 1.0208 (Simulation time: 1 hr 7 min 6 sec) 
Heartbeat CPU 0 instructions: 250000000 cycles: 211023709 heartbeat IPC: 1.07999 cumulative IPC: 1.01095 (Simulation time: 1 hr 7 min 41 sec) 
Finished CPU 0 instructions: 200000002 cycles: 197832174 cumulative IPC: 1.01096 (Simulation time: 1 hr 7 min 43 sec) 

ChampSim completed all CPUs

Total Simulation Statistics (not including warmup)

CPU 0 cumulative IPC: 1.01096 instructions: 200000002 cycles: 197832174
ITLB TOTAL     ACCESS:   28567525  HIT:   27346106  MISS:    1221419  HIT %:    95.7244  MISS %:    4.27555   MPKI: 6.10709
ITLB LOAD      ACCESS:          0  HIT:          0  MISS:          0  HIT %:       -nan  MISS %:       -nan   MPKI: 0
ITLB RFO       ACCESS:          0  HIT:          0  MISS:          0  HIT %:       -nan  MISS %:       -nan   MPKI: 0
ITLB PREFETCH  ACCESS:          0  HIT:          0  MISS:          0  HIT %:       -nan  MISS %:       -nan   MPKI: 0
ITLB WRITEBACK ACCESS:          0  HIT:          0  MISS:          0  HIT %:       -nan  MISS %:       -nan   MPKI: 0
DTLB TOTAL     ACCESS:   15624435  HIT:    7251761  MISS:    8372674  HIT %:    46.4129  MISS %:    53.5871   MPKI: 41.8634
DTLB LOAD      ACCESS:          0  HIT:          0  MISS:          0  HIT %:       -nan  MISS %:       -nan   MPKI: 0
DTLB RFO       ACCESS:          0  HIT:          0  MISS:          0  HIT %:       -nan  MISS %:       -nan   MPKI: 0
DTLB PREFETCH  ACCESS:          0  HIT:          0  MISS:          0  HIT %:       -nan  MISS %:       -nan   MPKI: 0
DTLB WRITEBACK ACCESS:          0  HIT:          0  MISS:          0  HIT %:       -nan  MISS %:       -nan   MPKI: 0
STLB TOTAL     ACCESS:   13146596  HIT:    7866817  MISS:    5279779  HIT %:    59.8392  MISS %:    40.1608   MPKI: 26.3989
STLB LOAD      ACCESS:          0  HIT:          0  MISS:          0  HIT %:       -nan  MISS %:       -nan   MPKI: 0
STLB RFO       ACCESS:          0  HIT:          0  MISS:          0  HIT %:       -nan  MISS %:       -nan   MPKI: 0
STLB PREFETCH  ACCESS:          0  HIT:          0  MISS:          0  HIT %:       -nan  MISS %:       -nan   MPKI: 0
STLB WRITEBACK ACCESS:          0  HIT:          0  MISS:          0  HIT %:       -nan  MISS %:       -nan   MPKI: 0
L1D TOTAL     ACCESS:   25151903  HIT:   23603017  MISS:    1548886  HIT %:    93.8419  MISS %:    6.15813   MPKI: 7.74443
L1D LOAD      ACCESS:   14326305  HIT:   13045896  MISS:    1280409  HIT %:    91.0625  MISS %:    8.93747   MPKI: 6.40204
L1D RFO       ACCESS:    2993982  HIT:    2901340  MISS:      92642  HIT %:    96.9057  MISS %:    3.09427   MPKI: 0.46321
L1D PREFETCH  ACCESS:    7831616  HIT:    7655781  MISS:     175835  HIT %:    97.7548  MISS %:    2.24519   MPKI: 0.879175
L1D WRITEBACK ACCESS:          0  HIT:          0  MISS:          0  HIT %:       -nan  MISS %:       -nan   MPKI: 0
L1I TOTAL     ACCESS:   37921573  HIT:   37905071  MISS:      16502  HIT %:    99.9565  MISS %:  0.0435161   MPKI: 0.08251
L1I LOAD      ACCESS:   37921573  HIT:   37905071  MISS:      16502  HIT %:    99.9565  MISS %:  0.0435161   MPKI: 0.08251
L1I RFO       ACCESS:          0  HIT:          0  MISS:          0  HIT %:       -nan  MISS %:       -nan   MPKI: 0
L1I PREFETCH  ACCESS:          0  HIT:          0  MISS:          0  HIT %:       -nan  MISS %:       -nan   MPKI: 0
L1I WRITEBACK ACCESS:          0  HIT:          0  MISS:          0  HIT %:       -nan  MISS %:       -nan   MPKI: 0
L2C TOTAL     ACCESS:   11726946  HIT:   10246623  MISS:    1480323  HIT %:    87.3767  MISS %:    12.6233   MPKI: 7.40161
L2C LOAD      ACCESS:    1296294  HIT:     385721  MISS:     910573  HIT %:    29.7557  MISS %:    70.2443   MPKI: 4.55286
L2C RFO       ACCESS:      92631  HIT:      53688  MISS:      38943  HIT %:     57.959  MISS %:     42.041   MPKI: 0.194715
L2C PREFETCH  ACCESS:    4388239  HIT:    4037309  MISS:     350930  HIT %:    92.0029  MISS %:    7.99706   MPKI: 1.75465
L2C WRITEBACK ACCESS:     121866  HIT:     113754  MISS:       8112  HIT %:    93.3435  MISS %:    6.65649   MPKI: 0.04056
PSCL5 TOTAL     ACCESS:    5331085  HIT:    5331085  MISS:          0  HIT %:        100  MISS %:          0   MPKI: 0
PSCL5 LOAD      ACCESS:          0  HIT:          0  MISS:          0  HIT %:       -nan  MISS %:       -nan   MPKI: 0
PSCL5 RFO       ACCESS:          0  HIT:          0  MISS:          0  HIT %:       -nan  MISS %:       -nan   MPKI: 0
PSCL5 PREFETCH  ACCESS:          0  HIT:          0  MISS:          0  HIT %:       -nan  MISS %:       -nan   MPKI: 0
PSCL5 WRITEBACK ACCESS:          0  HIT:          0  MISS:          0  HIT %:       -nan  MISS %:       -nan   MPKI: 0
PSCL4 TOTAL     ACCESS:    5331085  HIT:    5331085  MISS:          0  HIT %:        100  MISS %:          0   MPKI: 0
PSCL4 LOAD      ACCESS:          0  HIT:          0  MISS:          0  HIT %:       -nan  MISS %:       -nan   MPKI: 0
PSCL4 RFO       ACCESS:          0  HIT:          0  MISS:          0  HIT %:       -nan  MISS %:       -nan   MPKI: 0
PSCL4 PREFETCH  ACCESS:          0  HIT:          0  MISS:          0  HIT %:       -nan  MISS %:       -nan   MPKI: 0
PSCL4 WRITEBACK ACCESS:          0  HIT:          0  MISS:          0  HIT %:       -nan  MISS %:       -nan   MPKI: 0
PSCL3 TOTAL     ACCESS:    5330686  HIT:    5330605  MISS:         81  HIT %:    99.9985  MISS %:  0.0015195   MPKI: 0.000405
PSCL3 LOAD      ACCESS:          0  HIT:          0  MISS:          0  HIT %:       -nan  MISS %:       -nan   MPKI: 0
PSCL3 RFO       ACCESS:          0  HIT:          0  MISS:          0  HIT %:       -nan  MISS %:       -nan   MPKI: 0
PSCL3 PREFETCH  ACCESS:          0  HIT:          0  MISS:          0  HIT %:       -nan  MISS %:       -nan   MPKI: 0
PSCL3 WRITEBACK ACCESS:          0  HIT:          0  MISS:          0  HIT %:       -nan  MISS %:       -nan   MPKI: 0
PSCL2 TOTAL     ACCESS:    5330036  HIT:    4833417  MISS:     496619  HIT %:    90.6826  MISS %:    9.31737   MPKI: 2.48309
PSCL2 LOAD      ACCESS:          0  HIT:          0  MISS:          0  HIT %:       -nan  MISS %:       -nan   MPKI: 0
PSCL2 RFO       ACCESS:          0  HIT:          0  MISS:          0  HIT %:       -nan  MISS %:       -nan   MPKI: 0
PSCL2 PREFETCH  ACCESS:          0  HIT:          0  MISS:          0  HIT %:       -nan  MISS %:       -nan   MPKI: 0
PSCL2 WRITEBACK ACCESS:          0  HIT:          0  MISS:          0  HIT %:       -nan  MISS %:       -nan   MPKI: 0
LLC TOTAL     ACCESS:    1534600  HIT:    1272461  MISS:     262139  HIT %:    82.9181  MISS %:    17.0819   MPKI: 1.31069
LLC LOAD      ACCESS:     909765  HIT:     761398  MISS:     148367  HIT %:    83.6917  MISS %:    16.3083   MPKI: 0.741835
LLC RFO       ACCESS:      38942  HIT:       3719  MISS:      35223  HIT %:     9.5501  MISS %:    90.4499   MPKI: 0.176115
LLC PREFETCH  ACCESS:     351739  HIT:     289993  MISS:      61746  HIT %:    82.4455  MISS %:    17.5545   MPKI: 0.30873
LLC WRITEBACK ACCESS:      62389  HIT:      57433  MISS:       4956  HIT %:    92.0563  MISS %:    7.94371   MPKI: 0.02478

RAW hits: 436112
Loads Generated: 22796889
Loads sent to L1D: 22360777
Stores Generated: 3316582
Stores sent to L1D: 3316582

CPU 1 cumulative IPC: 1.02537 instructions: 202850446 cycles: 197832174
ITLB TOTAL     ACCESS:   28989442  HIT:   27574257  MISS:    1415185  HIT %:    95.1183  MISS %:    4.88173   MPKI: 6.97649
ITLB LOAD      ACCESS:          0  HIT:          0  MISS:          0  HIT %:       -nan  MISS %:       -nan   MPKI: 0
ITLB RFO       ACCESS:          0  HIT:          0  MISS:          0  HIT %:       -nan  MISS %:       -nan   MPKI: 0
ITLB PREFETCH  ACCESS:          0  HIT:          0  MISS:          0  HIT %:       -nan  MISS %:       -nan   MPKI: 0
ITLB WRITEBACK ACCESS:          0  HIT:          0  MISS:          0  HIT %:       -nan  MISS %:       -nan   MPKI: 0
DTLB TOTAL     ACCESS:   15595860  HIT:    7308347  MISS:    8287513  HIT %:    46.8608  MISS %:    53.1392   MPKI: 40.8553
DTLB LOAD      ACCESS:          0  HIT:          0  MISS:          0  HIT %:       -nan  MISS %:       -nan   MPKI: 0
DTLB RFO       ACCESS:          0  HIT:          0  MISS:          0  HIT %:       -nan  MISS %:       -nan   MPKI: 0
DTLB PREFETCH  ACCESS:          0  HIT:          0  MISS:          0  HIT %:       -nan  MISS %:       -nan   MPKI: 0
DTLB WRITEBACK ACCESS:          0  HIT:          0  MISS:          0  HIT %:       -nan  MISS %:       -nan   MPKI: 0
STLB TOTAL     ACCESS:   13625954  HIT:    8152057  MISS:    5473897  HIT %:    59.8274  MISS %:    40.1726   MPKI: 26.9849
STLB LOAD      ACCESS:          0  HIT:          0  MISS:          0  HIT %:       -nan  MISS %:       -nan   MPKI: 0
STLB RFO       ACCESS:          0  HIT:          0  MISS:          0  HIT %:       -nan  MISS %:       -nan   MPKI: 0
STLB PREFETCH  ACCESS:          0  HIT:          0  MISS:          0  HIT %:       -nan  MISS %:       -nan   MPKI: 0
STLB WRITEBACK ACCESS:          0  HIT:          0  MISS:          0  HIT %:       -nan  MISS %:       -nan   MPKI: 0
L1D TOTAL     ACCESS:   24257726  HIT:   22804292  MISS:    1453434  HIT %:    94.0084  MISS %:    5.99163   MPKI: 7.16505
L1D LOAD      ACCESS:   14131273  HIT:   12867974  MISS:    1263299  HIT %:    91.0603  MISS %:    8.93974   MPKI: 6.22774
L1D RFO       ACCESS:    3086774  HIT:    3026093  MISS:      60681  HIT %:    98.0342  MISS %:    1.96584   MPKI: 0.299142
L1D PREFETCH  ACCESS:    7039679  HIT:    6910225  MISS:     129454  HIT %:    98.1611  MISS %:    1.83892   MPKI: 0.638175
L1D WRITEBACK ACCESS:          0  HIT:          0  MISS:          0  HIT %:       -nan  MISS %:       -nan   MPKI: 0
L1I TOTAL     ACCESS:   38402800  HIT:   38382114  MISS:      20686  HIT %:    99.9461  MISS %:  0.0538659   MPKI: 0.101977
L1I LOAD      ACCESS:   38402800  HIT:   38382114  MISS:      20686  HIT %:    99.9461  MISS %:  0.0538659   MPKI: 0.101977
L1I RFO       ACCESS:          0  HIT:          0  MISS:          0  HIT %:       -nan  MISS %:       -nan   MPKI: 0
L1I PREFETCH  ACCESS:          0  HIT:          0  MISS:          0  HIT %:       -nan  MISS %:       -nan   MPKI: 0
L1I WRITEBACK ACCESS:          0  HIT:          0  MISS:          0  HIT %:       -nan  MISS %:       -nan   MPKI: 0
L2C TOTAL     ACCESS:   12648785  HIT:   11319152  MISS:    1329633  HIT %:    89.4881  MISS %:    10.5119   MPKI: 6.55475
L2C LOAD      ACCESS:    1283390  HIT:     470004  MISS:     813386  HIT %:    36.6221  MISS %:    63.3779   MPKI: 4.00978
L2C RFO       ACCESS:      60672  HIT:      25372  MISS:      35300  HIT %:    41.8183  MISS %:    58.1817   MPKI: 0.17402
L2C PREFETCH  ACCESS:    5107073  HIT:    4795812  MISS:     311261  HIT %:    93.9053  MISS %:     6.0947   MPKI: 1.53444
L2C WRITEBACK ACCESS:      87557  HIT:      79909  MISS:       7648  HIT %:    91.2651  MISS %:    8.73488   MPKI: 0.0377027
PSCL5 TOTAL     ACCESS:    5521773  HIT:    5521773  MISS:          0  HIT %:        100  MISS %:          0   MPKI: 0
PSCL5 LOAD      ACCESS:          0  HIT:          0  MISS:          0  HIT %:       -nan  MISS %:       -nan   MPKI: 0
PSCL5 RFO       ACCESS:          0  HIT:          0  MISS:          0  HIT %:       -nan  MISS %:       -nan   MPKI: 0
PSCL5 PREFETCH  ACCESS:          0  HIT:          0  MISS:          0  HIT %:       -nan  MISS %:       -nan   MPKI: 0
PSCL5 WRITEBACK ACCESS:          0  HIT:          0  MISS:          0  HIT %:       -nan  MISS %:       -nan   MPKI: 0
PSCL4 TOTAL     ACCESS:    5521773  HIT:    5521773  MISS:          0  HIT %:        100  MISS %:          0   MPKI: 0
PSCL4 LOAD      ACCESS:          0  HIT:          0  MISS:          0  HIT %:       -nan  MISS %:       -nan   MPKI: 0
PSCL4 RFO       ACCESS:          0  HIT:          0  MISS:          0  HIT %:       -nan  MISS %:       -nan   MPKI: 0
PSCL4 PREFETCH  ACCESS:          0  HIT:          0  MISS:          0  HIT %:       -nan  MISS %:       -nan   MPKI: 0
PSCL4 WRITEBACK ACCESS:          0  HIT:          0  MISS:          0  HIT %:       -nan  MISS %:       -nan   MPKI: 0
PSCL3 TOTAL     ACCESS:    5520665  HIT:    5520555  MISS:        110  HIT %:     99.998  MISS %: 0.00199251   MPKI: 0.000542271
PSCL3 LOAD      ACCESS:          0  HIT:          0  MISS:          0  HIT %:       -nan  MISS %:       -nan   MPKI: 0
PSCL3 RFO       ACCESS:          0  HIT:          0  MISS:          0  HIT %:       -nan  MISS %:       -nan   MPKI: 0
PSCL3 PREFETCH  ACCESS:          0  HIT:          0  MISS:          0  HIT %:       -nan  MISS %:       -nan   MPKI: 0
PSCL3 WRITEBACK ACCESS:          0  HIT:          0  MISS:          0  HIT %:       -nan  MISS %:       -nan   MPKI: 0
PSCL2 TOTAL     ACCESS:    5521666  HIT:    4933545  MISS:     588121  HIT %:    89.3488  MISS %:    10.6512   MPKI: 2.89928
PSCL2 LOAD      ACCESS:          0  HIT:          0  MISS:          0  HIT %:       -nan  MISS %:       -nan   MPKI: 0
PSCL2 RFO       ACCESS:          0  HIT:          0  MISS:          0  HIT %:       -nan  MISS %:       -nan   MPKI: 0
PSCL2 PREFETCH  ACCESS:          0  HIT:          0  MISS:          0  HIT %:       -nan  MISS %:       -nan   MPKI: 0
PSCL2 WRITEBACK ACCESS:          0  HIT:          0  MISS:          0  HIT %:       -nan  MISS %:       -nan   MPKI: 0
LLC TOTAL     ACCESS:    1386945  HIT:    1120270  MISS:     266675  HIT %:    80.7725  MISS %:    19.2275   MPKI: 1.31464
LLC LOAD      ACCESS:     812307  HIT:     665865  MISS:     146442  HIT %:    81.9721  MISS %:    18.0279   MPKI: 0.721921
LLC RFO       ACCESS:      35296  HIT:       3082  MISS:      32214  HIT %:    8.73187  MISS %:    91.2681   MPKI: 0.158807
LLC PREFETCH  ACCESS:     312344  HIT:     243816  MISS:      68528  HIT %:    78.0601  MISS %:    21.9399   MPKI: 0.337825
LLC WRITEBACK ACCESS:      64960  HIT:      59334  MISS:       5626  HIT %:    91.3393  MISS %:    8.66071   MPKI: 0.0277347

RAW hits: 465368
Loads Generated: 23097161
Loads sent to L1D: 22631793
Stores Generated: 3420311
Stores sent to L1D: 3420311

CPU 2 cumulative IPC: 1.07537 instructions: 212742402 cycles: 197832174
ITLB TOTAL     ACCESS:   30373546  HIT:   28956485  MISS:    1417061  HIT %:    95.3346  MISS %:    4.66544   MPKI: 6.66092
ITLB LOAD      ACCESS:          0  HIT:          0  MISS:          0  HIT %:       -nan  MISS %:       -nan   MPKI: 0
ITLB RFO       ACCESS:          0  HIT:          0  MISS:          0  HIT %:       -nan  MISS %:       -nan   MPKI: 0
ITLB PREFETCH  ACCESS:          0  HIT:          0  MISS:          0  HIT %:       -nan  MISS %:       -nan   MPKI: 0
ITLB WRITEBACK ACCESS:          0  HIT:          0  MISS:          0  HIT %:       -nan  MISS %:       -nan   MPKI: 0
DTLB TOTAL     ACCESS:   16694098  HIT:    8184970  MISS:    8509128  HIT %:    49.0291  MISS %:    50.9709   MPKI: 39.9973
DTLB LOAD      ACCESS:          0  HIT:          0  MISS:          0  HIT %:       -nan  MISS %:       -nan   MPKI: 0
DTLB RFO       ACCESS:          0  HIT:          0  MISS:          0  HIT %:       -nan  MISS %:       -nan   MPKI: 0
DTLB PREFETCH  ACCESS:          0  HIT:          0  MISS:          0  HIT %:       -nan  MISS %:       -nan   MPKI: 0
DTLB WRITEBACK ACCESS:          0  HIT:          0  MISS:          0  HIT %:       -nan  MISS %:       -nan   MPKI: 0
STLB TOTAL     ACCESS:   13755445  HIT:    8472039  MISS:    5283406  HIT %:    61.5904  MISS %:    38.4096   MPKI: 24.8348
STLB LOAD      ACCESS:          0  HIT:          0  MISS:          0  HIT %:       -nan  MISS %:       -nan   MPKI: 0
STLB RFO       ACCESS:          0  HIT:          0  MISS:          0  HIT %:       -nan  MISS %:       -nan   MPKI: 0
STLB PREFETCH  ACCESS:          0  HIT:          0  MISS:          0  HIT %:       -nan  MISS %:       -nan   MPKI: 0
STLB WRITEBACK ACCESS:          0  HIT:          0  MISS:          0  HIT %:       -nan  MISS %:       -nan   MPKI: 0
L1D TOTAL     ACCESS:   25775472  HIT:   24199493  MISS:    1575979  HIT %:    93.8857  MISS %:    6.11426   MPKI: 7.40792
L1D LOAD      ACCESS:   15403968  HIT:   13992666  MISS:    1411302  HIT %:    90.8381  MISS %:    9.16194   MPKI: 6.63385
L1D RFO       ACCESS:    3302379  HIT:    3252462  MISS:      49917  HIT %:    98.4885  MISS %:    1.51155   MPKI: 0.234636
L1D PREFETCH  ACCESS:    7069125  HIT:    6954365  MISS:     114760  HIT %:    98.3766  MISS %:     1.6234   MPKI: 0.539432
L1D WRITEBACK ACCESS:          0  HIT:          0  MISS:          0  HIT %:       -nan  MISS %:       -nan   MPKI: 0
L1I TOTAL     ACCESS:   40348543  HIT:   40321071  MISS:      27472  HIT %:    99.9319  MISS %:  0.0680867   MPKI: 0.129133
L1I LOAD      ACCESS:   40348543  HIT:   40321071  MISS:      27472  HIT %:    99.9319  MISS %:  0.0680867   MPKI: 0.129133
L1I RFO       ACCESS:          0  HIT:          0  MISS:          0  HIT %:       -nan  MISS %:       -nan   MPKI: 0
L1I PREFETCH  ACCESS:          0  HIT:          0  MISS:          0  HIT %:       -nan  MISS %:       -nan   MPKI: 0
L1I WRITEBACK ACCESS:          0  HIT:          0  MISS:          0  HIT %:       -nan  MISS %:       -nan   MPKI: 0
L2C TOTAL     ACCESS:   12940999  HIT:   11663179  MISS:    1277820  HIT %:    90.1258  MISS %:     9.8742   MPKI: 6.00642
L2C LOAD      ACCESS:    1438103  HIT:     619208  MISS:     818895  HIT %:    43.0573  MISS %:    56.9427   MPKI: 3.84923
L2C RFO       ACCESS:      49905  HIT:      20028  MISS:      29877  HIT %:    40.1323  MISS %:    59.8677   MPKI: 0.140437
L2C PREFETCH  ACCESS:    5485365  HIT:    5222333  MISS:     263032  HIT %:    95.2048  MISS %:    4.79516   MPKI: 1.23639
L2C WRITEBACK ACCESS:      75406  HIT:      66949  MISS:       8457  HIT %:    88.7847  MISS %:    11.2153   MPKI: 0.0397523
PSCL5 TOTAL     ACCESS:    5337866  HIT:    5337866  MISS:          0  HIT %:        100  MISS %:          0   MPKI: 0
PSCL5 LOAD      ACCESS:          0  HIT:          0  MISS:          0  HIT %:       -nan  MISS %:       -nan   MPKI: 0
PSCL5 RFO       ACCESS:          0  HIT:          0  MISS:          0  HIT %:       -nan  MISS %:       -nan   MPKI: 0
PSCL5 PREFETCH  ACCESS:          0  HIT:          0  MISS:          0  HIT %:       -nan  MISS %:       -nan   MPKI: 0
PSCL5 WRITEBACK ACCESS:          0  HIT:          0  MISS:          0  HIT %:       -nan  MISS %:       -nan   MPKI: 0
PSCL4 TOTAL     ACCESS:    5337866  HIT:    5337866  MISS:          0  HIT %:        100  MISS %:          0   MPKI: 0
PSCL4 LOAD      ACCESS:          0  HIT:          0  MISS:          0  HIT %:       -nan  MISS %:       -nan   MPKI: 0
PSCL4 RFO       ACCESS:          0  HIT:          0  MISS:          0  HIT %:       -nan  MISS %:       -nan   MPKI: 0
PSCL4 PREFETCH  ACCESS:          0  HIT:          0  MISS:          0  HIT %:       -nan  MISS %:       -nan   MPKI: 0
PSCL4 WRITEBACK ACCESS:          0  HIT:          0  MISS:          0  HIT %:       -nan  MISS %:       -nan   MPKI: 0
PSCL3 TOTAL     ACCESS:    5337086  HIT:    5336976  MISS:        110  HIT %:    99.9979  MISS %: 0.00206105   MPKI: 0.000517057
PSCL3 LOAD      ACCESS:          0  HIT:          0  MISS:          0  HIT %:       -nan  MISS %:       -nan   MPKI: 0
PSCL3 RFO       ACCESS:          0  HIT:          0  MISS:          0  HIT %:       -nan  MISS %:       -nan   MPKI: 0
PSCL3 PREFETCH  ACCESS:          0  HIT:          0  MISS:          0  HIT %:       -nan  MISS %:       -nan   MPKI: 0
PSCL3 WRITEBACK ACCESS:          0  HIT:          0  MISS:          0  HIT %:       -nan  MISS %:       -nan   MPKI: 0
PSCL2 TOTAL     ACCESS:    5337307  HIT:    4783618  MISS:     553689  HIT %:    89.6261  MISS %:    10.3739   MPKI: 2.60263
PSCL2 LOAD      ACCESS:          0  HIT:          0  MISS:          0  HIT %:       -nan  MISS %:       -nan   MPKI: 0
PSCL2 RFO       ACCESS:          0  HIT:          0  MISS:          0  HIT %:       -nan  MISS %:       -nan   MPKI: 0
PSCL2 PREFETCH  ACCESS:          0  HIT:          0  MISS:          0  HIT %:       -nan  MISS %:       -nan   MPKI: 0
PSCL2 WRITEBACK ACCESS:          0  HIT:          0  MISS:          0  HIT %:       -nan  MISS %:       -nan   MPKI: 0
LLC TOTAL     ACCESS:    1324226  HIT:    1121857  MISS:     202369  HIT %:    84.7179  MISS %:    15.2821   MPKI: 0.95124
LLC LOAD      ACCESS:     817843  HIT:     709120  MISS:     108723  HIT %:    86.7061  MISS %:    13.2939   MPKI: 0.511055
LLC RFO       ACCESS:      29849  HIT:       3586  MISS:      26263  HIT %:    12.0138  MISS %:    87.9862   MPKI: 0.12345
LLC PREFETCH  ACCESS:     264112  HIT:     214043  MISS:      50069  HIT %:    81.0425  MISS %:    18.9575   MPKI: 0.23535
LLC WRITEBACK ACCESS:      54863  HIT:      48080  MISS:       6783  HIT %:    87.6365  MISS %:    12.3635   MPKI: 0.0318836

RAW hits: 503341
Loads Generated: 24819393
Loads sent to L1D: 24316052
Stores Generated: 3593148
Stores sent to L1D: 3593149

CPU 3 cumulative IPC: 1.02136 instructions: 202057991 cycles: 197832175
ITLB TOTAL     ACCESS:   28587986  HIT:   27307114  MISS:    1280872  HIT %:    95.5195  MISS %:    4.48046   MPKI: 6.33913
ITLB LOAD      ACCESS:          0  HIT:          0  MISS:          0  HIT %:       -nan  MISS %:       -nan   MPKI: 0
ITLB RFO       ACCESS:          0  HIT:          0  MISS:          0  HIT %:       -nan  MISS %:       -nan   MPKI: 0
ITLB PREFETCH  ACCESS:          0  HIT:          0  MISS:          0  HIT %:       -nan  MISS %:       -nan   MPKI: 0
ITLB WRITEBACK ACCESS:          0  HIT:          0  MISS:          0  HIT %:       -nan  MISS %:       -nan   MPKI: 0
DTLB TOTAL     ACCESS:   15571303  HIT:    7572640  MISS:    7998663  HIT %:     48.632  MISS %:     51.368   MPKI: 39.586
DTLB LOAD      ACCESS:          0  HIT:          0  MISS:          0  HIT %:       -nan  MISS %:       -nan   MPKI: 0
DTLB RFO       ACCESS:          0  HIT:          0  MISS:          0  HIT %:       -nan  MISS %:       -nan   MPKI: 0
DTLB PREFETCH  ACCESS:          0  HIT:          0  MISS:          0  HIT %:       -nan  MISS %:       -nan   MPKI: 0
DTLB WRITEBACK ACCESS:          0  HIT:          0  MISS:          0  HIT %:       -nan  MISS %:       -nan   MPKI: 0
STLB TOTAL     ACCESS:   12571613  HIT:    7400070  MISS:    5171543  HIT %:    58.8633  MISS %:    41.1367   MPKI: 25.5944
STLB LOAD      ACCESS:          0  HIT:          0  MISS:          0  HIT %:       -nan  MISS %:       -nan   MPKI: 0
STLB RFO       ACCESS:          0  HIT:          0  MISS:          0  HIT %:       -nan  MISS %:       -nan   MPKI: 0
STLB PREFETCH  ACCESS:          0  HIT:          0  MISS:          0  HIT %:       -nan  MISS %:       -nan   MPKI: 0
STLB WRITEBACK ACCESS:          0  HIT:          0  MISS:          0  HIT %:       -nan  MISS %:       -nan   MPKI: 0
L1D TOTAL     ACCESS:   24580841  HIT:   23154443  MISS:    1426398  HIT %:    94.1971  MISS %:    5.80289   MPKI: 7.05935
L1D LOAD      ACCESS:   14101319  HIT:   12921416  MISS:    1179903  HIT %:    91.6327  MISS %:    8.36732   MPKI: 5.83943
L1D RFO       ACCESS:    3060385  HIT:    2993739  MISS:      66646  HIT %:    97.8223  MISS %:     2.1777   MPKI: 0.329836
L1D PREFETCH  ACCESS:    7419137  HIT:    7239288  MISS:     179849  HIT %:    97.5759  MISS %:    2.42412   MPKI: 0.890086
L1D WRITEBACK ACCESS:          0  HIT:          0  MISS:          0  HIT %:       -nan  MISS %:       -nan   MPKI: 0
L1I TOTAL     ACCESS:   38081222  HIT:   38066389  MISS:      14833  HIT %:     99.961  MISS %:   0.038951   MPKI: 0.0734096
L1I LOAD      ACCESS:   38081222  HIT:   38066389  MISS:      14833  HIT %:     99.961  MISS %:   0.038951   MPKI: 0.0734096
L1I RFO       ACCESS:          0  HIT:          0  MISS:          0  HIT %:       -nan  MISS %:       -nan   MPKI: 0
L1I PREFETCH  ACCESS:          0  HIT:          0  MISS:          0  HIT %:       -nan  MISS %:       -nan   MPKI: 0
L1I WRITEBACK ACCESS:          0  HIT:          0  MISS:          0  HIT %:       -nan  MISS %:       -nan   MPKI: 0
L2C TOTAL     ACCESS:   11547877  HIT:   10238305  MISS:    1309572  HIT %:    88.6596  MISS %:    11.3404   MPKI: 6.48117
L2C LOAD      ACCESS:    1193098  HIT:     429454  MISS:     763644  HIT %:    35.9949  MISS %:    64.0051   MPKI: 3.77933
L2C RFO       ACCESS:      66637  HIT:      40144  MISS:      26493  HIT %:    60.2428  MISS %:    39.7572   MPKI: 0.131116
L2C PREFETCH  ACCESS:    4481226  HIT:    4118663  MISS:     362563  HIT %:    91.9093  MISS %:    8.09071   MPKI: 1.79435
L2C WRITEBACK ACCESS:     113598  HIT:     107369  MISS:       6229  HIT %:    94.5166  MISS %:    5.48337   MPKI: 0.0308278
PSCL5 TOTAL     ACCESS:    5220501  HIT:    5220501  MISS:          0  HIT %:        100  MISS %:          0   MPKI: 0
PSCL5 LOAD      ACCESS:          0  HIT:          0  MISS:          0  HIT %:       -nan  MISS %:       -nan   MPKI: 0
PSCL5 RFO       ACCESS:          0  HIT:          0  MISS:          0  HIT %:       -nan  MISS %:       -nan   MPKI: 0
PSCL5 PREFETCH  ACCESS:          0  HIT:          0  MISS:          0  HIT %:       -nan  MISS %:       -nan   MPKI: 0
PSCL5 WRITEBACK ACCESS:          0  HIT:          0  MISS:          0  HIT %:       -nan  MISS %:       -nan   MPKI: 0
PSCL4 TOTAL     ACCESS:    5220501  HIT:    5220501  MISS:          0  HIT %:        100  MISS %:          0   MPKI: 0
PSCL4 LOAD      ACCESS:          0  HIT:          0  MISS:          0  HIT %:       -nan  MISS %:       -nan   MPKI: 0
PSCL4 RFO       ACCESS:          0  HIT:          0  MISS:          0  HIT %:       -nan  MISS %:       -nan   MPKI: 0
PSCL4 PREFETCH  ACCESS:          0  HIT:          0  MISS:          0  HIT %:       -nan  MISS %:       -nan   MPKI: 0
PSCL4 WRITEBACK ACCESS:          0  HIT:          0  MISS:          0  HIT %:       -nan  MISS %:       -nan   MPKI: 0
PSCL3 TOTAL     ACCESS:    5220141  HIT:    5220056  MISS:         85  HIT %:    99.9984  MISS %: 0.00162831   MPKI: 0.000420671
PSCL3 LOAD      ACCESS:          0  HIT:          0  MISS:          0  HIT %:       -nan  MISS %:       -nan   MPKI: 0
PSCL3 RFO       ACCESS:          0  HIT:          0  MISS:          0  HIT %:       -nan  MISS %:       -nan   MPKI: 0
PSCL3 PREFETCH  ACCESS:          0  HIT:          0  MISS:          0  HIT %:       -nan  MISS %:       -nan   MPKI: 0
PSCL3 WRITEBACK ACCESS:          0  HIT:          0  MISS:          0  HIT %:       -nan  MISS %:       -nan   MPKI: 0
PSCL2 TOTAL     ACCESS:    5220433  HIT:    4747765  MISS:     472668  HIT %:    90.9458  MISS %:    9.05419   MPKI: 2.33927
PSCL2 LOAD      ACCESS:          0  HIT:          0  MISS:          0  HIT %:       -nan  MISS %:       -nan   MPKI: 0
PSCL2 RFO       ACCESS:          0  HIT:          0  MISS:          0  HIT %:       -nan  MISS %:       -nan   MPKI: 0
PSCL2 PREFETCH  ACCESS:          0  HIT:          0  MISS:          0  HIT %:       -nan  MISS %:       -nan   MPKI: 0
PSCL2 WRITEBACK ACCESS:          0  HIT:          0  MISS:          0  HIT %:       -nan  MISS %:       -nan   MPKI: 0
LLC TOTAL     ACCESS:    1366845  HIT:    1082375  MISS:     284470  HIT %:    79.1878  MISS %:    20.8122   MPKI: 1.40786
LLC LOAD      ACCESS:     762568  HIT:     585379  MISS:     177189  HIT %:    76.7642  MISS %:    23.2358   MPKI: 0.876922
LLC RFO       ACCESS:      26490  HIT:       2899  MISS:      23591  HIT %:    10.9438  MISS %:    89.0562   MPKI: 0.116754
LLC PREFETCH  ACCESS:     363642  HIT:     301559  MISS:      62083  HIT %:    82.9274  MISS %:    17.0726   MPKI: 0.307253
LLC WRITEBACK ACCESS:      63502  HIT:      58699  MISS:       4803  HIT %:    92.4365  MISS %:    7.56354   MPKI: 0.0237704

RAW hits: 459955
Loads Generated: 22768408
Loads sent to L1D: 22308453
Stores Generated: 3322578
Stores sent to L1D: 3322579

Region of Interest Statistics

CPU 0 cumulative IPC: 1.01096 instructions: 200000002 cycles: 197832174
ITLB TOTAL     ACCESS:   28567525  HIT:   27346106  MISS:    1221419  HIT %:    95.7244  MISS %:    4.27555   MPKI: 6.10709
ITLB LOAD TRANSLATION ACCESS:   28567525  HIT:   27346106  MISS:    1221419  HIT %:    95.7244  MISS %:    4.27555   MPKI: 6.10709
ITLB PREFETCH  REQUESTED:          0  ISSUED:          0  USEFUL:          0  USELESS:          0
ITLB USEFUL LOAD PREFETCHES:          0 PREFETCH ISSUED TO LOWER LEVEL:          0  ACCURACY: -nan
ITLB TIMELY PREFETCHES:          0 LATE PREFETCHES: 0 DROPPED PREFETCHES: 0
ITLB PREFETCHES SAME FILL-ORIGIN LEVEL: 0 DIFFERENT FILL-ORIGIN LEVEL: 0
ITLB AVERAGE MISS LATENCY: 36.8552 cycles
ITLB RQ	ACCESS:   37927617	FORWARD:          0	MERGED:    8839576	TO_CACHE:   29088041

DTLB TOTAL     ACCESS:   15624435  HIT:    7251761  MISS:    8372674  HIT %:    46.4129  MISS %:    53.5871   MPKI: 41.8634
DTLB LOAD TRANSLATION ACCESS:   15624435  HIT:    7251761  MISS:    8372674  HIT %:    46.4129  MISS %:    53.5871   MPKI: 41.8634
DTLB PREFETCH  REQUESTED:          0  ISSUED:          0  USEFUL:          0  USELESS:          0
DTLB USEFUL LOAD PREFETCHES:          0 PREFETCH ISSUED TO LOWER LEVEL:          0  ACCURACY: -nan
DTLB TIMELY PREFETCHES:          0 LATE PREFETCHES: 0 DROPPED PREFETCHES: 0
DTLB PREFETCHES SAME FILL-ORIGIN LEVEL: 0 DIFFERENT FILL-ORIGIN LEVEL: 0
DTLB AVERAGE MISS LATENCY: 23.1024 cycles
DTLB RQ	ACCESS:   17633317	FORWARD:          0	MERGED:    1413206	TO_CACHE:   16220111

STLB TOTAL     ACCESS:   13146596  HIT:    7866817  MISS:    5279779  HIT %:    59.8392  MISS %:    40.1608   MPKI: 26.3989
STLB LOAD TRANSLATION ACCESS:    9594093  HIT:    4470071  MISS:    5124022  HIT %:    46.5919  MISS %:    53.4081   MPKI: 25.6201
STLB TRANSLATION FROM L1D PREFETCHER ACCESS:    3552503  HIT:    3396746  MISS:     155757  HIT %:    95.6156  MISS %:    4.38443   MPKI: 0.778785
STLB PREFETCH  REQUESTED:          0  ISSUED:          0  USEFUL:      98511  USELESS:      57242
STLB USEFUL LOAD PREFETCHES:      98511 PREFETCH ISSUED TO LOWER LEVEL:          0  ACCURACY: inf
STLB TIMELY PREFETCHES:      98511 LATE PREFETCHES: 0 DROPPED PREFETCHES: 51306
STLB PREFETCHES SAME FILL-ORIGIN LEVEL: 0 DIFFERENT FILL-ORIGIN LEVEL: 0
STLB AVERAGE MISS LATENCY: 29.4478 cycles
STLB RQ	ACCESS:   21824167	FORWARD:          0	MERGED:    8614817	TO_CACHE:   13209350

STLB Hit, L1D data hit: 0
STLB Hit, L2C data hit: 0
STLB Hit, LLC data hit: 0
STLB Hit, LLC data miss: 0
STLB STLB hints to L2: 0
L1D TOTAL     ACCESS:   25151903  HIT:   23603017  MISS:    1548886  HIT %:    93.8419  MISS %:    6.15813   MPKI: 7.74443
L1D LOAD      ACCESS:   14326305  HIT:   13045896  MISS:    1280409  HIT %:    91.0625  MISS %:    8.93747   MPKI: 6.40204
L1D RFO       ACCESS:    2993982  HIT:    2901340  MISS:      92642  HIT %:    96.9057  MISS %:    3.09427   MPKI: 0.46321
L1D PREFETCH  ACCESS:    7831616  HIT:    7655781  MISS:     175835  HIT %:    97.7548  MISS %:    2.24519   MPKI: 0.879175
L1D PREFETCH  REQUESTED:   29872395  ISSUED:   27387355  USEFUL:     128692  USELESS:      47143
L1D USEFUL LOAD PREFETCHES:     128692 PREFETCH ISSUED TO LOWER LEVEL:    4431967  ACCURACY: 2.90372
L1D TIMELY PREFETCHES:     128692 LATE PREFETCHES: 609 DROPPED PREFETCHES: 124001
L1D PREFETCHES SAME FILL-ORIGIN LEVEL: 176447 DIFFERENT FILL-ORIGIN LEVEL: 4255520
L1D AVERAGE MISS LATENCY: 52.0003 cycles
L1D RQ	ACCESS:   22360777	FORWARD:          0	MERGED:    7989408	TO_CACHE:   14357302
L1D WQ	ACCESS:    3316582	FORWARD:      15236	MERGED:      40567	TO_CACHE:    3276015
L1D PQ	ACCESS:   15157283	FORWARD:          0	MERGED:    2926042	TO_CACHE:   12230072

L1D UNIQUE REGIONS ACCESSED: 0
L1D REGIONS CONFLICTS: 0
L1D Cross Page Prefetch Requests: 4919444
L1D Same Page Prefetch Requests: 13931248
L1D ROI Sum of L1D PQ occupancy: 182415689
L1D PREFETCHES PUSHED FROM L2C: 0
L1I TOTAL     ACCESS:   37921573  HIT:   37905071  MISS:      16502  HIT %:    99.9565  MISS %:  0.0435161   MPKI: 0.08251
L1I LOAD      ACCESS:   37921573  HIT:   37905071  MISS:      16502  HIT %:    99.9565  MISS %:  0.0435161   MPKI: 0.08251
L1I PREFETCH  REQUESTED:          0  ISSUED:          0  USEFUL:          0  USELESS:          0
L1I USEFUL LOAD PREFETCHES:          0 PREFETCH ISSUED TO LOWER LEVEL:          0  ACCURACY: -nan
L1I TIMELY PREFETCHES:          0 LATE PREFETCHES: 0 DROPPED PREFETCHES: 0
L1I PREFETCHES SAME FILL-ORIGIN LEVEL: 0 DIFFERENT FILL-ORIGIN LEVEL: 0
L1I AVERAGE MISS LATENCY: 135.686 cycles
L1I RQ	ACCESS:   58847306	FORWARD:          0	MERGED:   20919689	TO_CACHE:   37927617

BTB BRANCH_DIRECT_JUMP	ACCESS:          0  HIT:          0  MISS:          0
BTB BRANCH_INDIRECT	ACCESS:          0  HIT:          0  MISS:          0
BTB BRANCH_CONDITIONAL	ACCESS:          0  HIT:          0  MISS:          0
BTB BRANCH_DIRECT_CALL	ACCESS:          0  HIT:          0  MISS:          0
BTB BRANCH_INDIRECT_CALL	ACCESS:          0  HIT:          0  MISS:          0
BTB BRANCH_RETURN	ACCESS:          0  HIT:          0  MISS:          0
BTB BRANCH_OTHER ACCESS:          0  HIT:          0  MISS:          0

L2C TOTAL     ACCESS:   11726946  HIT:   10246623  MISS:    1480323  HIT %:    87.3767  MISS %:    12.6233   MPKI: 7.40161
L2C LOAD      ACCESS:    1296294  HIT:     385721  MISS:     910573  HIT %:    29.7557  MISS %:    70.2443   MPKI: 4.55286
L2C DATA LOAD MPKI: 4.49724
L2C INSTRUCTION LOAD MPKI: 0.055625
L2C RFO       ACCESS:      92631  HIT:      53688  MISS:      38943  HIT %:     57.959  MISS %:     42.041   MPKI: 0.194715
L2C PREFETCH  ACCESS:    4388239  HIT:    4037309  MISS:     350930  HIT %:    92.0029  MISS %:    7.99706   MPKI: 1.75465
L2C DATA PREFETCH MPKI: 1.75465
L2C INSTRUCTION PREFETCH MPKI: 0
L2C WRITEBACK ACCESS:     121866  HIT:     113754  MISS:       8112  HIT %:    93.3435  MISS %:    6.65649   MPKI: 0.04056
L2C LOAD TRANSLATION ACCESS:    5620308  HIT:    5448998  MISS:     171310  HIT %:    96.9519  MISS %:    3.04805   MPKI: 0.85655
L2C TRANSLATION FROM L1D PREFETCHER ACCESS:     207608  HIT:     207153  MISS:        455  HIT %:    99.7808  MISS %:   0.219163   MPKI: 0.002275
L2C PREFETCH  REQUESTED:          0  ISSUED:          0  USEFUL:     112670  USELESS:     238625
L2C USEFUL LOAD PREFETCHES:     112670 PREFETCH ISSUED TO LOWER LEVEL:     351739  ACCURACY: 32.0323
L2C TIMELY PREFETCHES:     112670 LATE PREFETCHES: 809 DROPPED PREFETCHES: 0
L2C PREFETCHES SAME FILL-ORIGIN LEVEL: 312448 DIFFERENT FILL-ORIGIN LEVEL: 0
L2C AVERAGE MISS LATENCY: 59.2237 cycles
L2C RQ	ACCESS:    7216860	FORWARD:          0	MERGED:          0	TO_CACHE:    7216843
L2C WQ	ACCESS:     121866	FORWARD:         47	MERGED:          0	TO_CACHE:     121866
L2C PQ	ACCESS:    4431951	FORWARD:          0	MERGED:       4970	TO_CACHE:    4426951

L2C Instructions Evicting Data 9374
L2C Translations Evicting Data 150181
L2C Data Evicting Data 1130746
L2C Instructions Evicting Instructions 483
L2C Translations Evicting Instructions 1098
L2C Data Evicting Instructions 9373
L2C Instructions Evicting Translations 1268
L2C Translations Evicting Translations 20486
L2C Data Evicting Translations 149199
L2C Dense regions hint from L2: 0
PSCL5 TOTAL     ACCESS:    5331085  HIT:    5331085  MISS:          0  HIT %:        100  MISS %:          0   MPKI: 0
PSCL5 LOAD TRANSLATION ACCESS:    5124022  HIT:    5124022  MISS:          0  HIT %:        100  MISS %:          0   MPKI: 0
PSCL5 TRANSLATION FROM L1D PREFETCHER ACCESS:     207063  HIT:     207063  MISS:          0  HIT %:        100  MISS %:          0   MPKI: 0
PSCL5 PREFETCH  REQUESTED:          0  ISSUED:          0  USEFUL:          0  USELESS:          0
PSCL5 USEFUL LOAD PREFETCHES:          0 PREFETCH ISSUED TO LOWER LEVEL:          0  ACCURACY: -nan
PSCL5 TIMELY PREFETCHES:          0 LATE PREFETCHES: 0 DROPPED PREFETCHES: 0
PSCL5 PREFETCHES SAME FILL-ORIGIN LEVEL: 0 DIFFERENT FILL-ORIGIN LEVEL: 0

PSCL4 TOTAL     ACCESS:    5331085  HIT:    5331085  MISS:          0  HIT %:        100  MISS %:          0   MPKI: 0
PSCL4 LOAD TRANSLATION ACCESS:    5124022  HIT:    5124022  MISS:          0  HIT %:        100  MISS %:          0   MPKI: 0
PSCL4 TRANSLATION FROM L1D PREFETCHER ACCESS:     207063  HIT:     207063  MISS:          0  HIT %:        100  MISS %:          0   MPKI: 0
PSCL4 PREFETCH  REQUESTED:          0  ISSUED:          0  USEFUL:          0  USELESS:          0
PSCL4 USEFUL LOAD PREFETCHES:          0 PREFETCH ISSUED TO LOWER LEVEL:          0  ACCURACY: -nan
PSCL4 TIMELY PREFETCHES:          0 LATE PREFETCHES: 0 DROPPED PREFETCHES: 0
PSCL4 PREFETCHES SAME FILL-ORIGIN LEVEL: 0 DIFFERENT FILL-ORIGIN LEVEL: 0

PSCL3 TOTAL     ACCESS:    5330686  HIT:    5330605  MISS:         81  HIT %:    99.9985  MISS %:  0.0015195   MPKI: 0.000405
PSCL3 LOAD TRANSLATION ACCESS:    5123636  HIT:    5123555  MISS:         81  HIT %:    99.9984  MISS %: 0.00158091   MPKI: 0.000405
PSCL3 TRANSLATION FROM L1D PREFETCHER ACCESS:     207050  HIT:     207050  MISS:          0  HIT %:        100  MISS %:          0   MPKI: 0
PSCL3 PREFETCH  REQUESTED:          0  ISSUED:          0  USEFUL:          0  USELESS:          0
PSCL3 USEFUL LOAD PREFETCHES:          0 PREFETCH ISSUED TO LOWER LEVEL:          0  ACCURACY: -nan
PSCL3 TIMELY PREFETCHES:          0 LATE PREFETCHES: 0 DROPPED PREFETCHES: 0
PSCL3 PREFETCHES SAME FILL-ORIGIN LEVEL: 0 DIFFERENT FILL-ORIGIN LEVEL: 0

PSCL2 TOTAL     ACCESS:    5330036  HIT:    4833417  MISS:     496619  HIT %:    90.6826  MISS %:    9.31737   MPKI: 2.48309
PSCL2 LOAD TRANSLATION ACCESS:    5124399  HIT:    4627780  MISS:     496619  HIT %:    90.3087  MISS %:    9.69126   MPKI: 2.48309
PSCL2 TRANSLATION FROM L1D PREFETCHER ACCESS:     205637  HIT:     205637  MISS:          0  HIT %:        100  MISS %:          0   MPKI: 0
PSCL2 PREFETCH  REQUESTED:          0  ISSUED:          0  USEFUL:          0  USELESS:          0
PSCL2 USEFUL LOAD PREFETCHES:          0 PREFETCH ISSUED TO LOWER LEVEL:          0  ACCURACY: -nan
PSCL2 TIMELY PREFETCHES:          0 LATE PREFETCHES: 0 DROPPED PREFETCHES: 0
PSCL2 PREFETCHES SAME FILL-ORIGIN LEVEL: 0 DIFFERENT FILL-ORIGIN LEVEL: 0

LLC TOTAL     ACCESS:    1534600  HIT:    1272461  MISS:     262139  HIT %:    82.9181  MISS %:    17.0819   MPKI: 1.31069
LLC LOAD      ACCESS:     909765  HIT:     761398  MISS:     148367  HIT %:    83.6917  MISS %:    16.3083   MPKI: 0.741835
LLC RFO       ACCESS:      38942  HIT:       3719  MISS:      35223  HIT %:     9.5501  MISS %:    90.4499   MPKI: 0.176115
LLC PREFETCH  ACCESS:     351739  HIT:     289993  MISS:      61746  HIT %:    82.4455  MISS %:    17.5545   MPKI: 0.30873
LLC WRITEBACK ACCESS:      62389  HIT:      57433  MISS:       4956  HIT %:    92.0563  MISS %:    7.94371   MPKI: 0.02478
LLC LOAD TRANSLATION ACCESS:     171310  HIT:     159618  MISS:      11692  HIT %:    93.1749  MISS %:    6.82505   MPKI: 0.05846
LLC TRANSLATION FROM L1D PREFETCHER ACCESS:        455  HIT:        300  MISS:        155  HIT %:    65.9341  MISS %:    34.0659   MPKI: 0.000775
LLC PREFETCH  REQUESTED:          0  ISSUED:          0  USEFUL:      31820  USELESS:     208181
LLC USEFUL LOAD PREFETCHES:      31820 PREFETCH ISSUED TO LOWER LEVEL:     242426  ACCURACY: 13.1257
LLC TIMELY PREFETCHES:      31820 LATE PREFETCHES: 0 DROPPED PREFETCHES: 0
LLC PREFETCHES SAME FILL-ORIGIN LEVEL: 0 DIFFERENT FILL-ORIGIN LEVEL: 0
LLC AVERAGE MISS LATENCY: 637.372 cycles
LLC RQ	ACCESS:    4075066	FORWARD:          0	MERGED:          0	TO_CACHE:    4075066
LLC WQ	ACCESS:     245714	FORWARD:          0	MERGED:          0	TO_CACHE:     245714
LLC PQ	ACCESS:    1291837	FORWARD:          0	MERGED:          0	TO_CACHE:    1291837

LLC Dense regions hint to LLC: 0

RAW hits: 436112
Loads Generated: 22796889
Loads sent to L1D: 22360777
Stores Generated: 3316582
Stores sent to L1D: 3316582
Major fault: 0 Minor fault: 11177
Allocated PAGES: 41246

CPU 1 cumulative IPC: 1.02313 instructions: 200000003 cycles: 195479082
ITLB TOTAL     ACCESS:   28583365  HIT:   27188340  MISS:    1395025  HIT %:    95.1195  MISS %:    4.88055   MPKI: 6.97512
ITLB LOAD TRANSLATION ACCESS:   28583365  HIT:   27188340  MISS:    1395025  HIT %:    95.1195  MISS %:    4.88055   MPKI: 6.97512
ITLB PREFETCH  REQUESTED:          0  ISSUED:          0  USEFUL:          0  USELESS:          0
ITLB USEFUL LOAD PREFETCHES:          0 PREFETCH ISSUED TO LOWER LEVEL:          0  ACCURACY: -nan
ITLB TIMELY PREFETCHES:          0 LATE PREFETCHES: 0 DROPPED PREFETCHES: 0
ITLB PREFETCHES SAME FILL-ORIGIN LEVEL: 0 DIFFERENT FILL-ORIGIN LEVEL: 0
ITLB AVERAGE MISS LATENCY: 37.2089 cycles
ITLB RQ	ACCESS:   38410624	FORWARD:          0	MERGED:    8858464	TO_CACHE:   29552160

DTLB TOTAL     ACCESS:   15386509  HIT:    7208588  MISS:    8177921  HIT %:    46.8501  MISS %:    53.1499   MPKI: 40.8896
DTLB LOAD TRANSLATION ACCESS:   15386509  HIT:    7208588  MISS:    8177921  HIT %:    46.8501  MISS %:    53.1499   MPKI: 40.8896
DTLB PREFETCH  REQUESTED:          0  ISSUED:          0  USEFUL:          0  USELESS:          0
DTLB USEFUL LOAD PREFETCHES:          0 PREFETCH ISSUED TO LOWER LEVEL:          0  ACCURACY: -nan
DTLB TIMELY PREFETCHES:          0 LATE PREFETCHES: 0 DROPPED PREFETCHES: 0
DTLB PREFETCHES SAME FILL-ORIGIN LEVEL: 0 DIFFERENT FILL-ORIGIN LEVEL: 0
DTLB AVERAGE MISS LATENCY: 23.8877 cycles
DTLB RQ	ACCESS:   17522511	FORWARD:          0	MERGED:    1207662	TO_CACHE:   16314849

STLB TOTAL     ACCESS:   13432102  HIT:    8032802  MISS:    5399300  HIT %:     59.803  MISS %:     40.197   MPKI: 26.9965
STLB LOAD TRANSLATION ACCESS:    9572946  HIT:    4298673  MISS:    5274273  HIT %:    44.9044  MISS %:    55.0956   MPKI: 26.3714
STLB TRANSLATION FROM L1D PREFETCHER ACCESS:    3859156  HIT:    3734129  MISS:     125027  HIT %:    96.7603  MISS %:    3.23975   MPKI: 0.625135
STLB PREFETCH  REQUESTED:          0  ISSUED:          0  USEFUL:      80643  USELESS:      46548
STLB USEFUL LOAD PREFETCHES:      80643 PREFETCH ISSUED TO LOWER LEVEL:          0  ACCURACY: inf
STLB TIMELY PREFETCHES:      80643 LATE PREFETCHES: 0 DROPPED PREFETCHES: 47875
STLB PREFETCHES SAME FILL-ORIGIN LEVEL: 0 DIFFERENT FILL-ORIGIN LEVEL: 0
STLB AVERAGE MISS LATENCY: 30.1286 cycles
STLB RQ	ACCESS:   21867736	FORWARD:          0	MERGED:    8184396	TO_CACHE:   13683340

STLB Hit, L1D data hit: 0
STLB Hit, L2C data hit: 0
STLB Hit, LLC data hit: 0
STLB Hit, LLC data miss: 0
STLB STLB hints to L2: 0
L1D TOTAL     ACCESS:   23960408  HIT:   22526030  MISS:    1434378  HIT %:    94.0135  MISS %:    5.98645   MPKI: 7.17189
L1D LOAD      ACCESS:   13938429  HIT:   12692478  MISS:    1245951  HIT %:     91.061  MISS %:    8.93896   MPKI: 6.22975
L1D RFO       ACCESS:    3048700  HIT:    2988603  MISS:      60097  HIT %:    98.0288  MISS %:    1.97123   MPKI: 0.300485
L1D PREFETCH  ACCESS:    6973279  HIT:    6844949  MISS:     128330  HIT %:    98.1597  MISS %:    1.84031   MPKI: 0.64165
L1D PREFETCH  REQUESTED:   28545627  ISSUED:   26870060  USEFUL:      92636  USELESS:      36817
L1D USEFUL LOAD PREFETCHES:      92636 PREFETCH ISSUED TO LOWER LEVEL:    5147515  ACCURACY: 1.79963
L1D TIMELY PREFETCHES:      92636 LATE PREFETCHES: 591 DROPPED PREFETCHES: 87341
L1D PREFETCHES SAME FILL-ORIGIN LEVEL: 130048 DIFFERENT FILL-ORIGIN LEVEL: 5017467
L1D AVERAGE MISS LATENCY: 51.5404 cycles
L1D RQ	ACCESS:   22631793	FORWARD:          0	MERGED:    8449257	TO_CACHE:   14165901
L1D WQ	ACCESS:    3420311	FORWARD:      18181	MERGED:      63701	TO_CACHE:    3356610
L1D PQ	ACCESS:   14705023	FORWARD:          0	MERGED:    2538440	TO_CACHE:   12165037

L1D UNIQUE REGIONS ACCESSED: 0
L1D REGIONS CONFLICTS: 0
L1D Cross Page Prefetch Requests: 4791469
L1D Same Page Prefetch Requests: 13498843
L1D ROI Sum of L1D PQ occupancy: 172673974
L1D PREFETCHES PUSHED FROM L2C: 0
L1I TOTAL     ACCESS:   37865268  HIT:   37844583  MISS:      20685  HIT %:    99.9454  MISS %:  0.0546279   MPKI: 0.103425
L1I LOAD      ACCESS:   37865268  HIT:   37844583  MISS:      20685  HIT %:    99.9454  MISS %:  0.0546279   MPKI: 0.103425
L1I PREFETCH  REQUESTED:          0  ISSUED:          0  USEFUL:          0  USELESS:          0
L1I USEFUL LOAD PREFETCHES:          0 PREFETCH ISSUED TO LOWER LEVEL:          0  ACCURACY: -nan
L1I TIMELY PREFETCHES:          0 LATE PREFETCHES: 0 DROPPED PREFETCHES: 0
L1I PREFETCHES SAME FILL-ORIGIN LEVEL: 0 DIFFERENT FILL-ORIGIN LEVEL: 0
L1I AVERAGE MISS LATENCY: 142.993 cycles
L1I RQ	ACCESS:   59751133	FORWARD:          0	MERGED:   21340509	TO_CACHE:   38410624

BTB BRANCH_DIRECT_JUMP	ACCESS:          0  HIT:          0  MISS:          0
BTB BRANCH_INDIRECT	ACCESS:          0  HIT:          0  MISS:          0
BTB BRANCH_CONDITIONAL	ACCESS:          0  HIT:          0  MISS:          0
BTB BRANCH_DIRECT_CALL	ACCESS:          0  HIT:          0  MISS:          0
BTB BRANCH_INDIRECT_CALL	ACCESS:          0  HIT:          0  MISS:          0
BTB BRANCH_RETURN	ACCESS:          0  HIT:          0  MISS:          0
BTB BRANCH_OTHER ACCESS:          0  HIT:          0  MISS:          0

L2C TOTAL     ACCESS:   12469471  HIT:   11153399  MISS:    1316072  HIT %:    89.4456  MISS %:    10.5544   MPKI: 6.58036
L2C LOAD      ACCESS:    1266044  HIT:     460935  MISS:     805109  HIT %:    36.4075  MISS %:    63.5925   MPKI: 4.02554
L2C DATA LOAD MPKI: 3.94515
L2C INSTRUCTION LOAD MPKI: 0.08039
L2C RFO       ACCESS:      60088  HIT:      25130  MISS:      34958  HIT %:     41.822  MISS %:     58.178   MPKI: 0.17479
L2C PREFETCH  ACCESS:    5029812  HIT:    4721581  MISS:     308231  HIT %:    93.8719  MISS %:    6.12808   MPKI: 1.54115
L2C DATA PREFETCH MPKI: 1.54115
L2C INSTRUCTION PREFETCH MPKI: 0
L2C WRITEBACK ACCESS:      86921  HIT:      79337  MISS:       7584  HIT %:    91.2748  MISS %:    8.72516   MPKI: 0.03792
L2C LOAD TRANSLATION ACCESS:    5853236  HIT:    5693583  MISS:     159653  HIT %:    97.2724  MISS %:     2.7276   MPKI: 0.798265
L2C TRANSLATION FROM L1D PREFETCHER ACCESS:     173370  HIT:     172833  MISS:        537  HIT %:    99.6903  MISS %:   0.309742   MPKI: 0.002685
L2C PREFETCH  REQUESTED:          0  ISSUED:          0  USEFUL:     102581  USELESS:     209393
L2C USEFUL LOAD PREFETCHES:     102581 PREFETCH ISSUED TO LOWER LEVEL:     312344  ACCURACY: 32.8423
L2C TIMELY PREFETCHES:     102581 LATE PREFETCHES: 1083 DROPPED PREFETCHES: 0
L2C PREFETCHES SAME FILL-ORIGIN LEVEL: 289018 DIFFERENT FILL-ORIGIN LEVEL: 0
L2C AVERAGE MISS LATENCY: 63.917 cycles
L2C RQ	ACCESS:    7454165	FORWARD:          0	MERGED:          0	TO_CACHE:    7454156
L2C WQ	ACCESS:      87557	FORWARD:         13	MERGED:          0	TO_CACHE:      87557
L2C PQ	ACCESS:    5147477	FORWARD:          0	MERGED:       7301	TO_CACHE:    5140172

L2C Instructions Evicting Data 13021
L2C Translations Evicting Data 141174
L2C Data Evicting Data 990950
L2C Instructions Evicting Instructions 1034
L2C Translations Evicting Instructions 1621
L2C Data Evicting Instructions 13133
L2C Instructions Evicting Translations 2024
L2C Translations Evicting Translations 19243
L2C Data Evicting Translations 139781
L2C Dense regions hint from L2: 0
PSCL5 TOTAL     ACCESS:    5447160  HIT:    5447160  MISS:          0  HIT %:        100  MISS %:          0   MPKI: 0
PSCL5 LOAD TRANSLATION ACCESS:    5274273  HIT:    5274273  MISS:          0  HIT %:        100  MISS %:          0   MPKI: 0
PSCL5 TRANSLATION FROM L1D PREFETCHER ACCESS:     172887  HIT:     172887  MISS:          0  HIT %:        100  MISS %:          0   MPKI: 0
PSCL5 PREFETCH  REQUESTED:          0  ISSUED:          0  USEFUL:          0  USELESS:          0
PSCL5 USEFUL LOAD PREFETCHES:          0 PREFETCH ISSUED TO LOWER LEVEL:          0  ACCURACY: -nan
PSCL5 TIMELY PREFETCHES:          0 LATE PREFETCHES: 0 DROPPED PREFETCHES: 0
PSCL5 PREFETCHES SAME FILL-ORIGIN LEVEL: 0 DIFFERENT FILL-ORIGIN LEVEL: 0

PSCL4 TOTAL     ACCESS:    5447160  HIT:    5447160  MISS:          0  HIT %:        100  MISS %:          0   MPKI: 0
PSCL4 LOAD TRANSLATION ACCESS:    5274273  HIT:    5274273  MISS:          0  HIT %:        100  MISS %:          0   MPKI: 0
PSCL4 TRANSLATION FROM L1D PREFETCHER ACCESS:     172887  HIT:     172887  MISS:          0  HIT %:        100  MISS %:          0   MPKI: 0
PSCL4 PREFETCH  REQUESTED:          0  ISSUED:          0  USEFUL:          0  USELESS:          0
PSCL4 USEFUL LOAD PREFETCHES:          0 PREFETCH ISSUED TO LOWER LEVEL:          0  ACCURACY: -nan
PSCL4 TIMELY PREFETCHES:          0 LATE PREFETCHES: 0 DROPPED PREFETCHES: 0
PSCL4 PREFETCHES SAME FILL-ORIGIN LEVEL: 0 DIFFERENT FILL-ORIGIN LEVEL: 0

PSCL3 TOTAL     ACCESS:    5446052  HIT:    5445942  MISS:        110  HIT %:     99.998  MISS %: 0.00201981   MPKI: 0.00055
PSCL3 LOAD TRANSLATION ACCESS:    5273178  HIT:    5273068  MISS:        110  HIT %:    99.9979  MISS %: 0.00208603   MPKI: 0.00055
PSCL3 TRANSLATION FROM L1D PREFETCHER ACCESS:     172874  HIT:     172874  MISS:          0  HIT %:        100  MISS %:          0   MPKI: 0
PSCL3 PREFETCH  REQUESTED:          0  ISSUED:          0  USEFUL:          0  USELESS:          0
PSCL3 USEFUL LOAD PREFETCHES:          0 PREFETCH ISSUED TO LOWER LEVEL:          0  ACCURACY: -nan
PSCL3 TIMELY PREFETCHES:          0 LATE PREFETCHES: 0 DROPPED PREFETCHES: 0
PSCL3 PREFETCHES SAME FILL-ORIGIN LEVEL: 0 DIFFERENT FILL-ORIGIN LEVEL: 0

PSCL2 TOTAL     ACCESS:    5447053  HIT:    4867806  MISS:     579247  HIT %:    89.3659  MISS %:    10.6341   MPKI: 2.89623
PSCL2 LOAD TRANSLATION ACCESS:    5274646  HIT:    4695399  MISS:     579247  HIT %:    89.0183  MISS %:    10.9817   MPKI: 2.89623
PSCL2 TRANSLATION FROM L1D PREFETCHER ACCESS:     172407  HIT:     172407  MISS:          0  HIT %:        100  MISS %:          0   MPKI: 0
PSCL2 PREFETCH  REQUESTED:          0  ISSUED:          0  USEFUL:          0  USELESS:          0
PSCL2 USEFUL LOAD PREFETCHES:          0 PREFETCH ISSUED TO LOWER LEVEL:          0  ACCURACY: -nan
PSCL2 TIMELY PREFETCHES:          0 LATE PREFETCHES: 0 DROPPED PREFETCHES: 0
PSCL2 PREFETCHES SAME FILL-ORIGIN LEVEL: 0 DIFFERENT FILL-ORIGIN LEVEL: 0

LLC TOTAL     ACCESS:    1372809  HIT:    1107152  MISS:     265657  HIT %:    80.6487  MISS %:    19.3513   MPKI: 1.32828
LLC LOAD      ACCESS:     804035  HIT:     657932  MISS:     146103  HIT %:    81.8288  MISS %:    18.1712   MPKI: 0.730515
LLC RFO       ACCESS:      34954  HIT:       3031  MISS:      31923  HIT %:     8.6714  MISS %:    91.3286   MPKI: 0.159615
LLC PREFETCH  ACCESS:     309309  HIT:     241091  MISS:      68218  HIT %:     77.945  MISS %:     22.055   MPKI: 0.34109
LLC WRITEBACK ACCESS:      64321  HIT:      58754  MISS:       5567  HIT %:     91.345  MISS %:    8.65503   MPKI: 0.027835
LLC LOAD TRANSLATION ACCESS:     159653  HIT:     145926  MISS:      13727  HIT %:     91.402  MISS %:    8.59802   MPKI: 0.068635
LLC TRANSLATION FROM L1D PREFETCHER ACCESS:        537  HIT:        418  MISS:        119  HIT %:    77.8399  MISS %:    22.1601   MPKI: 0.000595
LLC PREFETCH  REQUESTED:          0  ISSUED:          0  USEFUL:      31820  USELESS:     208181
LLC USEFUL LOAD PREFETCHES:      31820 PREFETCH ISSUED TO LOWER LEVEL:     242426  ACCURACY: 13.1257
LLC TIMELY PREFETCHES:      31820 LATE PREFETCHES: 0 DROPPED PREFETCHES: 0
LLC PREFETCHES SAME FILL-ORIGIN LEVEL: 0 DIFFERENT FILL-ORIGIN LEVEL: 0
LLC AVERAGE MISS LATENCY: 628.932 cycles
LLC RQ	ACCESS:    4075066	FORWARD:          0	MERGED:          0	TO_CACHE:    4075066
LLC WQ	ACCESS:     245714	FORWARD:          0	MERGED:          0	TO_CACHE:     245714
LLC PQ	ACCESS:    1291837	FORWARD:          0	MERGED:          0	TO_CACHE:    1291837

LLC Dense regions hint to LLC: 0

RAW hits: 459964
Loads Generated: 22780549
Loads sent to L1D: 22320581
Stores Generated: 3378417
Stores sent to L1D: 3378416
Major fault: 0 Minor fault: 10994
Allocated PAGES: 41246

CPU 2 cumulative IPC: 1.06751 instructions: 200000000 cycles: 187351947
ITLB TOTAL     ACCESS:   28560171  HIT:   27225165  MISS:    1335006  HIT %:    95.3256  MISS %:    4.67436   MPKI: 6.67503
ITLB LOAD TRANSLATION ACCESS:   28560171  HIT:   27225165  MISS:    1335006  HIT %:    95.3256  MISS %:    4.67436   MPKI: 6.67503
ITLB PREFETCH  REQUESTED:          0  ISSUED:          0  USEFUL:          0  USELESS:          0
ITLB USEFUL LOAD PREFETCHES:          0 PREFETCH ISSUED TO LOWER LEVEL:          0  ACCURACY: -nan
ITLB TIMELY PREFETCHES:          0 LATE PREFETCHES: 0 DROPPED PREFETCHES: 0
ITLB PREFETCHES SAME FILL-ORIGIN LEVEL: 0 DIFFERENT FILL-ORIGIN LEVEL: 0
ITLB AVERAGE MISS LATENCY: 37.8074 cycles
ITLB RQ	ACCESS:   40358992	FORWARD:          0	MERGED:    9332386	TO_CACHE:   31026606

DTLB TOTAL     ACCESS:   15620708  HIT:    7563499  MISS:    8057209  HIT %:    48.4197  MISS %:    51.5803   MPKI: 40.286
DTLB LOAD TRANSLATION ACCESS:   15620708  HIT:    7563499  MISS:    8057209  HIT %:    48.4197  MISS %:    51.5803   MPKI: 40.286
DTLB PREFETCH  REQUESTED:          0  ISSUED:          0  USEFUL:          0  USELESS:          0
DTLB USEFUL LOAD PREFETCHES:          0 PREFETCH ISSUED TO LOWER LEVEL:          0  ACCURACY: -nan
DTLB TIMELY PREFETCHES:          0 LATE PREFETCHES: 0 DROPPED PREFETCHES: 0
DTLB PREFETCHES SAME FILL-ORIGIN LEVEL: 0 DIFFERENT FILL-ORIGIN LEVEL: 0
DTLB AVERAGE MISS LATENCY: 23.9754 cycles
DTLB RQ	ACCESS:   18971731	FORWARD:          0	MERGED:    1584484	TO_CACHE:   17387247

STLB TOTAL     ACCESS:   12963113  HIT:    7964327  MISS:    4998786  HIT %:    61.4384  MISS %:    38.5616   MPKI: 24.9939
STLB LOAD TRANSLATION ACCESS:    9392215  HIT:    4490405  MISS:    4901810  HIT %:    47.8099  MISS %:    52.1901   MPKI: 24.509
STLB TRANSLATION FROM L1D PREFETCHER ACCESS:    3570898  HIT:    3473922  MISS:      96976  HIT %:    97.2843  MISS %:    2.71573   MPKI: 0.48488
STLB PREFETCH  REQUESTED:          0  ISSUED:          0  USEFUL:      71106  USELESS:      27979
STLB USEFUL LOAD PREFETCHES:      71106 PREFETCH ISSUED TO LOWER LEVEL:          0  ACCURACY: inf
STLB TIMELY PREFETCHES:      71106 LATE PREFETCHES: 0 DROPPED PREFETCHES: 54460
STLB PREFETCHES SAME FILL-ORIGIN LEVEL: 0 DIFFERENT FILL-ORIGIN LEVEL: 0
STLB AVERAGE MISS LATENCY: 31.2224 cycles
STLB RQ	ACCESS:   22529312	FORWARD:          0	MERGED:    8705497	TO_CACHE:   13823815

STLB Hit, L1D data hit: 0
STLB Hit, L2C data hit: 0
STLB Hit, LLC data hit: 0
STLB Hit, LLC data miss: 0
STLB STLB hints to L2: 0
L1D TOTAL     ACCESS:   23603024  HIT:   22107230  MISS:    1495794  HIT %:    93.6627  MISS %:     6.3373   MPKI: 7.47897
L1D LOAD      ACCESS:   14441361  HIT:   13101225  MISS:    1340136  HIT %:    90.7202  MISS %:    9.27985   MPKI: 6.70068
L1D RFO       ACCESS:    3017300  HIT:    2971131  MISS:      46169  HIT %:    98.4699  MISS %:    1.53014   MPKI: 0.230845
L1D PREFETCH  ACCESS:    6144363  HIT:    6034874  MISS:     109489  HIT %:    98.2181  MISS %:    1.78194   MPKI: 0.547445
L1D PREFETCH  REQUESTED:   29852650  ISSUED:   27938594  USEFUL:      84468  USELESS:      30292
L1D USEFUL LOAD PREFETCHES:      84468 PREFETCH ISSUED TO LOWER LEVEL:    5528630  ACCURACY: 1.52783
L1D TIMELY PREFETCHES:      84468 LATE PREFETCHES: 670 DROPPED PREFETCHES: 95745
L1D PREFETCHES SAME FILL-ORIGIN LEVEL: 115431 DIFFERENT FILL-ORIGIN LEVEL: 5413199
L1D AVERAGE MISS LATENCY: 44.9733 cycles
L1D RQ	ACCESS:   24316052	FORWARD:          0	MERGED:    8865503	TO_CACHE:   15436486
L1D WQ	ACCESS:    3593149	FORWARD:      16957	MERGED:      57904	TO_CACHE:    3535245
L1D PQ	ACCESS:   15335473	FORWARD:          0	MERGED:    2729458	TO_CACHE:   12603121

L1D UNIQUE REGIONS ACCESSED: 0
L1D REGIONS CONFLICTS: 0
L1D Cross Page Prefetch Requests: 4920968
L1D Same Page Prefetch Requests: 14111975
L1D ROI Sum of L1D PQ occupancy: 175466752
L1D PREFETCHES PUSHED FROM L2C: 0
L1I TOTAL     ACCESS:   37934958  HIT:   37911806  MISS:      23152  HIT %:     99.939  MISS %:  0.0610308   MPKI: 0.11576
L1I LOAD      ACCESS:   37934958  HIT:   37911806  MISS:      23152  HIT %:     99.939  MISS %:  0.0610308   MPKI: 0.11576
L1I PREFETCH  REQUESTED:          0  ISSUED:          0  USEFUL:          0  USELESS:          0
L1I USEFUL LOAD PREFETCHES:          0 PREFETCH ISSUED TO LOWER LEVEL:          0  ACCURACY: -nan
L1I TIMELY PREFETCHES:          0 LATE PREFETCHES: 0 DROPPED PREFETCHES: 0
L1I PREFETCHES SAME FILL-ORIGIN LEVEL: 0 DIFFERENT FILL-ORIGIN LEVEL: 0
L1I AVERAGE MISS LATENCY: 123.885 cycles
L1I RQ	ACCESS:   62497881	FORWARD:          0	MERGED:   22138889	TO_CACHE:   40358992

BTB BRANCH_DIRECT_JUMP	ACCESS:          0  HIT:          0  MISS:          0
BTB BRANCH_INDIRECT	ACCESS:          0  HIT:          0  MISS:          0
BTB BRANCH_CONDITIONAL	ACCESS:          0  HIT:          0  MISS:          0
BTB BRANCH_DIRECT_CALL	ACCESS:          0  HIT:          0  MISS:          0
BTB BRANCH_INDIRECT_CALL	ACCESS:          0  HIT:          0  MISS:          0
BTB BRANCH_RETURN	ACCESS:          0  HIT:          0  MISS:          0
BTB BRANCH_OTHER ACCESS:          0  HIT:          0  MISS:          0

L2C TOTAL     ACCESS:   12217378  HIT:   10958365  MISS:    1259013  HIT %:    89.6949  MISS %:    10.3051   MPKI: 6.29507
L2C LOAD      ACCESS:    1362715  HIT:     552657  MISS:     810058  HIT %:    40.5556  MISS %:    59.4444   MPKI: 4.05029
L2C DATA LOAD MPKI: 3.96898
L2C INSTRUCTION LOAD MPKI: 0.08131
L2C RFO       ACCESS:      46157  HIT:      18065  MISS:      28092  HIT %:    39.1382  MISS %:    60.8618   MPKI: 0.14046
L2C PREFETCH  ACCESS:    5167899  HIT:    4911187  MISS:     256712  HIT %:    95.0326  MISS %:    4.96743   MPKI: 1.28356
L2C DATA PREFETCH MPKI: 1.28356
L2C INSTRUCTION PREFETCH MPKI: 0
L2C WRITEBACK ACCESS:      65623  HIT:      57650  MISS:       7973  HIT %:    87.8503  MISS %:    12.1497   MPKI: 0.039865
L2C LOAD TRANSLATION ACCESS:    5423822  HIT:    5268025  MISS:     155797  HIT %:    97.1275  MISS %:    2.87246   MPKI: 0.778985
L2C TRANSLATION FROM L1D PREFETCHER ACCESS:     151162  HIT:     150781  MISS:        381  HIT %:     99.748  MISS %:   0.252047   MPKI: 0.001905
L2C PREFETCH  REQUESTED:          0  ISSUED:          0  USEFUL:     115631  USELESS:     147506
L2C USEFUL LOAD PREFETCHES:     115631 PREFETCH ISSUED TO LOWER LEVEL:     264112  ACCURACY: 43.781
L2C TIMELY PREFETCHES:     115631 LATE PREFETCHES: 1080 DROPPED PREFETCHES: 0
L2C PREFETCHES SAME FILL-ORIGIN LEVEL: 247676 DIFFERENT FILL-ORIGIN LEVEL: 0
L2C AVERAGE MISS LATENCY: 56.0212 cycles
L2C RQ	ACCESS:    7380241	FORWARD:          0	MERGED:          0	TO_CACHE:    7380231
L2C WQ	ACCESS:      75406	FORWARD:         17	MERGED:          0	TO_CACHE:      75406
L2C PQ	ACCESS:    5528570	FORWARD:          0	MERGED:      11606	TO_CACHE:    5516957

L2C Instructions Evicting Data 14774
L2C Translations Evicting Data 136480
L2C Data Evicting Data 943084
L2C Instructions Evicting Instructions 1379
L2C Translations Evicting Instructions 1879
L2C Data Evicting Instructions 15019
L2C Instructions Evicting Translations 1999
L2C Translations Evicting Translations 19199
L2C Data Evicting Translations 135548
L2C Dense regions hint from L2: 0
PSCL5 TOTAL     ACCESS:    5052370  HIT:    5052370  MISS:          0  HIT %:        100  MISS %:          0   MPKI: 0
PSCL5 LOAD TRANSLATION ACCESS:    4901810  HIT:    4901810  MISS:          0  HIT %:        100  MISS %:          0   MPKI: 0
PSCL5 TRANSLATION FROM L1D PREFETCHER ACCESS:     150560  HIT:     150560  MISS:          0  HIT %:        100  MISS %:          0   MPKI: 0
PSCL5 PREFETCH  REQUESTED:          0  ISSUED:          0  USEFUL:          0  USELESS:          0
PSCL5 USEFUL LOAD PREFETCHES:          0 PREFETCH ISSUED TO LOWER LEVEL:          0  ACCURACY: -nan
PSCL5 TIMELY PREFETCHES:          0 LATE PREFETCHES: 0 DROPPED PREFETCHES: 0
PSCL5 PREFETCHES SAME FILL-ORIGIN LEVEL: 0 DIFFERENT FILL-ORIGIN LEVEL: 0

PSCL4 TOTAL     ACCESS:    5052370  HIT:    5052370  MISS:          0  HIT %:        100  MISS %:          0   MPKI: 0
PSCL4 LOAD TRANSLATION ACCESS:    4901810  HIT:    4901810  MISS:          0  HIT %:        100  MISS %:          0   MPKI: 0
PSCL4 TRANSLATION FROM L1D PREFETCHER ACCESS:     150560  HIT:     150560  MISS:          0  HIT %:        100  MISS %:          0   MPKI: 0
PSCL4 PREFETCH  REQUESTED:          0  ISSUED:          0  USEFUL:          0  USELESS:          0
PSCL4 USEFUL LOAD PREFETCHES:          0 PREFETCH ISSUED TO LOWER LEVEL:          0  ACCURACY: -nan
PSCL4 TIMELY PREFETCHES:          0 LATE PREFETCHES: 0 DROPPED PREFETCHES: 0
PSCL4 PREFETCHES SAME FILL-ORIGIN LEVEL: 0 DIFFERENT FILL-ORIGIN LEVEL: 0

PSCL3 TOTAL     ACCESS:    5051667  HIT:    5051567  MISS:        100  HIT %:     99.998  MISS %: 0.00197954   MPKI: 0.0005
PSCL3 LOAD TRANSLATION ACCESS:    4901120  HIT:    4901020  MISS:        100  HIT %:     99.998  MISS %: 0.00204035   MPKI: 0.0005
PSCL3 TRANSLATION FROM L1D PREFETCHER ACCESS:     150547  HIT:     150547  MISS:          0  HIT %:        100  MISS %:          0   MPKI: 0
PSCL3 PREFETCH  REQUESTED:          0  ISSUED:          0  USEFUL:          0  USELESS:          0
PSCL3 USEFUL LOAD PREFETCHES:          0 PREFETCH ISSUED TO LOWER LEVEL:          0  ACCURACY: -nan
PSCL3 TIMELY PREFETCHES:          0 LATE PREFETCHES: 0 DROPPED PREFETCHES: 0
PSCL3 PREFETCHES SAME FILL-ORIGIN LEVEL: 0 DIFFERENT FILL-ORIGIN LEVEL: 0

PSCL2 TOTAL     ACCESS:    5051904  HIT:    4529853  MISS:     522051  HIT %:    89.6663  MISS %:    10.3337   MPKI: 2.61025
PSCL2 LOAD TRANSLATION ACCESS:    4901947  HIT:    4379896  MISS:     522051  HIT %:    89.3501  MISS %:    10.6499   MPKI: 2.61025
PSCL2 TRANSLATION FROM L1D PREFETCHER ACCESS:     149957  HIT:     149957  MISS:          0  HIT %:        100  MISS %:          0   MPKI: 0
PSCL2 PREFETCH  REQUESTED:          0  ISSUED:          0  USEFUL:          0  USELESS:          0
PSCL2 USEFUL LOAD PREFETCHES:          0 PREFETCH ISSUED TO LOWER LEVEL:          0  ACCURACY: -nan
PSCL2 TIMELY PREFETCHES:          0 LATE PREFETCHES: 0 DROPPED PREFETCHES: 0
PSCL2 PREFETCHES SAME FILL-ORIGIN LEVEL: 0 DIFFERENT FILL-ORIGIN LEVEL: 0

LLC TOTAL     ACCESS:    1300970  HIT:    1110408  MISS:     190562  HIT %:    85.3523  MISS %:    14.6477   MPKI: 0.95281
LLC LOAD      ACCESS:     809251  HIT:     704257  MISS:     104994  HIT %:    87.0258  MISS %:    12.9742   MPKI: 0.52497
LLC RFO       ACCESS:      28071  HIT:       3366  MISS:      24705  HIT %:     11.991  MISS %:     88.009   MPKI: 0.123525
LLC PREFETCH  ACCESS:     257540  HIT:     212976  MISS:      44564  HIT %:    82.6963  MISS %:    17.3037   MPKI: 0.22282
LLC WRITEBACK ACCESS:      49930  HIT:      43791  MISS:       6139  HIT %:    87.7048  MISS %:    12.2952   MPKI: 0.030695
LLC LOAD TRANSLATION ACCESS:     155797  HIT:     145738  MISS:      10059  HIT %:    93.5435  MISS %:    6.45648   MPKI: 0.050295
LLC TRANSLATION FROM L1D PREFETCHER ACCESS:        381  HIT:        280  MISS:        101  HIT %:    73.4908  MISS %:    26.5092   MPKI: 0.000505
LLC PREFETCH  REQUESTED:          0  ISSUED:          0  USEFUL:      31820  USELESS:     208181
LLC USEFUL LOAD PREFETCHES:      31820 PREFETCH ISSUED TO LOWER LEVEL:     242426  ACCURACY: 13.1257
LLC TIMELY PREFETCHES:      31820 LATE PREFETCHES: 0 DROPPED PREFETCHES: 0
LLC PREFETCHES SAME FILL-ORIGIN LEVEL: 0 DIFFERENT FILL-ORIGIN LEVEL: 0
LLC AVERAGE MISS LATENCY: 876.776 cycles
LLC RQ	ACCESS:    4075066	FORWARD:          0	MERGED:          0	TO_CACHE:    4075066
LLC WQ	ACCESS:     245714	FORWARD:          0	MERGED:          0	TO_CACHE:     245714
LLC PQ	ACCESS:    1291837	FORWARD:          0	MERGED:          0	TO_CACHE:    1291837

LLC Dense regions hint to LLC: 0

RAW hits: 465341
Loads Generated: 23269439
Loads sent to L1D: 22804098
Stores Generated: 3281592
Stores sent to L1D: 3281592
Major fault: 0 Minor fault: 9179
Allocated PAGES: 41246

CPU 3 cumulative IPC: 1.0208 instructions: 200000001 cycles: 195924501
ITLB TOTAL     ACCESS:   28296824  HIT:   27026832  MISS:    1269992  HIT %:    95.5119  MISS %:    4.48811   MPKI: 6.34996
ITLB LOAD TRANSLATION ACCESS:   28296824  HIT:   27026832  MISS:    1269992  HIT %:    95.5119  MISS %:    4.48811   MPKI: 6.34996
ITLB PREFETCH  REQUESTED:          0  ISSUED:          0  USEFUL:          0  USELESS:          0
ITLB USEFUL LOAD PREFETCHES:          0 PREFETCH ISSUED TO LOWER LEVEL:          0  ACCURACY: -nan
ITLB TIMELY PREFETCHES:          0 LATE PREFETCHES: 0 DROPPED PREFETCHES: 0
ITLB PREFETCHES SAME FILL-ORIGIN LEVEL: 0 DIFFERENT FILL-ORIGIN LEVEL: 0
ITLB AVERAGE MISS LATENCY: 33.3196 cycles
ITLB RQ	ACCESS:   38086738	FORWARD:          0	MERGED:    8869243	TO_CACHE:   29217495

DTLB TOTAL     ACCESS:   15409717  HIT:    7504766  MISS:    7904951  HIT %:    48.7015  MISS %:    51.2985   MPKI: 39.5248
DTLB LOAD TRANSLATION ACCESS:   15409717  HIT:    7504766  MISS:    7904951  HIT %:    48.7015  MISS %:    51.2985   MPKI: 39.5248
DTLB PREFETCH  REQUESTED:          0  ISSUED:          0  USEFUL:          0  USELESS:          0
DTLB USEFUL LOAD PREFETCHES:          0 PREFETCH ISSUED TO LOWER LEVEL:          0  ACCURACY: -nan
DTLB TIMELY PREFETCHES:          0 LATE PREFETCHES: 0 DROPPED PREFETCHES: 0
DTLB PREFETCHES SAME FILL-ORIGIN LEVEL: 0 DIFFERENT FILL-ORIGIN LEVEL: 0
DTLB AVERAGE MISS LATENCY: 23.5619 cycles
DTLB RQ	ACCESS:   17384375	FORWARD:          0	MERGED:    1166198	TO_CACHE:   16218177

STLB TOTAL     ACCESS:   12417582  HIT:    7296718  MISS:    5120864  HIT %:    58.7612  MISS %:    41.2388   MPKI: 25.6043
STLB LOAD TRANSLATION ACCESS:    9174942  HIT:    4177266  MISS:    4997676  HIT %:    45.5291  MISS %:    54.4709   MPKI: 24.9884
STLB TRANSLATION FROM L1D PREFETCHER ACCESS:    3242640  HIT:    3119452  MISS:     123188  HIT %:     96.201  MISS %:      3.799   MPKI: 0.61594
STLB PREFETCH  REQUESTED:          0  ISSUED:          0  USEFUL:      80521  USELESS:      44681
STLB USEFUL LOAD PREFETCHES:      80521 PREFETCH ISSUED TO LOWER LEVEL:          0  ACCURACY: inf
STLB TIMELY PREFETCHES:      80521 LATE PREFETCHES: 0 DROPPED PREFETCHES: 48956
STLB PREFETCHES SAME FILL-ORIGIN LEVEL: 0 DIFFERENT FILL-ORIGIN LEVEL: 0
STLB AVERAGE MISS LATENCY: 28.8417 cycles
STLB RQ	ACCESS:   21152386	FORWARD:          0	MERGED:    8519325	TO_CACHE:   12633061

STLB Hit, L1D data hit: 0
STLB Hit, L2C data hit: 0
STLB Hit, LLC data hit: 0
STLB Hit, LLC data miss: 0
STLB STLB hints to L2: 0
L1D TOTAL     ACCESS:   24301098  HIT:   22892184  MISS:    1408914  HIT %:    94.2023  MISS %:    5.79774   MPKI: 7.04457
L1D LOAD      ACCESS:   13953458  HIT:   12786772  MISS:    1166686  HIT %:    91.6387  MISS %:    8.36127   MPKI: 5.83343
L1D RFO       ACCESS:    3033031  HIT:    2967782  MISS:      65249  HIT %:    97.8487  MISS %:    2.15128   MPKI: 0.326245
L1D PREFETCH  ACCESS:    7314609  HIT:    7137630  MISS:     176979  HIT %:    97.5805  MISS %:    2.41953   MPKI: 0.884895
L1D PREFETCH  REQUESTED:   28734693  ISSUED:   26840834  USEFUL:     137619  USELESS:      42289
L1D USEFUL LOAD PREFETCHES:     137619 PREFETCH ISSUED TO LOWER LEVEL:    4526234  ACCURACY: 3.04047
L1D TIMELY PREFETCHES:     137619 LATE PREFETCHES: 1633 DROPPED PREFETCHES: 82757
L1D PREFETCHES SAME FILL-ORIGIN LEVEL: 181482 DIFFERENT FILL-ORIGIN LEVEL: 4344752
L1D AVERAGE MISS LATENCY: 54.5116 cycles
L1D RQ	ACCESS:   22308453	FORWARD:          0	MERGED:    8156213	TO_CACHE:   14132867
L1D WQ	ACCESS:    3322579	FORWARD:      21173	MERGED:      71071	TO_CACHE:    3251508
L1D PQ	ACCESS:   14967983	FORWARD:          0	MERGED:    3093332	TO_CACHE:   11872851

L1D UNIQUE REGIONS ACCESSED: 0
L1D REGIONS CONFLICTS: 0
L1D Cross Page Prefetch Requests: 4173745
L1D Same Page Prefetch Requests: 16452687
L1D ROI Sum of L1D PQ occupancy: 167743432
L1D PREFETCHES PUSHED FROM L2C: 0
L1I TOTAL     ACCESS:   37695817  HIT:   37680985  MISS:      14832  HIT %:    99.9607  MISS %:  0.0393465   MPKI: 0.07416
L1I LOAD      ACCESS:   37695817  HIT:   37680985  MISS:      14832  HIT %:    99.9607  MISS %:  0.0393465   MPKI: 0.07416
L1I PREFETCH  REQUESTED:          0  ISSUED:          0  USEFUL:          0  USELESS:          0
L1I USEFUL LOAD PREFETCHES:          0 PREFETCH ISSUED TO LOWER LEVEL:          0  ACCURACY: -nan
L1I TIMELY PREFETCHES:          0 LATE PREFETCHES: 0 DROPPED PREFETCHES: 0
L1I PREFETCHES SAME FILL-ORIGIN LEVEL: 0 DIFFERENT FILL-ORIGIN LEVEL: 0
L1I AVERAGE MISS LATENCY: 98.7354 cycles
L1I RQ	ACCESS:   58773621	FORWARD:          0	MERGED:   20686883	TO_CACHE:   38086738

BTB BRANCH_DIRECT_JUMP	ACCESS:          0  HIT:          0  MISS:          0
BTB BRANCH_INDIRECT	ACCESS:          0  HIT:          0  MISS:          0
BTB BRANCH_CONDITIONAL	ACCESS:          0  HIT:          0  MISS:          0
BTB BRANCH_DIRECT_CALL	ACCESS:          0  HIT:          0  MISS:          0
BTB BRANCH_INDIRECT_CALL	ACCESS:          0  HIT:          0  MISS:          0
BTB BRANCH_RETURN	ACCESS:          0  HIT:          0  MISS:          0
BTB BRANCH_OTHER ACCESS:          0  HIT:          0  MISS:          0

L2C TOTAL     ACCESS:   11409819  HIT:   10117085  MISS:    1292734  HIT %:      88.67  MISS %:      11.33   MPKI: 6.46367
L2C LOAD      ACCESS:    1179881  HIT:     424464  MISS:     755417  HIT %:    35.9752  MISS %:    64.0248   MPKI: 3.77708
L2C DATA LOAD MPKI: 3.73737
L2C INSTRUCTION LOAD MPKI: 0.039715
L2C RFO       ACCESS:      65240  HIT:      39174  MISS:      26066  HIT %:     60.046  MISS %:     39.954   MPKI: 0.13033
L2C PREFETCH  ACCESS:    4414751  HIT:    4058395  MISS:     356356  HIT %:    91.9281  MISS %:    8.07194   MPKI: 1.78178
L2C DATA PREFETCH MPKI: 1.78178
L2C INSTRUCTION PREFETCH MPKI: 0
L2C WRITEBACK ACCESS:     111631  HIT:     105491  MISS:       6140  HIT %:    94.4997  MISS %:    5.50026   MPKI: 0.0307
L2C LOAD TRANSLATION ACCESS:    5465757  HIT:    5317626  MISS:     148131  HIT %:    97.2898  MISS %:    2.71016   MPKI: 0.740655
L2C TRANSLATION FROM L1D PREFETCHER ACCESS:     172559  HIT:     171935  MISS:        624  HIT %:    99.6384  MISS %:   0.361615   MPKI: 0.00312
L2C PREFETCH  REQUESTED:          0  ISSUED:          0  USEFUL:      99802  USELESS:     264947
L2C USEFUL LOAD PREFETCHES:      99802 PREFETCH ISSUED TO LOWER LEVEL:     363642  ACCURACY: 27.4451
L2C TIMELY PREFETCHES:      99802 LATE PREFETCHES: 1079 DROPPED PREFETCHES: 0
L2C PREFETCHES SAME FILL-ORIGIN LEVEL: 327616 DIFFERENT FILL-ORIGIN LEVEL: 0
L2C AVERAGE MISS LATENCY: 66.2606 cycles
L2C RQ	ACCESS:    6953068	FORWARD:          0	MERGED:          0	TO_CACHE:    6953054
L2C WQ	ACCESS:     113598	FORWARD:         17	MERGED:          0	TO_CACHE:     113598
L2C PQ	ACCESS:    4526178	FORWARD:          0	MERGED:       7088	TO_CACHE:    4519087

L2C Instructions Evicting Data 6431
L2C Translations Evicting Data 129611
L2C Data Evicting Data 1010009
L2C Instructions Evicting Instructions 767
L2C Translations Evicting Instructions 291
L2C Data Evicting Instructions 6746
L2C Instructions Evicting Translations 746
L2C Translations Evicting Translations 20741
L2C Data Evicting Translations 127994
L2C Dense regions hint from L2: 0
PSCL5 TOTAL     ACCESS:    5169795  HIT:    5169795  MISS:          0  HIT %:        100  MISS %:          0   MPKI: 0
PSCL5 LOAD TRANSLATION ACCESS:    4997677  HIT:    4997677  MISS:          0  HIT %:        100  MISS %:          0   MPKI: 0
PSCL5 TRANSLATION FROM L1D PREFETCHER ACCESS:     172118  HIT:     172118  MISS:          0  HIT %:        100  MISS %:          0   MPKI: 0
PSCL5 PREFETCH  REQUESTED:          0  ISSUED:          0  USEFUL:          0  USELESS:          0
PSCL5 USEFUL LOAD PREFETCHES:          0 PREFETCH ISSUED TO LOWER LEVEL:          0  ACCURACY: -nan
PSCL5 TIMELY PREFETCHES:          0 LATE PREFETCHES: 0 DROPPED PREFETCHES: 0
PSCL5 PREFETCHES SAME FILL-ORIGIN LEVEL: 0 DIFFERENT FILL-ORIGIN LEVEL: 0

PSCL4 TOTAL     ACCESS:    5169795  HIT:    5169795  MISS:          0  HIT %:        100  MISS %:          0   MPKI: 0
PSCL4 LOAD TRANSLATION ACCESS:    4997677  HIT:    4997677  MISS:          0  HIT %:        100  MISS %:          0   MPKI: 0
PSCL4 TRANSLATION FROM L1D PREFETCHER ACCESS:     172118  HIT:     172118  MISS:          0  HIT %:        100  MISS %:          0   MPKI: 0
PSCL4 PREFETCH  REQUESTED:          0  ISSUED:          0  USEFUL:          0  USELESS:          0
PSCL4 USEFUL LOAD PREFETCHES:          0 PREFETCH ISSUED TO LOWER LEVEL:          0  ACCURACY: -nan
PSCL4 TIMELY PREFETCHES:          0 LATE PREFETCHES: 0 DROPPED PREFETCHES: 0
PSCL4 PREFETCHES SAME FILL-ORIGIN LEVEL: 0 DIFFERENT FILL-ORIGIN LEVEL: 0

PSCL3 TOTAL     ACCESS:    5169435  HIT:    5169350  MISS:         85  HIT %:    99.9984  MISS %: 0.00164428   MPKI: 0.000425
PSCL3 LOAD TRANSLATION ACCESS:    4997327  HIT:    4997242  MISS:         85  HIT %:    99.9983  MISS %: 0.00170091   MPKI: 0.000425
PSCL3 TRANSLATION FROM L1D PREFETCHER ACCESS:     172108  HIT:     172108  MISS:          0  HIT %:        100  MISS %:          0   MPKI: 0
PSCL3 PREFETCH  REQUESTED:          0  ISSUED:          0  USEFUL:          0  USELESS:          0
PSCL3 USEFUL LOAD PREFETCHES:          0 PREFETCH ISSUED TO LOWER LEVEL:          0  ACCURACY: -nan
PSCL3 TIMELY PREFETCHES:          0 LATE PREFETCHES: 0 DROPPED PREFETCHES: 0
PSCL3 PREFETCHES SAME FILL-ORIGIN LEVEL: 0 DIFFERENT FILL-ORIGIN LEVEL: 0

PSCL2 TOTAL     ACCESS:    5169728  HIT:    4701355  MISS:     468373  HIT %:    90.9401  MISS %:    9.05992   MPKI: 2.34186
PSCL2 LOAD TRANSLATION ACCESS:    4998051  HIT:    4529678  MISS:     468373  HIT %:    90.6289  MISS %:    9.37111   MPKI: 2.34186
PSCL2 TRANSLATION FROM L1D PREFETCHER ACCESS:     171677  HIT:     171677  MISS:          0  HIT %:        100  MISS %:          0   MPKI: 0
PSCL2 PREFETCH  REQUESTED:          0  ISSUED:          0  USEFUL:          0  USELESS:          0
PSCL2 USEFUL LOAD PREFETCHES:          0 PREFETCH ISSUED TO LOWER LEVEL:          0  ACCURACY: -nan
PSCL2 TIMELY PREFETCHES:          0 LATE PREFETCHES: 0 DROPPED PREFETCHES: 0
PSCL2 PREFETCHES SAME FILL-ORIGIN LEVEL: 0 DIFFERENT FILL-ORIGIN LEVEL: 0

LLC TOTAL     ACCESS:    1349460  HIT:    1067198  MISS:     282262  HIT %:    79.0833  MISS %:    20.9167   MPKI: 1.41131
LLC LOAD      ACCESS:     754346  HIT:     578212  MISS:     176134  HIT %:    76.6508  MISS %:    23.3492   MPKI: 0.88067
LLC RFO       ACCESS:      26063  HIT:       2881  MISS:      23182  HIT %:     11.054  MISS %:     88.946   MPKI: 0.11591
LLC PREFETCH  ACCESS:     357430  HIT:     295965  MISS:      61465  HIT %:    82.8036  MISS %:    17.1964   MPKI: 0.307325
LLC WRITEBACK ACCESS:      62866  HIT:      58093  MISS:       4773  HIT %:    92.4077  MISS %:    7.59234   MPKI: 0.023865
LLC LOAD TRANSLATION ACCESS:     148131  HIT:     131560  MISS:      16571  HIT %:    88.8133  MISS %:    11.1867   MPKI: 0.082855
LLC TRANSLATION FROM L1D PREFETCHER ACCESS:        624  HIT:        487  MISS:        137  HIT %:    78.0449  MISS %:    21.9551   MPKI: 0.000685
LLC PREFETCH  REQUESTED:          0  ISSUED:          0  USEFUL:      31820  USELESS:     208181
LLC USEFUL LOAD PREFETCHES:      31820 PREFETCH ISSUED TO LOWER LEVEL:     242426  ACCURACY: 13.1257
LLC TIMELY PREFETCHES:      31820 LATE PREFETCHES: 0 DROPPED PREFETCHES: 0
LLC PREFETCHES SAME FILL-ORIGIN LEVEL: 0 DIFFERENT FILL-ORIGIN LEVEL: 0
LLC AVERAGE MISS LATENCY: 591.933 cycles
LLC RQ	ACCESS:    4075066	FORWARD:          0	MERGED:          0	TO_CACHE:    4075066
LLC WQ	ACCESS:     245714	FORWARD:          0	MERGED:          0	TO_CACHE:     245714
LLC PQ	ACCESS:    1291837	FORWARD:          0	MERGED:          0	TO_CACHE:    1291837

LLC Dense regions hint to LLC: 0

RAW hits: 457020
Loads Generated: 22533090
Loads sent to L1D: 22076070
Stores Generated: 3292016
Stores sent to L1D: 3292017
Major fault: 0 Minor fault: 9896
Allocated PAGES: 41246

DRAM Statistics
 CHANNEL 0
 RQ ROW_BUFFER_HIT:     187376  ROW_BUFFER_MISS:     806098
 DBUS_CONGESTED:        516
 WQ ROW_BUFFER_HIT:      54459  ROW_BUFFER_MISS:     166608  FULL:          0

 AVG_CONGESTED_CYCLE: 4
 All warmup complete: 5
Channel 0 Bank busy for read cycles: 0
Channel 0 Bank busy for write cycles: 0
Channel 0
Rank 0
0banks busy for read cycles: 93873938
0banks busy for write cycles: 78629
1banks busy for read cycles: 51857770
1banks busy for write cycles: 12441052
2banks busy for read cycles: 18024847
2banks busy for write cycles: 4232799
3banks busy for read cycles: 6603600
3banks busy for write cycles: 1897118
4banks busy for read cycles: 2478701
4banks busy for write cycles: 1048130
5banks busy for read cycles: 939986
5banks busy for write cycles: 690867
6banks busy for read cycles: 506368
6banks busy for write cycles: 529703
7banks busy for read cycles: 309291
7banks busy for write cycles: 601345
8banks busy for read cycles: 369148
8banks busy for write cycles: 1348883

CPU 0 Branch Prediction Accuracy: 98.9703% MPKI: 1.39407 Average ROB Occupancy at Mispredict: 106.611
Branch types
NOT_BRANCH: 0 0%
BRANCH_DIRECT_JUMP: 0 0%
BRANCH_INDIRECT: 0 0%
BRANCH_CONDITIONAL: 0 0%
BRANCH_DIRECT_CALL: 0 0%
BRANCH_INDIRECT_CALL: 0 0%
BRANCH_RETURN: 0 0%
BRANCH_OTHER: 0 0%


CPU 1 Branch Prediction Accuracy: 99.0591% MPKI: 1.27438 Average ROB Occupancy at Mispredict: 96.8802
Branch types
NOT_BRANCH: 0 0%
BRANCH_DIRECT_JUMP: 0 0%
BRANCH_INDIRECT: 0 0%
BRANCH_CONDITIONAL: 0 0%
BRANCH_DIRECT_CALL: 0 0%
BRANCH_INDIRECT_CALL: 0 0%
BRANCH_RETURN: 0 0%
BRANCH_OTHER: 0 0%


CPU 2 Branch Prediction Accuracy: 99.1296% MPKI: 1.18759 Average ROB Occupancy at Mispredict: 94.7078
Branch types
NOT_BRANCH: 0 0%
BRANCH_DIRECT_JUMP: 0 0%
BRANCH_INDIRECT: 0 0%
BRANCH_CONDITIONAL: 0 0%
BRANCH_DIRECT_CALL: 0 0%
BRANCH_INDIRECT_CALL: 0 0%
BRANCH_RETURN: 0 0%
BRANCH_OTHER: 0 0%


CPU 3 Branch Prediction Accuracy: 99.0594% MPKI: 1.25803 Average ROB Occupancy at Mispredict: 100.45
Branch types
NOT_BRANCH: 0 0%
BRANCH_DIRECT_JUMP: 0 0%
BRANCH_INDIRECT: 0 0%
BRANCH_CONDITIONAL: 0 0%
BRANCH_DIRECT_CALL: 0 0%
BRANCH_INDIRECT_CALL: 0 0%
BRANCH_RETURN: 0 0%
BRANCH_OTHER: 0 0%

DRAM PAGES: 1048576
Allocated PAGES: 41246
