
*** ChampSim Multicore Out-of-Order Simulator ***

Warmup Instructions: 50000000
Simulation Instructions: 200000000
Number of CPUs: 4
LLC sets: 8192
LLC ways: 16
Off-chip DRAM Size: 4096 MB Channels: 1 Width: 64-bit Data Rate: 6400 MT/s
CPU 0 runs ./traces/cs/cassandra_phase5_core0.trace.xz
.xz
CPU 1 runs ./traces/cs/cassandra_phase5_core1.trace.xz
.xz
CPU 2 runs ./traces/cs/cassandra_phase5_core2.trace.xz
.xz
CPU 3 runs ./traces/cs/cassandra_phase5_core3.trace.xz
.xz
BTB has LRU replacement policy
ITLB has LRU replacement policy
DTLB has LRU replacement policy
STLB has LRU replacement policy
L1I has LRU replacement policy
History Sets: 8
History Ways: 16
BERTI Size: 16
BERTI Stride Size: 8
L1D has LRU replacement policy
Initialize SRRIP state for L2C
Initialize DRRIP state for LLC
BTB has LRU replacement policy
ITLB has LRU replacement policy
DTLB has LRU replacement policy
STLB has LRU replacement policy
L1I has LRU replacement policy
History Sets: 8
History Ways: 16
BERTI Size: 16
BERTI Stride Size: 8
L1D has LRU replacement policy
Initialize SRRIP state for L2C
Initialize DRRIP state for LLC
BTB has LRU replacement policy
ITLB has LRU replacement policy
DTLB has LRU replacement policy
STLB has LRU replacement policy
L1I has LRU replacement policy
History Sets: 8
History Ways: 16
BERTI Size: 16
BERTI Stride Size: 8
L1D has LRU replacement policy
Initialize SRRIP state for L2C
Initialize DRRIP state for LLC
BTB has LRU replacement policy
ITLB has LRU replacement policy
DTLB has LRU replacement policy
STLB has LRU replacement policy
L1I has LRU replacement policy
History Sets: 8
History Ways: 16
BERTI Size: 16
BERTI Stride Size: 8
L1D has LRU replacement policy
Initialize SRRIP state for L2C
Initialize DRRIP state for LLC
UNIQUE_ASID[0] = €
UNIQUE_ASID[1] = 
Heartbeat CPU 3 instructions: 10000003 cycles: 2753673 heartbeat IPC: 3.63151 cumulative IPC: 3.63151 (Simulation time: 0 hr 1 min 59 sec) 
Heartbeat CPU 1 instructions: 10000001 cycles: 2789489 heartbeat IPC: 3.58489 cumulative IPC: 3.58489 (Simulation time: 0 hr 2 min 1 sec) 
Heartbeat CPU 0 instructions: 10000002 cycles: 2789828 heartbeat IPC: 3.58445 cumulative IPC: 3.58445 (Simulation time: 0 hr 2 min 1 sec) 
Heartbeat CPU 2 instructions: 10000002 cycles: 2812800 heartbeat IPC: 3.55518 cumulative IPC: 3.55518 (Simulation time: 0 hr 2 min 2 sec) 
Heartbeat CPU 3 instructions: 20000003 cycles: 5538652 heartbeat IPC: 3.59069 cumulative IPC: 3.61099 (Simulation time: 0 hr 4 min 6 sec) 
Heartbeat CPU 0 instructions: 20000003 cycles: 5551137 heartbeat IPC: 3.62147 cumulative IPC: 3.60287 (Simulation time: 0 hr 4 min 7 sec) 
Heartbeat CPU 1 instructions: 20000002 cycles: 5576905 heartbeat IPC: 3.58755 cumulative IPC: 3.58622 (Simulation time: 0 hr 4 min 8 sec) 
Heartbeat CPU 2 instructions: 20000000 cycles: 5598985 heartbeat IPC: 3.58914 cumulative IPC: 3.57208 (Simulation time: 0 hr 4 min 10 sec) 
Heartbeat CPU 2 instructions: 30000003 cycles: 8329675 heartbeat IPC: 3.66208 cumulative IPC: 3.60158 (Simulation time: 0 hr 6 min 16 sec) 
Heartbeat CPU 0 instructions: 30000003 cycles: 8367117 heartbeat IPC: 3.55116 cumulative IPC: 3.58546 (Simulation time: 0 hr 6 min 18 sec) 
Heartbeat CPU 1 instructions: 30000003 cycles: 8375137 heartbeat IPC: 3.57369 cumulative IPC: 3.58203 (Simulation time: 0 hr 6 min 18 sec) 
Heartbeat CPU 3 instructions: 30000002 cycles: 8468963 heartbeat IPC: 3.41261 cumulative IPC: 3.54235 (Simulation time: 0 hr 6 min 23 sec) 
Heartbeat CPU 2 instructions: 40000002 cycles: 11154257 heartbeat IPC: 3.54035 cumulative IPC: 3.58608 (Simulation time: 0 hr 8 min 21 sec) 
Heartbeat CPU 0 instructions: 40000000 cycles: 11166372 heartbeat IPC: 3.57238 cumulative IPC: 3.58218 (Simulation time: 0 hr 8 min 22 sec) 
Heartbeat CPU 1 instructions: 40000003 cycles: 11183903 heartbeat IPC: 3.56028 cumulative IPC: 3.57657 (Simulation time: 0 hr 8 min 23 sec) 
Heartbeat CPU 3 instructions: 40000003 cycles: 11209865 heartbeat IPC: 3.64843 cumulative IPC: 3.56829 (Simulation time: 0 hr 8 min 24 sec) 
Heartbeat CPU 0 instructions: 50000003 cycles: 13950279 heartbeat IPC: 3.59208 cumulative IPC: 3.58416 (Simulation time: 0 hr 10 min 37 sec) 
Heartbeat CPU 2 instructions: 50000003 cycles: 14020842 heartbeat IPC: 3.48847 cumulative IPC: 3.56612 (Simulation time: 0 hr 10 min 40 sec) 
Heartbeat CPU 1 instructions: 50000002 cycles: 14044568 heartbeat IPC: 3.49569 cumulative IPC: 3.5601 (Simulation time: 0 hr 10 min 41 sec) 
Heartbeat CPU 3 instructions: 50000002 cycles: 14086482 heartbeat IPC: 3.47631 cumulative IPC: 3.5495 (Simulation time: 0 hr 10 min 43 sec) 

Warmup complete CPU 0 instructions: 50483537 cycles: 14086482 (Simulation time: 0 hr 10 min 43 sec) 
Warmup complete CPU 1 instructions: 50148416 cycles: 14086482 (Simulation time: 0 hr 10 min 43 sec) 
Warmup complete CPU 2 instructions: 50197038 cycles: 14086482 (Simulation time: 0 hr 10 min 43 sec) 
Warmup complete CPU 3 instructions: 50000002 cycles: 14086482 (Simulation time: 0 hr 10 min 43 sec) 

Heartbeat CPU 0 instructions: 60000002 cycles: 29670465 heartbeat IPC: 0.636125 cumulative IPC: 0.610657 (Simulation time: 0 hr 14 min 0 sec) 
Heartbeat CPU 2 instructions: 60000000 cycles: 29943933 heartbeat IPC: 0.628019 cumulative IPC: 0.618193 (Simulation time: 0 hr 14 min 3 sec) 
Heartbeat CPU 1 instructions: 60000001 cycles: 30221563 heartbeat IPC: 0.618162 cumulative IPC: 0.610569 (Simulation time: 0 hr 14 min 7 sec) 
Heartbeat CPU 3 instructions: 60000003 cycles: 31318712 heartbeat IPC: 0.580308 cumulative IPC: 0.580308 (Simulation time: 0 hr 14 min 19 sec) 
Heartbeat CPU 0 instructions: 70000003 cycles: 45939543 heartbeat IPC: 0.614663 cumulative IPC: 0.612703 (Simulation time: 0 hr 17 min 29 sec) 
Heartbeat CPU 1 instructions: 70000003 cycles: 46731606 heartbeat IPC: 0.605692 cumulative IPC: 0.608103 (Simulation time: 0 hr 17 min 40 sec) 
Heartbeat CPU 2 instructions: 70000000 cycles: 46830089 heartbeat IPC: 0.592201 cumulative IPC: 0.604789 (Simulation time: 0 hr 17 min 41 sec) 
Heartbeat CPU 3 instructions: 70000001 cycles: 47836615 heartbeat IPC: 0.605404 cumulative IPC: 0.59259 (Simulation time: 0 hr 17 min 53 sec) 
Heartbeat CPU 0 instructions: 80000003 cycles: 62053731 heartbeat IPC: 0.620571 cumulative IPC: 0.615346 (Simulation time: 0 hr 20 min 35 sec) 
Heartbeat CPU 3 instructions: 80000003 cycles: 63329339 heartbeat IPC: 0.645464 cumulative IPC: 0.609225 (Simulation time: 0 hr 20 min 50 sec) 
Heartbeat CPU 2 instructions: 80000003 cycles: 63412573 heartbeat IPC: 0.603046 cumulative IPC: 0.604203 (Simulation time: 0 hr 20 min 51 sec) 
Heartbeat CPU 1 instructions: 80000000 cycles: 63423780 heartbeat IPC: 0.599083 cumulative IPC: 0.605051 (Simulation time: 0 hr 20 min 51 sec) 
Heartbeat CPU 0 instructions: 90000003 cycles: 77989745 heartbeat IPC: 0.627509 cumulative IPC: 0.618379 (Simulation time: 0 hr 23 min 47 sec) 
Heartbeat CPU 2 instructions: 90000001 cycles: 78749584 heartbeat IPC: 0.652017 cumulative IPC: 0.615544 (Simulation time: 0 hr 23 min 54 sec) 
Heartbeat CPU 3 instructions: 90000001 cycles: 79167226 heartbeat IPC: 0.631397 cumulative IPC: 0.614621 (Simulation time: 0 hr 23 min 58 sec) 
Heartbeat CPU 1 instructions: 90000000 cycles: 80646708 heartbeat IPC: 0.580621 cumulative IPC: 0.59873 (Simulation time: 0 hr 24 min 15 sec) 
Heartbeat CPU 0 instructions: 100000002 cycles: 95029583 heartbeat IPC: 0.58686 cumulative IPC: 0.611744 (Simulation time: 0 hr 26 min 58 sec) 
Heartbeat CPU 2 instructions: 100000002 cycles: 95725607 heartbeat IPC: 0.589066 cumulative IPC: 0.610038 (Simulation time: 0 hr 27 min 8 sec) 
Heartbeat CPU 3 instructions: 100000003 cycles: 96344882 heartbeat IPC: 0.582152 cumulative IPC: 0.607841 (Simulation time: 0 hr 27 min 15 sec) 
Heartbeat CPU 1 instructions: 100000003 cycles: 98928720 heartbeat IPC: 0.546986 cumulative IPC: 0.58758 (Simulation time: 0 hr 27 min 43 sec) 
Heartbeat CPU 0 instructions: 110000000 cycles: 112142246 heartbeat IPC: 0.584362 cumulative IPC: 0.606965 (Simulation time: 0 hr 30 min 4 sec) 
Heartbeat CPU 2 instructions: 110000000 cycles: 112711482 heartbeat IPC: 0.588724 cumulative IPC: 0.606367 (Simulation time: 0 hr 30 min 10 sec) 
Heartbeat CPU 3 instructions: 110000000 cycles: 113311499 heartbeat IPC: 0.589392 cumulative IPC: 0.604686 (Simulation time: 0 hr 30 min 15 sec) 
Heartbeat CPU 1 instructions: 110000000 cycles: 117059210 heartbeat IPC: 0.551557 cumulative IPC: 0.581237 (Simulation time: 0 hr 31 min 5 sec) 
Heartbeat CPU 0 instructions: 120000001 cycles: 129337425 heartbeat IPC: 0.581558 cumulative IPC: 0.603175 (Simulation time: 0 hr 33 min 28 sec) 
Heartbeat CPU 3 instructions: 120000003 cycles: 130269086 heartbeat IPC: 0.589707 cumulative IPC: 0.6025 (Simulation time: 0 hr 33 min 40 sec) 
Heartbeat CPU 2 instructions: 120000000 cycles: 130326494 heartbeat IPC: 0.567698 cumulative IPC: 0.600507 (Simulation time: 0 hr 33 min 41 sec) 
Heartbeat CPU 1 instructions: 120000000 cycles: 134800155 heartbeat IPC: 0.563668 cumulative IPC: 0.578655 (Simulation time: 0 hr 34 min 39 sec) 
Heartbeat CPU 0 instructions: 130000000 cycles: 146492290 heartbeat IPC: 0.582925 cumulative IPC: 0.600551 (Simulation time: 0 hr 37 min 4 sec) 
Heartbeat CPU 2 instructions: 130000003 cycles: 146793835 heartbeat IPC: 0.607263 cumulative IPC: 0.601345 (Simulation time: 0 hr 37 min 9 sec) 
Heartbeat CPU 3 instructions: 130000003 cycles: 147699113 heartbeat IPC: 0.573723 cumulative IPC: 0.598746 (Simulation time: 0 hr 37 min 22 sec) 
Heartbeat CPU 1 instructions: 130000000 cycles: 152868410 heartbeat IPC: 0.553457 cumulative IPC: 0.575374 (Simulation time: 0 hr 38 min 23 sec) 
Heartbeat CPU 0 instructions: 140000000 cycles: 162641090 heartbeat IPC: 0.619241 cumulative IPC: 0.602583 (Simulation time: 0 hr 40 min 9 sec) 
Heartbeat CPU 2 instructions: 140000000 cycles: 163717857 heartbeat IPC: 0.590876 cumulative IPC: 0.600161 (Simulation time: 0 hr 40 min 22 sec) 
Heartbeat CPU 3 instructions: 140000001 cycles: 164393831 heartbeat IPC: 0.598992 cumulative IPC: 0.598773 (Simulation time: 0 hr 40 min 30 sec) 
Heartbeat CPU 1 instructions: 140000000 cycles: 171120081 heartbeat IPC: 0.547895 cumulative IPC: 0.572181 (Simulation time: 0 hr 41 min 58 sec) 
Heartbeat CPU 0 instructions: 150000003 cycles: 179099921 heartbeat IPC: 0.607577 cumulative IPC: 0.603081 (Simulation time: 0 hr 43 min 45 sec) 
Heartbeat CPU 2 instructions: 150000003 cycles: 180108689 heartbeat IPC: 0.610097 cumulative IPC: 0.601142 (Simulation time: 0 hr 43 min 58 sec) 
Heartbeat CPU 3 instructions: 150000001 cycles: 181488482 heartbeat IPC: 0.584978 cumulative IPC: 0.597364 (Simulation time: 0 hr 44 min 15 sec) 
Heartbeat CPU 1 instructions: 150000003 cycles: 187621662 heartbeat IPC: 0.606003 cumulative IPC: 0.575397 (Simulation time: 0 hr 45 min 35 sec) 
Heartbeat CPU 0 instructions: 160000002 cycles: 195281020 heartbeat IPC: 0.618005 cumulative IPC: 0.604414 (Simulation time: 0 hr 47 min 2 sec) 
Heartbeat CPU 2 instructions: 160000000 cycles: 195710859 heartbeat IPC: 0.640936 cumulative IPC: 0.604561 (Simulation time: 0 hr 47 min 6 sec) 
Heartbeat CPU 3 instructions: 160000000 cycles: 198675169 heartbeat IPC: 0.581846 cumulative IPC: 0.595919 (Simulation time: 0 hr 47 min 41 sec) 
Heartbeat CPU 1 instructions: 160000000 cycles: 204052357 heartbeat IPC: 0.608617 cumulative IPC: 0.57827 (Simulation time: 0 hr 48 min 40 sec) 
Heartbeat CPU 0 instructions: 170000003 cycles: 211403362 heartbeat IPC: 0.620257 cumulative IPC: 0.605708 (Simulation time: 0 hr 50 min 8 sec) 
Heartbeat CPU 2 instructions: 170000000 cycles: 212371607 heartbeat IPC: 0.600213 cumulative IPC: 0.604195 (Simulation time: 0 hr 50 min 20 sec) 
Heartbeat CPU 3 instructions: 170000002 cycles: 215071887 heartbeat IPC: 0.609878 cumulative IPC: 0.597058 (Simulation time: 0 hr 50 min 56 sec) 
Heartbeat CPU 1 instructions: 170000001 cycles: 220670576 heartbeat IPC: 0.601749 cumulative IPC: 0.580159 (Simulation time: 0 hr 52 min 5 sec) 
Heartbeat CPU 0 instructions: 180000002 cycles: 227645034 heartbeat IPC: 0.6157 cumulative IPC: 0.606468 (Simulation time: 0 hr 53 min 37 sec) 
Heartbeat CPU 2 instructions: 180000002 cycles: 229065884 heartbeat IPC: 0.599008 cumulative IPC: 0.603793 (Simulation time: 0 hr 53 min 53 sec) 
Heartbeat CPU 3 instructions: 180000000 cycles: 230585787 heartbeat IPC: 0.644583 cumulative IPC: 0.600464 (Simulation time: 0 hr 54 min 7 sec) 
Heartbeat CPU 1 instructions: 180000003 cycles: 237098825 heartbeat IPC: 0.608708 cumulative IPC: 0.582262 (Simulation time: 0 hr 55 min 27 sec) 
Heartbeat CPU 0 instructions: 190000001 cycles: 243561245 heartbeat IPC: 0.62829 cumulative IPC: 0.607982 (Simulation time: 0 hr 56 min 58 sec) 
Heartbeat CPU 2 instructions: 190000000 cycles: 244189670 heartbeat IPC: 0.66121 cumulative IPC: 0.607566 (Simulation time: 0 hr 57 min 8 sec) 
Heartbeat CPU 3 instructions: 190000001 cycles: 246282162 heartbeat IPC: 0.63709 cumulative IPC: 0.60294 (Simulation time: 0 hr 57 min 34 sec) 
Heartbeat CPU 1 instructions: 190000003 cycles: 254209465 heartbeat IPC: 0.584432 cumulative IPC: 0.582416 (Simulation time: 0 hr 59 min 15 sec) 
Heartbeat CPU 0 instructions: 200000002 cycles: 260678427 heartbeat IPC: 0.584208 cumulative IPC: 0.606332 (Simulation time: 1 hr 0 min 29 sec) 
Heartbeat CPU 2 instructions: 200000001 cycles: 260961365 heartbeat IPC: 0.596243 cumulative IPC: 0.606797 (Simulation time: 1 hr 0 min 34 sec) 
Heartbeat CPU 3 instructions: 200000001 cycles: 263507962 heartbeat IPC: 0.580525 cumulative IPC: 0.601392 (Simulation time: 1 hr 1 min 6 sec) 
Heartbeat CPU 1 instructions: 200000002 cycles: 272350852 heartbeat IPC: 0.551226 cumulative IPC: 0.580226 (Simulation time: 1 hr 2 min 28 sec) 
Heartbeat CPU 0 instructions: 210000000 cycles: 277958861 heartbeat IPC: 0.578689 cumulative IPC: 0.604521 (Simulation time: 1 hr 3 min 39 sec) 
Heartbeat CPU 2 instructions: 210000002 cycles: 277990737 heartbeat IPC: 0.587221 cumulative IPC: 0.605534 (Simulation time: 1 hr 3 min 39 sec) 
Heartbeat CPU 3 instructions: 210000001 cycles: 280527246 heartbeat IPC: 0.587569 cumulative IPC: 0.600509 (Simulation time: 1 hr 4 min 13 sec) 
Heartbeat CPU 1 instructions: 210000001 cycles: 290319854 heartbeat IPC: 0.556514 cumulative IPC: 0.578683 (Simulation time: 1 hr 6 min 12 sec) 
Heartbeat CPU 0 instructions: 220000000 cycles: 295105454 heartbeat IPC: 0.583206 cumulative IPC: 0.603221 (Simulation time: 1 hr 7 min 0 sec) 
Heartbeat CPU 2 instructions: 220000000 cycles: 295556336 heartbeat IPC: 0.569294 cumulative IPC: 0.603272 (Simulation time: 1 hr 7 min 4 sec) 
Heartbeat CPU 3 instructions: 220000000 cycles: 297691539 heartbeat IPC: 0.582605 cumulative IPC: 0.599425 (Simulation time: 1 hr 7 min 22 sec) 
Heartbeat CPU 1 instructions: 220000000 cycles: 308141358 heartbeat IPC: 0.56112 cumulative IPC: 0.577619 (Simulation time: 1 hr 9 min 13 sec) 
Heartbeat CPU 2 instructions: 230000003 cycles: 311923492 heartbeat IPC: 0.61098 cumulative IPC: 0.603696 (Simulation time: 1 hr 9 min 59 sec) 
Heartbeat CPU 0 instructions: 230000001 cycles: 312062537 heartbeat IPC: 0.589724 cumulative IPC: 0.602453 (Simulation time: 1 hr 10 min 0 sec) 
Heartbeat CPU 3 instructions: 230000001 cycles: 314989430 heartbeat IPC: 0.578105 cumulative IPC: 0.5982 (Simulation time: 1 hr 10 min 29 sec) 
Heartbeat CPU 1 instructions: 230000003 cycles: 326138496 heartbeat IPC: 0.555644 cumulative IPC: 0.576351 (Simulation time: 1 hr 12 min 34 sec) 
Heartbeat CPU 0 instructions: 240000000 cycles: 328447590 heartbeat IPC: 0.610312 cumulative IPC: 0.602862 (Simulation time: 1 hr 13 min 1 sec) 
Heartbeat CPU 2 instructions: 240000002 cycles: 329032429 heartbeat IPC: 0.58449 cumulative IPC: 0.602652 (Simulation time: 1 hr 13 min 7 sec) 
Heartbeat CPU 3 instructions: 240000001 cycles: 331809296 heartbeat IPC: 0.594535 cumulative IPC: 0.598006 (Simulation time: 1 hr 13 min 34 sec) 
Heartbeat CPU 1 instructions: 240000002 cycles: 344291217 heartbeat IPC: 0.550882 cumulative IPC: 0.574951 (Simulation time: 1 hr 16 min 14 sec) 
Heartbeat CPU 0 instructions: 250000001 cycles: 344796639 heartbeat IPC: 0.611656 cumulative IPC: 0.603297 (Simulation time: 1 hr 16 min 21 sec) 
Heartbeat CPU 2 instructions: 250000000 cycles: 345301726 heartbeat IPC: 0.614655 cumulative IPC: 0.603242 (Simulation time: 1 hr 16 min 28 sec) 
Finished CPU 2 instructions: 200000002 cycles: 331386823 cumulative IPC: 0.603524 (Simulation time: 1 hr 16 min 30 sec) 
Finished CPU 0 instructions: 200000001 cycles: 331583390 cumulative IPC: 0.603167 (Simulation time: 1 hr 16 min 33 sec) 
Heartbeat CPU 3 instructions: 250000000 cycles: 348822747 heartbeat IPC: 0.58777 cumulative IPC: 0.597485 (Simulation time: 1 hr 17 min 8 sec) 
Finished CPU 3 instructions: 200000002 cycles: 334736266 cumulative IPC: 0.597485 (Simulation time: 1 hr 17 min 8 sec) 
Heartbeat CPU 1 instructions: 250000001 cycles: 360842296 heartbeat IPC: 0.60419 cumulative IPC: 0.576347 (Simulation time: 1 hr 19 min 34 sec) 
Heartbeat CPU 2 instructions: 260000002 cycles: 360932851 heartbeat IPC: 0.639749 cumulative IPC: 0.604887 (Simulation time: 1 hr 19 min 35 sec) 
Heartbeat CPU 0 instructions: 260000002 cycles: 361011534 heartbeat IPC: 0.616717 cumulative IPC: 0.603924 (Simulation time: 1 hr 19 min 37 sec) 
Finished CPU 1 instructions: 200000001 cycles: 347028630 cumulative IPC: 0.576321 (Simulation time: 1 hr 19 min 38 sec) 

ChampSim completed all CPUs

Total Simulation Statistics (not including warmup)

CPU 0 cumulative IPC: 0.603964 instructions: 209592960 cycles: 347028630
ITLB TOTAL     ACCESS:   30225638  HIT:   29118899  MISS:    1106739  HIT %:    96.3384  MISS %:    3.66159   MPKI: 5.28042
ITLB LOAD      ACCESS:          0  HIT:          0  MISS:          0  HIT %:       -nan  MISS %:       -nan   MPKI: 0
ITLB RFO       ACCESS:          0  HIT:          0  MISS:          0  HIT %:       -nan  MISS %:       -nan   MPKI: 0
ITLB PREFETCH  ACCESS:          0  HIT:          0  MISS:          0  HIT %:       -nan  MISS %:       -nan   MPKI: 0
ITLB WRITEBACK ACCESS:          0  HIT:          0  MISS:          0  HIT %:       -nan  MISS %:       -nan   MPKI: 0
DTLB TOTAL     ACCESS:   16039257  HIT:   11001338  MISS:    5037919  HIT %:    68.5901  MISS %:    31.4099   MPKI: 24.0367
DTLB LOAD      ACCESS:          0  HIT:          0  MISS:          0  HIT %:       -nan  MISS %:       -nan   MPKI: 0
DTLB RFO       ACCESS:          0  HIT:          0  MISS:          0  HIT %:       -nan  MISS %:       -nan   MPKI: 0
DTLB PREFETCH  ACCESS:          0  HIT:          0  MISS:          0  HIT %:       -nan  MISS %:       -nan   MPKI: 0
DTLB WRITEBACK ACCESS:          0  HIT:          0  MISS:          0  HIT %:       -nan  MISS %:       -nan   MPKI: 0
STLB TOTAL     ACCESS:    8659191  HIT:    4520796  MISS:    4138395  HIT %:    52.2081  MISS %:    47.7919   MPKI: 19.7449
STLB LOAD      ACCESS:          0  HIT:          0  MISS:          0  HIT %:       -nan  MISS %:       -nan   MPKI: 0
STLB RFO       ACCESS:          0  HIT:          0  MISS:          0  HIT %:       -nan  MISS %:       -nan   MPKI: 0
STLB PREFETCH  ACCESS:          0  HIT:          0  MISS:          0  HIT %:       -nan  MISS %:       -nan   MPKI: 0
STLB WRITEBACK ACCESS:          0  HIT:          0  MISS:          0  HIT %:       -nan  MISS %:       -nan   MPKI: 0
L1D TOTAL     ACCESS:   30606002  HIT:   28863634  MISS:    1742368  HIT %:    94.3071  MISS %:     5.6929   MPKI: 8.3131
L1D LOAD      ACCESS:   13023294  HIT:   11932676  MISS:    1090618  HIT %:    91.6256  MISS %:    8.37436   MPKI: 5.2035
L1D RFO       ACCESS:    6535571  HIT:    6392629  MISS:     142942  HIT %:    97.8129  MISS %:    2.18714   MPKI: 0.681998
L1D PREFETCH  ACCESS:   11047137  HIT:   10538329  MISS:     508808  HIT %:    95.3942  MISS %:    4.60579   MPKI: 2.4276
L1D WRITEBACK ACCESS:          0  HIT:          0  MISS:          0  HIT %:       -nan  MISS %:       -nan   MPKI: 0
L1I TOTAL     ACCESS:   39207623  HIT:   38811707  MISS:     395916  HIT %:    98.9902  MISS %:    1.00979   MPKI: 1.88898
L1I LOAD      ACCESS:   39207623  HIT:   38811707  MISS:     395916  HIT %:    98.9902  MISS %:    1.00979   MPKI: 1.88898
L1I RFO       ACCESS:          0  HIT:          0  MISS:          0  HIT %:       -nan  MISS %:       -nan   MPKI: 0
L1I PREFETCH  ACCESS:          0  HIT:          0  MISS:          0  HIT %:       -nan  MISS %:       -nan   MPKI: 0
L1I WRITEBACK ACCESS:          0  HIT:          0  MISS:          0  HIT %:       -nan  MISS %:       -nan   MPKI: 0
L2C TOTAL     ACCESS:    9406705  HIT:    7266030  MISS:    2140675  HIT %:    77.2431  MISS %:    22.7569   MPKI: 10.2135
L2C LOAD      ACCESS:    1467767  HIT:     301172  MISS:    1166595  HIT %:    20.5191  MISS %:    79.4809   MPKI: 5.566
L2C RFO       ACCESS:     142939  HIT:      57402  MISS:      85537  HIT %:    40.1584  MISS %:    59.8416   MPKI: 0.40811
L2C PREFETCH  ACCESS:    2672000  HIT:    2100577  MISS:     571423  HIT %:    78.6144  MISS %:    21.3856   MPKI: 2.72635
L2C WRITEBACK ACCESS:     458456  HIT:     430676  MISS:      27780  HIT %:    93.9405  MISS %:    6.05947   MPKI: 0.132543
PSCL5 TOTAL     ACCESS:    4201843  HIT:    4201843  MISS:          0  HIT %:        100  MISS %:          0   MPKI: 0
PSCL5 LOAD      ACCESS:          0  HIT:          0  MISS:          0  HIT %:       -nan  MISS %:       -nan   MPKI: 0
PSCL5 RFO       ACCESS:          0  HIT:          0  MISS:          0  HIT %:       -nan  MISS %:       -nan   MPKI: 0
PSCL5 PREFETCH  ACCESS:          0  HIT:          0  MISS:          0  HIT %:       -nan  MISS %:       -nan   MPKI: 0
PSCL5 WRITEBACK ACCESS:          0  HIT:          0  MISS:          0  HIT %:       -nan  MISS %:       -nan   MPKI: 0
PSCL4 TOTAL     ACCESS:    4154469  HIT:    4153635  MISS:        834  HIT %:    99.9799  MISS %:  0.0200748   MPKI: 0.00397914
PSCL4 LOAD      ACCESS:          0  HIT:          0  MISS:          0  HIT %:       -nan  MISS %:       -nan   MPKI: 0
PSCL4 RFO       ACCESS:          0  HIT:          0  MISS:          0  HIT %:       -nan  MISS %:       -nan   MPKI: 0
PSCL4 PREFETCH  ACCESS:          0  HIT:          0  MISS:          0  HIT %:       -nan  MISS %:       -nan   MPKI: 0
PSCL4 WRITEBACK ACCESS:          0  HIT:          0  MISS:          0  HIT %:       -nan  MISS %:       -nan   MPKI: 0
PSCL3 TOTAL     ACCESS:    4189221  HIT:    4185290  MISS:       3931  HIT %:    99.9062  MISS %:  0.0938361   MPKI: 0.0187554
PSCL3 LOAD      ACCESS:          0  HIT:          0  MISS:          0  HIT %:       -nan  MISS %:       -nan   MPKI: 0
PSCL3 RFO       ACCESS:          0  HIT:          0  MISS:          0  HIT %:       -nan  MISS %:       -nan   MPKI: 0
PSCL3 PREFETCH  ACCESS:          0  HIT:          0  MISS:          0  HIT %:       -nan  MISS %:       -nan   MPKI: 0
PSCL3 WRITEBACK ACCESS:          0  HIT:          0  MISS:          0  HIT %:       -nan  MISS %:       -nan   MPKI: 0
PSCL2 TOTAL     ACCESS:    4200220  HIT:    3742726  MISS:     457494  HIT %:    89.1079  MISS %:    10.8921   MPKI: 2.18277
PSCL2 LOAD      ACCESS:          0  HIT:          0  MISS:          0  HIT %:       -nan  MISS %:       -nan   MPKI: 0
PSCL2 RFO       ACCESS:          0  HIT:          0  MISS:          0  HIT %:       -nan  MISS %:       -nan   MPKI: 0
PSCL2 PREFETCH  ACCESS:          0  HIT:          0  MISS:          0  HIT %:       -nan  MISS %:       -nan   MPKI: 0
PSCL2 WRITEBACK ACCESS:          0  HIT:          0  MISS:          0  HIT %:       -nan  MISS %:       -nan   MPKI: 0
LLC TOTAL     ACCESS:    2502805  HIT:     973872  MISS:    1528933  HIT %:    38.9112  MISS %:    61.0888   MPKI: 7.29477
LLC LOAD      ACCESS:    1158513  HIT:     395151  MISS:     763362  HIT %:    34.1085  MISS %:    65.8915   MPKI: 3.64212
LLC RFO       ACCESS:      85424  HIT:      25645  MISS:      59779  HIT %:    30.0208  MISS %:    69.9792   MPKI: 0.285215
LLC PREFETCH  ACCESS:     579617  HIT:      21605  MISS:     558012  HIT %:    3.72746  MISS %:    96.2725   MPKI: 2.66236
LLC WRITEBACK ACCESS:     389911  HIT:     368074  MISS:      21837  HIT %:    94.3995  MISS %:    5.60051   MPKI: 0.104188

RAW hits: 760211
Loads Generated: 24729642
Loads sent to L1D: 23969430
Stores Generated: 7280092
Stores sent to L1D: 7280092

CPU 1 cumulative IPC: 0.576321 instructions: 200000001 cycles: 347028630
ITLB TOTAL     ACCESS:   29134537  HIT:   27833276  MISS:    1301261  HIT %:    95.5336  MISS %:    4.46639   MPKI: 6.5063
ITLB LOAD      ACCESS:          0  HIT:          0  MISS:          0  HIT %:       -nan  MISS %:       -nan   MPKI: 0
ITLB RFO       ACCESS:          0  HIT:          0  MISS:          0  HIT %:       -nan  MISS %:       -nan   MPKI: 0
ITLB PREFETCH  ACCESS:          0  HIT:          0  MISS:          0  HIT %:       -nan  MISS %:       -nan   MPKI: 0
ITLB WRITEBACK ACCESS:          0  HIT:          0  MISS:          0  HIT %:       -nan  MISS %:       -nan   MPKI: 0
DTLB TOTAL     ACCESS:   16170766  HIT:   10979109  MISS:    5191657  HIT %:    67.8948  MISS %:    32.1052   MPKI: 25.9583
DTLB LOAD      ACCESS:          0  HIT:          0  MISS:          0  HIT %:       -nan  MISS %:       -nan   MPKI: 0
DTLB RFO       ACCESS:          0  HIT:          0  MISS:          0  HIT %:       -nan  MISS %:       -nan   MPKI: 0
DTLB PREFETCH  ACCESS:          0  HIT:          0  MISS:          0  HIT %:       -nan  MISS %:       -nan   MPKI: 0
DTLB WRITEBACK ACCESS:          0  HIT:          0  MISS:          0  HIT %:       -nan  MISS %:       -nan   MPKI: 0
STLB TOTAL     ACCESS:    8992325  HIT:    4578482  MISS:    4413843  HIT %:    50.9154  MISS %:    49.0846   MPKI: 22.0692
STLB LOAD      ACCESS:          0  HIT:          0  MISS:          0  HIT %:       -nan  MISS %:       -nan   MPKI: 0
STLB RFO       ACCESS:          0  HIT:          0  MISS:          0  HIT %:       -nan  MISS %:       -nan   MPKI: 0
STLB PREFETCH  ACCESS:          0  HIT:          0  MISS:          0  HIT %:       -nan  MISS %:       -nan   MPKI: 0
STLB WRITEBACK ACCESS:          0  HIT:          0  MISS:          0  HIT %:       -nan  MISS %:       -nan   MPKI: 0
L1D TOTAL     ACCESS:   30729699  HIT:   28842857  MISS:    1886842  HIT %:    93.8599  MISS %:    6.14013   MPKI: 9.43421
L1D LOAD      ACCESS:   12957850  HIT:   11762889  MISS:    1194961  HIT %:    90.7781  MISS %:    9.22191   MPKI: 5.9748
L1D RFO       ACCESS:    6952434  HIT:    6748390  MISS:     204044  HIT %:    97.0651  MISS %:    2.93486   MPKI: 1.02022
L1D PREFETCH  ACCESS:   10819415  HIT:   10331578  MISS:     487837  HIT %:    95.4911  MISS %:     4.5089   MPKI: 2.43918
L1D WRITEBACK ACCESS:          0  HIT:          0  MISS:          0  HIT %:       -nan  MISS %:       -nan   MPKI: 0
L1I TOTAL     ACCESS:   37528618  HIT:   36525565  MISS:    1003053  HIT %:    97.3272  MISS %:    2.67277   MPKI: 5.01526
L1I LOAD      ACCESS:   37528618  HIT:   36525565  MISS:    1003053  HIT %:    97.3272  MISS %:    2.67277   MPKI: 5.01526
L1I RFO       ACCESS:          0  HIT:          0  MISS:          0  HIT %:       -nan  MISS %:       -nan   MPKI: 0
L1I PREFETCH  ACCESS:          0  HIT:          0  MISS:          0  HIT %:       -nan  MISS %:       -nan   MPKI: 0
L1I WRITEBACK ACCESS:          0  HIT:          0  MISS:          0  HIT %:       -nan  MISS %:       -nan   MPKI: 0
L2C TOTAL     ACCESS:   10516049  HIT:    8235315  MISS:    2280734  HIT %:    78.3119  MISS %:    21.6881   MPKI: 11.4037
L2C LOAD      ACCESS:    2178519  HIT:     899320  MISS:    1279199  HIT %:    41.2813  MISS %:    58.7187   MPKI: 6.39599
L2C RFO       ACCESS:     204035  HIT:      85494  MISS:     118541  HIT %:    41.9016  MISS %:    58.0984   MPKI: 0.592705
L2C PREFETCH  ACCESS:    2576628  HIT:    2013293  MISS:     563335  HIT %:    78.1367  MISS %:    21.8633   MPKI: 2.81667
L2C WRITEBACK ACCESS:     553812  HIT:     519010  MISS:      34802  HIT %:    93.7159  MISS %:    6.28408   MPKI: 0.17401
PSCL5 TOTAL     ACCESS:    4478528  HIT:    4478528  MISS:          0  HIT %:        100  MISS %:          0   MPKI: 0
PSCL5 LOAD      ACCESS:          0  HIT:          0  MISS:          0  HIT %:       -nan  MISS %:       -nan   MPKI: 0
PSCL5 RFO       ACCESS:          0  HIT:          0  MISS:          0  HIT %:       -nan  MISS %:       -nan   MPKI: 0
PSCL5 PREFETCH  ACCESS:          0  HIT:          0  MISS:          0  HIT %:       -nan  MISS %:       -nan   MPKI: 0
PSCL5 WRITEBACK ACCESS:          0  HIT:          0  MISS:          0  HIT %:       -nan  MISS %:       -nan   MPKI: 0
PSCL4 TOTAL     ACCESS:    4422822  HIT:    4422092  MISS:        730  HIT %:    99.9835  MISS %:  0.0165053   MPKI: 0.00365
PSCL4 LOAD      ACCESS:          0  HIT:          0  MISS:          0  HIT %:       -nan  MISS %:       -nan   MPKI: 0
PSCL4 RFO       ACCESS:          0  HIT:          0  MISS:          0  HIT %:       -nan  MISS %:       -nan   MPKI: 0
PSCL4 PREFETCH  ACCESS:          0  HIT:          0  MISS:          0  HIT %:       -nan  MISS %:       -nan   MPKI: 0
PSCL4 WRITEBACK ACCESS:          0  HIT:          0  MISS:          0  HIT %:       -nan  MISS %:       -nan   MPKI: 0
PSCL3 TOTAL     ACCESS:    4448427  HIT:    4438592  MISS:       9835  HIT %:    99.7789  MISS %:   0.221089   MPKI: 0.049175
PSCL3 LOAD      ACCESS:          0  HIT:          0  MISS:          0  HIT %:       -nan  MISS %:       -nan   MPKI: 0
PSCL3 RFO       ACCESS:          0  HIT:          0  MISS:          0  HIT %:       -nan  MISS %:       -nan   MPKI: 0
PSCL3 PREFETCH  ACCESS:          0  HIT:          0  MISS:          0  HIT %:       -nan  MISS %:       -nan   MPKI: 0
PSCL3 WRITEBACK ACCESS:          0  HIT:          0  MISS:          0  HIT %:       -nan  MISS %:       -nan   MPKI: 0
PSCL2 TOTAL     ACCESS:    4476452  HIT:    3964299  MISS:     512153  HIT %:     88.559  MISS %:     11.441   MPKI: 2.56076
PSCL2 LOAD      ACCESS:          0  HIT:          0  MISS:          0  HIT %:       -nan  MISS %:       -nan   MPKI: 0
PSCL2 RFO       ACCESS:          0  HIT:          0  MISS:          0  HIT %:       -nan  MISS %:       -nan   MPKI: 0
PSCL2 PREFETCH  ACCESS:          0  HIT:          0  MISS:          0  HIT %:       -nan  MISS %:       -nan   MPKI: 0
PSCL2 WRITEBACK ACCESS:          0  HIT:          0  MISS:          0  HIT %:       -nan  MISS %:       -nan   MPKI: 0
LLC TOTAL     ACCESS:    2679919  HIT:    1170761  MISS:    1509158  HIT %:    43.6864  MISS %:    56.3136   MPKI: 7.54579
LLC LOAD      ACCESS:    1270762  HIT:     525675  MISS:     745087  HIT %:    41.3669  MISS %:    58.6331   MPKI: 3.72543
LLC RFO       ACCESS:     118344  HIT:      42113  MISS:      76231  HIT %:    35.5852  MISS %:    64.4148   MPKI: 0.381155
LLC PREFETCH  ACCESS:     571968  HIT:      29495  MISS:     542473  HIT %:    5.15676  MISS %:    94.8432   MPKI: 2.71236
LLC WRITEBACK ACCESS:     433988  HIT:     413489  MISS:      20499  HIT %:    95.2766  MISS %:     4.7234   MPKI: 0.102495

RAW hits: 748909
Loads Generated: 24305388
Loads sent to L1D: 23556479
Stores Generated: 7870055
Stores sent to L1D: 7870055

CPU 2 cumulative IPC: 0.604992 instructions: 209949567 cycles: 347028630
ITLB TOTAL     ACCESS:   30320228  HIT:   29131812  MISS:    1188416  HIT %:    96.0805  MISS %:    3.91955   MPKI: 5.66048
ITLB LOAD      ACCESS:          0  HIT:          0  MISS:          0  HIT %:       -nan  MISS %:       -nan   MPKI: 0
ITLB RFO       ACCESS:          0  HIT:          0  MISS:          0  HIT %:       -nan  MISS %:       -nan   MPKI: 0
ITLB PREFETCH  ACCESS:          0  HIT:          0  MISS:          0  HIT %:       -nan  MISS %:       -nan   MPKI: 0
ITLB WRITEBACK ACCESS:          0  HIT:          0  MISS:          0  HIT %:       -nan  MISS %:       -nan   MPKI: 0
DTLB TOTAL     ACCESS:   16306377  HIT:   11347240  MISS:    4959137  HIT %:    69.5877  MISS %:    30.4123   MPKI: 23.6206
DTLB LOAD      ACCESS:          0  HIT:          0  MISS:          0  HIT %:       -nan  MISS %:       -nan   MPKI: 0
DTLB RFO       ACCESS:          0  HIT:          0  MISS:          0  HIT %:       -nan  MISS %:       -nan   MPKI: 0
DTLB PREFETCH  ACCESS:          0  HIT:          0  MISS:          0  HIT %:       -nan  MISS %:       -nan   MPKI: 0
DTLB WRITEBACK ACCESS:          0  HIT:          0  MISS:          0  HIT %:       -nan  MISS %:       -nan   MPKI: 0
STLB TOTAL     ACCESS:    8673864  HIT:    4443313  MISS:    4230551  HIT %:    51.2265  MISS %:    48.7735   MPKI: 20.1503
STLB LOAD      ACCESS:          0  HIT:          0  MISS:          0  HIT %:       -nan  MISS %:       -nan   MPKI: 0
STLB RFO       ACCESS:          0  HIT:          0  MISS:          0  HIT %:       -nan  MISS %:       -nan   MPKI: 0
STLB PREFETCH  ACCESS:          0  HIT:          0  MISS:          0  HIT %:       -nan  MISS %:       -nan   MPKI: 0
STLB WRITEBACK ACCESS:          0  HIT:          0  MISS:          0  HIT %:       -nan  MISS %:       -nan   MPKI: 0
L1D TOTAL     ACCESS:   31009462  HIT:   29183694  MISS:    1825768  HIT %:    94.1122  MISS %:    5.88778   MPKI: 8.69622
L1D LOAD      ACCESS:   13184100  HIT:   12043727  MISS:    1140373  HIT %:    91.3504  MISS %:    8.64961   MPKI: 5.43165
L1D RFO       ACCESS:    6769186  HIT:    6590499  MISS:     178687  HIT %:    97.3603  MISS %:    2.63971   MPKI: 0.851095
L1D PREFETCH  ACCESS:   11056176  HIT:   10549468  MISS:     506708  HIT %:     95.417  MISS %:    4.58303   MPKI: 2.41347
L1D WRITEBACK ACCESS:          0  HIT:          0  MISS:          0  HIT %:       -nan  MISS %:       -nan   MPKI: 0
L1I TOTAL     ACCESS:   39225554  HIT:   38667058  MISS:     558496  HIT %:    98.5762  MISS %:    1.42381   MPKI: 2.66014
L1I LOAD      ACCESS:   39225554  HIT:   38667058  MISS:     558496  HIT %:    98.5762  MISS %:    1.42381   MPKI: 2.66014
L1I RFO       ACCESS:          0  HIT:          0  MISS:          0  HIT %:       -nan  MISS %:       -nan   MPKI: 0
L1I PREFETCH  ACCESS:          0  HIT:          0  MISS:          0  HIT %:       -nan  MISS %:       -nan   MPKI: 0
L1I WRITEBACK ACCESS:          0  HIT:          0  MISS:          0  HIT %:       -nan  MISS %:       -nan   MPKI: 0
L2C TOTAL     ACCESS:    9854216  HIT:    7592122  MISS:    2262094  HIT %:    77.0444  MISS %:    22.9556   MPKI: 10.7745
L2C LOAD      ACCESS:    1677965  HIT:     427257  MISS:    1250708  HIT %:    25.4628  MISS %:    74.5372   MPKI: 5.95718
L2C RFO       ACCESS:     178676  HIT:      65376  MISS:     113300  HIT %:    36.5891  MISS %:    63.4109   MPKI: 0.539653
L2C PREFETCH  ACCESS:    2695494  HIT:    2118383  MISS:     577111  HIT %:    78.5898  MISS %:    21.4102   MPKI: 2.74881
L2C WRITEBACK ACCESS:     509878  HIT:     478273  MISS:      31605  HIT %:    93.8015  MISS %:    6.19854   MPKI: 0.150536
PSCL5 TOTAL     ACCESS:    4294542  HIT:    4294542  MISS:          0  HIT %:        100  MISS %:          0   MPKI: 0
PSCL5 LOAD      ACCESS:          0  HIT:          0  MISS:          0  HIT %:       -nan  MISS %:       -nan   MPKI: 0
PSCL5 RFO       ACCESS:          0  HIT:          0  MISS:          0  HIT %:       -nan  MISS %:       -nan   MPKI: 0
PSCL5 PREFETCH  ACCESS:          0  HIT:          0  MISS:          0  HIT %:       -nan  MISS %:       -nan   MPKI: 0
PSCL5 WRITEBACK ACCESS:          0  HIT:          0  MISS:          0  HIT %:       -nan  MISS %:       -nan   MPKI: 0
PSCL4 TOTAL     ACCESS:    3835509  HIT:    3834689  MISS:        820  HIT %:    99.9786  MISS %:  0.0213792   MPKI: 0.0039057
PSCL4 LOAD      ACCESS:          0  HIT:          0  MISS:          0  HIT %:       -nan  MISS %:       -nan   MPKI: 0
PSCL4 RFO       ACCESS:          0  HIT:          0  MISS:          0  HIT %:       -nan  MISS %:       -nan   MPKI: 0
PSCL4 PREFETCH  ACCESS:          0  HIT:          0  MISS:          0  HIT %:       -nan  MISS %:       -nan   MPKI: 0
PSCL4 WRITEBACK ACCESS:          0  HIT:          0  MISS:          0  HIT %:       -nan  MISS %:       -nan   MPKI: 0
PSCL3 TOTAL     ACCESS:    4274238  HIT:    4268515  MISS:       5723  HIT %:    99.8661  MISS %:   0.133895   MPKI: 0.0272589
PSCL3 LOAD      ACCESS:          0  HIT:          0  MISS:          0  HIT %:       -nan  MISS %:       -nan   MPKI: 0
PSCL3 RFO       ACCESS:          0  HIT:          0  MISS:          0  HIT %:       -nan  MISS %:       -nan   MPKI: 0
PSCL3 PREFETCH  ACCESS:          0  HIT:          0  MISS:          0  HIT %:       -nan  MISS %:       -nan   MPKI: 0
PSCL3 WRITEBACK ACCESS:          0  HIT:          0  MISS:          0  HIT %:       -nan  MISS %:       -nan   MPKI: 0
PSCL2 TOTAL     ACCESS:    4292761  HIT:    3803275  MISS:     489486  HIT %:    88.5974  MISS %:    11.4026   MPKI: 2.33145
PSCL2 LOAD      ACCESS:          0  HIT:          0  MISS:          0  HIT %:       -nan  MISS %:       -nan   MPKI: 0
PSCL2 RFO       ACCESS:          0  HIT:          0  MISS:          0  HIT %:       -nan  MISS %:       -nan   MPKI: 0
PSCL2 PREFETCH  ACCESS:          0  HIT:          0  MISS:          0  HIT %:       -nan  MISS %:       -nan   MPKI: 0
PSCL2 WRITEBACK ACCESS:          0  HIT:          0  MISS:          0  HIT %:       -nan  MISS %:       -nan   MPKI: 0
LLC TOTAL     ACCESS:    2659073  HIT:    1124507  MISS:    1534566  HIT %:    42.2894  MISS %:    57.7106   MPKI: 7.30921
LLC LOAD      ACCESS:    1241255  HIT:     495166  MISS:     746089  HIT %:    39.8924  MISS %:    60.1076   MPKI: 3.55366
LLC RFO       ACCESS:     113032  HIT:      29770  MISS:      83262  HIT %:    26.3377  MISS %:    73.6623   MPKI: 0.396581
LLC PREFETCH  ACCESS:     586832  HIT:      28890  MISS:     557942  HIT %:    4.92304  MISS %:     95.077   MPKI: 2.6575
LLC WRITEBACK ACCESS:     428584  HIT:     407656  MISS:      20928  HIT %:    95.1169  MISS %:    4.88306   MPKI: 0.0996811

RAW hits: 760800
Loads Generated: 25056850
Loads sent to L1D: 24296050
Stores Generated: 7651403
Stores sent to L1D: 7651378

CPU 3 cumulative IPC: 0.596777 instructions: 207098716 cycles: 347028630
ITLB TOTAL     ACCESS:   30009153  HIT:   28786013  MISS:    1223140  HIT %:    95.9241  MISS %:    4.07589   MPKI: 5.90607
ITLB LOAD      ACCESS:          0  HIT:          0  MISS:          0  HIT %:       -nan  MISS %:       -nan   MPKI: 0
ITLB RFO       ACCESS:          0  HIT:          0  MISS:          0  HIT %:       -nan  MISS %:       -nan   MPKI: 0
ITLB PREFETCH  ACCESS:          0  HIT:          0  MISS:          0  HIT %:       -nan  MISS %:       -nan   MPKI: 0
ITLB WRITEBACK ACCESS:          0  HIT:          0  MISS:          0  HIT %:       -nan  MISS %:       -nan   MPKI: 0
DTLB TOTAL     ACCESS:   16442225  HIT:   11320591  MISS:    5121634  HIT %:    68.8507  MISS %:    31.1493   MPKI: 24.7304
DTLB LOAD      ACCESS:          0  HIT:          0  MISS:          0  HIT %:       -nan  MISS %:       -nan   MPKI: 0
DTLB RFO       ACCESS:          0  HIT:          0  MISS:          0  HIT %:       -nan  MISS %:       -nan   MPKI: 0
DTLB PREFETCH  ACCESS:          0  HIT:          0  MISS:          0  HIT %:       -nan  MISS %:       -nan   MPKI: 0
DTLB WRITEBACK ACCESS:          0  HIT:          0  MISS:          0  HIT %:       -nan  MISS %:       -nan   MPKI: 0
STLB TOTAL     ACCESS:    8895732  HIT:    4596272  MISS:    4299460  HIT %:    51.6683  MISS %:    48.3317   MPKI: 20.7604
STLB LOAD      ACCESS:          0  HIT:          0  MISS:          0  HIT %:       -nan  MISS %:       -nan   MPKI: 0
STLB RFO       ACCESS:          0  HIT:          0  MISS:          0  HIT %:       -nan  MISS %:       -nan   MPKI: 0
STLB PREFETCH  ACCESS:          0  HIT:          0  MISS:          0  HIT %:       -nan  MISS %:       -nan   MPKI: 0
STLB WRITEBACK ACCESS:          0  HIT:          0  MISS:          0  HIT %:       -nan  MISS %:       -nan   MPKI: 0
L1D TOTAL     ACCESS:   31328564  HIT:   29525890  MISS:    1802674  HIT %:    94.2459  MISS %:    5.75409   MPKI: 8.70442
L1D LOAD      ACCESS:   13327160  HIT:   12198973  MISS:    1128187  HIT %:    91.5347  MISS %:    8.46532   MPKI: 5.44758
L1D RFO       ACCESS:    6913765  HIT:    6740339  MISS:     173426  HIT %:    97.4916  MISS %:    2.50842   MPKI: 0.837407
L1D PREFETCH  ACCESS:   11087639  HIT:   10586578  MISS:     501061  HIT %:    95.4809  MISS %:     4.5191   MPKI: 2.41943
L1D WRITEBACK ACCESS:          0  HIT:          0  MISS:          0  HIT %:       -nan  MISS %:       -nan   MPKI: 0
L1I TOTAL     ACCESS:   38835509  HIT:   38225174  MISS:     610335  HIT %:    98.4284  MISS %:    1.57159   MPKI: 2.94707
L1I LOAD      ACCESS:   38835509  HIT:   38225174  MISS:     610335  HIT %:    98.4284  MISS %:    1.57159   MPKI: 2.94707
L1I RFO       ACCESS:          0  HIT:          0  MISS:          0  HIT %:       -nan  MISS %:       -nan   MPKI: 0
L1I PREFETCH  ACCESS:          0  HIT:          0  MISS:          0  HIT %:       -nan  MISS %:       -nan   MPKI: 0
L1I WRITEBACK ACCESS:          0  HIT:          0  MISS:          0  HIT %:       -nan  MISS %:       -nan   MPKI: 0
L2C TOTAL     ACCESS:   10012426  HIT:    7758766  MISS:    2253660  HIT %:    77.4914  MISS %:    22.5086   MPKI: 10.8821
L2C LOAD      ACCESS:    1719858  HIT:     471396  MISS:    1248462  HIT %:     27.409  MISS %:     72.591   MPKI: 6.02834
L2C RFO       ACCESS:     173415  HIT:      62247  MISS:     111168  HIT %:    35.8948  MISS %:    64.1052   MPKI: 0.536787
L2C PREFETCH  ACCESS:    2698653  HIT:    2125199  MISS:     573454  HIT %:    78.7504  MISS %:    21.2496   MPKI: 2.76899
L2C WRITEBACK ACCESS:     499808  HIT:     467395  MISS:      32413  HIT %:    93.5149  MISS %:    6.48509   MPKI: 0.15651
PSCL5 TOTAL     ACCESS:    4364035  HIT:    4364035  MISS:          0  HIT %:        100  MISS %:          0   MPKI: 0
PSCL5 LOAD      ACCESS:          0  HIT:          0  MISS:          0  HIT %:       -nan  MISS %:       -nan   MPKI: 0
PSCL5 RFO       ACCESS:          0  HIT:          0  MISS:          0  HIT %:       -nan  MISS %:       -nan   MPKI: 0
PSCL5 PREFETCH  ACCESS:          0  HIT:          0  MISS:          0  HIT %:       -nan  MISS %:       -nan   MPKI: 0
PSCL5 WRITEBACK ACCESS:          0  HIT:          0  MISS:          0  HIT %:       -nan  MISS %:       -nan   MPKI: 0
PSCL4 TOTAL     ACCESS:    4307610  HIT:    4306750  MISS:        860  HIT %:      99.98  MISS %:  0.0199647   MPKI: 0.00415261
PSCL4 LOAD      ACCESS:          0  HIT:          0  MISS:          0  HIT %:       -nan  MISS %:       -nan   MPKI: 0
PSCL4 RFO       ACCESS:          0  HIT:          0  MISS:          0  HIT %:       -nan  MISS %:       -nan   MPKI: 0
PSCL4 PREFETCH  ACCESS:          0  HIT:          0  MISS:          0  HIT %:       -nan  MISS %:       -nan   MPKI: 0
PSCL4 WRITEBACK ACCESS:          0  HIT:          0  MISS:          0  HIT %:       -nan  MISS %:       -nan   MPKI: 0
PSCL3 TOTAL     ACCESS:    4344707  HIT:    4336480  MISS:       8227  HIT %:    99.8106  MISS %:   0.189357   MPKI: 0.039725
PSCL3 LOAD      ACCESS:          0  HIT:          0  MISS:          0  HIT %:       -nan  MISS %:       -nan   MPKI: 0
PSCL3 RFO       ACCESS:          0  HIT:          0  MISS:          0  HIT %:       -nan  MISS %:       -nan   MPKI: 0
PSCL3 PREFETCH  ACCESS:          0  HIT:          0  MISS:          0  HIT %:       -nan  MISS %:       -nan   MPKI: 0
PSCL3 WRITEBACK ACCESS:          0  HIT:          0  MISS:          0  HIT %:       -nan  MISS %:       -nan   MPKI: 0
PSCL2 TOTAL     ACCESS:    4362290  HIT:    3816287  MISS:     546003  HIT %:    87.4836  MISS %:    12.5164   MPKI: 2.63644
PSCL2 LOAD      ACCESS:          0  HIT:          0  MISS:          0  HIT %:       -nan  MISS %:       -nan   MPKI: 0
PSCL2 RFO       ACCESS:          0  HIT:          0  MISS:          0  HIT %:       -nan  MISS %:       -nan   MPKI: 0
PSCL2 PREFETCH  ACCESS:          0  HIT:          0  MISS:          0  HIT %:       -nan  MISS %:       -nan   MPKI: 0
PSCL2 WRITEBACK ACCESS:          0  HIT:          0  MISS:          0  HIT %:       -nan  MISS %:       -nan   MPKI: 0
LLC TOTAL     ACCESS:    2643115  HIT:    1135343  MISS:    1507772  HIT %:    42.9547  MISS %:    57.0453   MPKI: 7.28045
LLC LOAD      ACCESS:    1239653  HIT:     501049  MISS:     738604  HIT %:    40.4185  MISS %:    59.5815   MPKI: 3.56643
LLC RFO       ACCESS:     110937  HIT:      39036  MISS:      71901  HIT %:    35.1875  MISS %:    64.8125   MPKI: 0.347182
LLC PREFETCH  ACCESS:     582491  HIT:      28369  MISS:     554122  HIT %:    4.87029  MISS %:    95.1297   MPKI: 2.67564
LLC WRITEBACK ACCESS:     421871  HIT:     401445  MISS:      20426  HIT %:    95.1582  MISS %:    4.84176   MPKI: 0.0986293

RAW hits: 766157
Loads Generated: 25023007
Loads sent to L1D: 24256850
Stores Generated: 7781956
Stores sent to L1D: 7781956

Region of Interest Statistics

CPU 0 cumulative IPC: 0.603167 instructions: 200000001 cycles: 331583390
ITLB TOTAL     ACCESS:   28827839  HIT:   27773741  MISS:    1054098  HIT %:    96.3435  MISS %:    3.65653   MPKI: 5.27049
ITLB LOAD TRANSLATION ACCESS:   28827839  HIT:   27773741  MISS:    1054098  HIT %:    96.3435  MISS %:    3.65653   MPKI: 5.27049
ITLB PREFETCH  REQUESTED:          0  ISSUED:          0  USEFUL:          0  USELESS:          0
ITLB USEFUL LOAD PREFETCHES:          0 PREFETCH ISSUED TO LOWER LEVEL:          0  ACCURACY: -nan
ITLB TIMELY PREFETCHES:          0 LATE PREFETCHES: 0 DROPPED PREFETCHES: 0
ITLB PREFETCHES SAME FILL-ORIGIN LEVEL: 0 DIFFERENT FILL-ORIGIN LEVEL: 0
ITLB AVERAGE MISS LATENCY: 45.0003 cycles
ITLB RQ	ACCESS:   39366424	FORWARD:          0	MERGED:    8807007	TO_CACHE:   30559417

DTLB TOTAL     ACCESS:   15296137  HIT:   10484710  MISS:    4811427  HIT %:    68.5448  MISS %:    31.4552   MPKI: 24.0571
DTLB LOAD TRANSLATION ACCESS:   15296137  HIT:   10484710  MISS:    4811427  HIT %:    68.5448  MISS %:    31.4552   MPKI: 24.0571
DTLB PREFETCH  REQUESTED:          0  ISSUED:          0  USEFUL:          0  USELESS:          0
DTLB USEFUL LOAD PREFETCHES:          0 PREFETCH ISSUED TO LOWER LEVEL:          0  ACCURACY: -nan
DTLB TIMELY PREFETCHES:          0 LATE PREFETCHES: 0 DROPPED PREFETCHES: 0
DTLB PREFETCHES SAME FILL-ORIGIN LEVEL: 0 DIFFERENT FILL-ORIGIN LEVEL: 0
DTLB AVERAGE MISS LATENCY: 37.5545 cycles
DTLB RQ	ACCESS:   20041234	FORWARD:          0	MERGED:    3439159	TO_CACHE:   16602075

STLB TOTAL     ACCESS:    8236491  HIT:    4285582  MISS:    3950909  HIT %:    52.0316  MISS %:    47.9684   MPKI: 19.7545
STLB LOAD TRANSLATION ACCESS:    5865525  HIT:    1941858  MISS:    3923667  HIT %:    33.1063  MISS %:    66.8937   MPKI: 19.6183
STLB TRANSLATION FROM L1D PREFETCHER ACCESS:    2370966  HIT:    2343724  MISS:      27242  HIT %:     98.851  MISS %:    1.14898   MPKI: 0.13621
STLB PREFETCH  REQUESTED:          0  ISSUED:          0  USEFUL:      19357  USELESS:       9527
STLB USEFUL LOAD PREFETCHES:      19357 PREFETCH ISSUED TO LOWER LEVEL:          0  ACCURACY: inf
STLB TIMELY PREFETCHES:      19357 LATE PREFETCHES: 0 DROPPED PREFETCHES: 63448
STLB PREFETCHES SAME FILL-ORIGIN LEVEL: 0 DIFFERENT FILL-ORIGIN LEVEL: 0
STLB AVERAGE MISS LATENCY: 43.9835 cycles
STLB RQ	ACCESS:   21372571	FORWARD:          0	MERGED:   12640804	TO_CACHE:    8731767

STLB Hit, L1D data hit: 0
STLB Hit, L2C data hit: 0
STLB Hit, LLC data hit: 0
STLB Hit, LLC data miss: 0
STLB STLB hints to L2: 0
L1D TOTAL     ACCESS:   29078776  HIT:   27422746  MISS:    1656030  HIT %:     94.305  MISS %:    5.69498   MPKI: 8.28015
L1D LOAD      ACCESS:   12423969  HIT:   11383017  MISS:    1040952  HIT %:    91.6214  MISS %:    8.37858   MPKI: 5.20476
L1D RFO       ACCESS:    6227373  HIT:    6093311  MISS:     134062  HIT %:    97.8472  MISS %:    2.15279   MPKI: 0.67031
L1D PREFETCH  ACCESS:   10427434  HIT:    9946418  MISS:     481016  HIT %:     95.387  MISS %:    4.61299   MPKI: 2.40508
L1D PREFETCH  REQUESTED:   46199060  ISSUED:   44444412  USEFUL:     494942  USELESS:      13870
L1D USEFUL LOAD PREFETCHES:     494942 PREFETCH ISSUED TO LOWER LEVEL:    2814309  ACCURACY: 17.5866
L1D TIMELY PREFETCHES:     494942 LATE PREFETCHES: 18762 DROPPED PREFETCHES: 192363
L1D PREFETCHES SAME FILL-ORIGIN LEVEL: 527610 DIFFERENT FILL-ORIGIN LEVEL: 2286699
L1D AVERAGE MISS LATENCY: 172.947 cycles
L1D RQ	ACCESS:   23969430	FORWARD:          0	MERGED:   10722682	TO_CACHE:   13060438
L1D WQ	ACCESS:    7280092	FORWARD:     195383	MERGED:     299296	TO_CACHE:    6980796
L1D PQ	ACCESS:   29216500	FORWARD:          0	MERGED:   13979515	TO_CACHE:   15227912

L1D UNIQUE REGIONS ACCESSED: 0
L1D REGIONS CONFLICTS: 0
L1D Cross Page Prefetch Requests: 3238330
L1D Same Page Prefetch Requests: 36922398
L1D ROI Sum of L1D PQ occupancy: 230323634
L1D PREFETCHES PUSHED FROM L2C: 0
L1I TOTAL     ACCESS:   37415830  HIT:   37037961  MISS:     377869  HIT %:    98.9901  MISS %:    1.00992   MPKI: 1.88934
L1I LOAD      ACCESS:   37415830  HIT:   37037961  MISS:     377869  HIT %:    98.9901  MISS %:    1.00992   MPKI: 1.88934
L1I PREFETCH  REQUESTED:          0  ISSUED:          0  USEFUL:          0  USELESS:          0
L1I USEFUL LOAD PREFETCHES:          0 PREFETCH ISSUED TO LOWER LEVEL:          0  ACCURACY: -nan
L1I TIMELY PREFETCHES:          0 LATE PREFETCHES: 0 DROPPED PREFETCHES: 0
L1I PREFETCHES SAME FILL-ORIGIN LEVEL: 0 DIFFERENT FILL-ORIGIN LEVEL: 0
L1I AVERAGE MISS LATENCY: 76.399 cycles
L1I RQ	ACCESS:   57320060	FORWARD:          0	MERGED:   17953636	TO_CACHE:   39366424

BTB BRANCH_DIRECT_JUMP	ACCESS:          0  HIT:          0  MISS:          0
BTB BRANCH_INDIRECT	ACCESS:          0  HIT:          0  MISS:          0
BTB BRANCH_CONDITIONAL	ACCESS:          0  HIT:          0  MISS:          0
BTB BRANCH_DIRECT_CALL	ACCESS:          0  HIT:          0  MISS:          0
BTB BRANCH_INDIRECT_CALL	ACCESS:          0  HIT:          0  MISS:          0
BTB BRANCH_RETURN	ACCESS:          0  HIT:          0  MISS:          0
BTB BRANCH_OTHER ACCESS:          0  HIT:          0  MISS:          0

L2C TOTAL     ACCESS:    8962947  HIT:    6922683  MISS:    2040264  HIT %:    77.2367  MISS %:    22.7633   MPKI: 10.2013
L2C LOAD      ACCESS:    1401566  HIT:     287450  MISS:    1114116  HIT %:    20.5092  MISS %:    79.4908   MPKI: 5.57058
L2C DATA LOAD MPKI: 4.33193
L2C INSTRUCTION LOAD MPKI: 1.23865
L2C RFO       ACCESS:     134059  HIT:      52022  MISS:      82037  HIT %:    38.8053  MISS %:    61.1947   MPKI: 0.410185
L2C PREFETCH  ACCESS:    2536347  HIT:    1995648  MISS:     540699  HIT %:     78.682  MISS %:     21.318   MPKI: 2.70349
L2C DATA PREFETCH MPKI: 2.70349
L2C INSTRUCTION PREFETCH MPKI: 0
L2C WRITEBACK ACCESS:     433830  HIT:     407262  MISS:      26568  HIT %:    93.8759  MISS %:    6.12406   MPKI: 0.13284
L2C LOAD TRANSLATION ACCESS:    4366013  HIT:    4091471  MISS:     274542  HIT %:    93.7118  MISS %:    6.28816   MPKI: 1.37271
L2C TRANSLATION FROM L1D PREFETCHER ACCESS:      91132  HIT:      88830  MISS:       2302  HIT %:     97.474  MISS %:    2.52601   MPKI: 0.01151
L2C PREFETCH  REQUESTED:          0  ISSUED:          0  USEFUL:      63726  USELESS:     509120
L2C USEFUL LOAD PREFETCHES:      63726 PREFETCH ISSUED TO LOWER LEVEL:     579617  ACCURACY: 10.9945
L2C TIMELY PREFETCHES:      63726 LATE PREFETCHES: 8194 DROPPED PREFETCHES: 0
L2C PREFETCHES SAME FILL-ORIGIN LEVEL: 371269 DIFFERENT FILL-ORIGIN LEVEL: 0
L2C AVERAGE MISS LATENCY: 209.274 cycles
L2C RQ	ACCESS:    6276257	FORWARD:          0	MERGED:          0	TO_CACHE:    6276257
L2C WQ	ACCESS:     458456	FORWARD:          0	MERGED:          0	TO_CACHE:     458456
L2C PQ	ACCESS:    2809677	FORWARD:          0	MERGED:       5977	TO_CACHE:    2803700

L2C Instructions Evicting Data 185035
L2C Translations Evicting Data 215793
L2C Data Evicting Data 1170820
L2C Instructions Evicting Instructions 41123
L2C Translations Evicting Instructions 31470
L2C Data Evicting Instructions 182625
L2C Instructions Evicting Translations 33780
L2C Translations Evicting Translations 42077
L2C Data Evicting Translations 210172
L2C Dense regions hint from L2: 0
PSCL5 TOTAL     ACCESS:    4013042  HIT:    4013042  MISS:          0  HIT %:        100  MISS %:          0   MPKI: 0
PSCL5 LOAD TRANSLATION ACCESS:    3923667  HIT:    3923667  MISS:          0  HIT %:        100  MISS %:          0   MPKI: 0
PSCL5 TRANSLATION FROM L1D PREFETCHER ACCESS:      89375  HIT:      89375  MISS:          0  HIT %:        100  MISS %:          0   MPKI: 0
PSCL5 PREFETCH  REQUESTED:          0  ISSUED:          0  USEFUL:          0  USELESS:          0
PSCL5 USEFUL LOAD PREFETCHES:          0 PREFETCH ISSUED TO LOWER LEVEL:          0  ACCURACY: -nan
PSCL5 TIMELY PREFETCHES:          0 LATE PREFETCHES: 0 DROPPED PREFETCHES: 0
PSCL5 PREFETCHES SAME FILL-ORIGIN LEVEL: 0 DIFFERENT FILL-ORIGIN LEVEL: 0

PSCL4 TOTAL     ACCESS:    3966480  HIT:    3965695  MISS:        785  HIT %:    99.9802  MISS %:  0.0197908   MPKI: 0.003925
PSCL4 LOAD TRANSLATION ACCESS:    3880213  HIT:    3879428  MISS:        785  HIT %:    99.9798  MISS %:  0.0202308   MPKI: 0.003925
PSCL4 TRANSLATION FROM L1D PREFETCHER ACCESS:      86267  HIT:      86267  MISS:          0  HIT %:        100  MISS %:          0   MPKI: 0
PSCL4 PREFETCH  REQUESTED:          0  ISSUED:          0  USEFUL:          0  USELESS:          0
PSCL4 USEFUL LOAD PREFETCHES:          0 PREFETCH ISSUED TO LOWER LEVEL:          0  ACCURACY: -nan
PSCL4 TIMELY PREFETCHES:          0 LATE PREFETCHES: 0 DROPPED PREFETCHES: 0
PSCL4 PREFETCHES SAME FILL-ORIGIN LEVEL: 0 DIFFERENT FILL-ORIGIN LEVEL: 0

PSCL3 TOTAL     ACCESS:    4001269  HIT:    3997513  MISS:       3756  HIT %:    99.9061  MISS %:  0.0938702   MPKI: 0.01878
PSCL3 LOAD TRANSLATION ACCESS:    3912263  HIT:    3908507  MISS:       3756  HIT %:     99.904  MISS %:  0.0960058   MPKI: 0.01878
PSCL3 TRANSLATION FROM L1D PREFETCHER ACCESS:      89006  HIT:      89006  MISS:          0  HIT %:        100  MISS %:          0   MPKI: 0
PSCL3 PREFETCH  REQUESTED:          0  ISSUED:          0  USEFUL:          0  USELESS:          0
PSCL3 USEFUL LOAD PREFETCHES:          0 PREFETCH ISSUED TO LOWER LEVEL:          0  ACCURACY: -nan
PSCL3 TIMELY PREFETCHES:          0 LATE PREFETCHES: 0 DROPPED PREFETCHES: 0
PSCL3 PREFETCHES SAME FILL-ORIGIN LEVEL: 0 DIFFERENT FILL-ORIGIN LEVEL: 0

PSCL2 TOTAL     ACCESS:    4011463  HIT:    3573295  MISS:     438168  HIT %:    89.0771  MISS %:    10.9229   MPKI: 2.19084
PSCL2 LOAD TRANSLATION ACCESS:    3923898  HIT:    3485730  MISS:     438168  HIT %:    88.8333  MISS %:    11.1667   MPKI: 2.19084
PSCL2 TRANSLATION FROM L1D PREFETCHER ACCESS:      87565  HIT:      87565  MISS:          0  HIT %:        100  MISS %:          0   MPKI: 0
PSCL2 PREFETCH  REQUESTED:          0  ISSUED:          0  USEFUL:          0  USELESS:          0
PSCL2 USEFUL LOAD PREFETCHES:          0 PREFETCH ISSUED TO LOWER LEVEL:          0  ACCURACY: -nan
PSCL2 TIMELY PREFETCHES:          0 LATE PREFETCHES: 0 DROPPED PREFETCHES: 0
PSCL2 PREFETCHES SAME FILL-ORIGIN LEVEL: 0 DIFFERENT FILL-ORIGIN LEVEL: 0

LLC TOTAL     ACCESS:    2385101  HIT:     928212  MISS:    1456889  HIT %:    38.9171  MISS %:    61.0829   MPKI: 7.28444
LLC LOAD      ACCESS:    1106575  HIT:     376115  MISS:     730460  HIT %:    33.9891  MISS %:    66.0109   MPKI: 3.6523
LLC RFO       ACCESS:      81931  HIT:      25076  MISS:      56855  HIT %:    30.6062  MISS %:    69.3938   MPKI: 0.284275
LLC PREFETCH  ACCESS:     548345  HIT:      20423  MISS:     527922  HIT %:    3.72448  MISS %:    96.2755   MPKI: 2.63961
LLC WRITEBACK ACCESS:     371406  HIT:     350616  MISS:      20790  HIT %:    94.4024  MISS %:    5.59765   MPKI: 0.10395
LLC LOAD TRANSLATION ACCESS:     274542  HIT:     155489  MISS:     119053  HIT %:    56.6358  MISS %:    43.3642   MPKI: 0.595265
LLC TRANSLATION FROM L1D PREFETCHER ACCESS:       2302  HIT:        493  MISS:       1809  HIT %:    21.4162  MISS %:    78.5838   MPKI: 0.009045
LLC PREFETCH  REQUESTED:          0  ISSUED:          0  USEFUL:      48918  USELESS:    2165814
LLC USEFUL LOAD PREFETCHES:      48918 PREFETCH ISSUED TO LOWER LEVEL:    2213157  ACCURACY: 2.21033
LLC TIMELY PREFETCHES:      48918 LATE PREFETCHES: 0 DROPPED PREFETCHES: 0
LLC PREFETCHES SAME FILL-ORIGIN LEVEL: 0 DIFFERENT FILL-ORIGIN LEVEL: 0
LLC AVERAGE MISS LATENCY: 1004.65 cycles
LLC RQ	ACCESS:    6489655	FORWARD:          0	MERGED:          0	TO_CACHE:    6489650
LLC WQ	ACCESS:    1674354	FORWARD:          5	MERGED:          0	TO_CACHE:    1674354
LLC PQ	ACCESS:    2320913	FORWARD:          0	MERGED:          0	TO_CACHE:    2320913

LLC Dense regions hint to LLC: 0

RAW hits: 725551
Loads Generated: 23575014
Loads sent to L1D: 22849464
Stores Generated: 6930051
Stores sent to L1D: 6930051
Major fault: 0 Minor fault: 43093
Allocated PAGES: 178794

CPU 1 cumulative IPC: 0.576321 instructions: 200000001 cycles: 347028630
ITLB TOTAL     ACCESS:   29134537  HIT:   27833276  MISS:    1301261  HIT %:    95.5336  MISS %:    4.46639   MPKI: 6.5063
ITLB LOAD TRANSLATION ACCESS:   29134537  HIT:   27833276  MISS:    1301261  HIT %:    95.5336  MISS %:    4.46639   MPKI: 6.5063
ITLB PREFETCH  REQUESTED:          0  ISSUED:          0  USEFUL:          0  USELESS:          0
ITLB USEFUL LOAD PREFETCHES:          0 PREFETCH ISSUED TO LOWER LEVEL:          0  ACCURACY: -nan
ITLB TIMELY PREFETCHES:          0 LATE PREFETCHES: 0 DROPPED PREFETCHES: 0
ITLB PREFETCHES SAME FILL-ORIGIN LEVEL: 0 DIFFERENT FILL-ORIGIN LEVEL: 0
ITLB AVERAGE MISS LATENCY: 40.4204 cycles
ITLB RQ	ACCESS:   37933502	FORWARD:          0	MERGED:    8382653	TO_CACHE:   29550849

DTLB TOTAL     ACCESS:   16170766  HIT:   10979109  MISS:    5191657  HIT %:    67.8948  MISS %:    32.1052   MPKI: 25.9583
DTLB LOAD TRANSLATION ACCESS:   16170766  HIT:   10979109  MISS:    5191657  HIT %:    67.8948  MISS %:    32.1052   MPKI: 25.9583
DTLB PREFETCH  REQUESTED:          0  ISSUED:          0  USEFUL:          0  USELESS:          0
DTLB USEFUL LOAD PREFETCHES:          0 PREFETCH ISSUED TO LOWER LEVEL:          0  ACCURACY: -nan
DTLB TIMELY PREFETCHES:          0 LATE PREFETCHES: 0 DROPPED PREFETCHES: 0
DTLB PREFETCHES SAME FILL-ORIGIN LEVEL: 0 DIFFERENT FILL-ORIGIN LEVEL: 0
DTLB AVERAGE MISS LATENCY: 35.9261 cycles
DTLB RQ	ACCESS:   20580541	FORWARD:          0	MERGED:    3838922	TO_CACHE:   16741619

STLB TOTAL     ACCESS:    8992325  HIT:    4578482  MISS:    4413843  HIT %:    50.9154  MISS %:    49.0846   MPKI: 22.0692
STLB LOAD TRANSLATION ACCESS:    6492918  HIT:    2110057  MISS:    4382861  HIT %:    32.4978  MISS %:    67.5022   MPKI: 21.9143
STLB TRANSLATION FROM L1D PREFETCHER ACCESS:    2499407  HIT:    2468425  MISS:      30982  HIT %:    98.7604  MISS %:    1.23957   MPKI: 0.15491
STLB PREFETCH  REQUESTED:          0  ISSUED:          0  USEFUL:      22198  USELESS:       8791
STLB USEFUL LOAD PREFETCHES:      22198 PREFETCH ISSUED TO LOWER LEVEL:          0  ACCURACY: inf
STLB TIMELY PREFETCHES:      22198 LATE PREFETCHES: 0 DROPPED PREFETCHES: 64684
STLB PREFETCHES SAME FILL-ORIGIN LEVEL: 0 DIFFERENT FILL-ORIGIN LEVEL: 0
STLB AVERAGE MISS LATENCY: 41.1433 cycles
STLB RQ	ACCESS:   21361073	FORWARD:          0	MERGED:   12293941	TO_CACHE:    9067132

STLB Hit, L1D data hit: 0
STLB Hit, L2C data hit: 0
STLB Hit, LLC data hit: 0
STLB Hit, LLC data miss: 0
STLB STLB hints to L2: 0
L1D TOTAL     ACCESS:   30729699  HIT:   28842857  MISS:    1886842  HIT %:    93.8599  MISS %:    6.14013   MPKI: 9.43421
L1D LOAD      ACCESS:   12957850  HIT:   11762889  MISS:    1194961  HIT %:    90.7781  MISS %:    9.22191   MPKI: 5.9748
L1D RFO       ACCESS:    6952434  HIT:    6748390  MISS:     204044  HIT %:    97.0651  MISS %:    2.93486   MPKI: 1.02022
L1D PREFETCH  ACCESS:   10819415  HIT:   10331578  MISS:     487837  HIT %:    95.4911  MISS %:     4.5089   MPKI: 2.43918
L1D PREFETCH  REQUESTED:   45073080  ISSUED:   43466182  USEFUL:     472979  USELESS:      14872
L1D USEFUL LOAD PREFETCHES:     472979 PREFETCH ISSUED TO LOWER LEVEL:    2732223  ACCURACY: 17.3111
L1D TIMELY PREFETCHES:     472979 LATE PREFETCHES: 19478 DROPPED PREFETCHES: 190700
L1D PREFETCHES SAME FILL-ORIGIN LEVEL: 508456 DIFFERENT FILL-ORIGIN LEVEL: 2223767
L1D AVERAGE MISS LATENCY: 150.91 cycles
L1D RQ	ACCESS:   23556479	FORWARD:          0	MERGED:   10376476	TO_CACHE:   13008826
L1D WQ	ACCESS:    7870055	FORWARD:     181115	MERGED:     298340	TO_CACHE:    7571715
L1D PQ	ACCESS:   28598028	FORWARD:          0	MERGED:   13719936	TO_CACHE:   14868154

L1D UNIQUE REGIONS ACCESSED: 0
L1D REGIONS CONFLICTS: 0
L1D Cross Page Prefetch Requests: 3291294
L1D Same Page Prefetch Requests: 36508871
L1D ROI Sum of L1D PQ occupancy: 221226101
L1D PREFETCHES PUSHED FROM L2C: 0
L1I TOTAL     ACCESS:   37528618  HIT:   36525565  MISS:    1003053  HIT %:    97.3272  MISS %:    2.67277   MPKI: 5.01526
L1I LOAD      ACCESS:   37528618  HIT:   36525565  MISS:    1003053  HIT %:    97.3272  MISS %:    2.67277   MPKI: 5.01526
L1I PREFETCH  REQUESTED:          0  ISSUED:          0  USEFUL:          0  USELESS:          0
L1I USEFUL LOAD PREFETCHES:          0 PREFETCH ISSUED TO LOWER LEVEL:          0  ACCURACY: -nan
L1I TIMELY PREFETCHES:          0 LATE PREFETCHES: 0 DROPPED PREFETCHES: 0
L1I PREFETCHES SAME FILL-ORIGIN LEVEL: 0 DIFFERENT FILL-ORIGIN LEVEL: 0
L1I AVERAGE MISS LATENCY: 42.2285 cycles
L1I RQ	ACCESS:   55757933	FORWARD:          0	MERGED:   17824431	TO_CACHE:   37933502

BTB BRANCH_DIRECT_JUMP	ACCESS:          0  HIT:          0  MISS:          0
BTB BRANCH_INDIRECT	ACCESS:          0  HIT:          0  MISS:          0
BTB BRANCH_CONDITIONAL	ACCESS:          0  HIT:          0  MISS:          0
BTB BRANCH_DIRECT_CALL	ACCESS:          0  HIT:          0  MISS:          0
BTB BRANCH_INDIRECT_CALL	ACCESS:          0  HIT:          0  MISS:          0
BTB BRANCH_RETURN	ACCESS:          0  HIT:          0  MISS:          0
BTB BRANCH_OTHER ACCESS:          0  HIT:          0  MISS:          0

L2C TOTAL     ACCESS:   10516049  HIT:    8235315  MISS:    2280734  HIT %:    78.3119  MISS %:    21.6881   MPKI: 11.4037
L2C LOAD      ACCESS:    2178519  HIT:     899320  MISS:    1279199  HIT %:    41.2813  MISS %:    58.7187   MPKI: 6.39599
L2C DATA LOAD MPKI: 4.51816
L2C INSTRUCTION LOAD MPKI: 1.87783
L2C RFO       ACCESS:     204035  HIT:      85494  MISS:     118541  HIT %:    41.9016  MISS %:    58.0984   MPKI: 0.592705
L2C PREFETCH  ACCESS:    2576628  HIT:    2013293  MISS:     563335  HIT %:    78.1367  MISS %:    21.8633   MPKI: 2.81667
L2C DATA PREFETCH MPKI: 2.81667
L2C INSTRUCTION PREFETCH MPKI: 0
L2C WRITEBACK ACCESS:     553812  HIT:     519010  MISS:      34802  HIT %:    93.7159  MISS %:    6.28408   MPKI: 0.17401
L2C LOAD TRANSLATION ACCESS:    4904895  HIT:    4621906  MISS:     282989  HIT %:    94.2305  MISS %:    5.76952   MPKI: 1.41494
L2C TRANSLATION FROM L1D PREFETCHER ACCESS:      98160  HIT:      96292  MISS:       1868  HIT %:     98.097  MISS %:    1.90302   MPKI: 0.00934
L2C PREFETCH  REQUESTED:          0  ISSUED:          0  USEFUL:      73118  USELESS:     492046
L2C USEFUL LOAD PREFETCHES:      73118 PREFETCH ISSUED TO LOWER LEVEL:     571968  ACCURACY: 12.7836
L2C TIMELY PREFETCHES:      73118 LATE PREFETCHES: 8633 DROPPED PREFETCHES: 0
L2C PREFETCHES SAME FILL-ORIGIN LEVEL: 377679 DIFFERENT FILL-ORIGIN LEVEL: 0
L2C AVERAGE MISS LATENCY: 188.31 cycles
L2C RQ	ACCESS:    7385635	FORWARD:          0	MERGED:          0	TO_CACHE:    7385626
L2C WQ	ACCESS:     553812	FORWARD:         10	MERGED:          0	TO_CACHE:     553812
L2C PQ	ACCESS:    2724732	FORWARD:          0	MERGED:       6740	TO_CACHE:    2717991

L2C Instructions Evicting Data 247097
L2C Translations Evicting Data 206458
L2C Data Evicting Data 1144073
L2C Instructions Evicting Instructions 85595
L2C Translations Evicting Instructions 41059
L2C Data Evicting Instructions 240642
L2C Instructions Evicting Translations 42874
L2C Translations Evicting Translations 37340
L2C Data Evicting Translations 200794
L2C Dense regions hint from L2: 0
PSCL5 TOTAL     ACCESS:    4478528  HIT:    4478528  MISS:          0  HIT %:        100  MISS %:          0   MPKI: 0
PSCL5 LOAD TRANSLATION ACCESS:    4382862  HIT:    4382862  MISS:          0  HIT %:        100  MISS %:          0   MPKI: 0
PSCL5 TRANSLATION FROM L1D PREFETCHER ACCESS:      95666  HIT:      95666  MISS:          0  HIT %:        100  MISS %:          0   MPKI: 0
PSCL5 PREFETCH  REQUESTED:          0  ISSUED:          0  USEFUL:          0  USELESS:          0
PSCL5 USEFUL LOAD PREFETCHES:          0 PREFETCH ISSUED TO LOWER LEVEL:          0  ACCURACY: -nan
PSCL5 TIMELY PREFETCHES:          0 LATE PREFETCHES: 0 DROPPED PREFETCHES: 0
PSCL5 PREFETCHES SAME FILL-ORIGIN LEVEL: 0 DIFFERENT FILL-ORIGIN LEVEL: 0

PSCL4 TOTAL     ACCESS:    4422822  HIT:    4422092  MISS:        730  HIT %:    99.9835  MISS %:  0.0165053   MPKI: 0.00365
PSCL4 LOAD TRANSLATION ACCESS:    4334586  HIT:    4333856  MISS:        730  HIT %:    99.9832  MISS %:  0.0168413   MPKI: 0.00365
PSCL4 TRANSLATION FROM L1D PREFETCHER ACCESS:      88236  HIT:      88236  MISS:          0  HIT %:        100  MISS %:          0   MPKI: 0
PSCL4 PREFETCH  REQUESTED:          0  ISSUED:          0  USEFUL:          0  USELESS:          0
PSCL4 USEFUL LOAD PREFETCHES:          0 PREFETCH ISSUED TO LOWER LEVEL:          0  ACCURACY: -nan
PSCL4 TIMELY PREFETCHES:          0 LATE PREFETCHES: 0 DROPPED PREFETCHES: 0
PSCL4 PREFETCHES SAME FILL-ORIGIN LEVEL: 0 DIFFERENT FILL-ORIGIN LEVEL: 0

PSCL3 TOTAL     ACCESS:    4448427  HIT:    4438592  MISS:       9835  HIT %:    99.7789  MISS %:   0.221089   MPKI: 0.049175
PSCL3 LOAD TRANSLATION ACCESS:    4353593  HIT:    4343758  MISS:       9835  HIT %:    99.7741  MISS %:   0.225905   MPKI: 0.049175
PSCL3 TRANSLATION FROM L1D PREFETCHER ACCESS:      94834  HIT:      94834  MISS:          0  HIT %:        100  MISS %:          0   MPKI: 0
PSCL3 PREFETCH  REQUESTED:          0  ISSUED:          0  USEFUL:          0  USELESS:          0
PSCL3 USEFUL LOAD PREFETCHES:          0 PREFETCH ISSUED TO LOWER LEVEL:          0  ACCURACY: -nan
PSCL3 TIMELY PREFETCHES:          0 LATE PREFETCHES: 0 DROPPED PREFETCHES: 0
PSCL3 PREFETCHES SAME FILL-ORIGIN LEVEL: 0 DIFFERENT FILL-ORIGIN LEVEL: 0

PSCL2 TOTAL     ACCESS:    4476452  HIT:    3964299  MISS:     512153  HIT %:     88.559  MISS %:     11.441   MPKI: 2.56076
PSCL2 LOAD TRANSLATION ACCESS:    4383295  HIT:    3871142  MISS:     512153  HIT %:    88.3158  MISS %:    11.6842   MPKI: 2.56076
PSCL2 TRANSLATION FROM L1D PREFETCHER ACCESS:      93157  HIT:      93157  MISS:          0  HIT %:        100  MISS %:          0   MPKI: 0
PSCL2 PREFETCH  REQUESTED:          0  ISSUED:          0  USEFUL:          0  USELESS:          0
PSCL2 USEFUL LOAD PREFETCHES:          0 PREFETCH ISSUED TO LOWER LEVEL:          0  ACCURACY: -nan
PSCL2 TIMELY PREFETCHES:          0 LATE PREFETCHES: 0 DROPPED PREFETCHES: 0
PSCL2 PREFETCHES SAME FILL-ORIGIN LEVEL: 0 DIFFERENT FILL-ORIGIN LEVEL: 0

LLC TOTAL     ACCESS:    2679919  HIT:    1170761  MISS:    1509158  HIT %:    43.6864  MISS %:    56.3136   MPKI: 7.54579
LLC LOAD      ACCESS:    1270762  HIT:     525675  MISS:     745087  HIT %:    41.3669  MISS %:    58.6331   MPKI: 3.72543
LLC RFO       ACCESS:     118344  HIT:      42113  MISS:      76231  HIT %:    35.5852  MISS %:    64.4148   MPKI: 0.381155
LLC PREFETCH  ACCESS:     571968  HIT:      29495  MISS:     542473  HIT %:    5.15676  MISS %:    94.8432   MPKI: 2.71236
LLC WRITEBACK ACCESS:     433988  HIT:     413489  MISS:      20499  HIT %:    95.2766  MISS %:     4.7234   MPKI: 0.102495
LLC LOAD TRANSLATION ACCESS:     282989  HIT:     159629  MISS:     123360  HIT %:    56.4082  MISS %:    43.5918   MPKI: 0.6168
LLC TRANSLATION FROM L1D PREFETCHER ACCESS:       1868  HIT:        360  MISS:       1508  HIT %:    19.2719  MISS %:    80.7281   MPKI: 0.00754
LLC PREFETCH  REQUESTED:          0  ISSUED:          0  USEFUL:      48918  USELESS:    2165814
LLC USEFUL LOAD PREFETCHES:      48918 PREFETCH ISSUED TO LOWER LEVEL:    2213157  ACCURACY: 2.21033
LLC TIMELY PREFETCHES:      48918 LATE PREFETCHES: 0 DROPPED PREFETCHES: 0
LLC PREFETCHES SAME FILL-ORIGIN LEVEL: 0 DIFFERENT FILL-ORIGIN LEVEL: 0
LLC AVERAGE MISS LATENCY: 969.852 cycles
LLC RQ	ACCESS:    6489655	FORWARD:          0	MERGED:          0	TO_CACHE:    6489650
LLC WQ	ACCESS:    1674354	FORWARD:          5	MERGED:          0	TO_CACHE:    1674354
LLC PQ	ACCESS:    2320913	FORWARD:          0	MERGED:          0	TO_CACHE:    2320913

LLC Dense regions hint to LLC: 0

RAW hits: 748909
Loads Generated: 24305388
Loads sent to L1D: 23556479
Stores Generated: 7870055
Stores sent to L1D: 7870055
Major fault: 0 Minor fault: 45696
Allocated PAGES: 178794

CPU 2 cumulative IPC: 0.603524 instructions: 200000002 cycles: 331386823
ITLB TOTAL     ACCESS:   28868309  HIT:   27748360  MISS:    1119949  HIT %:    96.1205  MISS %:    3.87951   MPKI: 5.59974
ITLB LOAD TRANSLATION ACCESS:   28868309  HIT:   27748360  MISS:    1119949  HIT %:    96.1205  MISS %:    3.87951   MPKI: 5.59974
ITLB PREFETCH  REQUESTED:          0  ISSUED:          0  USEFUL:          0  USELESS:          0
ITLB USEFUL LOAD PREFETCHES:          0 PREFETCH ISSUED TO LOWER LEVEL:          0  ACCURACY: -nan
ITLB TIMELY PREFETCHES:          0 LATE PREFETCHES: 0 DROPPED PREFETCHES: 0
ITLB PREFETCHES SAME FILL-ORIGIN LEVEL: 0 DIFFERENT FILL-ORIGIN LEVEL: 0
ITLB AVERAGE MISS LATENCY: 44.1696 cycles
ITLB RQ	ACCESS:   39450257	FORWARD:          0	MERGED:    8773502	TO_CACHE:   30676755

DTLB TOTAL     ACCESS:   15514245  HIT:   10789496  MISS:    4724749  HIT %:    69.5457  MISS %:    30.4543   MPKI: 23.6237
DTLB LOAD TRANSLATION ACCESS:   15514245  HIT:   10789496  MISS:    4724749  HIT %:    69.5457  MISS %:    30.4543   MPKI: 23.6237
DTLB PREFETCH  REQUESTED:          0  ISSUED:          0  USEFUL:          0  USELESS:          0
DTLB USEFUL LOAD PREFETCHES:          0 PREFETCH ISSUED TO LOWER LEVEL:          0  ACCURACY: -nan
DTLB TIMELY PREFETCHES:          0 LATE PREFETCHES: 0 DROPPED PREFETCHES: 0
DTLB PREFETCHES SAME FILL-ORIGIN LEVEL: 0 DIFFERENT FILL-ORIGIN LEVEL: 0
DTLB AVERAGE MISS LATENCY: 38.4322 cycles
DTLB RQ	ACCESS:   20573550	FORWARD:          0	MERGED:    3704435	TO_CACHE:   16869115

STLB TOTAL     ACCESS:    8234521  HIT:    4213375  MISS:    4021146  HIT %:    51.1672  MISS %:    48.8328   MPKI: 20.1057
STLB LOAD TRANSLATION ACCESS:    5844698  HIT:    1851338  MISS:    3993360  HIT %:    31.6755  MISS %:    68.3245   MPKI: 19.9668
STLB TRANSLATION FROM L1D PREFETCHER ACCESS:    2389823  HIT:    2362037  MISS:      27786  HIT %:    98.8373  MISS %:    1.16268   MPKI: 0.13893
STLB PREFETCH  REQUESTED:          0  ISSUED:          0  USEFUL:      20989  USELESS:       8573
STLB USEFUL LOAD PREFETCHES:      20989 PREFETCH ISSUED TO LOWER LEVEL:          0  ACCURACY: inf
STLB TIMELY PREFETCHES:      20989 LATE PREFETCHES: 0 DROPPED PREFETCHES: 63991
STLB PREFETCHES SAME FILL-ORIGIN LEVEL: 0 DIFFERENT FILL-ORIGIN LEVEL: 0
STLB AVERAGE MISS LATENCY: 43.9318 cycles
STLB RQ	ACCESS:   21419296	FORWARD:          0	MERGED:   12671285	TO_CACHE:    8748011

STLB Hit, L1D data hit: 0
STLB Hit, L2C data hit: 0
STLB Hit, LLC data hit: 0
STLB Hit, LLC data miss: 0
STLB STLB hints to L2: 0
L1D TOTAL     ACCESS:   29415374  HIT:   27680859  MISS:    1734515  HIT %:    94.1034  MISS %:    5.89663   MPKI: 8.67257
L1D LOAD      ACCESS:   12555771  HIT:   11470178  MISS:    1085593  HIT %:    91.3538  MISS %:    8.64617   MPKI: 5.42796
L1D RFO       ACCESS:    6409792  HIT:    6242161  MISS:     167631  HIT %:    97.3848  MISS %:    2.61523   MPKI: 0.838155
L1D PREFETCH  ACCESS:   10449811  HIT:    9968520  MISS:     481291  HIT %:    95.3943  MISS %:    4.60574   MPKI: 2.40645
L1D PREFETCH  REQUESTED:   46154860  ISSUED:   44484441  USEFUL:     491243  USELESS:      15463
L1D USEFUL LOAD PREFETCHES:     491243 PREFETCH ISSUED TO LOWER LEVEL:    2870036  ACCURACY: 17.1163
L1D TIMELY PREFETCHES:     491243 LATE PREFETCHES: 20902 DROPPED PREFETCHES: 190029
L1D PREFETCHES SAME FILL-ORIGIN LEVEL: 528320 DIFFERENT FILL-ORIGIN LEVEL: 2341716
L1D AVERAGE MISS LATENCY: 168.374 cycles
L1D RQ	ACCESS:   24296050	FORWARD:          0	MERGED:   10880025	TO_CACHE:   13228569
L1D WQ	ACCESS:    7651378	FORWARD:     195496	MERGED:     306397	TO_CACHE:    7344981
L1D PQ	ACCESS:   29212698	FORWARD:          0	MERGED:   13932915	TO_CACHE:   15271743

L1D UNIQUE REGIONS ACCESSED: 0
L1D REGIONS CONFLICTS: 0
L1D Cross Page Prefetch Requests: 3333035
L1D Same Page Prefetch Requests: 37025919
L1D ROI Sum of L1D PQ occupancy: 230703573
L1D PREFETCHES PUSHED FROM L2C: 0
L1I TOTAL     ACCESS:   37365414  HIT:   36844088  MISS:     521326  HIT %:    98.6048  MISS %:    1.39521   MPKI: 2.60663
L1I LOAD      ACCESS:   37365414  HIT:   36844088  MISS:     521326  HIT %:    98.6048  MISS %:    1.39521   MPKI: 2.60663
L1I PREFETCH  REQUESTED:          0  ISSUED:          0  USEFUL:          0  USELESS:          0
L1I USEFUL LOAD PREFETCHES:          0 PREFETCH ISSUED TO LOWER LEVEL:          0  ACCURACY: -nan
L1I TIMELY PREFETCHES:          0 LATE PREFETCHES: 0 DROPPED PREFETCHES: 0
L1I PREFETCHES SAME FILL-ORIGIN LEVEL: 0 DIFFERENT FILL-ORIGIN LEVEL: 0
L1I AVERAGE MISS LATENCY: 62.4733 cycles
L1I RQ	ACCESS:   57657463	FORWARD:          0	MERGED:   18207206	TO_CACHE:   39450257

BTB BRANCH_DIRECT_JUMP	ACCESS:          0  HIT:          0  MISS:          0
BTB BRANCH_INDIRECT	ACCESS:          0  HIT:          0  MISS:          0
BTB BRANCH_CONDITIONAL	ACCESS:          0  HIT:          0  MISS:          0
BTB BRANCH_DIRECT_CALL	ACCESS:          0  HIT:          0  MISS:          0
BTB BRANCH_INDIRECT_CALL	ACCESS:          0  HIT:          0  MISS:          0
BTB BRANCH_RETURN	ACCESS:          0  HIT:          0  MISS:          0
BTB BRANCH_OTHER ACCESS:          0  HIT:          0  MISS:          0

L2C TOTAL     ACCESS:    9356344  HIT:    7209323  MISS:    2147021  HIT %:    77.0528  MISS %:    22.9472   MPKI: 10.7351
L2C LOAD      ACCESS:    1587882  HIT:     399710  MISS:    1188172  HIT %:    25.1725  MISS %:    74.8275   MPKI: 5.94086
L2C DATA LOAD MPKI: 4.40763
L2C INSTRUCTION LOAD MPKI: 1.53323
L2C RFO       ACCESS:     167620  HIT:      61250  MISS:     106370  HIT %:     36.541  MISS %:     63.459   MPKI: 0.53185
L2C PREFETCH  ACCESS:    2564187  HIT:    2017108  MISS:     547079  HIT %:    78.6646  MISS %:    21.3354   MPKI: 2.73539
L2C DATA PREFETCH MPKI: 2.73539
L2C INSTRUCTION PREFETCH MPKI: 0
L2C WRITEBACK ACCESS:     481072  HIT:     451243  MISS:      29829  HIT %:    93.7995  MISS %:    6.20053   MPKI: 0.149145
L2C LOAD TRANSLATION ACCESS:    4463812  HIT:    4190139  MISS:     273673  HIT %:    93.8691  MISS %:    6.13093   MPKI: 1.36836
L2C TRANSLATION FROM L1D PREFETCHER ACCESS:      91771  HIT:      89873  MISS:       1898  HIT %:    97.9318  MISS %:    2.06819   MPKI: 0.00949
L2C PREFETCH  REQUESTED:          0  ISSUED:          0  USEFUL:      73640  USELESS:     506954
L2C USEFUL LOAD PREFETCHES:      73640 PREFETCH ISSUED TO LOWER LEVEL:     586837  ACCURACY: 12.5486
L2C TIMELY PREFETCHES:      73640 LATE PREFETCHES: 9721 DROPPED PREFETCHES: 0
L2C PREFETCHES SAME FILL-ORIGIN LEVEL: 385624 DIFFERENT FILL-ORIGIN LEVEL: 0
L2C AVERAGE MISS LATENCY: 203.733 cycles
L2C RQ	ACCESS:    6648856	FORWARD:          0	MERGED:          0	TO_CACHE:    6648845
L2C WQ	ACCESS:     509878	FORWARD:         12	MERGED:          0	TO_CACHE:     509878
L2C PQ	ACCESS:    2848477	FORWARD:          0	MERGED:       8037	TO_CACHE:    2840439

L2C Instructions Evicting Data 229166
L2C Translations Evicting Data 214276
L2C Data Evicting Data 1182877
L2C Instructions Evicting Instructions 57431
L2C Translations Evicting Instructions 37517
L2C Data Evicting Instructions 223470
L2C Instructions Evicting Translations 39853
L2C Translations Evicting Translations 37577
L2C Data Evicting Translations 208322
L2C Dense regions hint from L2: 0
PSCL5 TOTAL     ACCESS:    4083110  HIT:    4083110  MISS:          0  HIT %:        100  MISS %:          0   MPKI: 0
PSCL5 LOAD TRANSLATION ACCESS:    3993360  HIT:    3993360  MISS:          0  HIT %:        100  MISS %:          0   MPKI: 0
PSCL5 TRANSLATION FROM L1D PREFETCHER ACCESS:      89750  HIT:      89750  MISS:          0  HIT %:        100  MISS %:          0   MPKI: 0
PSCL5 PREFETCH  REQUESTED:          0  ISSUED:          0  USEFUL:          0  USELESS:          0
PSCL5 USEFUL LOAD PREFETCHES:          0 PREFETCH ISSUED TO LOWER LEVEL:          0  ACCURACY: -nan
PSCL5 TIMELY PREFETCHES:          0 LATE PREFETCHES: 0 DROPPED PREFETCHES: 0
PSCL5 PREFETCHES SAME FILL-ORIGIN LEVEL: 0 DIFFERENT FILL-ORIGIN LEVEL: 0

PSCL4 TOTAL     ACCESS:    3634327  HIT:    3633577  MISS:        750  HIT %:    99.9794  MISS %:  0.0206366   MPKI: 0.00375
PSCL4 LOAD TRANSLATION ACCESS:    3556429  HIT:    3555679  MISS:        750  HIT %:    99.9789  MISS %:  0.0210886   MPKI: 0.00375
PSCL4 TRANSLATION FROM L1D PREFETCHER ACCESS:      77898  HIT:      77898  MISS:          0  HIT %:        100  MISS %:          0   MPKI: 0
PSCL4 PREFETCH  REQUESTED:          0  ISSUED:          0  USEFUL:          0  USELESS:          0
PSCL4 USEFUL LOAD PREFETCHES:          0 PREFETCH ISSUED TO LOWER LEVEL:          0  ACCURACY: -nan
PSCL4 TIMELY PREFETCHES:          0 LATE PREFETCHES: 0 DROPPED PREFETCHES: 0
PSCL4 PREFETCHES SAME FILL-ORIGIN LEVEL: 0 DIFFERENT FILL-ORIGIN LEVEL: 0

PSCL3 TOTAL     ACCESS:    4064049  HIT:    4058730  MISS:       5319  HIT %:    99.8691  MISS %:   0.130879   MPKI: 0.026595
PSCL3 LOAD TRANSLATION ACCESS:    3974939  HIT:    3969620  MISS:       5319  HIT %:    99.8662  MISS %:   0.133813   MPKI: 0.026595
PSCL3 TRANSLATION FROM L1D PREFETCHER ACCESS:      89110  HIT:      89110  MISS:          0  HIT %:        100  MISS %:          0   MPKI: 0
PSCL3 PREFETCH  REQUESTED:          0  ISSUED:          0  USEFUL:          0  USELESS:          0
PSCL3 USEFUL LOAD PREFETCHES:          0 PREFETCH ISSUED TO LOWER LEVEL:          0  ACCURACY: -nan
PSCL3 TIMELY PREFETCHES:          0 LATE PREFETCHES: 0 DROPPED PREFETCHES: 0
PSCL3 PREFETCHES SAME FILL-ORIGIN LEVEL: 0 DIFFERENT FILL-ORIGIN LEVEL: 0

PSCL2 TOTAL     ACCESS:    4081371  HIT:    3616555  MISS:     464816  HIT %:    88.6113  MISS %:    11.3887   MPKI: 2.32408
PSCL2 LOAD TRANSLATION ACCESS:    3993645  HIT:    3528829  MISS:     464816  HIT %:    88.3611  MISS %:    11.6389   MPKI: 2.32408
PSCL2 TRANSLATION FROM L1D PREFETCHER ACCESS:      87726  HIT:      87726  MISS:          0  HIT %:        100  MISS %:          0   MPKI: 0
PSCL2 PREFETCH  REQUESTED:          0  ISSUED:          0  USEFUL:          0  USELESS:          0
PSCL2 USEFUL LOAD PREFETCHES:          0 PREFETCH ISSUED TO LOWER LEVEL:          0  ACCURACY: -nan
PSCL2 TIMELY PREFETCHES:          0 LATE PREFETCHES: 0 DROPPED PREFETCHES: 0
PSCL2 PREFETCHES SAME FILL-ORIGIN LEVEL: 0 DIFFERENT FILL-ORIGIN LEVEL: 0

LLC TOTAL     ACCESS:    2522412  HIT:    1058470  MISS:    1463942  HIT %:    41.9626  MISS %:    58.0374   MPKI: 7.31971
LLC LOAD      ACCESS:    1179456  HIT:     463998  MISS:     715458  HIT %:      39.34  MISS %:      60.66   MPKI: 3.57729
LLC RFO       ACCESS:     106128  HIT:      27593  MISS:      78535  HIT %:    25.9997  MISS %:    74.0003   MPKI: 0.392675
LLC PREFETCH  ACCESS:     556037  HIT:      27032  MISS:     529005  HIT %:    4.86155  MISS %:    95.1385   MPKI: 2.64502
LLC WRITEBACK ACCESS:     405220  HIT:     385189  MISS:      20031  HIT %:    95.0568  MISS %:    4.94324   MPKI: 0.100155
LLC LOAD TRANSLATION ACCESS:     273673  HIT:     154269  MISS:     119404  HIT %:    56.3698  MISS %:    43.6302   MPKI: 0.59702
LLC TRANSLATION FROM L1D PREFETCHER ACCESS:       1898  HIT:        389  MISS:       1509  HIT %:    20.4953  MISS %:    79.5047   MPKI: 0.007545
LLC PREFETCH  REQUESTED:          0  ISSUED:          0  USEFUL:      48918  USELESS:    2165814
LLC USEFUL LOAD PREFETCHES:      48918 PREFETCH ISSUED TO LOWER LEVEL:    2213157  ACCURACY: 2.21033
LLC TIMELY PREFETCHES:      48918 LATE PREFETCHES: 0 DROPPED PREFETCHES: 0
LLC PREFETCHES SAME FILL-ORIGIN LEVEL: 0 DIFFERENT FILL-ORIGIN LEVEL: 0
LLC AVERAGE MISS LATENCY: 999.808 cycles
LLC RQ	ACCESS:    6489655	FORWARD:          0	MERGED:          0	TO_CACHE:    6489650
LLC WQ	ACCESS:    1674354	FORWARD:          5	MERGED:          0	TO_CACHE:    1674354
LLC PQ	ACCESS:    2320913	FORWARD:          0	MERGED:          0	TO_CACHE:    2320913

LLC Dense regions hint to LLC: 0

RAW hits: 724291
Loads Generated: 23853577
Loads sent to L1D: 23129286
Stores Generated: 7239680
Stores sent to L1D: 7239680
Major fault: 0 Minor fault: 45059
Allocated PAGES: 178794

CPU 3 cumulative IPC: 0.597485 instructions: 200000002 cycles: 334736266
ITLB TOTAL     ACCESS:   28993018  HIT:   27802433  MISS:    1190585  HIT %:    95.8935  MISS %:    4.10645   MPKI: 5.95292
ITLB LOAD TRANSLATION ACCESS:   28993018  HIT:   27802433  MISS:    1190585  HIT %:    95.8935  MISS %:    4.10645   MPKI: 5.95292
ITLB PREFETCH  REQUESTED:          0  ISSUED:          0  USEFUL:          0  USELESS:          0
ITLB USEFUL LOAD PREFETCHES:          0 PREFETCH ISSUED TO LOWER LEVEL:          0  ACCURACY: -nan
ITLB TIMELY PREFETCHES:          0 LATE PREFETCHES: 0 DROPPED PREFETCHES: 0
ITLB PREFETCHES SAME FILL-ORIGIN LEVEL: 0 DIFFERENT FILL-ORIGIN LEVEL: 0
ITLB AVERAGE MISS LATENCY: 42.6585 cycles
ITLB RQ	ACCESS:   39085441	FORWARD:          0	MERGED:    8701666	TO_CACHE:   30383775

DTLB TOTAL     ACCESS:   15906677  HIT:   10960763  MISS:    4945914  HIT %:    68.9067  MISS %:    31.0933   MPKI: 24.7296
DTLB LOAD TRANSLATION ACCESS:   15906677  HIT:   10960763  MISS:    4945914  HIT %:    68.9067  MISS %:    31.0933   MPKI: 24.7296
DTLB PREFETCH  REQUESTED:          0  ISSUED:          0  USEFUL:          0  USELESS:          0
DTLB USEFUL LOAD PREFETCHES:          0 PREFETCH ISSUED TO LOWER LEVEL:          0  ACCURACY: -nan
DTLB TIMELY PREFETCHES:          0 LATE PREFETCHES: 0 DROPPED PREFETCHES: 0
DTLB PREFETCHES SAME FILL-ORIGIN LEVEL: 0 DIFFERENT FILL-ORIGIN LEVEL: 0
DTLB AVERAGE MISS LATENCY: 37.1402 cycles
DTLB RQ	ACCESS:   20837144	FORWARD:          0	MERGED:    3819611	TO_CACHE:   17017533

STLB TOTAL     ACCESS:    8606439  HIT:    4445980  MISS:    4160459  HIT %:    51.6588  MISS %:    48.3412   MPKI: 20.8023
STLB LOAD TRANSLATION ACCESS:    6136498  HIT:    2007846  MISS:    4128652  HIT %:    32.7197  MISS %:    67.2803   MPKI: 20.6433
STLB TRANSLATION FROM L1D PREFETCHER ACCESS:    2469941  HIT:    2438134  MISS:      31807  HIT %:    98.7122  MISS %:    1.28776   MPKI: 0.159035
STLB PREFETCH  REQUESTED:          0  ISSUED:          0  USEFUL:      22182  USELESS:      10435
STLB USEFUL LOAD PREFETCHES:      22182 PREFETCH ISSUED TO LOWER LEVEL:          0  ACCURACY: inf
STLB TIMELY PREFETCHES:      22182 LATE PREFETCHES: 0 DROPPED PREFETCHES: 64574
STLB PREFETCHES SAME FILL-ORIGIN LEVEL: 0 DIFFERENT FILL-ORIGIN LEVEL: 0
STLB AVERAGE MISS LATENCY: 42.8794 cycles
STLB RQ	ACCESS:   21566935	FORWARD:          0	MERGED:   12597441	TO_CACHE:    8969494

STLB Hit, L1D data hit: 0
STLB Hit, L2C data hit: 0
STLB Hit, LLC data hit: 0
STLB Hit, LLC data miss: 0
STLB STLB hints to L2: 0
L1D TOTAL     ACCESS:   30317375  HIT:   28566610  MISS:    1750765  HIT %:    94.2252  MISS %:    5.77479   MPKI: 8.75382
L1D LOAD      ACCESS:   12892434  HIT:   11799158  MISS:    1093276  HIT %:      91.52  MISS %:    8.47998   MPKI: 5.46638
L1D RFO       ACCESS:    6702468  HIT:    6530280  MISS:     172188  HIT %:     97.431  MISS %:    2.56902   MPKI: 0.86094
L1D PREFETCH  ACCESS:   10722473  HIT:   10237172  MISS:     485301  HIT %:     95.474  MISS %:    4.52602   MPKI: 2.4265
L1D PREFETCH  REQUESTED:   45993206  ISSUED:   43962631  USEFUL:     484110  USELESS:      16935
L1D USEFUL LOAD PREFETCHES:     484110 PREFETCH ISSUED TO LOWER LEVEL:    2852006  ACCURACY: 16.9744
L1D TIMELY PREFETCHES:     484110 LATE PREFETCHES: 18659 DROPPED PREFETCHES: 188155
L1D PREFETCHES SAME FILL-ORIGIN LEVEL: 519804 DIFFERENT FILL-ORIGIN LEVEL: 2332202
L1D AVERAGE MISS LATENCY: 164.743 cycles
L1D RQ	ACCESS:   24256850	FORWARD:          0	MERGED:   10704783	TO_CACHE:   13372237
L1D WQ	ACCESS:    7781956	FORWARD:     189804	MERGED:     317049	TO_CACHE:    7464907
L1D PQ	ACCESS:   28740471	FORWARD:          0	MERGED:   13508337	TO_CACHE:   15222160

L1D UNIQUE REGIONS ACCESSED: 0
L1D REGIONS CONFLICTS: 0
L1D Cross Page Prefetch Requests: 3315778
L1D Same Page Prefetch Requests: 36740316
L1D ROI Sum of L1D PQ occupancy: 233074046
L1D PREFETCHES PUSHED FROM L2C: 0
L1I TOTAL     ACCESS:   37506125  HIT:   36905475  MISS:     600650  HIT %:    98.3985  MISS %:    1.60147   MPKI: 3.00325
L1I LOAD      ACCESS:   37506125  HIT:   36905475  MISS:     600650  HIT %:    98.3985  MISS %:    1.60147   MPKI: 3.00325
L1I PREFETCH  REQUESTED:          0  ISSUED:          0  USEFUL:          0  USELESS:          0
L1I USEFUL LOAD PREFETCHES:          0 PREFETCH ISSUED TO LOWER LEVEL:          0  ACCURACY: -nan
L1I TIMELY PREFETCHES:          0 LATE PREFETCHES: 0 DROPPED PREFETCHES: 0
L1I PREFETCHES SAME FILL-ORIGIN LEVEL: 0 DIFFERENT FILL-ORIGIN LEVEL: 0
L1I AVERAGE MISS LATENCY: 55.2028 cycles
L1I RQ	ACCESS:   57158531	FORWARD:          0	MERGED:   18073090	TO_CACHE:   39085441

BTB BRANCH_DIRECT_JUMP	ACCESS:          0  HIT:          0  MISS:          0
BTB BRANCH_INDIRECT	ACCESS:          0  HIT:          0  MISS:          0
BTB BRANCH_CONDITIONAL	ACCESS:          0  HIT:          0  MISS:          0
BTB BRANCH_DIRECT_CALL	ACCESS:          0  HIT:          0  MISS:          0
BTB BRANCH_INDIRECT_CALL	ACCESS:          0  HIT:          0  MISS:          0
BTB BRANCH_RETURN	ACCESS:          0  HIT:          0  MISS:          0
BTB BRANCH_OTHER ACCESS:          0  HIT:          0  MISS:          0

L2C TOTAL     ACCESS:    9710093  HIT:    7524428  MISS:    2185665  HIT %:    77.4908  MISS %:    22.5092   MPKI: 10.9283
L2C LOAD      ACCESS:    1675266  HIT:     465249  MISS:    1210017  HIT %:    27.7716  MISS %:    72.2284   MPKI: 6.05008
L2C DATA LOAD MPKI: 4.41799
L2C INSTRUCTION LOAD MPKI: 1.63209
L2C RFO       ACCESS:     172177  HIT:      61787  MISS:     110390  HIT %:    35.8857  MISS %:    64.1143   MPKI: 0.55195
L2C PREFETCH  ACCESS:    2611564  HIT:    2056054  MISS:     555510  HIT %:    78.7288  MISS %:    21.2712   MPKI: 2.77755
L2C DATA PREFETCH MPKI: 2.77755
L2C INSTRUCTION PREFETCH MPKI: 0
L2C WRITEBACK ACCESS:     488848  HIT:     457158  MISS:      31690  HIT %:    93.5174  MISS %:    6.48259   MPKI: 0.15845
L2C LOAD TRANSLATION ACCESS:    4664075  HIT:    4387849  MISS:     276226  HIT %:    94.0776  MISS %:    5.92242   MPKI: 1.38113
L2C TRANSLATION FROM L1D PREFETCHER ACCESS:      98163  HIT:      96331  MISS:       1832  HIT %:    98.1337  MISS %:    1.86628   MPKI: 0.00916
L2C PREFETCH  REQUESTED:          0  ISSUED:          0  USEFUL:      70910  USELESS:     502371
L2C USEFUL LOAD PREFETCHES:      70910 PREFETCH ISSUED TO LOWER LEVEL:     582491  ACCURACY: 12.1736
L2C TIMELY PREFETCHES:      70910 LATE PREFETCHES: 9037 DROPPED PREFETCHES: 0
L2C PREFETCHES SAME FILL-ORIGIN LEVEL: 372827 DIFFERENT FILL-ORIGIN LEVEL: 0
L2C AVERAGE MISS LATENCY: 195.91 cycles
L2C RQ	ACCESS:    6813974	FORWARD:          0	MERGED:          0	TO_CACHE:    6813973
L2C WQ	ACCESS:     499808	FORWARD:          1	MERGED:          0	TO_CACHE:     499808
L2C PQ	ACCESS:    2847851	FORWARD:          0	MERGED:       6849	TO_CACHE:    2841002

L2C Instructions Evicting Data 230050
L2C Translations Evicting Data 212771
L2C Data Evicting Data 1165219
L2C Instructions Evicting Instructions 64259
L2C Translations Evicting Instructions 38278
L2C Data Evicting Instructions 226595
L2C Instructions Evicting Translations 39328
L2C Translations Evicting Translations 37114
L2C Data Evicting Translations 207633
L2C Dense regions hint from L2: 0
PSCL5 TOTAL     ACCESS:    4224716  HIT:    4224716  MISS:          0  HIT %:        100  MISS %:          0   MPKI: 0
PSCL5 LOAD TRANSLATION ACCESS:    4128652  HIT:    4128652  MISS:          0  HIT %:        100  MISS %:          0   MPKI: 0
PSCL5 TRANSLATION FROM L1D PREFETCHER ACCESS:      96064  HIT:      96064  MISS:          0  HIT %:        100  MISS %:          0   MPKI: 0
PSCL5 PREFETCH  REQUESTED:          0  ISSUED:          0  USEFUL:          0  USELESS:          0
PSCL5 USEFUL LOAD PREFETCHES:          0 PREFETCH ISSUED TO LOWER LEVEL:          0  ACCURACY: -nan
PSCL5 TIMELY PREFETCHES:          0 LATE PREFETCHES: 0 DROPPED PREFETCHES: 0
PSCL5 PREFETCHES SAME FILL-ORIGIN LEVEL: 0 DIFFERENT FILL-ORIGIN LEVEL: 0

PSCL4 TOTAL     ACCESS:    4169531  HIT:    4168681  MISS:        850  HIT %:    99.9796  MISS %:   0.020386   MPKI: 0.00425
PSCL4 LOAD TRANSLATION ACCESS:    4076922  HIT:    4076072  MISS:        850  HIT %:    99.9792  MISS %:  0.0208491   MPKI: 0.00425
PSCL4 TRANSLATION FROM L1D PREFETCHER ACCESS:      92609  HIT:      92609  MISS:          0  HIT %:        100  MISS %:          0   MPKI: 0
PSCL4 PREFETCH  REQUESTED:          0  ISSUED:          0  USEFUL:          0  USELESS:          0
PSCL4 USEFUL LOAD PREFETCHES:          0 PREFETCH ISSUED TO LOWER LEVEL:          0  ACCURACY: -nan
PSCL4 TIMELY PREFETCHES:          0 LATE PREFETCHES: 0 DROPPED PREFETCHES: 0
PSCL4 PREFETCHES SAME FILL-ORIGIN LEVEL: 0 DIFFERENT FILL-ORIGIN LEVEL: 0

PSCL3 TOTAL     ACCESS:    4205765  HIT:    4197626  MISS:       8139  HIT %:    99.8065  MISS %:    0.19352   MPKI: 0.040695
PSCL3 LOAD TRANSLATION ACCESS:    4110216  HIT:    4102077  MISS:       8139  HIT %:     99.802  MISS %:   0.198019   MPKI: 0.040695
PSCL3 TRANSLATION FROM L1D PREFETCHER ACCESS:      95549  HIT:      95549  MISS:          0  HIT %:        100  MISS %:          0   MPKI: 0
PSCL3 PREFETCH  REQUESTED:          0  ISSUED:          0  USEFUL:          0  USELESS:          0
PSCL3 USEFUL LOAD PREFETCHES:          0 PREFETCH ISSUED TO LOWER LEVEL:          0  ACCURACY: -nan
PSCL3 TIMELY PREFETCHES:          0 LATE PREFETCHES: 0 DROPPED PREFETCHES: 0
PSCL3 PREFETCHES SAME FILL-ORIGIN LEVEL: 0 DIFFERENT FILL-ORIGIN LEVEL: 0

PSCL2 TOTAL     ACCESS:    4222978  HIT:    3696006  MISS:     526972  HIT %:    87.5213  MISS %:    12.4787   MPKI: 2.63486
PSCL2 LOAD TRANSLATION ACCESS:    4129005  HIT:    3602033  MISS:     526972  HIT %:    87.2373  MISS %:    12.7627   MPKI: 2.63486
PSCL2 TRANSLATION FROM L1D PREFETCHER ACCESS:      93973  HIT:      93973  MISS:          0  HIT %:        100  MISS %:          0   MPKI: 0
PSCL2 PREFETCH  REQUESTED:          0  ISSUED:          0  USEFUL:          0  USELESS:          0
PSCL2 USEFUL LOAD PREFETCHES:          0 PREFETCH ISSUED TO LOWER LEVEL:          0  ACCURACY: -nan
PSCL2 TIMELY PREFETCHES:          0 LATE PREFETCHES: 0 DROPPED PREFETCHES: 0
PSCL2 PREFETCHES SAME FILL-ORIGIN LEVEL: 0 DIFFERENT FILL-ORIGIN LEVEL: 0

LLC TOTAL     ACCESS:    2564856  HIT:    1108316  MISS:    1456540  HIT %:    43.2116  MISS %:    56.7884   MPKI: 7.2827
LLC LOAD      ACCESS:    1201255  HIT:     490181  MISS:     711074  HIT %:    40.8057  MISS %:    59.1943   MPKI: 3.55537
LLC RFO       ACCESS:     110160  HIT:      38717  MISS:      71443  HIT %:    35.1462  MISS %:    64.8538   MPKI: 0.357215
LLC PREFETCH  ACCESS:     564499  HIT:      28001  MISS:     536498  HIT %:    4.96033  MISS %:    95.0397   MPKI: 2.68249
LLC WRITEBACK ACCESS:     410884  HIT:     391160  MISS:      19724  HIT %:    95.1996  MISS %:    4.80038   MPKI: 0.09862
LLC LOAD TRANSLATION ACCESS:     276226  HIT:     159908  MISS:     116318  HIT %:    57.8903  MISS %:    42.1097   MPKI: 0.58159
LLC TRANSLATION FROM L1D PREFETCHER ACCESS:       1832  HIT:        349  MISS:       1483  HIT %:    19.0502  MISS %:    80.9498   MPKI: 0.007415
LLC PREFETCH  REQUESTED:          0  ISSUED:          0  USEFUL:      48918  USELESS:    2165814
LLC USEFUL LOAD PREFETCHES:      48918 PREFETCH ISSUED TO LOWER LEVEL:    2213157  ACCURACY: 2.21033
LLC TIMELY PREFETCHES:      48918 LATE PREFETCHES: 0 DROPPED PREFETCHES: 0
LLC PREFETCHES SAME FILL-ORIGIN LEVEL: 0 DIFFERENT FILL-ORIGIN LEVEL: 0
LLC AVERAGE MISS LATENCY: 1004.89 cycles
LLC RQ	ACCESS:    6489655	FORWARD:          0	MERGED:          0	TO_CACHE:    6489650
LLC WQ	ACCESS:    1674354	FORWARD:          5	MERGED:          0	TO_CACHE:    1674354
LLC PQ	ACCESS:    2320913	FORWARD:          0	MERGED:          0	TO_CACHE:    2320913

LLC Dense regions hint to LLC: 0

RAW hits: 740845
Loads Generated: 24205030
Loads sent to L1D: 23464183
Stores Generated: 7556453
Stores sent to L1D: 7556454
Major fault: 0 Minor fault: 44946
Allocated PAGES: 178794

DRAM Statistics
 CHANNEL 0
 RQ ROW_BUFFER_HIT:     539360  ROW_BUFFER_MISS:    5457199
 DBUS_CONGESTED:        161
 WQ ROW_BUFFER_HIT:     228767  ROW_BUFFER_MISS:    1244923  FULL:          0

 AVG_CONGESTED_CYCLE: 5
 All warmup complete: 5
Channel 0 Bank busy for read cycles: 0
Channel 0 Bank busy for write cycles: 0
Channel 0
Rank 0
0banks busy for read cycles: 489784
0banks busy for write cycles: 390
1banks busy for read cycles: 55104406
1banks busy for write cycles: 429116
2banks busy for read cycles: 83209969
2banks busy for write cycles: 442303
3banks busy for read cycles: 71061633
3banks busy for write cycles: 453616
4banks busy for read cycles: 42862049
4banks busy for write cycles: 476799
5banks busy for read cycles: 20783257
5banks busy for write cycles: 540437
6banks busy for read cycles: 9649989
6banks busy for write cycles: 919671
7banks busy for read cycles: 5755337
7banks busy for write cycles: 6179751
8banks busy for read cycles: 6525726
8banks busy for write cycles: 42144398

CPU 0 Branch Prediction Accuracy: 99.0598% MPKI: 1.16102 Average ROB Occupancy at Mispredict: 78.6582
Branch types
NOT_BRANCH: 0 0%
BRANCH_DIRECT_JUMP: 0 0%
BRANCH_INDIRECT: 0 0%
BRANCH_CONDITIONAL: 0 0%
BRANCH_DIRECT_CALL: 0 0%
BRANCH_INDIRECT_CALL: 0 0%
BRANCH_RETURN: 0 0%
BRANCH_OTHER: 0 0%


CPU 1 Branch Prediction Accuracy: 98.8378% MPKI: 1.4578 Average ROB Occupancy at Mispredict: 70.8182
Branch types
NOT_BRANCH: 0 0%
BRANCH_DIRECT_JUMP: 0 0%
BRANCH_INDIRECT: 0 0%
BRANCH_CONDITIONAL: 0 0%
BRANCH_DIRECT_CALL: 0 0%
BRANCH_INDIRECT_CALL: 0 0%
BRANCH_RETURN: 0 0%
BRANCH_OTHER: 0 0%


CPU 2 Branch Prediction Accuracy: 99.0065% MPKI: 1.23386 Average ROB Occupancy at Mispredict: 73.3557
Branch types
NOT_BRANCH: 0 0%
BRANCH_DIRECT_JUMP: 0 0%
BRANCH_INDIRECT: 0 0%
BRANCH_CONDITIONAL: 0 0%
BRANCH_DIRECT_CALL: 0 0%
BRANCH_INDIRECT_CALL: 0 0%
BRANCH_RETURN: 0 0%
BRANCH_OTHER: 0 0%


CPU 3 Branch Prediction Accuracy: 98.9927% MPKI: 1.2449 Average ROB Occupancy at Mispredict: 75.2572
Branch types
NOT_BRANCH: 0 0%
BRANCH_DIRECT_JUMP: 0 0%
BRANCH_INDIRECT: 0 0%
BRANCH_CONDITIONAL: 0 0%
BRANCH_DIRECT_CALL: 0 0%
BRANCH_INDIRECT_CALL: 0 0%
BRANCH_RETURN: 0 0%
BRANCH_OTHER: 0 0%

DRAM PAGES: 1048576
Allocated PAGES: 178794
