
*** ChampSim Multicore Out-of-Order Simulator ***

Warmup Instructions: 50000000
Simulation Instructions: 200000000
Number of CPUs: 4
LLC sets: 8192
LLC ways: 16
Off-chip DRAM Size: 4096 MB Channels: 1 Width: 64-bit Data Rate: 6400 MT/s
CPU 0 runs ./traces/ligra/ligra_Components-Shortcut.com-lj.ungraph.gcc_6.3.0_O3.drop_22000M.length_250M.champsimtrace.xz
.xz
CPU 1 runs ./traces/ligra/ligra_MIS.com-lj.ungraph.gcc_6.3.0_O3.drop_21250M.length_250M.champsimtrace.xz
.xz
CPU 2 runs ./traces/spec/481.wrf-816B.champsimtrace.xz
.xz
CPU 3 runs ./traces/ligra/ligra_BFS.com-lj.ungraph.gcc_6.3.0_O3.drop_500M.length_250M.champsimtrace.xz
.xz
BTB has LRU replacement policy
ITLB has LRU replacement policy
DTLB has LRU replacement policy
STLB has LRU replacement policy
L1I has LRU replacement policy
History Sets: 8
History Ways: 16
BERTI Size: 16
BERTI Stride Size: 8
L1D has LRU replacement policy
Initialize SRRIP state for L2C
Initialize DRRIP state for LLC
BTB has LRU replacement policy
ITLB has LRU replacement policy
DTLB has LRU replacement policy
STLB has LRU replacement policy
L1I has LRU replacement policy
History Sets: 8
History Ways: 16
BERTI Size: 16
BERTI Stride Size: 8
L1D has LRU replacement policy
Initialize SRRIP state for L2C
Initialize DRRIP state for LLC
BTB has LRU replacement policy
ITLB has LRU replacement policy
DTLB has LRU replacement policy
STLB has LRU replacement policy
L1I has LRU replacement policy
History Sets: 8
History Ways: 16
BERTI Size: 16
BERTI Stride Size: 8
L1D has LRU replacement policy
Initialize SRRIP state for L2C
Initialize DRRIP state for LLC
BTB has LRU replacement policy
ITLB has LRU replacement policy
DTLB has LRU replacement policy
STLB has LRU replacement policy
L1I has LRU replacement policy
History Sets: 8
History Ways: 16
BERTI Size: 16
BERTI Stride Size: 8
L1D has LRU replacement policy
Initialize SRRIP state for L2C
Initialize DRRIP state for LLC
Heartbeat CPU 1 instructions: 10000001 cycles: 2941159 heartbeat IPC: 3.40002 cumulative IPC: 3.40002 (Simulation time: 0 hr 2 min 56 sec) 
Heartbeat CPU 2 instructions: 10000000 cycles: 3194571 heartbeat IPC: 3.13031 cumulative IPC: 3.13031 (Simulation time: 0 hr 3 min 10 sec) 
Heartbeat CPU 3 instructions: 10000002 cycles: 3333348 heartbeat IPC: 2.99999 cumulative IPC: 2.99999 (Simulation time: 0 hr 3 min 18 sec) 
Heartbeat CPU 0 instructions: 10000002 cycles: 3437575 heartbeat IPC: 2.90903 cumulative IPC: 2.90903 (Simulation time: 0 hr 3 min 24 sec) 
Heartbeat CPU 1 instructions: 20000001 cycles: 5882332 heartbeat IPC: 3.4 cumulative IPC: 3.40001 (Simulation time: 0 hr 5 min 56 sec) 
Heartbeat CPU 2 instructions: 20000001 cycles: 6207649 heartbeat IPC: 3.31887 cumulative IPC: 3.22183 (Simulation time: 0 hr 6 min 16 sec) 
Heartbeat CPU 3 instructions: 20000000 cycles: 6666681 heartbeat IPC: 3 cumulative IPC: 2.99999 (Simulation time: 0 hr 6 min 45 sec) 
Heartbeat CPU 0 instructions: 20000002 cycles: 6854345 heartbeat IPC: 2.92674 cumulative IPC: 2.91786 (Simulation time: 0 hr 6 min 54 sec) 
Heartbeat CPU 1 instructions: 30000000 cycles: 8823508 heartbeat IPC: 3.4 cumulative IPC: 3.40001 (Simulation time: 0 hr 8 min 52 sec) 
Heartbeat CPU 2 instructions: 30000002 cycles: 9147199 heartbeat IPC: 3.40188 cumulative IPC: 3.27969 (Simulation time: 0 hr 9 min 15 sec) 
Heartbeat CPU 3 instructions: 30000001 cycles: 10000015 heartbeat IPC: 3 cumulative IPC: 3 (Simulation time: 0 hr 10 min 7 sec) 
Heartbeat CPU 0 instructions: 30000001 cycles: 10262033 heartbeat IPC: 2.93454 cumulative IPC: 2.9234 (Simulation time: 0 hr 10 min 23 sec) 
Heartbeat CPU 1 instructions: 40000003 cycles: 11764685 heartbeat IPC: 3.4 cumulative IPC: 3.40001 (Simulation time: 0 hr 11 min 57 sec) 
Heartbeat CPU 2 instructions: 40000002 cycles: 12067149 heartbeat IPC: 3.42472 cumulative IPC: 3.31478 (Simulation time: 0 hr 12 min 15 sec) 
Heartbeat CPU 3 instructions: 40000001 cycles: 13333347 heartbeat IPC: 3 cumulative IPC: 3 (Simulation time: 0 hr 13 min 32 sec) 
Heartbeat CPU 0 instructions: 40000003 cycles: 13662268 heartbeat IPC: 2.94097 cumulative IPC: 2.92777 (Simulation time: 0 hr 13 min 49 sec) 
Heartbeat CPU 2 instructions: 50000002 cycles: 14985241 heartbeat IPC: 3.4269 cumulative IPC: 3.33662 (Simulation time: 0 hr 14 min 57 sec) 
Heartbeat CPU 1 instructions: 50000001 cycles: 15435981 heartbeat IPC: 2.72383 cumulative IPC: 3.23919 (Simulation time: 0 hr 15 min 18 sec) 
Heartbeat CPU 3 instructions: 50000000 cycles: 16666681 heartbeat IPC: 3 cumulative IPC: 3 (Simulation time: 0 hr 16 min 15 sec) 
Heartbeat CPU 0 instructions: 50000000 cycles: 17075016 heartbeat IPC: 2.93019 cumulative IPC: 2.92825 (Simulation time: 0 hr 16 min 37 sec) 

Warmup complete CPU 0 instructions: 50000004 cycles: 17075017 (Simulation time: 0 hr 16 min 37 sec) 
Warmup complete CPU 1 instructions: 54101519 cycles: 17075016 (Simulation time: 0 hr 16 min 37 sec) 
Warmup complete CPU 2 instructions: 57260540 cycles: 17075016 (Simulation time: 0 hr 16 min 37 sec) 
Warmup complete CPU 3 instructions: 51198775 cycles: 17075016 (Simulation time: 0 hr 16 min 37 sec) 

Heartbeat CPU 2 instructions: 60000003 cycles: 19099432 heartbeat IPC: 2.43061 cumulative IPC: 1.35321 (Simulation time: 0 hr 17 min 28 sec) 
Heartbeat CPU 1 instructions: 60000001 cycles: 22637414 heartbeat IPC: 1.38861 cumulative IPC: 1.06042 (Simulation time: 0 hr 18 min 57 sec) 
Heartbeat CPU 3 instructions: 60000001 cycles: 24625277 heartbeat IPC: 1.2565 cumulative IPC: 1.16569 (Simulation time: 0 hr 19 min 46 sec) 
Heartbeat CPU 2 instructions: 70000000 cycles: 26073461 heartbeat IPC: 1.43389 cumulative IPC: 1.41574 (Simulation time: 0 hr 20 min 26 sec) 
Heartbeat CPU 1 instructions: 70000002 cycles: 32040101 heartbeat IPC: 1.06353 cumulative IPC: 1.06237 (Simulation time: 0 hr 23 min 2 sec) 
Heartbeat CPU 2 instructions: 80000000 cycles: 32262681 heartbeat IPC: 1.61571 cumulative IPC: 1.49723 (Simulation time: 0 hr 23 min 8 sec) 
Heartbeat CPU 3 instructions: 70000001 cycles: 33248048 heartbeat IPC: 1.15972 cumulative IPC: 1.1625 (Simulation time: 0 hr 23 min 35 sec) 
Heartbeat CPU 2 instructions: 90000002 cycles: 37792950 heartbeat IPC: 1.80823 cumulative IPC: 1.58025 (Simulation time: 0 hr 25 min 35 sec) 
Heartbeat CPU 0 instructions: 60000000 cycles: 37892907 heartbeat IPC: 0.480356 cumulative IPC: 0.480356 (Simulation time: 0 hr 25 min 38 sec) 
Heartbeat CPU 1 instructions: 80000000 cycles: 41385756 heartbeat IPC: 1.07002 cumulative IPC: 1.06531 (Simulation time: 0 hr 27 min 3 sec) 
Heartbeat CPU 3 instructions: 80000002 cycles: 41875816 heartbeat IPC: 1.15905 cumulative IPC: 1.1613 (Simulation time: 0 hr 27 min 13 sec) 
Heartbeat CPU 2 instructions: 100000001 cycles: 46721273 heartbeat IPC: 1.12003 cumulative IPC: 1.44165 (Simulation time: 0 hr 28 min 50 sec) 
Heartbeat CPU 3 instructions: 90000002 cycles: 50547353 heartbeat IPC: 1.1532 cumulative IPC: 1.1592 (Simulation time: 0 hr 30 min 15 sec) 
Heartbeat CPU 1 instructions: 90000003 cycles: 51078704 heartbeat IPC: 1.03168 cumulative IPC: 1.05572 (Simulation time: 0 hr 30 min 28 sec) 
Heartbeat CPU 2 instructions: 110000000 cycles: 53533537 heartbeat IPC: 1.46794 cumulative IPC: 1.44656 (Simulation time: 0 hr 31 min 24 sec) 
Heartbeat CPU 3 instructions: 100000000 cycles: 59183126 heartbeat IPC: 1.15797 cumulative IPC: 1.15895 (Simulation time: 0 hr 33 min 32 sec) 
Heartbeat CPU 1 instructions: 100000001 cycles: 61040377 heartbeat IPC: 1.00385 cumulative IPC: 1.04397 (Simulation time: 0 hr 34 min 11 sec) 
Heartbeat CPU 2 instructions: 120000001 cycles: 61129503 heartbeat IPC: 1.31649 cumulative IPC: 1.42413 (Simulation time: 0 hr 34 min 13 sec) 
Heartbeat CPU 3 instructions: 110000000 cycles: 67810208 heartbeat IPC: 1.15914 cumulative IPC: 1.15898 (Simulation time: 0 hr 36 min 40 sec) 
Heartbeat CPU 2 instructions: 130000002 cycles: 68684824 heartbeat IPC: 1.32357 cumulative IPC: 1.40941 (Simulation time: 0 hr 36 min 57 sec) 
Heartbeat CPU 1 instructions: 110000000 cycles: 71977443 heartbeat IPC: 0.914322 cumulative IPC: 1.01814 (Simulation time: 0 hr 38 min 4 sec) 
Heartbeat CPU 3 instructions: 120000001 cycles: 76454060 heartbeat IPC: 1.15689 cumulative IPC: 1.15868 (Simulation time: 0 hr 39 min 25 sec) 
Heartbeat CPU 2 instructions: 140000003 cycles: 76482173 heartbeat IPC: 1.28249 cumulative IPC: 1.39275 (Simulation time: 0 hr 39 min 25 sec) 
Heartbeat CPU 0 instructions: 70000003 cycles: 81616041 heartbeat IPC: 0.228712 cumulative IPC: 0.30988 (Simulation time: 0 hr 41 min 24 sec) 
Heartbeat CPU 2 instructions: 150000000 cycles: 82448715 heartbeat IPC: 1.67601 cumulative IPC: 1.41861 (Simulation time: 0 hr 41 min 43 sec) 
Heartbeat CPU 1 instructions: 120000001 cycles: 84250685 heartbeat IPC: 0.814781 cumulative IPC: 0.980987 (Simulation time: 0 hr 42 min 22 sec) 
Heartbeat CPU 3 instructions: 130000000 cycles: 85129257 heartbeat IPC: 1.15271 cumulative IPC: 1.15792 (Simulation time: 0 hr 42 min 41 sec) 
Heartbeat CPU 2 instructions: 160000001 cycles: 89361721 heartbeat IPC: 1.44655 cumulative IPC: 1.42128 (Simulation time: 0 hr 44 min 7 sec) 
Heartbeat CPU 3 instructions: 140000003 cycles: 93791943 heartbeat IPC: 1.15438 cumulative IPC: 1.15752 (Simulation time: 0 hr 45 min 48 sec) 
Heartbeat CPU 1 instructions: 130000000 cycles: 95037136 heartbeat IPC: 0.927089 cumulative IPC: 0.97353 (Simulation time: 0 hr 46 min 16 sec) 
Heartbeat CPU 2 instructions: 170000001 cycles: 96190538 heartbeat IPC: 1.46438 cumulative IPC: 1.425 (Simulation time: 0 hr 46 min 40 sec) 
Heartbeat CPU 3 instructions: 150000000 cycles: 102490114 heartbeat IPC: 1.14967 cumulative IPC: 1.15672 (Simulation time: 0 hr 48 min 49 sec) 
Heartbeat CPU 2 instructions: 180000000 cycles: 104420193 heartbeat IPC: 1.21512 cumulative IPC: 1.40522 (Simulation time: 0 hr 49 min 32 sec) 
Heartbeat CPU 1 instructions: 140000000 cycles: 106142840 heartbeat IPC: 0.900438 cumulative IPC: 0.964417 (Simulation time: 0 hr 50 min 12 sec) 
Heartbeat CPU 3 instructions: 160000000 cycles: 111225732 heartbeat IPC: 1.14474 cumulative IPC: 1.15561 (Simulation time: 0 hr 52 min 20 sec) 
Heartbeat CPU 2 instructions: 190000002 cycles: 111423522 heartbeat IPC: 1.42789 cumulative IPC: 1.40691 (Simulation time: 0 hr 52 min 25 sec) 
Heartbeat CPU 0 instructions: 80000000 cycles: 112350776 heartbeat IPC: 0.325365 cumulative IPC: 0.314875 (Simulation time: 0 hr 52 min 45 sec) 
Heartbeat CPU 1 instructions: 150000000 cycles: 116699576 heartbeat IPC: 0.947262 cumulative IPC: 0.962599 (Simulation time: 0 hr 54 min 31 sec) 
Heartbeat CPU 2 instructions: 200000002 cycles: 118405179 heartbeat IPC: 1.43232 cumulative IPC: 1.40866 (Simulation time: 0 hr 55 min 16 sec) 
Heartbeat CPU 3 instructions: 170000003 cycles: 120003252 heartbeat IPC: 1.13927 cumulative IPC: 1.15421 (Simulation time: 0 hr 55 min 57 sec) 
Heartbeat CPU 2 instructions: 210000001 cycles: 125406298 heartbeat IPC: 1.42834 cumulative IPC: 1.40993 (Simulation time: 0 hr 58 min 14 sec) 
Heartbeat CPU 1 instructions: 160000003 cycles: 127184808 heartbeat IPC: 0.953723 cumulative IPC: 0.961754 (Simulation time: 0 hr 58 min 58 sec) 
Heartbeat CPU 3 instructions: 180000002 cycles: 128579613 heartbeat IPC: 1.166 cumulative IPC: 1.15512 (Simulation time: 0 hr 59 min 31 sec) 
Heartbeat CPU 2 instructions: 220000000 cycles: 132386543 heartbeat IPC: 1.43261 cumulative IPC: 1.4113 (Simulation time: 1 hr 1 min 6 sec) 
Heartbeat CPU 0 instructions: 90000002 cycles: 136302582 heartbeat IPC: 0.417505 cumulative IPC: 0.335493 (Simulation time: 1 hr 2 min 36 sec) 
Heartbeat CPU 3 instructions: 190000002 cycles: 137126855 heartbeat IPC: 1.16997 cumulative IPC: 1.15618 (Simulation time: 1 hr 2 min 57 sec) 
Heartbeat CPU 1 instructions: 170000000 cycles: 137843404 heartbeat IPC: 0.93821 cumulative IPC: 0.959676 (Simulation time: 1 hr 3 min 16 sec) 
Heartbeat CPU 2 instructions: 230000000 cycles: 139366316 heartbeat IPC: 1.43271 cumulative IPC: 1.41252 (Simulation time: 1 hr 3 min 55 sec) 
Heartbeat CPU 3 instructions: 200000001 cycles: 145658581 heartbeat IPC: 1.1721 cumulative IPC: 1.15723 (Simulation time: 1 hr 6 min 33 sec) 
Heartbeat CPU 2 instructions: 240000000 cycles: 146285619 heartbeat IPC: 1.44523 cumulative IPC: 1.41428 (Simulation time: 1 hr 6 min 50 sec) 
Heartbeat CPU 1 instructions: 180000000 cycles: 148482721 heartbeat IPC: 0.93991 cumulative IPC: 0.958075 (Simulation time: 1 hr 7 min 48 sec) 
Heartbeat CPU 2 instructions: 250000001 cycles: 152664891 heartbeat IPC: 1.56758 cumulative IPC: 1.42149 (Simulation time: 1 hr 9 min 37 sec) 
Heartbeat CPU 3 instructions: 210000001 cycles: 154177372 heartbeat IPC: 1.17388 cumulative IPC: 1.15827 (Simulation time: 1 hr 10 min 11 sec) 
Finished CPU 2 instructions: 200000001 cycles: 140226211 cumulative IPC: 1.42627 (Simulation time: 1 hr 11 min 29 sec) 
Heartbeat CPU 2 instructions: 260000000 cycles: 159049650 heartbeat IPC: 1.56623 cumulative IPC: 1.428 (Simulation time: 1 hr 12 min 9 sec) 
Heartbeat CPU 1 instructions: 190000001 cycles: 159081916 heartbeat IPC: 0.943468 cumulative IPC: 0.956985 (Simulation time: 1 hr 12 min 10 sec) 
Heartbeat CPU 3 instructions: 220000000 cycles: 162698282 heartbeat IPC: 1.17358 cumulative IPC: 1.15916 (Simulation time: 1 hr 13 min 39 sec) 
Heartbeat CPU 0 instructions: 100000000 cycles: 163823241 heartbeat IPC: 0.363363 cumulative IPC: 0.34072 (Simulation time: 1 hr 14 min 6 sec) 
Heartbeat CPU 2 instructions: 270000000 cycles: 165431303 heartbeat IPC: 1.56699 cumulative IPC: 1.43398 (Simulation time: 1 hr 14 min 48 sec) 
Heartbeat CPU 1 instructions: 200000000 cycles: 169991439 heartbeat IPC: 0.91663 cumulative IPC: 0.954106 (Simulation time: 1 hr 16 min 38 sec) 
Heartbeat CPU 3 instructions: 230000000 cycles: 171431305 heartbeat IPC: 1.14508 cumulative IPC: 1.15837 (Simulation time: 1 hr 17 min 16 sec) 
Heartbeat CPU 2 instructions: 280000002 cycles: 171806160 heartbeat IPC: 1.56866 cumulative IPC: 1.43953 (Simulation time: 1 hr 17 min 25 sec) 
Heartbeat CPU 3 instructions: 240000002 cycles: 180139491 heartbeat IPC: 1.14834 cumulative IPC: 1.15783 (Simulation time: 1 hr 20 min 40 sec) 
Heartbeat CPU 2 instructions: 290000001 cycles: 180144056 heartbeat IPC: 1.19934 cumulative IPC: 1.42724 (Simulation time: 1 hr 20 min 40 sec) 
Heartbeat CPU 1 instructions: 210000000 cycles: 181347824 heartbeat IPC: 0.880562 cumulative IPC: 0.949022 (Simulation time: 1 hr 21 min 8 sec) 
Heartbeat CPU 2 instructions: 300000001 cycles: 187934038 heartbeat IPC: 1.2837 cumulative IPC: 1.4207 (Simulation time: 1 hr 23 min 54 sec) 
*** Reached end of trace for Core: 3 Repeating trace: ./traces/ligra/ligra_BFS.com-lj.ungraph.gcc_6.3.0_O3.drop_500M.length_250M.champsimtrace.xz
Heartbeat CPU 3 instructions: 250000000 cycles: 188723419 heartbeat IPC: 1.16497 cumulative IPC: 1.15819 (Simulation time: 1 hr 24 min 14 sec) 
Finished CPU 3 instructions: 200000001 cycles: 172654788 cumulative IPC: 1.15838 (Simulation time: 1 hr 24 min 40 sec) 
Heartbeat CPU 0 instructions: 110000000 cycles: 192684970 heartbeat IPC: 0.34648 cumulative IPC: 0.341666 (Simulation time: 1 hr 25 min 54 sec) 
Heartbeat CPU 1 instructions: 220000000 cycles: 192767327 heartbeat IPC: 0.875695 cumulative IPC: 0.944256 (Simulation time: 1 hr 25 min 56 sec) 
Heartbeat CPU 2 instructions: 310000003 cycles: 195716176 heartbeat IPC: 1.28499 cumulative IPC: 1.41479 (Simulation time: 1 hr 27 min 9 sec) 
Heartbeat CPU 3 instructions: 260000000 cycles: 197185009 heartbeat IPC: 1.18181 cumulative IPC: 1.1593 (Simulation time: 1 hr 27 min 46 sec) 
Heartbeat CPU 2 instructions: 320000002 cycles: 203490207 heartbeat IPC: 1.28633 cumulative IPC: 1.40943 (Simulation time: 1 hr 30 min 14 sec) 
Heartbeat CPU 1 instructions: 230000002 cycles: 204467134 heartbeat IPC: 0.854715 cumulative IPC: 0.938665 (Simulation time: 1 hr 30 min 35 sec) 
Heartbeat CPU 3 instructions: 270000000 cycles: 205666341 heartbeat IPC: 1.17906 cumulative IPC: 1.16019 (Simulation time: 1 hr 30 min 58 sec) 
Heartbeat CPU 2 instructions: 330000000 cycles: 210460053 heartbeat IPC: 1.43475 cumulative IPC: 1.41034 (Simulation time: 1 hr 32 min 42 sec) 
Heartbeat CPU 3 instructions: 280000000 cycles: 214158919 heartbeat IPC: 1.1775 cumulative IPC: 1.16093 (Simulation time: 1 hr 34 min 0 sec) 
Heartbeat CPU 2 instructions: 340000000 cycles: 216517979 heartbeat IPC: 1.65073 cumulative IPC: 1.41765 (Simulation time: 1 hr 34 min 55 sec) 
Heartbeat CPU 1 instructions: 240000003 cycles: 216620337 heartbeat IPC: 0.822828 cumulative IPC: 0.93161 (Simulation time: 1 hr 34 min 56 sec) 
Heartbeat CPU 2 instructions: 350000000 cycles: 222571288 heartbeat IPC: 1.65199 cumulative IPC: 1.42455 (Simulation time: 1 hr 37 min 10 sec) 
Heartbeat CPU 3 instructions: 290000000 cycles: 222617484 heartbeat IPC: 1.18223 cumulative IPC: 1.16181 (Simulation time: 1 hr 37 min 11 sec) 
*** Reached end of trace for Core: 1 Repeating trace: ./traces/ligra/ligra_MIS.com-lj.ungraph.gcc_6.3.0_O3.drop_21250M.length_250M.champsimtrace.xz
Heartbeat CPU 1 instructions: 250000002 cycles: 229115944 heartbeat IPC: 0.800281 cumulative IPC: 0.923871 (Simulation time: 1 hr 39 min 12 sec) 
Heartbeat CPU 3 instructions: 300000001 cycles: 231223275 heartbeat IPC: 1.16201 cumulative IPC: 1.16182 (Simulation time: 1 hr 39 min 39 sec) 
Heartbeat CPU 2 instructions: 360000003 cycles: 236149149 heartbeat IPC: 0.736493 cumulative IPC: 1.3819 (Simulation time: 1 hr 40 min 47 sec) 
Heartbeat CPU 0 instructions: 120000003 cycles: 239915633 heartbeat IPC: 0.211727 cumulative IPC: 0.314126 (Simulation time: 1 hr 41 min 34 sec) 
Heartbeat CPU 3 instructions: 310000000 cycles: 239959456 heartbeat IPC: 1.14466 cumulative IPC: 1.16115 (Simulation time: 1 hr 41 min 35 sec) 
Finished CPU 1 instructions: 200000000 cycles: 223436954 cumulative IPC: 0.895107 (Simulation time: 1 hr 41 min 42 sec) 
Heartbeat CPU 3 instructions: 320000000 cycles: 248756427 heartbeat IPC: 1.13675 cumulative IPC: 1.16022 (Simulation time: 1 hr 43 min 39 sec) 
Heartbeat CPU 2 instructions: 370000002 cycles: 252123277 heartbeat IPC: 0.626012 cumulative IPC: 1.33053 (Simulation time: 1 hr 44 min 38 sec) 
Heartbeat CPU 1 instructions: 260000001 cycles: 256321932 heartbeat IPC: 0.367566 cumulative IPC: 0.860611 (Simulation time: 1 hr 45 min 51 sec) 
Heartbeat CPU 3 instructions: 330000000 cycles: 257489232 heartbeat IPC: 1.14511 cumulative IPC: 1.15967 (Simulation time: 1 hr 46 min 12 sec) 
Heartbeat CPU 2 instructions: 380000001 cycles: 261444723 heartbeat IPC: 1.07279 cumulative IPC: 1.3207 (Simulation time: 1 hr 47 min 26 sec) 
Heartbeat CPU 3 instructions: 340000002 cycles: 266201066 heartbeat IPC: 1.14786 cumulative IPC: 1.15926 (Simulation time: 1 hr 48 min 57 sec) 
Heartbeat CPU 2 instructions: 390000002 cycles: 270762783 heartbeat IPC: 1.07318 cumulative IPC: 1.31161 (Simulation time: 1 hr 50 min 25 sec) 
Heartbeat CPU 3 instructions: 350000002 cycles: 274856066 heartbeat IPC: 1.1554 cumulative IPC: 1.15913 (Simulation time: 1 hr 51 min 43 sec) 
Heartbeat CPU 1 instructions: 270000001 cycles: 279980467 heartbeat IPC: 0.42268 cumulative IPC: 0.821202 (Simulation time: 1 hr 53 min 21 sec) 
Heartbeat CPU 2 instructions: 400000003 cycles: 280026850 heartbeat IPC: 1.07944 cumulative IPC: 1.30343 (Simulation time: 1 hr 53 min 22 sec) 
Heartbeat CPU 3 instructions: 360000000 cycles: 283503651 heartbeat IPC: 1.15639 cumulative IPC: 1.15904 (Simulation time: 1 hr 54 min 28 sec) 
Heartbeat CPU 2 instructions: 410000003 cycles: 289311770 heartbeat IPC: 1.07702 cumulative IPC: 1.29571 (Simulation time: 1 hr 56 min 19 sec) 
Heartbeat CPU 3 instructions: 370000002 cycles: 292116337 heartbeat IPC: 1.16108 cumulative IPC: 1.1591 (Simulation time: 1 hr 57 min 10 sec) 
Heartbeat CPU 2 instructions: 420000001 cycles: 298538169 heartbeat IPC: 1.08385 cumulative IPC: 1.28876 (Simulation time: 1 hr 59 min 14 sec) 
Heartbeat CPU 3 instructions: 380000002 cycles: 300764732 heartbeat IPC: 1.15628 cumulative IPC: 1.15902 (Simulation time: 1 hr 59 min 57 sec) 
Heartbeat CPU 1 instructions: 280000002 cycles: 303424051 heartbeat IPC: 0.426556 cumulative IPC: 0.788892 (Simulation time: 2 hr 0 min 46 sec) 
Heartbeat CPU 2 instructions: 430000002 cycles: 307674249 heartbeat IPC: 1.09456 cumulative IPC: 1.28266 (Simulation time: 2 hr 2 min 7 sec) 
Heartbeat CPU 3 instructions: 390000002 cycles: 309446363 heartbeat IPC: 1.15186 cumulative IPC: 1.1588 (Simulation time: 2 hr 2 min 40 sec) 
Heartbeat CPU 2 instructions: 440000000 cycles: 316917209 heartbeat IPC: 1.0819 cumulative IPC: 1.27647 (Simulation time: 2 hr 4 min 56 sec) 
Heartbeat CPU 3 instructions: 400000000 cycles: 318186259 heartbeat IPC: 1.14418 cumulative IPC: 1.15838 (Simulation time: 2 hr 5 min 18 sec) 
Heartbeat CPU 2 instructions: 450000000 cycles: 326102699 heartbeat IPC: 1.08867 cumulative IPC: 1.27089 (Simulation time: 2 hr 7 min 53 sec) 
Heartbeat CPU 3 instructions: 410000000 cycles: 326982007 heartbeat IPC: 1.13691 cumulative IPC: 1.15777 (Simulation time: 2 hr 8 min 10 sec) 
Heartbeat CPU 1 instructions: 290000003 cycles: 327041269 heartbeat IPC: 0.42342 cumulative IPC: 0.761046 (Simulation time: 2 hr 8 min 11 sec) 
Heartbeat CPU 2 instructions: 460000000 cycles: 335671248 heartbeat IPC: 1.04509 cumulative IPC: 1.26411 (Simulation time: 2 hr 10 min 36 sec) 
Heartbeat CPU 3 instructions: 420000001 cycles: 335805867 heartbeat IPC: 1.13329 cumulative IPC: 1.15709 (Simulation time: 2 hr 10 min 38 sec) 
Heartbeat CPU 2 instructions: 470000002 cycles: 341692082 heartbeat IPC: 1.6609 cumulative IPC: 1.27147 (Simulation time: 2 hr 12 min 31 sec) 
Heartbeat CPU 3 instructions: 430000001 cycles: 344337822 heartbeat IPC: 1.17206 cumulative IPC: 1.15748 (Simulation time: 2 hr 13 min 14 sec) 
Heartbeat CPU 2 instructions: 480000001 cycles: 349987949 heartbeat IPC: 1.20542 cumulative IPC: 1.26982 (Simulation time: 2 hr 14 min 54 sec) 
Heartbeat CPU 3 instructions: 440000000 cycles: 352835888 heartbeat IPC: 1.17674 cumulative IPC: 1.15797 (Simulation time: 2 hr 15 min 49 sec) 
Heartbeat CPU 2 instructions: 490000000 cycles: 357059837 heartbeat IPC: 1.41405 cumulative IPC: 1.27282 (Simulation time: 2 hr 17 min 13 sec) 
Heartbeat CPU 0 instructions: 130000002 cycles: 359311279 heartbeat IPC: 0.0837551 cumulative IPC: 0.233757 (Simulation time: 2 hr 18 min 6 sec) 
Heartbeat CPU 1 instructions: 300000000 cycles: 359534418 heartbeat IPC: 0.307757 cumulative IPC: 0.718037 (Simulation time: 2 hr 18 min 10 sec) 
Heartbeat CPU 3 instructions: 450000003 cycles: 361307793 heartbeat IPC: 1.18037 cumulative IPC: 1.15852 (Simulation time: 2 hr 18 min 54 sec) 
Heartbeat CPU 2 instructions: 500000003 cycles: 364029007 heartbeat IPC: 1.43489 cumulative IPC: 1.27608 (Simulation time: 2 hr 20 min 6 sec) 
Heartbeat CPU 1 instructions: 310000001 cycles: 369152745 heartbeat IPC: 1.03968 cumulative IPC: 0.726824 (Simulation time: 2 hr 22 min 18 sec) 
Heartbeat CPU 3 instructions: 460000000 cycles: 369758717 heartbeat IPC: 1.1833 cumulative IPC: 1.15912 (Simulation time: 2 hr 22 min 34 sec) 
Heartbeat CPU 2 instructions: 510000002 cycles: 371003313 heartbeat IPC: 1.43383 cumulative IPC: 1.27918 (Simulation time: 2 hr 23 min 7 sec) 
Heartbeat CPU 2 instructions: 520000002 cycles: 377984982 heartbeat IPC: 1.43232 cumulative IPC: 1.28215 (Simulation time: 2 hr 26 min 2 sec) 
Heartbeat CPU 1 instructions: 320000000 cycles: 378125594 heartbeat IPC: 1.11447 cumulative IPC: 0.736458 (Simulation time: 2 hr 26 min 6 sec) 
Heartbeat CPU 3 instructions: 470000000 cycles: 378212919 heartbeat IPC: 1.18284 cumulative IPC: 1.15967 (Simulation time: 2 hr 26 min 8 sec) 
Heartbeat CPU 2 instructions: 530000002 cycles: 384945222 heartbeat IPC: 1.43673 cumulative IPC: 1.28507 (Simulation time: 2 hr 29 min 0 sec) 
Heartbeat CPU 3 instructions: 480000002 cycles: 386872609 heartbeat IPC: 1.15478 cumulative IPC: 1.15956 (Simulation time: 2 hr 29 min 46 sec) 
Heartbeat CPU 1 instructions: 330000000 cycles: 387088501 heartbeat IPC: 1.11571 cumulative IPC: 0.745644 (Simulation time: 2 hr 29 min 52 sec) 
Heartbeat CPU 2 instructions: 540000001 cycles: 391828553 heartbeat IPC: 1.45278 cumulative IPC: 1.28815 (Simulation time: 2 hr 31 min 54 sec) 
Heartbeat CPU 0 instructions: 140000001 cycles: 394216404 heartbeat IPC: 0.286491 cumulative IPC: 0.238637 (Simulation time: 2 hr 32 min 58 sec) 
Heartbeat CPU 3 instructions: 490000001 cycles: 395497594 heartbeat IPC: 1.15942 cumulative IPC: 1.15955 (Simulation time: 2 hr 33 min 31 sec) 
Heartbeat CPU 1 instructions: 340000003 cycles: 396195254 heartbeat IPC: 1.09809 cumulative IPC: 0.75411 (Simulation time: 2 hr 33 min 48 sec) 
Heartbeat CPU 2 instructions: 550000000 cycles: 398198866 heartbeat IPC: 1.56978 cumulative IPC: 1.29286 (Simulation time: 2 hr 34 min 43 sec) 
*** Reached end of trace for Core: 3 Repeating trace: ./traces/ligra/ligra_BFS.com-lj.ungraph.gcc_6.3.0_O3.drop_500M.length_250M.champsimtrace.xz
Heartbeat CPU 3 instructions: 500000000 cycles: 404014639 heartbeat IPC: 1.17412 cumulative IPC: 1.15987 (Simulation time: 2 hr 37 min 8 sec) 
Heartbeat CPU 2 instructions: 560000003 cycles: 404570159 heartbeat IPC: 1.56954 cumulative IPC: 1.29741 (Simulation time: 2 hr 37 min 20 sec) 
Heartbeat CPU 1 instructions: 350000001 cycles: 405459752 heartbeat IPC: 1.07939 cumulative IPC: 0.761869 (Simulation time: 2 hr 37 min 44 sec) 
Heartbeat CPU 2 instructions: 570000000 cycles: 410971326 heartbeat IPC: 1.56221 cumulative IPC: 1.30171 (Simulation time: 2 hr 40 min 6 sec) 
Heartbeat CPU 3 instructions: 510000000 cycles: 412476026 heartbeat IPC: 1.18184 cumulative IPC: 1.16034 (Simulation time: 2 hr 40 min 44 sec) 
Heartbeat CPU 1 instructions: 360000002 cycles: 415129616 heartbeat IPC: 1.03414 cumulative IPC: 0.768484 (Simulation time: 2 hr 41 min 52 sec) 
Heartbeat CPU 2 instructions: 580000003 cycles: 417341910 heartbeat IPC: 1.56972 cumulative IPC: 1.30598 (Simulation time: 2 hr 42 min 45 sec) 
Heartbeat CPU 3 instructions: 520000001 cycles: 420960601 heartbeat IPC: 1.17861 cumulative IPC: 1.16073 (Simulation time: 2 hr 44 min 5 sec) 
Heartbeat CPU 2 instructions: 590000000 cycles: 425762988 heartbeat IPC: 1.1875 cumulative IPC: 1.30354 (Simulation time: 2 hr 46 min 2 sec) 
Heartbeat CPU 1 instructions: 370000001 cycles: 425969769 heartbeat IPC: 0.922496 cumulative IPC: 0.772567 (Simulation time: 2 hr 46 min 6 sec) 
Heartbeat CPU 3 instructions: 530000002 cycles: 429451842 heartbeat IPC: 1.17768 cumulative IPC: 1.16108 (Simulation time: 2 hr 47 min 28 sec) 
Heartbeat CPU 2 instructions: 600000001 cycles: 433580040 heartbeat IPC: 1.27925 cumulative IPC: 1.30308 (Simulation time: 2 hr 49 min 9 sec) 
Heartbeat CPU 0 instructions: 150000000 cycles: 435233503 heartbeat IPC: 0.243801 cumulative IPC: 0.239144 (Simulation time: 2 hr 49 min 51 sec) 
Heartbeat CPU 1 instructions: 380000000 cycles: 436072147 heartbeat IPC: 0.989866 cumulative IPC: 0.777806 (Simulation time: 2 hr 50 min 8 sec) 
Heartbeat CPU 3 instructions: 540000002 cycles: 437910268 heartbeat IPC: 1.18225 cumulative IPC: 1.1615 (Simulation time: 2 hr 50 min 51 sec) 
Heartbeat CPU 2 instructions: 610000002 cycles: 441404628 heartbeat IPC: 1.27802 cumulative IPC: 1.30262 (Simulation time: 2 hr 52 min 17 sec) 
Heartbeat CPU 1 instructions: 390000000 cycles: 446341771 heartbeat IPC: 0.973745 cumulative IPC: 0.782494 (Simulation time: 2 hr 54 min 21 sec) 
Heartbeat CPU 3 instructions: 550000000 cycles: 446415164 heartbeat IPC: 1.17579 cumulative IPC: 1.16179 (Simulation time: 2 hr 54 min 22 sec) 
Heartbeat CPU 2 instructions: 620000001 cycles: 449208323 heartbeat IPC: 1.28144 cumulative IPC: 1.30224 (Simulation time: 2 hr 55 min 25 sec) 
Heartbeat CPU 3 instructions: 560000002 cycles: 454930286 heartbeat IPC: 1.17438 cumulative IPC: 1.16203 (Simulation time: 2 hr 57 min 23 sec) 
Heartbeat CPU 2 instructions: 630000002 cycles: 456151865 heartbeat IPC: 1.44019 cumulative IPC: 1.30442 (Simulation time: 2 hr 57 min 52 sec) 
Heartbeat CPU 1 instructions: 400000000 cycles: 457031204 heartbeat IPC: 0.935503 cumulative IPC: 0.786211 (Simulation time: 2 hr 58 min 14 sec) 
Heartbeat CPU 2 instructions: 640000003 cycles: 462218329 heartbeat IPC: 1.64841 cumulative IPC: 1.30911 (Simulation time: 3 hr 0 min 18 sec) 
Heartbeat CPU 3 instructions: 570000002 cycles: 463459323 heartbeat IPC: 1.17247 cumulative IPC: 1.16223 (Simulation time: 3 hr 0 min 48 sec) 
Heartbeat CPU 1 instructions: 410000003 cycles: 467260694 heartbeat IPC: 0.977566 cumulative IPC: 0.790559 (Simulation time: 3 hr 2 min 21 sec) 
Heartbeat CPU 2 instructions: 650000003 cycles: 468269020 heartbeat IPC: 1.6527 cumulative IPC: 1.31371 (Simulation time: 3 hr 2 min 46 sec) 
Heartbeat CPU 3 instructions: 580000001 cycles: 472001403 heartbeat IPC: 1.17067 cumulative IPC: 1.16239 (Simulation time: 3 hr 4 min 4 sec) 
Heartbeat CPU 1 instructions: 420000000 cycles: 478031993 heartbeat IPC: 0.928393 cumulative IPC: 0.79378 (Simulation time: 3 hr 6 min 7 sec) 
Heartbeat CPU 2 instructions: 660000000 cycles: 478184397 heartbeat IPC: 1.00853 cumulative IPC: 1.30715 (Simulation time: 3 hr 6 min 10 sec) 
Heartbeat CPU 3 instructions: 590000001 cycles: 480557902 heartbeat IPC: 1.1687 cumulative IPC: 1.16251 (Simulation time: 3 hr 6 min 56 sec) 
Heartbeat CPU 0 instructions: 160000000 cycles: 484178727 heartbeat IPC: 0.20431 cumulative IPC: 0.235494 (Simulation time: 3 hr 8 min 23 sec) 
Heartbeat CPU 2 instructions: 670000002 cycles: 485708677 heartbeat IPC: 1.32903 cumulative IPC: 1.3075 (Simulation time: 3 hr 8 min 58 sec) 
Heartbeat CPU 1 instructions: 430000000 cycles: 488655615 heartbeat IPC: 0.941299 cumulative IPC: 0.797103 (Simulation time: 3 hr 10 min 12 sec) 
Heartbeat CPU 3 instructions: 600000000 cycles: 489042531 heartbeat IPC: 1.1786 cumulative IPC: 1.16279 (Simulation time: 3 hr 10 min 22 sec) 
Heartbeat CPU 2 instructions: 680000001 cycles: 492470452 heartbeat IPC: 1.4789 cumulative IPC: 1.30994 (Simulation time: 3 hr 11 min 49 sec) 
Heartbeat CPU 3 instructions: 610000000 cycles: 497512628 heartbeat IPC: 1.18062 cumulative IPC: 1.16311 (Simulation time: 3 hr 13 min 49 sec) 
Heartbeat CPU 1 instructions: 440000000 cycles: 498823652 heartbeat IPC: 0.983474 cumulative IPC: 0.801037 (Simulation time: 3 hr 14 min 21 sec) 
Heartbeat CPU 2 instructions: 690000002 cycles: 499249222 heartbeat IPC: 1.47519 cumulative IPC: 1.31226 (Simulation time: 3 hr 14 min 31 sec) 
Heartbeat CPU 3 instructions: 620000000 cycles: 505965724 heartbeat IPC: 1.183 cumulative IPC: 1.16345 (Simulation time: 3 hr 17 min 15 sec) 
Heartbeat CPU 2 instructions: 700000003 cycles: 506008292 heartbeat IPC: 1.47949 cumulative IPC: 1.31457 (Simulation time: 3 hr 17 min 16 sec) 
Heartbeat CPU 1 instructions: 450000000 cycles: 509208789 heartbeat IPC: 0.962915 cumulative IPC: 0.804453 (Simulation time: 3 hr 18 min 36 sec) 
Heartbeat CPU 2 instructions: 710000002 cycles: 512753304 heartbeat IPC: 1.48258 cumulative IPC: 1.31686 (Simulation time: 3 hr 20 min 7 sec) 
Heartbeat CPU 3 instructions: 630000001 cycles: 514480056 heartbeat IPC: 1.17449 cumulative IPC: 1.16364 (Simulation time: 3 hr 20 min 49 sec) 
Heartbeat CPU 2 instructions: 720000003 cycles: 519484293 heartbeat IPC: 1.48567 cumulative IPC: 1.31912 (Simulation time: 3 hr 22 min 51 sec) 
Heartbeat CPU 1 instructions: 460000000 cycles: 519961862 heartbeat IPC: 0.929967 cumulative IPC: 0.807137 (Simulation time: 3 hr 23 min 2 sec) 
Heartbeat CPU 3 instructions: 640000001 cycles: 523043883 heartbeat IPC: 1.1677 cumulative IPC: 1.16371 (Simulation time: 3 hr 24 min 11 sec) 
Heartbeat CPU 2 instructions: 730000001 cycles: 526284362 heartbeat IPC: 1.47057 cumulative IPC: 1.32115 (Simulation time: 3 hr 25 min 26 sec) 
Heartbeat CPU 0 instructions: 170000000 cycles: 526289038 heartbeat IPC: 0.237472 cumulative IPC: 0.235657 (Simulation time: 3 hr 25 min 26 sec) 
Heartbeat CPU 1 instructions: 470000002 cycles: 530990816 heartbeat IPC: 0.906704 cumulative IPC: 0.809274 (Simulation time: 3 hr 27 min 13 sec) 
Heartbeat CPU 3 instructions: 650000000 cycles: 531629818 heartbeat IPC: 1.1647 cumulative IPC: 1.16373 (Simulation time: 3 hr 27 min 28 sec) 
Heartbeat CPU 2 instructions: 740000000 cycles: 533043396 heartbeat IPC: 1.4795 cumulative IPC: 1.32322 (Simulation time: 3 hr 28 min 4 sec) 
Heartbeat CPU 2 instructions: 750000000 cycles: 539806939 heartbeat IPC: 1.47852 cumulative IPC: 1.32523 (Simulation time: 3 hr 30 min 48 sec) 
Heartbeat CPU 3 instructions: 660000000 cycles: 540271452 heartbeat IPC: 1.15719 cumulative IPC: 1.16362 (Simulation time: 3 hr 30 min 58 sec) 
Heartbeat CPU 1 instructions: 480000002 cycles: 542392816 heartbeat IPC: 0.877039 cumulative IPC: 0.810744 (Simulation time: 3 hr 31 min 38 sec) 
Heartbeat CPU 2 instructions: 760000001 cycles: 546880674 heartbeat IPC: 1.41368 cumulative IPC: 1.32641 (Simulation time: 3 hr 33 min 14 sec) 
Heartbeat CPU 3 instructions: 670000003 cycles: 548987066 heartbeat IPC: 1.14737 cumulative IPC: 1.16335 (Simulation time: 3 hr 34 min 2 sec) 
Heartbeat CPU 2 instructions: 770000000 cycles: 553439663 heartbeat IPC: 1.52463 cumulative IPC: 1.32883 (Simulation time: 3 hr 35 min 40 sec) 
Heartbeat CPU 1 instructions: 490000001 cycles: 554324694 heartbeat IPC: 0.838091 cumulative IPC: 0.811352 (Simulation time: 3 hr 35 min 59 sec) 
Heartbeat CPU 3 instructions: 680000000 cycles: 557516815 heartbeat IPC: 1.17237 cumulative IPC: 1.16349 (Simulation time: 3 hr 37 min 5 sec) 
Heartbeat CPU 2 instructions: 780000001 cycles: 561593796 heartbeat IPC: 1.22637 cumulative IPC: 1.3273 (Simulation time: 3 hr 38 min 43 sec) 
*** Reached end of trace for Core: 1 Repeating trace: ./traces/ligra/ligra_MIS.com-lj.ungraph.gcc_6.3.0_O3.drop_21250M.length_250M.champsimtrace.xz
Heartbeat CPU 1 instructions: 500000002 cycles: 565654978 heartbeat IPC: 0.88259 cumulative IPC: 0.812823 (Simulation time: 3 hr 40 min 24 sec) 
Heartbeat CPU 3 instructions: 690000002 cycles: 566005924 heartbeat IPC: 1.17798 cumulative IPC: 1.16372 (Simulation time: 3 hr 40 min 33 sec) 
Heartbeat CPU 2 instructions: 790000003 cycles: 568779811 heartbeat IPC: 1.39159 cumulative IPC: 1.32814 (Simulation time: 3 hr 41 min 33 sec) 
Heartbeat CPU 3 instructions: 700000001 cycles: 574549146 heartbeat IPC: 1.17052 cumulative IPC: 1.16382 (Simulation time: 3 hr 43 min 32 sec) 
Heartbeat CPU 2 instructions: 800000002 cycles: 576545475 heartbeat IPC: 1.28772 cumulative IPC: 1.32758 (Simulation time: 3 hr 44 min 13 sec) 
Heartbeat CPU 3 instructions: 710000002 cycles: 583099190 heartbeat IPC: 1.16958 cumulative IPC: 1.16391 (Simulation time: 3 hr 46 min 25 sec) 
Heartbeat CPU 2 instructions: 810000002 cycles: 584428695 heartbeat IPC: 1.26852 cumulative IPC: 1.32676 (Simulation time: 3 hr 46 min 51 sec) 
Heartbeat CPU 1 instructions: 510000001 cycles: 586796741 heartbeat IPC: 0.472997 cumulative IPC: 0.800213 (Simulation time: 3 hr 47 min 39 sec) 
Heartbeat CPU 3 instructions: 720000002 cycles: 591677576 heartbeat IPC: 1.16572 cumulative IPC: 1.16394 (Simulation time: 3 hr 49 min 7 sec) 
Heartbeat CPU 2 instructions: 820000002 cycles: 592240645 heartbeat IPC: 1.28009 cumulative IPC: 1.32612 (Simulation time: 3 hr 49 min 19 sec) 
Heartbeat CPU 2 instructions: 830000000 cycles: 600075146 heartbeat IPC: 1.27641 cumulative IPC: 1.32545 (Simulation time: 3 hr 52 min 1 sec) 
Heartbeat CPU 3 instructions: 730000000 cycles: 600443749 heartbeat IPC: 1.14075 cumulative IPC: 1.16359 (Simulation time: 3 hr 52 min 9 sec) 
Heartbeat CPU 0 instructions: 180000003 cycles: 604073552 heartbeat IPC: 0.12856 cumulative IPC: 0.221466 (Simulation time: 3 hr 53 min 18 sec) 
Heartbeat CPU 2 instructions: 840000001 cycles: 608475642 heartbeat IPC: 1.19041 cumulative IPC: 1.32354 (Simulation time: 3 hr 54 min 40 sec) 
Heartbeat CPU 3 instructions: 740000003 cycles: 609274327 heartbeat IPC: 1.13243 cumulative IPC: 1.16312 (Simulation time: 3 hr 54 min 56 sec) 
Heartbeat CPU 1 instructions: 520000001 cycles: 610055901 heartbeat IPC: 0.429938 cumulative IPC: 0.785689 (Simulation time: 3 hr 55 min 11 sec) 
Heartbeat CPU 2 instructions: 850000003 cycles: 616918194 heartbeat IPC: 1.18448 cumulative IPC: 1.32158 (Simulation time: 3 hr 57 min 14 sec) 
*** Reached end of trace for Core: 3 Repeating trace: ./traces/ligra/ligra_BFS.com-lj.ungraph.gcc_6.3.0_O3.drop_500M.length_250M.champsimtrace.xz
Heartbeat CPU 3 instructions: 750000002 cycles: 617979042 heartbeat IPC: 1.1488 cumulative IPC: 1.16292 (Simulation time: 3 hr 57 min 34 sec) 
Heartbeat CPU 2 instructions: 860000000 cycles: 625291325 heartbeat IPC: 1.1943 cumulative IPC: 1.31983 (Simulation time: 3 hr 59 min 57 sec) 
Heartbeat CPU 3 instructions: 760000000 cycles: 626594515 heartbeat IPC: 1.1607 cumulative IPC: 1.16289 (Simulation time: 4 hr 0 min 24 sec) 
Heartbeat CPU 2 instructions: 870000003 cycles: 633586967 heartbeat IPC: 1.20545 cumulative IPC: 1.31829 (Simulation time: 4 hr 2 min 44 sec) 
Heartbeat CPU 1 instructions: 530000000 cycles: 633832708 heartbeat IPC: 0.420578 cumulative IPC: 0.771613 (Simulation time: 4 hr 2 min 49 sec) 
Heartbeat CPU 3 instructions: 770000000 cycles: 635233181 heartbeat IPC: 1.15759 cumulative IPC: 1.16281 (Simulation time: 4 hr 3 min 17 sec) 
Heartbeat CPU 3 instructions: 780000001 cycles: 643974760 heartbeat IPC: 1.14396 cumulative IPC: 1.16255 (Simulation time: 4 hr 5 min 48 sec) 
Heartbeat CPU 2 instructions: 880000000 cycles: 644489992 heartbeat IPC: 0.917176 cumulative IPC: 1.31132 (Simulation time: 4 hr 5 min 59 sec) 
Heartbeat CPU 3 instructions: 790000000 cycles: 652555442 heartbeat IPC: 1.16541 cumulative IPC: 1.16259 (Simulation time: 4 hr 8 min 40 sec) 
Heartbeat CPU 2 instructions: 890000001 cycles: 653614549 heartbeat IPC: 1.09594 cumulative IPC: 1.30823 (Simulation time: 4 hr 9 min 1 sec) 
Heartbeat CPU 1 instructions: 540000002 cycles: 657811200 heartbeat IPC: 0.41704 cumulative IPC: 0.758344 (Simulation time: 4 hr 10 min 27 sec) 
Heartbeat CPU 3 instructions: 800000000 cycles: 661161725 heartbeat IPC: 1.16194 cumulative IPC: 1.16258 (Simulation time: 4 hr 11 min 35 sec) 
Heartbeat CPU 2 instructions: 900000002 cycles: 662561904 heartbeat IPC: 1.11765 cumulative IPC: 1.30559 (Simulation time: 4 hr 12 min 3 sec) 
Heartbeat CPU 3 instructions: 810000001 cycles: 669677986 heartbeat IPC: 1.17422 cumulative IPC: 1.16273 (Simulation time: 4 hr 14 min 36 sec) 
Heartbeat CPU 2 instructions: 910000003 cycles: 670529270 heartbeat IPC: 1.25512 cumulative IPC: 1.30497 (Simulation time: 4 hr 14 min 54 sec) 
Heartbeat CPU 3 instructions: 820000001 cycles: 678209566 heartbeat IPC: 1.17212 cumulative IPC: 1.16285 (Simulation time: 4 hr 17 min 34 sec) 
Heartbeat CPU 2 instructions: 920000002 cycles: 678352765 heartbeat IPC: 1.2782 cumulative IPC: 1.30466 (Simulation time: 4 hr 17 min 37 sec) 
Heartbeat CPU 2 instructions: 930000002 cycles: 684550139 heartbeat IPC: 1.61359 cumulative IPC: 1.30752 (Simulation time: 4 hr 19 min 51 sec) 
Heartbeat CPU 1 instructions: 550000000 cycles: 685619406 heartbeat IPC: 0.359606 cumulative IPC: 0.741759 (Simulation time: 4 hr 20 min 15 sec) 
Heartbeat CPU 3 instructions: 830000000 cycles: 686755022 heartbeat IPC: 1.17021 cumulative IPC: 1.16295 (Simulation time: 4 hr 20 min 40 sec) 
Heartbeat CPU 2 instructions: 940000000 cycles: 690605185 heartbeat IPC: 1.65151 cumulative IPC: 1.31062 (Simulation time: 4 hr 22 min 14 sec) 
Heartbeat CPU 1 instructions: 560000003 cycles: 695254846 heartbeat IPC: 1.03784 cumulative IPC: 0.745965 (Simulation time: 4 hr 24 min 0 sec) 
Heartbeat CPU 3 instructions: 840000001 cycles: 695309216 heartbeat IPC: 1.16902 cumulative IPC: 1.16302 (Simulation time: 4 hr 24 min 1 sec) 
Heartbeat CPU 0 instructions: 190000003 cycles: 695970120 heartbeat IPC: 0.108818 cumulative IPC: 0.206217 (Simulation time: 4 hr 24 min 14 sec) 
Heartbeat CPU 2 instructions: 950000001 cycles: 698438964 heartbeat IPC: 1.27652 cumulative IPC: 1.31022 (Simulation time: 4 hr 25 min 5 sec) 
Heartbeat CPU 3 instructions: 850000002 cycles: 703796371 heartbeat IPC: 1.17825 cumulative IPC: 1.16321 (Simulation time: 4 hr 26 min 52 sec) 
Heartbeat CPU 1 instructions: 570000000 cycles: 704512606 heartbeat IPC: 1.08017 cumulative IPC: 0.750466 (Simulation time: 4 hr 27 min 8 sec) 
Heartbeat CPU 2 instructions: 960000002 cycles: 707538382 heartbeat IPC: 1.09897 cumulative IPC: 1.30744 (Simulation time: 4 hr 28 min 16 sec) 
Heartbeat CPU 3 instructions: 860000002 cycles: 712267836 heartbeat IPC: 1.18043 cumulative IPC: 1.16342 (Simulation time: 4 hr 29 min 59 sec) 
Heartbeat CPU 1 instructions: 580000000 cycles: 713564215 heartbeat IPC: 1.10478 cumulative IPC: 0.755071 (Simulation time: 4 hr 30 min 33 sec) 
Heartbeat CPU 2 instructions: 970000001 cycles: 714414221 heartbeat IPC: 1.45437 cumulative IPC: 1.30889 (Simulation time: 4 hr 30 min 55 sec) 
Heartbeat CPU 3 instructions: 870000001 cycles: 720721130 heartbeat IPC: 1.18297 cumulative IPC: 1.16365 (Simulation time: 4 hr 33 min 36 sec) 
Heartbeat CPU 2 instructions: 980000000 cycles: 721170984 heartbeat IPC: 1.48 cumulative IPC: 1.31053 (Simulation time: 4 hr 33 min 47 sec) 
Heartbeat CPU 1 instructions: 590000003 cycles: 722632503 heartbeat IPC: 1.10274 cumulative IPC: 0.759539 (Simulation time: 4 hr 34 min 26 sec) 
Heartbeat CPU 2 instructions: 990000000 cycles: 727919725 heartbeat IPC: 1.48176 cumulative IPC: 1.31216 (Simulation time: 4 hr 36 min 40 sec) 
Heartbeat CPU 3 instructions: 880000000 cycles: 729235588 heartbeat IPC: 1.17447 cumulative IPC: 1.16378 (Simulation time: 4 hr 37 min 14 sec) 
Heartbeat CPU 1 instructions: 600000001 cycles: 731836903 heartbeat IPC: 1.08644 cumulative IPC: 0.763749 (Simulation time: 4 hr 38 min 19 sec) 
Heartbeat CPU 2 instructions: 1000000003 cycles: 734661688 heartbeat IPC: 1.48325 cumulative IPC: 1.31376 (Simulation time: 4 hr 39 min 29 sec) 
Heartbeat CPU 3 instructions: 890000000 cycles: 737798845 heartbeat IPC: 1.16778 cumulative IPC: 1.16383 (Simulation time: 4 hr 40 min 45 sec) 
Heartbeat CPU 2 instructions: 1010000001 cycles: 741414045 heartbeat IPC: 1.48096 cumulative IPC: 1.31532 (Simulation time: 4 hr 42 min 17 sec) 
Heartbeat CPU 1 instructions: 610000002 cycles: 741430101 heartbeat IPC: 1.04241 cumulative IPC: 0.767439 (Simulation time: 4 hr 42 min 18 sec) 
Heartbeat CPU 3 instructions: 900000002 cycles: 746385244 heartbeat IPC: 1.16463 cumulative IPC: 1.16384 (Simulation time: 4 hr 44 min 19 sec) 
Heartbeat CPU 0 instructions: 200000001 cycles: 748056641 heartbeat IPC: 0.191988 cumulative IPC: 0.205204 (Simulation time: 4 hr 44 min 58 sec) 
Heartbeat CPU 2 instructions: 1020000002 cycles: 748157665 heartbeat IPC: 1.48288 cumulative IPC: 1.31687 (Simulation time: 4 hr 45 min 1 sec) 
Heartbeat CPU 1 instructions: 620000001 cycles: 752046817 heartbeat IPC: 0.941911 cumulative IPC: 0.769959 (Simulation time: 4 hr 46 min 37 sec) 
Heartbeat CPU 2 instructions: 1030000000 cycles: 754912532 heartbeat IPC: 1.48041 cumulative IPC: 1.31837 (Simulation time: 4 hr 47 min 50 sec) 
Heartbeat CPU 3 instructions: 910000002 cycles: 755026344 heartbeat IPC: 1.15726 cumulative IPC: 1.16376 (Simulation time: 4 hr 47 min 53 sec) 
Heartbeat CPU 2 instructions: 1040000001 cycles: 761695973 heartbeat IPC: 1.47418 cumulative IPC: 1.31978 (Simulation time: 4 hr 50 min 44 sec) 
Heartbeat CPU 1 instructions: 630000000 cycles: 762154581 heartbeat IPC: 0.989338 cumulative IPC: 0.772936 (Simulation time: 4 hr 50 min 55 sec) 
Heartbeat CPU 3 instructions: 920000000 cycles: 763738650 heartbeat IPC: 1.1478 cumulative IPC: 1.16358 (Simulation time: 4 hr 51 min 35 sec) 
Heartbeat CPU 2 instructions: 1050000002 cycles: 769237884 heartbeat IPC: 1.32592 cumulative IPC: 1.31985 (Simulation time: 4 hr 53 min 38 sec) 
Heartbeat CPU 3 instructions: 930000002 cycles: 772258573 heartbeat IPC: 1.17372 cumulative IPC: 1.16369 (Simulation time: 4 hr 54 min 45 sec) 
Heartbeat CPU 1 instructions: 640000001 cycles: 773086829 heartbeat IPC: 0.914725 cumulative IPC: 0.774986 (Simulation time: 4 hr 55 min 4 sec) 
Heartbeat CPU 2 instructions: 1060000003 cycles: 775196592 heartbeat IPC: 1.67822 cumulative IPC: 1.32266 (Simulation time: 4 hr 55 min 52 sec) 
Heartbeat CPU 3 instructions: 940000000 cycles: 780752004 heartbeat IPC: 1.17738 cumulative IPC: 1.16384 (Simulation time: 4 hr 57 min 50 sec) 
Heartbeat CPU 2 instructions: 1070000003 cycles: 783317975 heartbeat IPC: 1.23132 cumulative IPC: 1.32169 (Simulation time: 4 hr 58 min 41 sec) 
Heartbeat CPU 1 instructions: 650000000 cycles: 783898179 heartbeat IPC: 0.924954 cumulative IPC: 0.7771 (Simulation time: 4 hr 58 min 55 sec) 
Heartbeat CPU 3 instructions: 950000001 cycles: 789230032 heartbeat IPC: 1.17952 cumulative IPC: 1.16402 (Simulation time: 5 hr 1 min 2 sec) 
Heartbeat CPU 2 instructions: 1080000001 cycles: 790391772 heartbeat IPC: 1.41367 cumulative IPC: 1.32254 (Simulation time: 5 hr 1 min 31 sec) 
Heartbeat CPU 1 instructions: 660000000 cycles: 794082265 heartbeat IPC: 0.981924 cumulative IPC: 0.779785 (Simulation time: 5 hr 3 min 4 sec) 
Heartbeat CPU 2 instructions: 1090000003 cycles: 797365996 heartbeat IPC: 1.43385 cumulative IPC: 1.32353 (Simulation time: 5 hr 4 min 26 sec) 
Heartbeat CPU 3 instructions: 960000001 cycles: 797680644 heartbeat IPC: 1.18335 cumulative IPC: 1.16423 (Simulation time: 5 hr 4 min 34 sec) 
Heartbeat CPU 0 instructions: 210000001 cycles: 801895687 heartbeat IPC: 0.185739 cumulative IPC: 0.203868 (Simulation time: 5 hr 6 min 20 sec) 
Heartbeat CPU 1 instructions: 670000000 cycles: 804353256 heartbeat IPC: 0.973616 cumulative IPC: 0.782314 (Simulation time: 5 hr 7 min 24 sec) 
Heartbeat CPU 2 instructions: 1100000000 cycles: 804359856 heartbeat IPC: 1.42983 cumulative IPC: 1.32448 (Simulation time: 5 hr 7 min 24 sec) 
Heartbeat CPU 3 instructions: 970000000 cycles: 806134777 heartbeat IPC: 1.18285 cumulative IPC: 1.16443 (Simulation time: 5 hr 8 min 8 sec) 
Heartbeat CPU 2 instructions: 1110000000 cycles: 811329246 heartbeat IPC: 1.43485 cumulative IPC: 1.32544 (Simulation time: 5 hr 10 min 14 sec) 
Heartbeat CPU 1 instructions: 680000000 cycles: 814616312 heartbeat IPC: 0.974369 cumulative IPC: 0.784785 (Simulation time: 5 hr 11 min 32 sec) 
Heartbeat CPU 3 instructions: 980000000 cycles: 814794545 heartbeat IPC: 1.15477 cumulative IPC: 1.16432 (Simulation time: 5 hr 11 min 37 sec) 
Heartbeat CPU 2 instructions: 1120000002 cycles: 818301257 heartbeat IPC: 1.43431 cumulative IPC: 1.32639 (Simulation time: 5 hr 12 min 58 sec) 
Heartbeat CPU 3 instructions: 990000000 cycles: 823419384 heartbeat IPC: 1.15944 cumulative IPC: 1.16427 (Simulation time: 5 hr 15 min 6 sec) 
Heartbeat CPU 1 instructions: 690000001 cycles: 824711180 heartbeat IPC: 0.990602 cumulative IPC: 0.787358 (Simulation time: 5 hr 15 min 38 sec) 
Heartbeat CPU 2 instructions: 1130000003 cycles: 825245260 heartbeat IPC: 1.44009 cumulative IPC: 1.32737 (Simulation time: 5 hr 15 min 52 sec) 
Heartbeat CPU 2 instructions: 1140000003 cycles: 831634223 heartbeat IPC: 1.5652 cumulative IPC: 1.32923 (Simulation time: 5 hr 18 min 30 sec) 
*** Reached end of trace for Core: 3 Repeating trace: ./traces/ligra/ligra_BFS.com-lj.ungraph.gcc_6.3.0_O3.drop_500M.length_250M.champsimtrace.xz
Heartbeat CPU 3 instructions: 1000000001 cycles: 831936738 heartbeat IPC: 1.17407 cumulative IPC: 1.16437 (Simulation time: 5 hr 18 min 37 sec) 
Heartbeat CPU 1 instructions: 700000000 cycles: 835085858 heartbeat IPC: 0.963885 cumulative IPC: 0.789596 (Simulation time: 5 hr 19 min 55 sec) 
Heartbeat CPU 2 instructions: 1150000000 cycles: 838017686 heartbeat IPC: 1.56655 cumulative IPC: 1.33108 (Simulation time: 5 hr 21 min 8 sec) 
Heartbeat CPU 3 instructions: 1010000000 cycles: 840398342 heartbeat IPC: 1.18181 cumulative IPC: 1.16455 (Simulation time: 5 hr 22 min 8 sec) 
Heartbeat CPU 2 instructions: 1160000001 cycles: 844393513 heartbeat IPC: 1.56842 cumulative IPC: 1.33291 (Simulation time: 5 hr 23 min 44 sec) 
Heartbeat CPU 1 instructions: 710000000 cycles: 845868064 heartbeat IPC: 0.927454 cumulative IPC: 0.79139 (Simulation time: 5 hr 24 min 20 sec) 
Heartbeat CPU 0 instructions: 220000000 cycles: 846330469 heartbeat IPC: 0.225049 cumulative IPC: 0.205003 (Simulation time: 5 hr 24 min 31 sec) 
Heartbeat CPU 3 instructions: 1020000000 cycles: 848880208 heartbeat IPC: 1.17899 cumulative IPC: 1.1647 (Simulation time: 5 hr 25 min 32 sec) 
Heartbeat CPU 2 instructions: 1170000003 cycles: 850797894 heartbeat IPC: 1.56143 cumulative IPC: 1.33466 (Simulation time: 5 hr 26 min 16 sec) 
Heartbeat CPU 1 instructions: 720000002 cycles: 857058830 heartbeat IPC: 0.893594 cumulative IPC: 0.792752 (Simulation time: 5 hr 28 min 30 sec) 
Heartbeat CPU 3 instructions: 1030000000 cycles: 857371164 heartbeat IPC: 1.17772 cumulative IPC: 1.16483 (Simulation time: 5 hr 28 min 38 sec) 
Heartbeat CPU 2 instructions: 1180000000 cycles: 859145996 heartbeat IPC: 1.19788 cumulative IPC: 1.33331 (Simulation time: 5 hr 29 min 20 sec) 
Heartbeat CPU 3 instructions: 1040000002 cycles: 865829736 heartbeat IPC: 1.18223 cumulative IPC: 1.165 (Simulation time: 5 hr 31 min 59 sec) 
Heartbeat CPU 2 instructions: 1190000003 cycles: 866996753 heartbeat IPC: 1.27376 cumulative IPC: 1.33276 (Simulation time: 5 hr 32 min 24 sec) 
Heartbeat CPU 1 instructions: 730000002 cycles: 868123708 heartbeat IPC: 0.903761 cumulative IPC: 0.794195 (Simulation time: 5 hr 32 min 50 sec) 
Heartbeat CPU 3 instructions: 1050000002 cycles: 874334962 heartbeat IPC: 1.17575 cumulative IPC: 1.16511 (Simulation time: 5 hr 35 min 8 sec) 
Heartbeat CPU 2 instructions: 1200000002 cycles: 874861844 heartbeat IPC: 1.27144 cumulative IPC: 1.3322 (Simulation time: 5 hr 35 min 20 sec) 
Heartbeat CPU 1 instructions: 740000001 cycles: 879119459 heartbeat IPC: 0.909442 cumulative IPC: 0.795665 (Simulation time: 5 hr 37 min 6 sec) 
Heartbeat CPU 2 instructions: 1210000000 cycles: 882725353 heartbeat IPC: 1.2717 cumulative IPC: 1.33165 (Simulation time: 5 hr 38 min 32 sec) 
Heartbeat CPU 3 instructions: 1060000000 cycles: 882846745 heartbeat IPC: 1.17484 cumulative IPC: 1.1652 (Simulation time: 5 hr 38 min 35 sec) 
Heartbeat CPU 2 instructions: 1220000003 cycles: 889771404 heartbeat IPC: 1.41924 cumulative IPC: 1.33235 (Simulation time: 5 hr 40 min 58 sec) 
*** Reached end of trace for Core: 1 Repeating trace: ./traces/ligra/ligra_MIS.com-lj.ungraph.gcc_6.3.0_O3.drop_21250M.length_250M.champsimtrace.xz
Heartbeat CPU 1 instructions: 750000002 cycles: 890621988 heartbeat IPC: 0.869374 cumulative IPC: 0.796635 (Simulation time: 5 hr 41 min 17 sec) 
Heartbeat CPU 3 instructions: 1070000000 cycles: 891381617 heartbeat IPC: 1.17166 cumulative IPC: 1.16527 (Simulation time: 5 hr 41 min 33 sec) 
Heartbeat CPU 2 instructions: 1230000002 cycles: 896423701 heartbeat IPC: 1.50324 cumulative IPC: 1.33365 (Simulation time: 5 hr 43 min 12 sec) 
Heartbeat CPU 3 instructions: 1080000000 cycles: 900060507 heartbeat IPC: 1.15222 cumulative IPC: 1.16514 (Simulation time: 5 hr 44 min 23 sec) 
Heartbeat CPU 2 instructions: 1240000002 cycles: 903441670 heartbeat IPC: 1.42491 cumulative IPC: 1.33437 (Simulation time: 5 hr 45 min 27 sec) 
Heartbeat CPU 3 instructions: 1090000003 cycles: 908835465 heartbeat IPC: 1.13961 cumulative IPC: 1.16489 (Simulation time: 5 hr 46 min 45 sec) 
Heartbeat CPU 1 instructions: 760000001 cycles: 915515302 heartbeat IPC: 0.401714 cumulative IPC: 0.785693 (Simulation time: 5 hr 48 min 9 sec) 
Heartbeat CPU 3 instructions: 1100000000 cycles: 917576960 heartbeat IPC: 1.14397 cumulative IPC: 1.16469 (Simulation time: 5 hr 48 min 37 sec) 
Heartbeat CPU 2 instructions: 1250000003 cycles: 922351136 heartbeat IPC: 0.528836 cumulative IPC: 1.31754 (Simulation time: 5 hr 49 min 42 sec) 
Heartbeat CPU 3 instructions: 1110000001 cycles: 926336234 heartbeat IPC: 1.14165 cumulative IPC: 1.16446 (Simulation time: 5 hr 50 min 38 sec) 
Heartbeat CPU 3 instructions: 1120000002 cycles: 935034423 heartbeat IPC: 1.14966 cumulative IPC: 1.16432 (Simulation time: 5 hr 52 min 55 sec) 
Heartbeat CPU 0 instructions: 230000003 cycles: 935068306 heartbeat IPC: 0.112692 cumulative IPC: 0.19608 (Simulation time: 5 hr 52 min 55 sec) 
Heartbeat CPU 2 instructions: 1260000000 cycles: 936319184 heartbeat IPC: 0.715919 cumulative IPC: 1.3084 (Simulation time: 5 hr 53 min 14 sec) 
Heartbeat CPU 3 instructions: 1130000001 cycles: 943779158 heartbeat IPC: 1.14355 cumulative IPC: 1.16413 (Simulation time: 5 hr 55 min 4 sec) 
Heartbeat CPU 1 instructions: 770000000 cycles: 943880544 heartbeat IPC: 0.352544 cumulative IPC: 0.772437 (Simulation time: 5 hr 55 min 5 sec) 
Heartbeat CPU 2 instructions: 1270000000 cycles: 950766309 heartbeat IPC: 0.692179 cumulative IPC: 1.29887 (Simulation time: 5 hr 56 min 39 sec) 
Heartbeat CPU 3 instructions: 1140000002 cycles: 952585768 heartbeat IPC: 1.13551 cumulative IPC: 1.16386 (Simulation time: 5 hr 57 min 9 sec) 
Heartbeat CPU 2 instructions: 1280000002 cycles: 960031286 heartbeat IPC: 1.07933 cumulative IPC: 1.29671 (Simulation time: 5 hr 59 min 29 sec) 
Heartbeat CPU 3 instructions: 1150000000 cycles: 961316897 heartbeat IPC: 1.14533 cumulative IPC: 1.16369 (Simulation time: 5 hr 59 min 53 sec) 
Heartbeat CPU 1 instructions: 780000003 cycles: 968817621 heartbeat IPC: 0.401009 cumulative IPC: 0.762705 (Simulation time: 6 hr 2 min 11 sec) 
Heartbeat CPU 2 instructions: 1290000001 cycles: 969148642 heartbeat IPC: 1.09681 cumulative IPC: 1.29479 (Simulation time: 6 hr 2 min 18 sec) 
Heartbeat CPU 3 instructions: 1160000000 cycles: 970072753 heartbeat IPC: 1.14209 cumulative IPC: 1.16349 (Simulation time: 6 hr 2 min 33 sec) 
Heartbeat CPU 2 instructions: 1300000000 cycles: 978341826 heartbeat IPC: 1.08776 cumulative IPC: 1.29281 (Simulation time: 6 hr 5 min 5 sec) 
Heartbeat CPU 3 instructions: 1170000000 cycles: 978919008 heartbeat IPC: 1.13042 cumulative IPC: 1.16318 (Simulation time: 6 hr 5 min 16 sec) 
Heartbeat CPU 2 instructions: 1310000001 cycles: 987454236 heartbeat IPC: 1.0974 cumulative IPC: 1.29098 (Simulation time: 6 hr 7 min 49 sec) 
Heartbeat CPU 3 instructions: 1180000000 cycles: 987620402 heartbeat IPC: 1.14924 cumulative IPC: 1.16306 (Simulation time: 6 hr 7 min 52 sec) 
Heartbeat CPU 1 instructions: 790000001 cycles: 992244410 heartbeat IPC: 0.426862 cumulative IPC: 0.754637 (Simulation time: 6 hr 9 min 16 sec) 
Heartbeat CPU 3 instructions: 1190000001 cycles: 996267089 heartbeat IPC: 1.15651 cumulative IPC: 1.163 (Simulation time: 6 hr 10 min 34 sec) 
Heartbeat CPU 2 instructions: 1320000000 cycles: 996466568 heartbeat IPC: 1.10959 cumulative IPC: 1.28931 (Simulation time: 6 hr 10 min 40 sec) 
Heartbeat CPU 2 instructions: 1330000003 cycles: 1003619982 heartbeat IPC: 1.39793 cumulative IPC: 1.2901 (Simulation time: 6 hr 13 min 3 sec) 
Heartbeat CPU 3 instructions: 1200000001 cycles: 1004743816 heartbeat IPC: 1.1797 cumulative IPC: 1.16314 (Simulation time: 6 hr 13 min 25 sec) 
Heartbeat CPU 2 instructions: 1340000002 cycles: 1010456744 heartbeat IPC: 1.46268 cumulative IPC: 1.29129 (Simulation time: 6 hr 15 min 18 sec) 
Heartbeat CPU 3 instructions: 1210000000 cycles: 1013194660 heartbeat IPC: 1.18331 cumulative IPC: 1.16332 (Simulation time: 6 hr 16 min 13 sec) 
Heartbeat CPU 2 instructions: 1350000003 cycles: 1017279115 heartbeat IPC: 1.46577 cumulative IPC: 1.29248 (Simulation time: 6 hr 17 min 47 sec) 
Heartbeat CPU 1 instructions: 800000000 cycles: 1017976653 heartbeat IPC: 0.388617 cumulative IPC: 0.745227 (Simulation time: 6 hr 18 min 3 sec) 
Heartbeat CPU 3 instructions: 1220000000 cycles: 1021649959 heartbeat IPC: 1.18269 cumulative IPC: 1.16348 (Simulation time: 6 hr 19 min 27 sec) 
Heartbeat CPU 0 instructions: 240000000 cycles: 1022065310 heartbeat IPC: 0.114946 cumulative IPC: 0.189057 (Simulation time: 6 hr 19 min 38 sec) 
Heartbeat CPU 2 instructions: 1360000002 cycles: 1025007666 heartbeat IPC: 1.2939 cumulative IPC: 1.29249 (Simulation time: 6 hr 20 min 28 sec) 
Heartbeat CPU 1 instructions: 810000003 cycles: 1027752224 heartbeat IPC: 1.02296 cumulative IPC: 0.747913 (Simulation time: 6 hr 21 min 26 sec) 
Heartbeat CPU 3 instructions: 1230000002 cycles: 1030314412 heartbeat IPC: 1.15414 cumulative IPC: 1.1634 (Simulation time: 6 hr 22 min 23 sec) 
Heartbeat CPU 2 instructions: 1370000001 cycles: 1030946618 heartbeat IPC: 1.6838 cumulative IPC: 1.29478 (Simulation time: 6 hr 22 min 36 sec) 
Heartbeat CPU 1 instructions: 820000000 cycles: 1037061305 heartbeat IPC: 1.07422 cumulative IPC: 0.750891 (Simulation time: 6 hr 24 min 43 sec) 
Heartbeat CPU 2 instructions: 1380000003 cycles: 1038147658 heartbeat IPC: 1.38869 cumulative IPC: 1.29544 (Simulation time: 6 hr 25 min 3 sec) 
Heartbeat CPU 3 instructions: 1240000003 cycles: 1038944441 heartbeat IPC: 1.15874 cumulative IPC: 1.16336 (Simulation time: 6 hr 25 min 17 sec) 
Heartbeat CPU 2 instructions: 1390000000 cycles: 1046104889 heartbeat IPC: 1.25672 cumulative IPC: 1.29514 (Simulation time: 6 hr 27 min 44 sec) 
Heartbeat CPU 1 instructions: 830000000 cycles: 1046295731 heartbeat IPC: 1.0829 cumulative IPC: 0.75387 (Simulation time: 6 hr 27 min 47 sec) 
*** Reached end of trace for Core: 3 Repeating trace: ./traces/ligra/ligra_BFS.com-lj.ungraph.gcc_6.3.0_O3.drop_500M.length_250M.champsimtrace.xz
Heartbeat CPU 3 instructions: 1250000002 cycles: 1047462662 heartbeat IPC: 1.17395 cumulative IPC: 1.16345 (Simulation time: 6 hr 28 min 13 sec) 
Heartbeat CPU 2 instructions: 1400000001 cycles: 1053433650 heartbeat IPC: 1.36449 cumulative IPC: 1.29563 (Simulation time: 6 hr 30 min 24 sec) 
Heartbeat CPU 3 instructions: 1260000000 cycles: 1055953602 heartbeat IPC: 1.17773 cumulative IPC: 1.16356 (Simulation time: 6 hr 31 min 17 sec) 
Heartbeat CPU 1 instructions: 840000001 cycles: 1056181976 heartbeat IPC: 1.01151 cumulative IPC: 0.756321 (Simulation time: 6 hr 31 min 21 sec) 
Heartbeat CPU 2 instructions: 1410000002 cycles: 1061606278 heartbeat IPC: 1.2236 cumulative IPC: 1.29507 (Simulation time: 6 hr 33 min 18 sec) 
Heartbeat CPU 3 instructions: 1270000003 cycles: 1064452524 heartbeat IPC: 1.17662 cumulative IPC: 1.16367 (Simulation time: 6 hr 34 min 8 sec) 
Heartbeat CPU 1 instructions: 850000001 cycles: 1065747531 heartbeat IPC: 1.04542 cumulative IPC: 0.758958 (Simulation time: 6 hr 34 min 32 sec) 
Heartbeat CPU 2 instructions: 1420000003 cycles: 1068301811 heartbeat IPC: 1.49353 cumulative IPC: 1.29633 (Simulation time: 6 hr 35 min 32 sec) 
Heartbeat CPU 3 instructions: 1280000002 cycles: 1072943235 heartbeat IPC: 1.17776 cumulative IPC: 1.16378 (Simulation time: 6 hr 37 min 15 sec) 
Heartbeat CPU 2 instructions: 1430000000 cycles: 1073858762 heartbeat IPC: 1.79955 cumulative IPC: 1.29898 (Simulation time: 6 hr 37 min 33 sec) 
Heartbeat CPU 1 instructions: 860000002 cycles: 1075342896 heartbeat IPC: 1.04217 cumulative IPC: 0.761526 (Simulation time: 6 hr 38 min 2 sec) 
Heartbeat CPU 2 instructions: 1440000001 cycles: 1079394277 heartbeat IPC: 1.80652 cumulative IPC: 1.30162 (Simulation time: 6 hr 39 min 29 sec) 
Heartbeat CPU 3 instructions: 1290000000 cycles: 1081401760 heartbeat IPC: 1.18224 cumulative IPC: 1.16393 (Simulation time: 6 hr 40 min 14 sec) 
Heartbeat CPU 2 instructions: 1450000002 cycles: 1084748336 heartbeat IPC: 1.86774 cumulative IPC: 1.30446 (Simulation time: 6 hr 41 min 25 sec) 
Heartbeat CPU 1 instructions: 870000001 cycles: 1085795851 heartbeat IPC: 0.956667 cumulative IPC: 0.763435 (Simulation time: 6 hr 41 min 49 sec) 
Heartbeat CPU 3 instructions: 1300000000 cycles: 1089906813 heartbeat IPC: 1.17577 cumulative IPC: 1.16402 (Simulation time: 6 hr 43 min 25 sec) 
Heartbeat CPU 2 instructions: 1460000000 cycles: 1090096948 heartbeat IPC: 1.86964 cumulative IPC: 1.30728 (Simulation time: 6 hr 43 min 29 sec) 
Heartbeat CPU 1 instructions: 880000000 cycles: 1095851760 heartbeat IPC: 0.99444 cumulative IPC: 0.765588 (Simulation time: 6 hr 45 min 37 sec) 
Heartbeat CPU 2 instructions: 1470000001 cycles: 1096019880 heartbeat IPC: 1.68835 cumulative IPC: 1.30937 (Simulation time: 6 hr 45 min 40 sec) 
*** Reached end of trace for Core: 0 Repeating trace: ./traces/ligra/ligra_Components-Shortcut.com-lj.ungraph.gcc_6.3.0_O3.drop_22000M.length_250M.champsimtrace.xz
Heartbeat CPU 0 instructions: 250000003 cycles: 1097762859 heartbeat IPC: 0.132105 cumulative IPC: 0.185067 (Simulation time: 6 hr 46 min 17 sec) 
Finished CPU 0 instructions: 200000000 cycles: 1080688078 cumulative IPC: 0.185067 (Simulation time: 6 hr 46 min 17 sec) 

ChampSim completed all CPUs

Total Simulation Statistics (not including warmup)

CPU 0 cumulative IPC: 0.185067 instructions: 200000000 cycles: 1080688078
ITLB TOTAL     ACCESS:   43112937  HIT:   43112937  MISS:          0  HIT %:        100  MISS %:          0   MPKI: 0
ITLB LOAD      ACCESS:          0  HIT:          0  MISS:          0  HIT %:       -nan  MISS %:       -nan   MPKI: 0
ITLB RFO       ACCESS:          0  HIT:          0  MISS:          0  HIT %:       -nan  MISS %:       -nan   MPKI: 0
ITLB PREFETCH  ACCESS:          0  HIT:          0  MISS:          0  HIT %:       -nan  MISS %:       -nan   MPKI: 0
ITLB WRITEBACK ACCESS:          0  HIT:          0  MISS:          0  HIT %:       -nan  MISS %:       -nan   MPKI: 0
DTLB TOTAL     ACCESS:   57392741  HIT:   44186542  MISS:   13206199  HIT %:    76.9898  MISS %:    23.0102   MPKI: 66.031
DTLB LOAD      ACCESS:          0  HIT:          0  MISS:          0  HIT %:       -nan  MISS %:       -nan   MPKI: 0
DTLB RFO       ACCESS:          0  HIT:          0  MISS:          0  HIT %:       -nan  MISS %:       -nan   MPKI: 0
DTLB PREFETCH  ACCESS:          0  HIT:          0  MISS:          0  HIT %:       -nan  MISS %:       -nan   MPKI: 0
DTLB WRITEBACK ACCESS:          0  HIT:          0  MISS:          0  HIT %:       -nan  MISS %:       -nan   MPKI: 0
STLB TOTAL     ACCESS:   30297683  HIT:   29120898  MISS:    1176785  HIT %:    96.1159  MISS %:    3.88408   MPKI: 5.88392
STLB LOAD      ACCESS:          0  HIT:          0  MISS:          0  HIT %:       -nan  MISS %:       -nan   MPKI: 0
STLB RFO       ACCESS:          0  HIT:          0  MISS:          0  HIT %:       -nan  MISS %:       -nan   MPKI: 0
STLB PREFETCH  ACCESS:          0  HIT:          0  MISS:          0  HIT %:       -nan  MISS %:       -nan   MPKI: 0
STLB WRITEBACK ACCESS:          0  HIT:          0  MISS:          0  HIT %:       -nan  MISS %:       -nan   MPKI: 0
L1D TOTAL     ACCESS:  133228919  HIT:  118195293  MISS:   15033626  HIT %:    88.7159  MISS %:    11.2841   MPKI: 75.1681
L1D LOAD      ACCESS:   59237818  HIT:   45941092  MISS:   13296726  HIT %:    77.5537  MISS %:    22.4463   MPKI: 66.4836
L1D RFO       ACCESS:    1827223  HIT:    1827223  MISS:          0  HIT %:        100  MISS %:          0   MPKI: 0
L1D PREFETCH  ACCESS:   72163878  HIT:   70426978  MISS:    1736900  HIT %:    97.5931  MISS %:    2.40688   MPKI: 8.6845
L1D WRITEBACK ACCESS:          0  HIT:          0  MISS:          0  HIT %:       -nan  MISS %:       -nan   MPKI: 0
L1I TOTAL     ACCESS:   45645384  HIT:   45645384  MISS:          0  HIT %:        100  MISS %:          0   MPKI: 0
L1I LOAD      ACCESS:   45645384  HIT:   45645384  MISS:          0  HIT %:        100  MISS %:          0   MPKI: 0
L1I RFO       ACCESS:          0  HIT:          0  MISS:          0  HIT %:       -nan  MISS %:       -nan   MPKI: 0
L1I PREFETCH  ACCESS:          0  HIT:          0  MISS:          0  HIT %:       -nan  MISS %:       -nan   MPKI: 0
L1I WRITEBACK ACCESS:          0  HIT:          0  MISS:          0  HIT %:       -nan  MISS %:       -nan   MPKI: 0
L2C TOTAL     ACCESS:   40267540  HIT:   27525725  MISS:   12741815  HIT %:    68.3571  MISS %:    31.6429   MPKI: 63.7091
L2C LOAD      ACCESS:   13282073  HIT:    2599515  MISS:   10682558  HIT %:    19.5716  MISS %:    80.4284   MPKI: 53.4128
L2C RFO       ACCESS:          0  HIT:          0  MISS:          0  HIT %:       -nan  MISS %:       -nan   MPKI: 0
L2C PREFETCH  ACCESS:   24304387  HIT:   22384780  MISS:    1919607  HIT %:    92.1018  MISS %:    7.89819   MPKI: 9.59803
L2C WRITEBACK ACCESS:     114211  HIT:     109348  MISS:       4863  HIT %:    95.7421  MISS %:    4.25791   MPKI: 0.024315
PSCL5 TOTAL     ACCESS:    2566857  HIT:    2566857  MISS:          0  HIT %:        100  MISS %:          0   MPKI: 0
PSCL5 LOAD      ACCESS:          0  HIT:          0  MISS:          0  HIT %:       -nan  MISS %:       -nan   MPKI: 0
PSCL5 RFO       ACCESS:          0  HIT:          0  MISS:          0  HIT %:       -nan  MISS %:       -nan   MPKI: 0
PSCL5 PREFETCH  ACCESS:          0  HIT:          0  MISS:          0  HIT %:       -nan  MISS %:       -nan   MPKI: 0
PSCL5 WRITEBACK ACCESS:          0  HIT:          0  MISS:          0  HIT %:       -nan  MISS %:       -nan   MPKI: 0
PSCL4 TOTAL     ACCESS:    2566857  HIT:    2566857  MISS:          0  HIT %:        100  MISS %:          0   MPKI: 0
PSCL4 LOAD      ACCESS:          0  HIT:          0  MISS:          0  HIT %:       -nan  MISS %:       -nan   MPKI: 0
PSCL4 RFO       ACCESS:          0  HIT:          0  MISS:          0  HIT %:       -nan  MISS %:       -nan   MPKI: 0
PSCL4 PREFETCH  ACCESS:          0  HIT:          0  MISS:          0  HIT %:       -nan  MISS %:       -nan   MPKI: 0
PSCL4 WRITEBACK ACCESS:          0  HIT:          0  MISS:          0  HIT %:       -nan  MISS %:       -nan   MPKI: 0
PSCL3 TOTAL     ACCESS:    2566857  HIT:    2566857  MISS:          0  HIT %:        100  MISS %:          0   MPKI: 0
PSCL3 LOAD      ACCESS:          0  HIT:          0  MISS:          0  HIT %:       -nan  MISS %:       -nan   MPKI: 0
PSCL3 RFO       ACCESS:          0  HIT:          0  MISS:          0  HIT %:       -nan  MISS %:       -nan   MPKI: 0
PSCL3 PREFETCH  ACCESS:          0  HIT:          0  MISS:          0  HIT %:       -nan  MISS %:       -nan   MPKI: 0
PSCL3 WRITEBACK ACCESS:          0  HIT:          0  MISS:          0  HIT %:       -nan  MISS %:       -nan   MPKI: 0
PSCL2 TOTAL     ACCESS:    2563915  HIT:    2563847  MISS:         68  HIT %:    99.9973  MISS %: 0.00265219   MPKI: 0.00034
PSCL2 LOAD      ACCESS:          0  HIT:          0  MISS:          0  HIT %:       -nan  MISS %:       -nan   MPKI: 0
PSCL2 RFO       ACCESS:          0  HIT:          0  MISS:          0  HIT %:       -nan  MISS %:       -nan   MPKI: 0
PSCL2 PREFETCH  ACCESS:          0  HIT:          0  MISS:          0  HIT %:       -nan  MISS %:       -nan   MPKI: 0
PSCL2 WRITEBACK ACCESS:          0  HIT:          0  MISS:          0  HIT %:       -nan  MISS %:       -nan   MPKI: 0
LLC TOTAL     ACCESS:   12851148  HIT:    6323574  MISS:    6527574  HIT %:    49.2063  MISS %:    50.7937   MPKI: 32.6379
LLC LOAD      ACCESS:   10680787  HIT:    5992002  MISS:    4688785  HIT %:    56.1008  MISS %:    43.8992   MPKI: 23.4439
LLC RFO       ACCESS:          0  HIT:          0  MISS:          0  HIT %:       -nan  MISS %:       -nan   MPKI: 0
LLC PREFETCH  ACCESS:    1921375  HIT:      98297  MISS:    1823078  HIT %:    5.11597  MISS %:     94.884   MPKI: 9.11539
LLC WRITEBACK ACCESS:     114199  HIT:     107933  MISS:       6266  HIT %:    94.5131  MISS %:    5.48691   MPKI: 0.03133

RAW hits: 2605597
Loads Generated: 83100966
Loads sent to L1D: 80495367
Stores Generated: 1827224
Stores sent to L1D: 1827225

CPU 1 cumulative IPC: 0.765955 instructions: 827758522 cycles: 1080688079
ITLB TOTAL     ACCESS:  195152440  HIT:  195152440  MISS:          0  HIT %:        100  MISS %:          0   MPKI: 0
ITLB LOAD      ACCESS:          0  HIT:          0  MISS:          0  HIT %:       -nan  MISS %:       -nan   MPKI: 0
ITLB RFO       ACCESS:          0  HIT:          0  MISS:          0  HIT %:       -nan  MISS %:       -nan   MPKI: 0
ITLB PREFETCH  ACCESS:          0  HIT:          0  MISS:          0  HIT %:       -nan  MISS %:       -nan   MPKI: 0
ITLB WRITEBACK ACCESS:          0  HIT:          0  MISS:          0  HIT %:       -nan  MISS %:       -nan   MPKI: 0
DTLB TOTAL     ACCESS:  184721003  HIT:  179193284  MISS:    5527719  HIT %:    97.0075  MISS %:    2.99247   MPKI: 6.67794
DTLB LOAD      ACCESS:          0  HIT:          0  MISS:          0  HIT %:       -nan  MISS %:       -nan   MPKI: 0
DTLB RFO       ACCESS:          0  HIT:          0  MISS:          0  HIT %:       -nan  MISS %:       -nan   MPKI: 0
DTLB PREFETCH  ACCESS:          0  HIT:          0  MISS:          0  HIT %:       -nan  MISS %:       -nan   MPKI: 0
DTLB WRITEBACK ACCESS:          0  HIT:          0  MISS:          0  HIT %:       -nan  MISS %:       -nan   MPKI: 0
STLB TOTAL     ACCESS:   84229226  HIT:   84042812  MISS:     186414  HIT %:    99.7787  MISS %:   0.221317   MPKI: 0.225203
STLB LOAD      ACCESS:          0  HIT:          0  MISS:          0  HIT %:       -nan  MISS %:       -nan   MPKI: 0
STLB RFO       ACCESS:          0  HIT:          0  MISS:          0  HIT %:       -nan  MISS %:       -nan   MPKI: 0
STLB PREFETCH  ACCESS:          0  HIT:          0  MISS:          0  HIT %:       -nan  MISS %:       -nan   MPKI: 0
STLB WRITEBACK ACCESS:          0  HIT:          0  MISS:          0  HIT %:       -nan  MISS %:       -nan   MPKI: 0
L1D TOTAL     ACCESS:  458531642  HIT:  431274347  MISS:   27257295  HIT %:    94.0555  MISS %:    5.94447   MPKI: 32.929
L1D LOAD      ACCESS:  170398720  HIT:  153735823  MISS:   16662897  HIT %:    90.2212  MISS %:    9.77877   MPKI: 20.1301
L1D RFO       ACCESS:    4645878  HIT:    1433988  MISS:    3211890  HIT %:    30.8658  MISS %:    69.1342   MPKI: 3.88023
L1D PREFETCH  ACCESS:  283487044  HIT:  276104536  MISS:    7382508  HIT %:    97.3958  MISS %:    2.60418   MPKI: 8.91867
L1D WRITEBACK ACCESS:          0  HIT:          0  MISS:          0  HIT %:       -nan  MISS %:       -nan   MPKI: 0
L1I TOTAL     ACCESS:  195215983  HIT:  195215983  MISS:          0  HIT %:        100  MISS %:          0   MPKI: 0
L1I LOAD      ACCESS:  195215983  HIT:  195215983  MISS:          0  HIT %:        100  MISS %:          0   MPKI: 0
L1I RFO       ACCESS:          0  HIT:          0  MISS:          0  HIT %:       -nan  MISS %:       -nan   MPKI: 0
L1I PREFETCH  ACCESS:          0  HIT:          0  MISS:          0  HIT %:       -nan  MISS %:       -nan   MPKI: 0
L1I WRITEBACK ACCESS:          0  HIT:          0  MISS:          0  HIT %:       -nan  MISS %:       -nan   MPKI: 0
L2C TOTAL     ACCESS:   92771598  HIT:   77733916  MISS:   15037682  HIT %:    83.7906  MISS %:    16.2094   MPKI: 18.1667
L2C LOAD      ACCESS:   15980293  HIT:   13194771  MISS:    2785522  HIT %:     82.569  MISS %:     17.431   MPKI: 3.36514
L2C RFO       ACCESS:    3211890  HIT:         16  MISS:    3211874  HIT %: 0.000498149  MISS %:    99.9995   MPKI: 3.88021
L2C PREFETCH  ACCESS:   69138663  HIT:   60224075  MISS:    8914588  HIT %:    87.1062  MISS %:    12.8938   MPKI: 10.7696
L2C WRITEBACK ACCESS:    3211956  HIT:    3111017  MISS:     100939  HIT %:    96.8574  MISS %:     3.1426   MPKI: 0.121943
PSCL5 TOTAL     ACCESS:    1228410  HIT:    1228410  MISS:          0  HIT %:        100  MISS %:          0   MPKI: 0
PSCL5 LOAD      ACCESS:          0  HIT:          0  MISS:          0  HIT %:       -nan  MISS %:       -nan   MPKI: 0
PSCL5 RFO       ACCESS:          0  HIT:          0  MISS:          0  HIT %:       -nan  MISS %:       -nan   MPKI: 0
PSCL5 PREFETCH  ACCESS:          0  HIT:          0  MISS:          0  HIT %:       -nan  MISS %:       -nan   MPKI: 0
PSCL5 WRITEBACK ACCESS:          0  HIT:          0  MISS:          0  HIT %:       -nan  MISS %:       -nan   MPKI: 0
PSCL4 TOTAL     ACCESS:    1228410  HIT:    1228410  MISS:          0  HIT %:        100  MISS %:          0   MPKI: 0
PSCL4 LOAD      ACCESS:          0  HIT:          0  MISS:          0  HIT %:       -nan  MISS %:       -nan   MPKI: 0
PSCL4 RFO       ACCESS:          0  HIT:          0  MISS:          0  HIT %:       -nan  MISS %:       -nan   MPKI: 0
PSCL4 PREFETCH  ACCESS:          0  HIT:          0  MISS:          0  HIT %:       -nan  MISS %:       -nan   MPKI: 0
PSCL4 WRITEBACK ACCESS:          0  HIT:          0  MISS:          0  HIT %:       -nan  MISS %:       -nan   MPKI: 0
PSCL3 TOTAL     ACCESS:    1228410  HIT:    1228410  MISS:          0  HIT %:        100  MISS %:          0   MPKI: 0
PSCL3 LOAD      ACCESS:          0  HIT:          0  MISS:          0  HIT %:       -nan  MISS %:       -nan   MPKI: 0
PSCL3 RFO       ACCESS:          0  HIT:          0  MISS:          0  HIT %:       -nan  MISS %:       -nan   MPKI: 0
PSCL3 PREFETCH  ACCESS:          0  HIT:          0  MISS:          0  HIT %:       -nan  MISS %:       -nan   MPKI: 0
PSCL3 WRITEBACK ACCESS:          0  HIT:          0  MISS:          0  HIT %:       -nan  MISS %:       -nan   MPKI: 0
PSCL2 TOTAL     ACCESS:    1227202  HIT:    1226799  MISS:        403  HIT %:    99.9672  MISS %:  0.0328389   MPKI: 0.000486857
PSCL2 LOAD      ACCESS:          0  HIT:          0  MISS:          0  HIT %:       -nan  MISS %:       -nan   MPKI: 0
PSCL2 RFO       ACCESS:          0  HIT:          0  MISS:          0  HIT %:       -nan  MISS %:       -nan   MPKI: 0
PSCL2 PREFETCH  ACCESS:          0  HIT:          0  MISS:          0  HIT %:       -nan  MISS %:       -nan   MPKI: 0
PSCL2 WRITEBACK ACCESS:          0  HIT:          0  MISS:          0  HIT %:       -nan  MISS %:       -nan   MPKI: 0
LLC TOTAL     ACCESS:   18148700  HIT:    6091165  MISS:   12057535  HIT %:    33.5625  MISS %:    66.4375   MPKI: 14.5665
LLC LOAD      ACCESS:    2648710  HIT:    2530878  MISS:     117832  HIT %:    95.5513  MISS %:    4.44866   MPKI: 0.142351
LLC RFO       ACCESS:    3211874  HIT:          8  MISS:    3211866  HIT %: 0.000249076  MISS %:    99.9998   MPKI: 3.8802
LLC PREFETCH  ACCESS:    9051401  HIT:     360192  MISS:    8691209  HIT %:    3.97941  MISS %:    96.0206   MPKI: 10.4997
LLC WRITEBACK ACCESS:    3211956  HIT:    3199062  MISS:      12894  HIT %:    99.5986  MISS %:   0.401438   MPKI: 0.015577

RAW hits: 11608
Loads Generated: 262592873
Loads sent to L1D: 262581265
Stores Generated: 36722847
Stores sent to L1D: 36722847

CPU 2 cumulative IPC: 1.3097 instructions: 1415380005 cycles: 1080688079
ITLB TOTAL     ACCESS:  216297322  HIT:  216297263  MISS:         59  HIT %:        100  MISS %: 2.72773e-05   MPKI: 4.16849e-05
ITLB LOAD      ACCESS:          0  HIT:          0  MISS:          0  HIT %:       -nan  MISS %:       -nan   MPKI: 0
ITLB RFO       ACCESS:          0  HIT:          0  MISS:          0  HIT %:       -nan  MISS %:       -nan   MPKI: 0
ITLB PREFETCH  ACCESS:          0  HIT:          0  MISS:          0  HIT %:       -nan  MISS %:       -nan   MPKI: 0
ITLB WRITEBACK ACCESS:          0  HIT:          0  MISS:          0  HIT %:       -nan  MISS %:       -nan   MPKI: 0
DTLB TOTAL     ACCESS:  373639773  HIT:  373065475  MISS:     574298  HIT %:    99.8463  MISS %:   0.153704   MPKI: 0.405755
DTLB LOAD      ACCESS:          0  HIT:          0  MISS:          0  HIT %:       -nan  MISS %:       -nan   MPKI: 0
DTLB RFO       ACCESS:          0  HIT:          0  MISS:          0  HIT %:       -nan  MISS %:       -nan   MPKI: 0
DTLB PREFETCH  ACCESS:          0  HIT:          0  MISS:          0  HIT %:       -nan  MISS %:       -nan   MPKI: 0
DTLB WRITEBACK ACCESS:          0  HIT:          0  MISS:          0  HIT %:       -nan  MISS %:       -nan   MPKI: 0
STLB TOTAL     ACCESS:  180386109  HIT:  180207759  MISS:     178350  HIT %:    99.9011  MISS %:  0.0988712   MPKI: 0.126009
STLB LOAD      ACCESS:          0  HIT:          0  MISS:          0  HIT %:       -nan  MISS %:       -nan   MPKI: 0
STLB RFO       ACCESS:          0  HIT:          0  MISS:          0  HIT %:       -nan  MISS %:       -nan   MPKI: 0
STLB PREFETCH  ACCESS:          0  HIT:          0  MISS:          0  HIT %:       -nan  MISS %:       -nan   MPKI: 0
STLB WRITEBACK ACCESS:          0  HIT:          0  MISS:          0  HIT %:       -nan  MISS %:       -nan   MPKI: 0
L1D TOTAL     ACCESS: 1028093744  HIT: 1012739084  MISS:   15354660  HIT %:    98.5065  MISS %:    1.49351   MPKI: 10.8484
L1D LOAD      ACCESS:  329578441  HIT:  328674039  MISS:     904402  HIT %:    99.7256  MISS %:   0.274412   MPKI: 0.638982
L1D RFO       ACCESS:   81790288  HIT:   79733284  MISS:    2057004  HIT %:     97.485  MISS %:    2.51497   MPKI: 1.45332
L1D PREFETCH  ACCESS:  616725015  HIT:  604331761  MISS:   12393254  HIT %:    97.9905  MISS %:    2.00953   MPKI: 8.75613
L1D WRITEBACK ACCESS:          0  HIT:          0  MISS:          0  HIT %:       -nan  MISS %:       -nan   MPKI: 0
L1I TOTAL     ACCESS:  261475427  HIT:  261470942  MISS:       4485  HIT %:    99.9983  MISS %: 0.00171527   MPKI: 0.00316876
L1I LOAD      ACCESS:  261475427  HIT:  261470942  MISS:       4485  HIT %:    99.9983  MISS %: 0.00171527   MPKI: 0.00316876
L1I RFO       ACCESS:          0  HIT:          0  MISS:          0  HIT %:       -nan  MISS %:       -nan   MPKI: 0
L1I PREFETCH  ACCESS:          0  HIT:          0  MISS:          0  HIT %:       -nan  MISS %:       -nan   MPKI: 0
L1I WRITEBACK ACCESS:          0  HIT:          0  MISS:          0  HIT %:       -nan  MISS %:       -nan   MPKI: 0
L2C TOTAL     ACCESS:   80788366  HIT:   69395072  MISS:   11393294  HIT %:    85.8974  MISS %:    14.1026   MPKI: 8.04964
L2C LOAD      ACCESS:     636905  HIT:     343354  MISS:     293551  HIT %:    53.9098  MISS %:    46.0902   MPKI: 0.207401
L2C RFO       ACCESS:    2056953  HIT:     964004  MISS:    1092949  HIT %:    46.8656  MISS %:    53.1344   MPKI: 0.772195
L2C PREFETCH  ACCESS:   70967126  HIT:   61148211  MISS:    9818915  HIT %:    86.1641  MISS %:    13.8359   MPKI: 6.9373
L2C WRITEBACK ACCESS:    4848265  HIT:    4692285  MISS:     155980  HIT %:    96.7828  MISS %:    3.21723   MPKI: 0.110204
PSCL5 TOTAL     ACCESS:    2241563  HIT:    2241563  MISS:          0  HIT %:        100  MISS %:          0   MPKI: 0
PSCL5 LOAD      ACCESS:          0  HIT:          0  MISS:          0  HIT %:       -nan  MISS %:       -nan   MPKI: 0
PSCL5 RFO       ACCESS:          0  HIT:          0  MISS:          0  HIT %:       -nan  MISS %:       -nan   MPKI: 0
PSCL5 PREFETCH  ACCESS:          0  HIT:          0  MISS:          0  HIT %:       -nan  MISS %:       -nan   MPKI: 0
PSCL5 WRITEBACK ACCESS:          0  HIT:          0  MISS:          0  HIT %:       -nan  MISS %:       -nan   MPKI: 0
PSCL4 TOTAL     ACCESS:    2241563  HIT:    2241563  MISS:          0  HIT %:        100  MISS %:          0   MPKI: 0
PSCL4 LOAD      ACCESS:          0  HIT:          0  MISS:          0  HIT %:       -nan  MISS %:       -nan   MPKI: 0
PSCL4 RFO       ACCESS:          0  HIT:          0  MISS:          0  HIT %:       -nan  MISS %:       -nan   MPKI: 0
PSCL4 PREFETCH  ACCESS:          0  HIT:          0  MISS:          0  HIT %:       -nan  MISS %:       -nan   MPKI: 0
PSCL4 WRITEBACK ACCESS:          0  HIT:          0  MISS:          0  HIT %:       -nan  MISS %:       -nan   MPKI: 0
PSCL3 TOTAL     ACCESS:    2241563  HIT:    2241562  MISS:          1  HIT %:        100  MISS %: 4.46117e-05   MPKI: 7.06524e-07
PSCL3 LOAD      ACCESS:          0  HIT:          0  MISS:          0  HIT %:       -nan  MISS %:       -nan   MPKI: 0
PSCL3 RFO       ACCESS:          0  HIT:          0  MISS:          0  HIT %:       -nan  MISS %:       -nan   MPKI: 0
PSCL3 PREFETCH  ACCESS:          0  HIT:          0  MISS:          0  HIT %:       -nan  MISS %:       -nan   MPKI: 0
PSCL3 WRITEBACK ACCESS:          0  HIT:          0  MISS:          0  HIT %:       -nan  MISS %:       -nan   MPKI: 0
PSCL2 TOTAL     ACCESS:    2204459  HIT:    2203756  MISS:        703  HIT %:    99.9681  MISS %:  0.0318899   MPKI: 0.000496686
PSCL2 LOAD      ACCESS:          0  HIT:          0  MISS:          0  HIT %:       -nan  MISS %:       -nan   MPKI: 0
PSCL2 RFO       ACCESS:          0  HIT:          0  MISS:          0  HIT %:       -nan  MISS %:       -nan   MPKI: 0
PSCL2 PREFETCH  ACCESS:          0  HIT:          0  MISS:          0  HIT %:       -nan  MISS %:       -nan   MPKI: 0
[...]
L2C PREFETCH  REQUESTED:          0  ISSUED:          0  USEFUL:     359809  USELESS:    9484471
L2C USEFUL LOAD PREFETCHES:     359809 PREFETCH ISSUED TO LOWER LEVEL:    9900261  ACCURACY: 3.63434
L2C TIMELY PREFETCHES:     359809 LATE PREFETCHES: 81345 DROPPED PREFETCHES: 0
L2C PREFETCHES SAME FILL-ORIGIN LEVEL: 3406845 DIFFERENT FILL-ORIGIN LEVEL: 0
L2C AVERAGE MISS LATENCY: 2984.69 cycles
L2C RQ	ACCESS:    4973033	FORWARD:          0	MERGED:          0	TO_CACHE:    4972976
L2C WQ	ACCESS:    4848265	FORWARD:        431	MERGED:          0	TO_CACHE:    4848265
L2C PQ	ACCESS:   80034309	FORWARD:          0	MERGED:     123743	TO_CACHE:   79910192

L2C Instructions Evicting Data 4466
L2C Translations Evicting Data 31772
L2C Data Evicting Data 11165251
L2C Instructions Evicting Instructions 13
L2C Translations Evicting Instructions 13
L2C Data Evicting Instructions 4322
L2C Instructions Evicting Translations 6
L2C Translations Evicting Translations 114
L2C Data Evicting Translations 31357
L2C Dense regions hint from L2: 0
PSCL5 TOTAL     ACCESS:     675030  HIT:     675030  MISS:          0  HIT %:        100  MISS %:          0   MPKI: 0
PSCL5 LOAD TRANSLATION ACCESS:      20865  HIT:      20865  MISS:          0  HIT %:        100  MISS %:          0   MPKI: 0
PSCL5 TRANSLATION FROM L1D PREFETCHER ACCESS:     654165  HIT:     654165  MISS:          0  HIT %:        100  MISS %:          0   MPKI: 0
PSCL5 PREFETCH  REQUESTED:          0  ISSUED:          0  USEFUL:          0  USELESS:          0
PSCL5 USEFUL LOAD PREFETCHES:          0 PREFETCH ISSUED TO LOWER LEVEL:          0  ACCURACY: -nan
PSCL5 TIMELY PREFETCHES:          0 LATE PREFETCHES: 0 DROPPED PREFETCHES: 0
PSCL5 PREFETCHES SAME FILL-ORIGIN LEVEL: 0 DIFFERENT FILL-ORIGIN LEVEL: 0

PSCL4 TOTAL     ACCESS:     675030  HIT:     675030  MISS:          0  HIT %:        100  MISS %:          0   MPKI: 0
PSCL4 LOAD TRANSLATION ACCESS:      20865  HIT:      20865  MISS:          0  HIT %:        100  MISS %:          0   MPKI: 0
PSCL4 TRANSLATION FROM L1D PREFETCHER ACCESS:     654165  HIT:     654165  MISS:          0  HIT %:        100  MISS %:          0   MPKI: 0
PSCL4 PREFETCH  REQUESTED:          0  ISSUED:          0  USEFUL:          0  USELESS:          0
PSCL4 USEFUL LOAD PREFETCHES:          0 PREFETCH ISSUED TO LOWER LEVEL:          0  ACCURACY: -nan
PSCL4 TIMELY PREFETCHES:          0 LATE PREFETCHES: 0 DROPPED PREFETCHES: 0
PSCL4 PREFETCHES SAME FILL-ORIGIN LEVEL: 0 DIFFERENT FILL-ORIGIN LEVEL: 0

PSCL3 TOTAL     ACCESS:     675030  HIT:     675030  MISS:          0  HIT %:        100  MISS %:          0   MPKI: 0
PSCL3 LOAD TRANSLATION ACCESS:      20865  HIT:      20865  MISS:          0  HIT %:        100  MISS %:          0   MPKI: 0
PSCL3 TRANSLATION FROM L1D PREFETCHER ACCESS:     654165  HIT:     654165  MISS:          0  HIT %:        100  MISS %:          0   MPKI: 0
PSCL3 PREFETCH  REQUESTED:          0  ISSUED:          0  USEFUL:          0  USELESS:          0
PSCL3 USEFUL LOAD PREFETCHES:          0 PREFETCH ISSUED TO LOWER LEVEL:          0  ACCURACY: -nan
PSCL3 TIMELY PREFETCHES:          0 LATE PREFETCHES: 0 DROPPED PREFETCHES: 0
PSCL3 PREFETCHES SAME FILL-ORIGIN LEVEL: 0 DIFFERENT FILL-ORIGIN LEVEL: 0

PSCL2 TOTAL     ACCESS:     674671  HIT:     674561  MISS:        110  HIT %:    99.9837  MISS %:  0.0163042   MPKI: 0.00055
PSCL2 LOAD TRANSLATION ACCESS:      20883  HIT:      20773  MISS:        110  HIT %:    99.4733  MISS %:   0.526744   MPKI: 0.00055
PSCL2 TRANSLATION FROM L1D PREFETCHER ACCESS:     653788  HIT:     653788  MISS:          0  HIT %:        100  MISS %:          0   MPKI: 0
PSCL2 PREFETCH  REQUESTED:          0  ISSUED:          0  USEFUL:          0  USELESS:          0
PSCL2 USEFUL LOAD PREFETCHES:          0 PREFETCH ISSUED TO LOWER LEVEL:          0  ACCURACY: -nan
PSCL2 TIMELY PREFETCHES:          0 LATE PREFETCHES: 0 DROPPED PREFETCHES: 0
PSCL2 PREFETCHES SAME FILL-ORIGIN LEVEL: 0 DIFFERENT FILL-ORIGIN LEVEL: 0

LLC TOTAL     ACCESS:    2621031  HIT:     814725  MISS:    1806306  HIT %:    31.0841  MISS %:    68.9159   MPKI: 9.03153
LLC LOAD      ACCESS:      32813  HIT:       3145  MISS:      29668  HIT %:    9.58462  MISS %:    90.4154   MPKI: 0.14834
LLC RFO       ACCESS:     422018  HIT:       7392  MISS:     414626  HIT %:    1.75158  MISS %:    98.2484   MPKI: 2.07313
LLC PREFETCH  ACCESS:    1403183  HIT:      62147  MISS:    1341036  HIT %:      4.429  MISS %:     95.571   MPKI: 6.70518
LLC WRITEBACK ACCESS:     758220  HIT:     741462  MISS:      16758  HIT %:    97.7898  MISS %:    2.21018   MPKI: 0.08379
LLC LOAD TRANSLATION ACCESS:       1544  HIT:         51  MISS:       1493  HIT %:    3.30311  MISS %:    96.6969   MPKI: 0.007465
LLC TRANSLATION FROM L1D PREFETCHER ACCESS:       3253  HIT:        528  MISS:       2725  HIT %:    16.2312  MISS %:    83.7688   MPKI: 0.013625
LLC PREFETCH  REQUESTED:          0  ISSUED:          0  USEFUL:     109647  USELESS:   22499626
LLC USEFUL LOAD PREFETCHES:     109647 PREFETCH ISSUED TO LOWER LEVEL:   23673182  ACCURACY: 0.46317
LLC TIMELY PREFETCHES:     109647 LATE PREFETCHES: 0 DROPPED PREFETCHES: 0
LLC PREFETCHES SAME FILL-ORIGIN LEVEL: 0 DIFFERENT FILL-ORIGIN LEVEL: 0
LLC AVERAGE MISS LATENCY: 9227.41 cycles
LLC RQ	ACCESS:   18047622	FORWARD:          0	MERGED:          0	TO_CACHE:   18047607
LLC WQ	ACCESS:    9549016	FORWARD:         43	MERGED:          0	TO_CACHE:    9549016
LLC PQ	ACCESS:   23800051	FORWARD:          0	MERGED:          0	TO_CACHE:   23800023

LLC Dense regions hint to LLC: 0

RAW hits: 327054
Loads Generated: 67436751
Loads sent to L1D: 67109695
Stores Generated: 13493090
Stores sent to L1D: 13493090
Major fault: 0 Minor fault: 25510
Allocated PAGES: 126942

CPU 3 cumulative IPC: 1.15838 instructions: 200000001 cycles: 172654788
ITLB TOTAL     ACCESS:   33204798  HIT:   33204798  MISS:          0  HIT %:        100  MISS %:          0   MPKI: 0
ITLB LOAD TRANSLATION ACCESS:   33204798  HIT:   33204798  MISS:          0  HIT %:        100  MISS %:          0   MPKI: 0
ITLB PREFETCH  REQUESTED:          0  ISSUED:          0  USEFUL:          0  USELESS:          0
ITLB USEFUL LOAD PREFETCHES:          0 PREFETCH ISSUED TO LOWER LEVEL:          0  ACCURACY: -nan
ITLB TIMELY PREFETCHES:          0 LATE PREFETCHES: 0 DROPPED PREFETCHES: 0
ITLB PREFETCHES SAME FILL-ORIGIN LEVEL: 0 DIFFERENT FILL-ORIGIN LEVEL: 0
ITLB AVERAGE MISS LATENCY: -nan cycles
ITLB RQ	ACCESS:  208907426	FORWARD:          0	MERGED:          0	TO_CACHE:  208907426

DTLB TOTAL     ACCESS:   18094047  HIT:   18086757  MISS:       7290  HIT %:    99.9597  MISS %:  0.0402895   MPKI: 0.03645
DTLB LOAD TRANSLATION ACCESS:   18094047  HIT:   18086757  MISS:       7290  HIT %:    99.9597  MISS %:  0.0402895   MPKI: 0.03645
DTLB PREFETCH  REQUESTED:          0  ISSUED:          0  USEFUL:          0  USELESS:          0
DTLB USEFUL LOAD PREFETCHES:          0 PREFETCH ISSUED TO LOWER LEVEL:          0  ACCURACY: -nan
DTLB TIMELY PREFETCHES:          0 LATE PREFETCHES: 0 DROPPED PREFETCHES: 0
DTLB PREFETCHES SAME FILL-ORIGIN LEVEL: 0 DIFFERENT FILL-ORIGIN LEVEL: 0
DTLB AVERAGE MISS LATENCY: 153.684 cycles
DTLB RQ	ACCESS:  117636190	FORWARD:          0	MERGED:    3463880	TO_CACHE:  114172310

STLB TOTAL     ACCESS:   11432451  HIT:   11425160  MISS:       7291  HIT %:    99.9362  MISS %:  0.0637746   MPKI: 0.036455
STLB LOAD TRANSLATION ACCESS:       7290  HIT:         43  MISS:       7247  HIT %:   0.589849  MISS %:    99.4102   MPKI: 0.036235
STLB TRANSLATION FROM L1D PREFETCHER ACCESS:   11425161  HIT:   11425117  MISS:         44  HIT %:    99.9996  MISS %: 0.000385115   MPKI: 0.00022
STLB PREFETCH  REQUESTED:          0  ISSUED:          0  USEFUL:      38520  USELESS:          0
STLB USEFUL LOAD PREFETCHES:      38520 PREFETCH ISSUED TO LOWER LEVEL:          0  ACCURACY: inf
STLB TIMELY PREFETCHES:      38520 LATE PREFETCHES: 1561 DROPPED PREFETCHES: 537444
STLB PREFETCHES SAME FILL-ORIGIN LEVEL: 0 DIFFERENT FILL-ORIGIN LEVEL: 0
STLB AVERAGE MISS LATENCY: 620.546 cycles
STLB RQ	ACCESS:  454744855	FORWARD:          0	MERGED:  375344943	TO_CACHE:   79399912

STLB Hit, L1D data hit: 0
STLB Hit, L2C data hit: 0
STLB Hit, LLC data hit: 0
STLB Hit, LLC data miss: 0
STLB STLB hints to L2: 0
L1D TOTAL     ACCESS:   78016883  HIT:   77550411  MISS:     466472  HIT %:    99.4021  MISS %:   0.597912   MPKI: 2.33236
L1D LOAD      ACCESS:   14410614  HIT:   14402180  MISS:       8434  HIT %:    99.9415  MISS %:  0.0585263   MPKI: 0.04217
L1D RFO       ACCESS:    4175855  HIT:    4175855  MISS:          0  HIT %:        100  MISS %:          0   MPKI: 0
L1D PREFETCH  ACCESS:   59430414  HIT:   58972376  MISS:     458038  HIT %:    99.2293  MISS %:   0.770713   MPKI: 2.29019
L1D PREFETCH  REQUESTED: 1718242641  ISSUED: 1718241437  USEFUL:    2908190  USELESS:         40
L1D USEFUL LOAD PREFETCHES:    2908190 PREFETCH ISSUED TO LOWER LEVEL:   17535141  ACCURACY: 16.5849
L1D TIMELY PREFETCHES:    2908190 LATE PREFETCHES: 18756 DROPPED PREFETCHES: 2440736
L1D PREFETCHES SAME FILL-ORIGIN LEVEL: 2926989 DIFFERENT FILL-ORIGIN LEVEL: 14608152
L1D AVERAGE MISS LATENCY: 3036.24 cycles
L1D RQ	ACCESS:  187573181	FORWARD:          0	MERGED:   96455847	TO_CACHE:   91117334
L1D WQ	ACCESS:   26518856	FORWARD:          0	MERGED:          0	TO_CACHE:   26518856
L1D PQ	ACCESS: 1263542384	FORWARD:          0	MERGED:  808843331	TO_CACHE:  454699053

L1D UNIQUE REGIONS ACCESSED: 0
L1D REGIONS CONFLICTS: 0
L1D Cross Page Prefetch Requests: 88831290
L1D Same Page Prefetch Requests: 1279532587
L1D ROI Sum of L1D PQ occupancy: 5506286139
L1D PREFETCHES PUSHED FROM L2C: 0
L1I TOTAL     ACCESS:   33204798  HIT:   33204798  MISS:          0  HIT %:        100  MISS %:          0   MPKI: 0
L1I LOAD      ACCESS:   33204798  HIT:   33204798  MISS:          0  HIT %:        100  MISS %:          0   MPKI: 0
L1I PREFETCH  REQUESTED:          0  ISSUED:          0  USEFUL:          0  USELESS:          0
L1I USEFUL LOAD PREFETCHES:          0 PREFETCH ISSUED TO LOWER LEVEL:          0  ACCURACY: -nan
L1I TIMELY PREFETCHES:          0 LATE PREFETCHES: 0 DROPPED PREFETCHES: 0
L1I PREFETCHES SAME FILL-ORIGIN LEVEL: 0 DIFFERENT FILL-ORIGIN LEVEL: 0
L1I AVERAGE MISS LATENCY: -nan cycles
L1I RQ	ACCESS:  502859874	FORWARD:          0	MERGED:  293952448	TO_CACHE:  208907426

BTB TOTAL     ACCESS:   59706911  HIT:   59706911  MISS:          0  HIT %:        100  MISS %:          0   MPKI: 0
BTB BRANCH_DIRECT_JUMP	ACCESS:          0  HIT:          0  MISS:          0
BTB BRANCH_INDIRECT	ACCESS:          0  HIT:          0  MISS:          0
BTB BRANCH_CONDITIONAL	ACCESS:   59706911  HIT:   59706911  MISS:          0
BTB BRANCH_DIRECT_CALL	ACCESS:          0  HIT:          0  MISS:          0
BTB BRANCH_INDIRECT_CALL	ACCESS:          0  HIT:          0  MISS:          0
BTB BRANCH_RETURN	ACCESS:          0  HIT:          0  MISS:          0
BTB BRANCH_OTHER ACCESS:          0  HIT:          0  MISS:          0

L2C TOTAL     ACCESS:    2862043  HIT:    2334942  MISS:     527101  HIT %:    81.5831  MISS %:    18.4169   MPKI: 2.6355
L2C LOAD      ACCESS:       3869  HIT:          0  MISS:       3869  HIT %:          0  MISS %:        100   MPKI: 0.019345
L2C DATA LOAD MPKI: 0.019345
L2C INSTRUCTION LOAD MPKI: 0
L2C PREFETCH  ACCESS:    1845447  HIT:    1382844  MISS:     462603  HIT %:    74.9327  MISS %:    25.0673   MPKI: 2.31301
L2C DATA PREFETCH MPKI: 2.31301
L2C INSTRUCTION PREFETCH MPKI: 0
L2C WRITEBACK ACCESS:     466464  HIT:     406762  MISS:      59702  HIT %:    87.2012  MISS %:    12.7988   MPKI: 0.29851
L2C LOAD TRANSLATION ACCESS:       7247  HIT:       7246  MISS:          1  HIT %:    99.9862  MISS %:  0.0137988   MPKI: 5e-06
L2C TRANSLATION FROM L1D PREFETCHER ACCESS:     539016  HIT:     538090  MISS:        926  HIT %:    99.8282  MISS %:   0.171795   MPKI: 0.00463
L2C PREFETCH  REQUESTED:          0  ISSUED:          0  USEFUL:       5758  USELESS:    2927118
L2C USEFUL LOAD PREFETCHES:       5758 PREFETCH ISSUED TO LOWER LEVEL:    2927006  ACCURACY: 0.19672
L2C TIMELY PREFETCHES:       5758 LATE PREFETCHES: 0 DROPPED PREFETCHES: 0
L2C PREFETCHES SAME FILL-ORIGIN LEVEL: 394343 DIFFERENT FILL-ORIGIN LEVEL: 0
L2C AVERAGE MISS LATENCY: 3032.84 cycles
L2C RQ	ACCESS:     588665	FORWARD:          0	MERGED:          0	TO_CACHE:     588665
L2C WQ	ACCESS:    2930839	FORWARD:          0	MERGED:          0	TO_CACHE:    2930839
L2C PQ	ACCESS:   17535141	FORWARD:          0	MERGED:      16397	TO_CACHE:   17518744

L2C Instructions Evicting Data 0
L2C Translations Evicting Data 5767
L2C Data Evicting Data 2925666
L2C Instructions Evicting Instructions 0
L2C Translations Evicting Instructions 0
L2C Data Evicting Instructions 0
L2C Instructions Evicting Translations 0
L2C Translations Evicting Translations 0
L2C Data Evicting Translations 5213
L2C Dense regions hint from L2: 0
PSCL5 TOTAL     ACCESS:     546263  HIT:     546263  MISS:          0  HIT %:        100  MISS %:          0   MPKI: 0
PSCL5 LOAD TRANSLATION ACCESS:       7247  HIT:       7247  MISS:          0  HIT %:        100  MISS %:          0   MPKI: 0
PSCL5 TRANSLATION FROM L1D PREFETCHER ACCESS:     539016  HIT:     539016  MISS:          0  HIT %:        100  MISS %:          0   MPKI: 0
PSCL5 PREFETCH  REQUESTED:          0  ISSUED:          0  USEFUL:          0  USELESS:          0
PSCL5 USEFUL LOAD PREFETCHES:          0 PREFETCH ISSUED TO LOWER LEVEL:          0  ACCURACY: -nan
PSCL5 TIMELY PREFETCHES:          0 LATE PREFETCHES: 0 DROPPED PREFETCHES: 0
PSCL5 PREFETCHES SAME FILL-ORIGIN LEVEL: 0 DIFFERENT FILL-ORIGIN LEVEL: 0

PSCL4 TOTAL     ACCESS:     546263  HIT:     546263  MISS:          0  HIT %:        100  MISS %:          0   MPKI: 0
PSCL4 LOAD TRANSLATION ACCESS:       7247  HIT:       7247  MISS:          0  HIT %:        100  MISS %:          0   MPKI: 0
PSCL4 TRANSLATION FROM L1D PREFETCHER ACCESS:     539016  HIT:     539016  MISS:          0  HIT %:        100  MISS %:          0   MPKI: 0
PSCL4 PREFETCH  REQUESTED:          0  ISSUED:          0  USEFUL:          0  USELESS:          0
PSCL4 USEFUL LOAD PREFETCHES:          0 PREFETCH ISSUED TO LOWER LEVEL:          0  ACCURACY: -nan
PSCL4 TIMELY PREFETCHES:          0 LATE PREFETCHES: 0 DROPPED PREFETCHES: 0
PSCL4 PREFETCHES SAME FILL-ORIGIN LEVEL: 0 DIFFERENT FILL-ORIGIN LEVEL: 0

PSCL3 TOTAL     ACCESS:     546263  HIT:     546263  MISS:          0  HIT %:        100  MISS %:          0   MPKI: 0
PSCL3 LOAD TRANSLATION ACCESS:       7247  HIT:       7247  MISS:          0  HIT %:        100  MISS %:          0   MPKI: 0
PSCL3 TRANSLATION FROM L1D PREFETCHER ACCESS:     539016  HIT:     539016  MISS:          0  HIT %:        100  MISS %:          0   MPKI: 0
PSCL3 PREFETCH  REQUESTED:          0  ISSUED:          0  USEFUL:          0  USELESS:          0
PSCL3 USEFUL LOAD PREFETCHES:          0 PREFETCH ISSUED TO LOWER LEVEL:          0  ACCURACY: -nan
PSCL3 TIMELY PREFETCHES:          0 LATE PREFETCHES: 0 DROPPED PREFETCHES: 0
PSCL3 PREFETCHES SAME FILL-ORIGIN LEVEL: 0 DIFFERENT FILL-ORIGIN LEVEL: 0

PSCL2 TOTAL     ACCESS:     545415  HIT:     545401  MISS:         14  HIT %:    99.9974  MISS %: 0.00256685   MPKI: 7e-05
PSCL2 LOAD TRANSLATION ACCESS:       7247  HIT:       7233  MISS:         14  HIT %:    99.8068  MISS %:   0.193183   MPKI: 7e-05
PSCL2 TRANSLATION FROM L1D PREFETCHER ACCESS:     538168  HIT:     538168  MISS:          0  HIT %:        100  MISS %:          0   MPKI: 0
PSCL2 PREFETCH  REQUESTED:          0  ISSUED:          0  USEFUL:          0  USELESS:          0
PSCL2 USEFUL LOAD PREFETCHES:          0 PREFETCH ISSUED TO LOWER LEVEL:          0  ACCURACY: -nan
PSCL2 TIMELY PREFETCHES:          0 LATE PREFETCHES: 0 DROPPED PREFETCHES: 0
PSCL2 PREFETCHES SAME FILL-ORIGIN LEVEL: 0 DIFFERENT FILL-ORIGIN LEVEL: 0

LLC TOTAL     ACCESS:     933828  HIT:     293621  MISS:     640207  HIT %:    31.4427  MISS %:    68.5573   MPKI: 3.20103
LLC LOAD      ACCESS:       3869  HIT:          0  MISS:       3869  HIT %:          0  MISS %:        100   MPKI: 0.019345
LLC PREFETCH  ACCESS:     462603  HIT:          0  MISS:     462603  HIT %:          0  MISS %:        100   MPKI: 2.31301
LLC WRITEBACK ACCESS:     466429  HIT:     293621  MISS:     172808  HIT %:    62.9508  MISS %:    37.0492   MPKI: 0.86404
LLC LOAD TRANSLATION ACCESS:          1  HIT:          0  MISS:          1  HIT %:          0  MISS %:        100   MPKI: 5e-06
LLC TRANSLATION FROM L1D PREFETCHER ACCESS:        926  HIT:          0  MISS:        926  HIT %:          0  MISS %:        100   MPKI: 0.00463
LLC PREFETCH  REQUESTED:          0  ISSUED:          0  USEFUL:     109647  USELESS:   22499626
LLC USEFUL LOAD PREFETCHES:     109647 PREFETCH ISSUED TO LOWER LEVEL:   23673182  ACCURACY: 0.46317
LLC TIMELY PREFETCHES:     109647 LATE PREFETCHES: 0 DROPPED PREFETCHES: 0
LLC PREFETCHES SAME FILL-ORIGIN LEVEL: 0 DIFFERENT FILL-ORIGIN LEVEL: 0
LLC AVERAGE MISS LATENCY: 26034.6 cycles
LLC RQ	ACCESS:   18047622	FORWARD:          0	MERGED:          0	TO_CACHE:   18047607
LLC WQ	ACCESS:    9549016	FORWARD:         43	MERGED:          0	TO_CACHE:    9549016
LLC PQ	ACCESS:   23800051	FORWARD:          0	MERGED:          0	TO_CACHE:   23800023

LLC Dense regions hint to LLC: 0

RAW hits: 0
Loads Generated: 29853456
Loads sent to L1D: 29853455
Stores Generated: 4175855
Stores sent to L1D: 4175855
Major fault: 0 Minor fault: 9127
Allocated PAGES: 126942

DRAM Statistics
 CHANNEL 0
 RQ ROW_BUFFER_HIT:    5946925  ROW_BUFFER_MISS:   25881544
 DBUS_CONGESTED:        299
 WQ ROW_BUFFER_HIT:     874863  ROW_BUFFER_MISS:    8523151  FULL:        119

 AVG_CONGESTED_CYCLE: 5
 All warmup complete: 5
Channel 0 Bank busy for read cycles: 0
Channel 0 Bank busy for write cycles: 0
Channel 0
Rank 0
0banks busy for read cycles: 195781
0banks busy for write cycles: 0
1banks busy for read cycles: 24465792
1banks busy for write cycles: 1053532
2banks busy for read cycles: 68398987
2banks busy for write cycles: 1053225
3banks busy for read cycles: 102423520
3banks busy for write cycles: 1052944
4banks busy for read cycles: 109359051
4banks busy for write cycles: 1052803
5banks busy for read cycles: 102899964
5banks busy for write cycles: 1082217
6banks busy for read cycles: 99165134
6banks busy for write cycles: 2365165
7banks busy for read cycles: 114485253
7banks busy for write cycles: 29435041
8banks busy for read cycles: 209116667
8banks busy for write cycles: 213083003

CPU 0 Branch Prediction Accuracy: 96.4959% MPKI: 9.1201 Average ROB Occupancy at Mispredict: 60.1877
Branch types
NOT_BRANCH: 147945839 73.9729%
BRANCH_DIRECT_JUMP: 0 0%
BRANCH_INDIRECT: 0 0%
BRANCH_CONDITIONAL: 52053978 26.027%
BRANCH_DIRECT_CALL: 0 0%
BRANCH_INDIRECT_CALL: 0 0%
BRANCH_RETURN: 0 0%
BRANCH_OTHER: 0 0%


CPU 1 Branch Prediction Accuracy: 98.6858% MPKI: 3.73453 Average ROB Occupancy at Mispredict: 41.7337
Branch types
NOT_BRANCH: 591376996 71.4432%
BRANCH_DIRECT_JUMP: 3099906 0.374494%
BRANCH_INDIRECT: 0 0%
BRANCH_CONDITIONAL: 233281531 28.1823%
BRANCH_DIRECT_CALL: 39 4.71152e-06%
BRANCH_INDIRECT_CALL: 0 0%
BRANCH_RETURN: 36 4.34909e-06%
BRANCH_OTHER: 0 0%


CPU 2 Branch Prediction Accuracy: 99.9459% MPKI: 0.0247308 Average ROB Occupancy at Mispredict: 147.517
Branch types
NOT_BRANCH: 1350326442 95.4038%
BRANCH_DIRECT_JUMP: 314065 0.0221894%
BRANCH_INDIRECT: 0 0%
BRANCH_CONDITIONAL: 64739231 4.57398%
BRANCH_DIRECT_CALL: 274 1.93588e-05%
BRANCH_INDIRECT_CALL: 0 0%
BRANCH_RETURN: 273 1.92881e-05%
BRANCH_OTHER: 0 0%


CPU 3 Branch Prediction Accuracy: 99.6865% MPKI: 0.999888 Average ROB Occupancy at Mispredict: 25.6781
Branch types
NOT_BRANCH: 856368139 68.072%
BRANCH_DIRECT_JUMP: 0 0%
BRANCH_INDIRECT: 0 0%
BRANCH_CONDITIONAL: 401665216 31.928%
BRANCH_DIRECT_CALL: 0 0%
BRANCH_INDIRECT_CALL: 0 0%
BRANCH_RETURN: 0 0%
BRANCH_OTHER: 0 0%

DRAM PAGES: 1048576
Allocated PAGES: 126942
