
*** ChampSim Multicore Out-of-Order Simulator ***

Warmup Instructions: 50000000
Simulation Instructions: 200000000
Number of CPUs: 4
LLC sets: 8192
LLC ways: 16
Off-chip DRAM Size: 4096 MB Channels: 1 Width: 64-bit Data Rate: 6400 MT/s
CPU 0 runs ./traces/gap/sssp-5.trace.gz
.gz
CPU 1 runs ./traces/ligra/ligra_Components-Shortcut.com-lj.ungraph.gcc_6.3.0_O3.drop_21000M.length_250M.champsimtrace.xz
.xz
CPU 2 runs ./traces/ligra/ligra_Radii.com-lj.ungraph.gcc_6.3.0_O3.drop_18000M.length_250M.champsimtrace.xz
.xz
CPU 3 runs ./traces/ligra/ligra_Radii.com-lj.ungraph.gcc_6.3.0_O3.drop_12500M.length_250M.champsimtrace.xz
.xz
BTB has LRU replacement policy
ITLB has LRU replacement policy
DTLB has LRU replacement policy
STLB has LRU replacement policy
L1I has LRU replacement policy
History Sets: 8
History Ways: 16
BERTI Size: 16
BERTI Stride Size: 8
L1D has LRU replacement policy
Initialize SRRIP state for L2C
Initialize DRRIP state for LLC
BTB has LRU replacement policy
ITLB has LRU replacement policy
DTLB has LRU replacement policy
STLB has LRU replacement policy
L1I has LRU replacement policy
History Sets: 8
History Ways: 16
BERTI Size: 16
BERTI Stride Size: 8
L1D has LRU replacement policy
Initialize SRRIP state for L2C
Initialize DRRIP state for LLC
BTB has LRU replacement policy
ITLB has LRU replacement policy
DTLB has LRU replacement policy
STLB has LRU replacement policy
L1I has LRU replacement policy
History Sets: 8
History Ways: 16
BERTI Size: 16
BERTI Stride Size: 8
L1D has LRU replacement policy
Initialize SRRIP state for L2C
Initialize DRRIP state for LLC
BTB has LRU replacement policy
ITLB has LRU replacement policy
DTLB has LRU replacement policy
STLB has LRU replacement policy
L1I has LRU replacement policy
History Sets: 8
History Ways: 16
BERTI Size: 16
BERTI Stride Size: 8
L1D has LRU replacement policy
Initialize SRRIP state for L2C
Initialize DRRIP state for LLC
Heartbeat CPU 1 instructions: 10000003 cycles: 2630482 heartbeat IPC: 3.80159 cumulative IPC: 3.80159 (Simulation time: 0 hr 2 min 41 sec) 
Heartbeat CPU 3 instructions: 10000002 cycles: 2933154 heartbeat IPC: 3.4093 cumulative IPC: 3.4093 (Simulation time: 0 hr 2 min 59 sec) 
Heartbeat CPU 0 instructions: 10000001 cycles: 3076181 heartbeat IPC: 3.25078 cumulative IPC: 3.25078 (Simulation time: 0 hr 3 min 7 sec) 
Heartbeat CPU 2 instructions: 10000001 cycles: 3318658 heartbeat IPC: 3.01327 cumulative IPC: 3.01327 (Simulation time: 0 hr 3 min 21 sec) 
Heartbeat CPU 1 instructions: 20000002 cycles: 5257224 heartbeat IPC: 3.807 cumulative IPC: 3.80429 (Simulation time: 0 hr 5 min 25 sec) 
Heartbeat CPU 3 instructions: 20000002 cycles: 5867478 heartbeat IPC: 3.40794 cumulative IPC: 3.40862 (Simulation time: 0 hr 6 min 5 sec) 
Heartbeat CPU 0 instructions: 20000000 cycles: 6130656 heartbeat IPC: 3.27388 cumulative IPC: 3.26229 (Simulation time: 0 hr 6 min 23 sec) 
Heartbeat CPU 2 instructions: 20000000 cycles: 6642150 heartbeat IPC: 3.00888 cumulative IPC: 3.01107 (Simulation time: 0 hr 6 min 59 sec) 
Heartbeat CPU 1 instructions: 30000002 cycles: 8165906 heartbeat IPC: 3.43798 cumulative IPC: 3.67381 (Simulation time: 0 hr 8 min 29 sec) 
Heartbeat CPU 3 instructions: 30000000 cycles: 8803319 heartbeat IPC: 3.40618 cumulative IPC: 3.40781 (Simulation time: 0 hr 9 min 1 sec) 
Heartbeat CPU 0 instructions: 30000003 cycles: 9202746 heartbeat IPC: 3.25511 cumulative IPC: 3.2599 (Simulation time: 0 hr 9 min 19 sec) 
Heartbeat CPU 2 instructions: 30000001 cycles: 9960969 heartbeat IPC: 3.01312 cumulative IPC: 3.01176 (Simulation time: 0 hr 9 min 56 sec) 
Heartbeat CPU 1 instructions: 40000000 cycles: 11498588 heartbeat IPC: 3.00059 cumulative IPC: 3.47869 (Simulation time: 0 hr 11 min 18 sec) 
Heartbeat CPU 3 instructions: 40000001 cycles: 11738577 heartbeat IPC: 3.40686 cumulative IPC: 3.40757 (Simulation time: 0 hr 11 min 32 sec) 
Heartbeat CPU 0 instructions: 40000000 cycles: 12288751 heartbeat IPC: 3.24043 cumulative IPC: 3.25501 (Simulation time: 0 hr 12 min 2 sec) 
Heartbeat CPU 2 instructions: 40000002 cycles: 13281931 heartbeat IPC: 3.01118 cumulative IPC: 3.01161 (Simulation time: 0 hr 13 min 0 sec) 
Heartbeat CPU 3 instructions: 50000001 cycles: 14674234 heartbeat IPC: 3.40639 cumulative IPC: 3.40733 (Simulation time: 0 hr 14 min 13 sec) 
Heartbeat CPU 1 instructions: 50000003 cycles: 14831322 heartbeat IPC: 3.00054 cumulative IPC: 3.37124 (Simulation time: 0 hr 14 min 20 sec) 
Heartbeat CPU 0 instructions: 50000003 cycles: 15379042 heartbeat IPC: 3.23594 cumulative IPC: 3.25118 (Simulation time: 0 hr 14 min 46 sec) 
Heartbeat CPU 2 instructions: 50000002 cycles: 16600061 heartbeat IPC: 3.01375 cumulative IPC: 3.01204 (Simulation time: 0 hr 15 min 36 sec) 

Warmup complete CPU 0 instructions: 53447105 cycles: 16600061 (Simulation time: 0 hr 15 min 36 sec) 
Warmup complete CPU 1 instructions: 55301256 cycles: 16600061 (Simulation time: 0 hr 15 min 36 sec) 
Warmup complete CPU 2 instructions: 50000002 cycles: 16600061 (Simulation time: 0 hr 15 min 36 sec) 
Warmup complete CPU 3 instructions: 55130747 cycles: 16600060 (Simulation time: 0 hr 15 min 36 sec) 

Heartbeat CPU 1 instructions: 60000002 cycles: 20521312 heartbeat IPC: 1.75747 cumulative IPC: 1.19828 (Simulation time: 0 hr 16 min 41 sec) 
Heartbeat CPU 3 instructions: 60000003 cycles: 22451179 heartbeat IPC: 1.28585 cumulative IPC: 0.832192 (Simulation time: 0 hr 17 min 12 sec) 
Heartbeat CPU 2 instructions: 60000001 cycles: 25569410 heartbeat IPC: 1.11491 cumulative IPC: 1.11491 (Simulation time: 0 hr 18 min 4 sec) 
Heartbeat CPU 1 instructions: 70000000 cycles: 28925336 heartbeat IPC: 1.18991 cumulative IPC: 1.19257 (Simulation time: 0 hr 18 min 59 sec) 
Heartbeat CPU 0 instructions: 60000002 cycles: 32698846 heartbeat IPC: 0.577374 cumulative IPC: 0.407043 (Simulation time: 0 hr 19 min 54 sec) 
Heartbeat CPU 3 instructions: 70000000 cycles: 34373956 heartbeat IPC: 0.838731 cumulative IPC: 0.836578 (Simulation time: 0 hr 20 min 20 sec) 
Heartbeat CPU 2 instructions: 70000003 cycles: 36448657 heartbeat IPC: 0.919181 cumulative IPC: 1.00763 (Simulation time: 0 hr 20 min 55 sec) 
Heartbeat CPU 1 instructions: 80000003 cycles: 37393411 heartbeat IPC: 1.18091 cumulative IPC: 1.18782 (Simulation time: 0 hr 21 min 12 sec) 
Heartbeat CPU 1 instructions: 90000003 cycles: 45860287 heartbeat IPC: 1.18107 cumulative IPC: 1.18587 (Simulation time: 0 hr 23 min 22 sec) 
Heartbeat CPU 3 instructions: 80000000 cycles: 46246552 heartbeat IPC: 0.842276 cumulative IPC: 0.83886 (Simulation time: 0 hr 23 min 28 sec) 
Heartbeat CPU 2 instructions: 80000002 cycles: 46948434 heartbeat IPC: 0.952401 cumulative IPC: 0.988521 (Simulation time: 0 hr 23 min 39 sec) 
Heartbeat CPU 1 instructions: 100000000 cycles: 54493579 heartbeat IPC: 1.15831 cumulative IPC: 1.17959 (Simulation time: 0 hr 25 min 42 sec) 
Heartbeat CPU 2 instructions: 90000001 cycles: 57457486 heartbeat IPC: 0.95156 cumulative IPC: 0.979014 (Simulation time: 0 hr 26 min 24 sec) 
Heartbeat CPU 3 instructions: 90000001 cycles: 58020046 heartbeat IPC: 0.849366 cumulative IPC: 0.841846 (Simulation time: 0 hr 26 min 30 sec) 
Heartbeat CPU 3 instructions: 100000003 cycles: 69847029 heartbeat IPC: 0.845524 cumulative IPC: 0.842663 (Simulation time: 0 hr 28 min 57 sec) 
Heartbeat CPU 2 instructions: 100000001 cycles: 70951993 heartbeat IPC: 0.741042 cumulative IPC: 0.91993 (Simulation time: 0 hr 29 min 11 sec) 
Heartbeat CPU 1 instructions: 110000000 cycles: 75778530 heartbeat IPC: 0.469815 cumulative IPC: 0.924301 (Simulation time: 0 hr 30 min 13 sec) 
Heartbeat CPU 3 instructions: 110000000 cycles: 81666621 heartbeat IPC: 0.846053 cumulative IPC: 0.843279 (Simulation time: 0 hr 31 min 23 sec) 
Heartbeat CPU 2 instructions: 110000000 cycles: 83853155 heartbeat IPC: 0.775124 cumulative IPC: 0.892152 (Simulation time: 0 hr 31 min 58 sec) 
Heartbeat CPU 3 instructions: 120000000 cycles: 93726261 heartbeat IPC: 0.829212 cumulative IPC: 0.841079 (Simulation time: 0 hr 34 min 10 sec) 
Heartbeat CPU 2 instructions: 120000001 cycles: 97213515 heartbeat IPC: 0.748483 cumulative IPC: 0.868341 (Simulation time: 0 hr 34 min 58 sec) 
Heartbeat CPU 1 instructions: 120000002 cycles: 100631704 heartbeat IPC: 0.402363 cumulative IPC: 0.769933 (Simulation time: 0 hr 35 min 52 sec) 
Heartbeat CPU 3 instructions: 130000001 cycles: 105624007 heartbeat IPC: 0.840495 cumulative IPC: 0.841001 (Simulation time: 0 hr 37 min 7 sec) 
Heartbeat CPU 0 instructions: 70000001 cycles: 108966203 heartbeat IPC: 0.131118 cumulative IPC: 0.17921 (Simulation time: 0 hr 37 min 59 sec) 
Heartbeat CPU 2 instructions: 130000000 cycles: 109332333 heartbeat IPC: 0.825163 cumulative IPC: 0.862699 (Simulation time: 0 hr 38 min 6 sec) 
Heartbeat CPU 3 instructions: 140000000 cycles: 117254882 heartbeat IPC: 0.85978 cumulative IPC: 0.843171 (Simulation time: 0 hr 39 min 53 sec) 
Heartbeat CPU 2 instructions: 140000000 cycles: 121891844 heartbeat IPC: 0.796209 cumulative IPC: 0.854768 (Simulation time: 0 hr 41 min 0 sec) 
Heartbeat CPU 1 instructions: 130000000 cycles: 124666287 heartbeat IPC: 0.416067 cumulative IPC: 0.691231 (Simulation time: 0 hr 41 min 31 sec) 
Heartbeat CPU 3 instructions: 150000001 cycles: 129065848 heartbeat IPC: 0.846671 cumulative IPC: 0.843539 (Simulation time: 0 hr 42 min 37 sec) 
Heartbeat CPU 2 instructions: 150000000 cycles: 135344858 heartbeat IPC: 0.743328 cumulative IPC: 0.842142 (Simulation time: 0 hr 44 min 1 sec) 
Heartbeat CPU 3 instructions: 160000001 cycles: 140861526 heartbeat IPC: 0.847768 cumulative IPC: 0.84394 (Simulation time: 0 hr 45 min 16 sec) 
Heartbeat CPU 2 instructions: 160000000 cycles: 147815169 heartbeat IPC: 0.801905 cumulative IPC: 0.838318 (Simulation time: 0 hr 46 min 53 sec) 
Heartbeat CPU 1 instructions: 140000001 cycles: 149047647 heartbeat IPC: 0.410149 cumulative IPC: 0.639489 (Simulation time: 0 hr 47 min 10 sec) 
Heartbeat CPU 3 instructions: 170000001 cycles: 152631089 heartbeat IPC: 0.849649 cumulative IPC: 0.844434 (Simulation time: 0 hr 48 min 5 sec) 
Heartbeat CPU 2 instructions: 170000000 cycles: 160743356 heartbeat IPC: 0.773504 cumulative IPC: 0.832505 (Simulation time: 0 hr 49 min 59 sec) 
Heartbeat CPU 3 instructions: 180000000 cycles: 164282854 heartbeat IPC: 0.858239 cumulative IPC: 0.845523 (Simulation time: 0 hr 50 min 53 sec) 
Heartbeat CPU 2 instructions: 180000002 cycles: 173711517 heartbeat IPC: 0.77112 cumulative IPC: 0.827438 (Simulation time: 0 hr 53 min 9 sec) 
Heartbeat CPU 1 instructions: 150000000 cycles: 174567885 heartbeat IPC: 0.391846 cumulative IPC: 0.599481 (Simulation time: 0 hr 53 min 22 sec) 
Heartbeat CPU 3 instructions: 190000003 cycles: 176019292 heartbeat IPC: 0.852048 cumulative IPC: 0.846004 (Simulation time: 0 hr 53 min 44 sec) 
Heartbeat CPU 3 instructions: 200000001 cycles: 187357355 heartbeat IPC: 0.881985 cumulative IPC: 0.848393 (Simulation time: 0 hr 56 min 23 sec) 
Heartbeat CPU 2 instructions: 190000002 cycles: 187762950 heartbeat IPC: 0.711671 cumulative IPC: 0.817934 (Simulation time: 0 hr 56 min 29 sec) 
Heartbeat CPU 3 instructions: 210000001 cycles: 198803708 heartbeat IPC: 0.873641 cumulative IPC: 0.849979 (Simulation time: 0 hr 59 min 10 sec) 
Heartbeat CPU 1 instructions: 160000000 cycles: 199932923 heartbeat IPC: 0.394243 cumulative IPC: 0.571086 (Simulation time: 0 hr 59 min 29 sec) 
Heartbeat CPU 2 instructions: 200000000 cycles: 201071599 heartbeat IPC: 0.751391 cumulative IPC: 0.813134 (Simulation time: 0 hr 59 min 48 sec) 
Heartbeat CPU 0 instructions: 80000000 cycles: 204226935 heartbeat IPC: 0.104975 cumulative IPC: 0.14152 (Simulation time: 1 hr 0 min 35 sec) 
Heartbeat CPU 3 instructions: 220000000 cycles: 210412863 heartbeat IPC: 0.861389 cumulative IPC: 0.850662 (Simulation time: 1 hr 2 min 8 sec) 
Heartbeat CPU 2 instructions: 210000002 cycles: 213594655 heartbeat IPC: 0.798527 cumulative IPC: 0.812205 (Simulation time: 1 hr 2 min 58 sec) 
Heartbeat CPU 3 instructions: 230000000 cycles: 221803545 heartbeat IPC: 0.877911 cumulative IPC: 0.852175 (Simulation time: 1 hr 5 min 0 sec) 
Heartbeat CPU 1 instructions: 170000001 cycles: 224318376 heartbeat IPC: 0.410081 cumulative IPC: 0.552184 (Simulation time: 1 hr 5 min 39 sec) 
Heartbeat CPU 2 instructions: 220000000 cycles: 225633647 heartbeat IPC: 0.830634 cumulative IPC: 0.813266 (Simulation time: 1 hr 5 min 58 sec) 
Heartbeat CPU 3 instructions: 240000000 cycles: 233375921 heartbeat IPC: 0.864127 cumulative IPC: 0.852813 (Simulation time: 1 hr 7 min 50 sec) 
Heartbeat CPU 2 instructions: 230000002 cycles: 235008952 heartbeat IPC: 1.06663 cumulative IPC: 0.824142 (Simulation time: 1 hr 8 min 15 sec) 
Heartbeat CPU 2 instructions: 240000000 cycles: 244093621 heartbeat IPC: 1.10076 cumulative IPC: 0.835188 (Simulation time: 1 hr 10 min 35 sec) 
*** Reached end of trace for Core: 3 Repeating trace: ./traces/ligra/ligra_Radii.com-lj.ungraph.gcc_6.3.0_O3.drop_12500M.length_250M.champsimtrace.xz
Heartbeat CPU 3 instructions: 250000000 cycles: 245013253 heartbeat IPC: 0.859303 cumulative IPC: 0.853144 (Simulation time: 1 hr 10 min 53 sec) 
Heartbeat CPU 1 instructions: 180000002 cycles: 248825521 heartbeat IPC: 0.408044 cumulative IPC: 0.536973 (Simulation time: 1 hr 11 min 59 sec) 
Finished CPU 3 instructions: 200000002 cycles: 234359000 cumulative IPC: 0.853392 (Simulation time: 1 hr 12 min 43 sec) 
Heartbeat CPU 0 instructions: 90000001 cycles: 252802002 heartbeat IPC: 0.205867 cumulative IPC: 0.154753 (Simulation time: 1 hr 13 min 15 sec) 
*** Reached end of trace for Core: 2 Repeating trace: ./traces/ligra/ligra_Radii.com-lj.ungraph.gcc_6.3.0_O3.drop_18000M.length_250M.champsimtrace.xz
Heartbeat CPU 2 instructions: 250000001 cycles: 252878505 heartbeat IPC: 1.13832 cumulative IPC: 0.846459 (Simulation time: 1 hr 13 min 17 sec) 
Finished CPU 2 instructions: 200000003 cycles: 236278445 cumulative IPC: 0.846459 (Simulation time: 1 hr 13 min 17 sec) 
Heartbeat CPU 3 instructions: 260000002 cycles: 256603085 heartbeat IPC: 0.862825 cumulative IPC: 0.853611 (Simulation time: 1 hr 14 min 33 sec) 
Heartbeat CPU 1 instructions: 190000000 cycles: 259047140 heartbeat IPC: 0.978318 cumulative IPC: 0.55558 (Simulation time: 1 hr 15 min 29 sec) 
Heartbeat CPU 2 instructions: 260000001 cycles: 262595356 heartbeat IPC: 1.02914 cumulative IPC: 0.853675 (Simulation time: 1 hr 16 min 58 sec) 
Heartbeat CPU 3 instructions: 270000000 cycles: 268174865 heartbeat IPC: 0.864171 cumulative IPC: 0.854097 (Simulation time: 1 hr 19 min 3 sec) 
Heartbeat CPU 1 instructions: 200000001 cycles: 268767804 heartbeat IPC: 1.02874 cumulative IPC: 0.573819 (Simulation time: 1 hr 19 min 17 sec) 
Heartbeat CPU 2 instructions: 270000003 cycles: 271932387 heartbeat IPC: 1.071 cumulative IPC: 0.861622 (Simulation time: 1 hr 20 min 24 sec) 
Heartbeat CPU 1 instructions: 210000003 cycles: 278698981 heartbeat IPC: 1.00693 cumulative IPC: 0.59023 (Simulation time: 1 hr 23 min 10 sec) 
Heartbeat CPU 3 instructions: 280000003 cycles: 280046056 heartbeat IPC: 0.842376 cumulative IPC: 0.853569 (Simulation time: 1 hr 23 min 40 sec) 
Heartbeat CPU 2 instructions: 280000002 cycles: 280971348 heartbeat IPC: 1.10632 cumulative IPC: 0.869989 (Simulation time: 1 hr 24 min 3 sec) 
Heartbeat CPU 0 instructions: 100000001 cycles: 281216714 heartbeat IPC: 0.35193 cumulative IPC: 0.175926 (Simulation time: 1 hr 24 min 9 sec) 
Heartbeat CPU 1 instructions: 220000000 cycles: 288924876 heartbeat IPC: 0.977909 cumulative IPC: 0.604788 (Simulation time: 1 hr 27 min 6 sec) 
Heartbeat CPU 2 instructions: 290000003 cycles: 289984292 heartbeat IPC: 1.10952 cumulative IPC: 0.877885 (Simulation time: 1 hr 27 min 25 sec) 
Heartbeat CPU 3 instructions: 290000001 cycles: 291908240 heartbeat IPC: 0.843015 cumulative IPC: 0.853114 (Simulation time: 1 hr 27 min 58 sec) 
Heartbeat CPU 2 instructions: 300000000 cycles: 299392598 heartbeat IPC: 1.06289 cumulative IPC: 0.88404 (Simulation time: 1 hr 30 min 16 sec) 
Heartbeat CPU 1 instructions: 230000000 cycles: 300332289 heartbeat IPC: 0.876623 cumulative IPC: 0.615717 (Simulation time: 1 hr 30 min 34 sec) 
Heartbeat CPU 3 instructions: 300000001 cycles: 303802859 heartbeat IPC: 0.840716 cumulative IPC: 0.852601 (Simulation time: 1 hr 31 min 36 sec) 
Heartbeat CPU 2 instructions: 310000000 cycles: 308339861 heartbeat IPC: 1.11766 cumulative IPC: 0.891205 (Simulation time: 1 hr 33 min 3 sec) 
Heartbeat CPU 0 instructions: 110000000 cycles: 310479852 heartbeat IPC: 0.341727 cumulative IPC: 0.192435 (Simulation time: 1 hr 33 min 49 sec) 
Heartbeat CPU 1 instructions: 240000000 cycles: 313518609 heartbeat IPC: 0.758362 cumulative IPC: 0.622052 (Simulation time: 1 hr 34 min 47 sec) 
Heartbeat CPU 3 instructions: 310000003 cycles: 315686753 heartbeat IPC: 0.841475 cumulative IPC: 0.852158 (Simulation time: 1 hr 35 min 32 sec) 
Heartbeat CPU 2 instructions: 320000001 cycles: 317716414 heartbeat IPC: 1.06649 cumulative IPC: 0.896663 (Simulation time: 1 hr 36 min 14 sec) 
Heartbeat CPU 2 instructions: 330000000 cycles: 326988860 heartbeat IPC: 1.07846 cumulative IPC: 0.902094 (Simulation time: 1 hr 39 min 28 sec) 
*** Reached end of trace for Core: 1 Repeating trace: ./traces/ligra/ligra_Components-Shortcut.com-lj.ungraph.gcc_6.3.0_O3.drop_21000M.length_250M.champsimtrace.xz
Heartbeat CPU 1 instructions: 250000000 cycles: 327039747 heartbeat IPC: 0.739583 cumulative IPC: 0.627171 (Simulation time: 1 hr 39 min 29 sec) 
Heartbeat CPU 3 instructions: 320000000 cycles: 327495612 heartbeat IPC: 0.846822 cumulative IPC: 0.851956 (Simulation time: 1 hr 39 min 41 sec) 
Finished CPU 1 instructions: 200000001 cycles: 313542478 cumulative IPC: 0.637872 (Simulation time: 1 hr 40 min 47 sec) 
Heartbeat CPU 1 instructions: 260000001 cycles: 332994870 heartbeat IPC: 1.67923 cumulative IPC: 0.646973 (Simulation time: 1 hr 41 min 53 sec) 
Heartbeat CPU 2 instructions: 340000000 cycles: 337134171 heartbeat IPC: 0.985677 cumulative IPC: 0.90474 (Simulation time: 1 hr 43 min 33 sec) 
Heartbeat CPU 1 instructions: 270000002 cycles: 339132648 heartbeat IPC: 1.62925 cumulative IPC: 0.665665 (Simulation time: 1 hr 44 min 17 sec) 
Heartbeat CPU 3 instructions: 330000000 cycles: 339243804 heartbeat IPC: 0.851195 cumulative IPC: 0.851928 (Simulation time: 1 hr 44 min 19 sec) 
Heartbeat CPU 1 instructions: 280000000 cycles: 346866057 heartbeat IPC: 1.29309 cumulative IPC: 0.680357 (Simulation time: 1 hr 46 min 39 sec) 
Heartbeat CPU 2 instructions: 350000003 cycles: 346939951 heartbeat IPC: 1.01981 cumulative IPC: 0.908156 (Simulation time: 1 hr 46 min 40 sec) 
Heartbeat CPU 0 instructions: 120000000 cycles: 347753595 heartbeat IPC: 0.268285 cumulative IPC: 0.200973 (Simulation time: 1 hr 46 min 57 sec) 
Heartbeat CPU 3 instructions: 340000001 cycles: 350897607 heartbeat IPC: 0.858089 cumulative IPC: 0.852143 (Simulation time: 1 hr 48 min 2 sec) 
Heartbeat CPU 1 instructions: 290000003 cycles: 355214319 heartbeat IPC: 1.19785 cumulative IPC: 0.693115 (Simulation time: 1 hr 49 min 25 sec) 
Heartbeat CPU 2 instructions: 360000003 cycles: 355917934 heartbeat IPC: 1.11384 cumulative IPC: 0.913598 (Simulation time: 1 hr 49 min 38 sec) 
Heartbeat CPU 3 instructions: 350000002 cycles: 362562657 heartbeat IPC: 0.857262 cumulative IPC: 0.852315 (Simulation time: 1 hr 51 min 55 sec) 
Heartbeat CPU 1 instructions: 300000000 cycles: 363591121 heartbeat IPC: 1.19377 cumulative IPC: 0.705202 (Simulation time: 1 hr 52 min 19 sec) 
Heartbeat CPU 2 instructions: 370000000 cycles: 365002487 heartbeat IPC: 1.10077 cumulative IPC: 0.918478 (Simulation time: 1 hr 52 min 49 sec) 
Heartbeat CPU 1 instructions: 310000003 cycles: 371945198 heartbeat IPC: 1.19702 cumulative IPC: 0.716764 (Simulation time: 1 hr 55 min 17 sec) 
Heartbeat CPU 0 instructions: 130000000 cycles: 372681203 heartbeat IPC: 0.401162 cumulative IPC: 0.214987 (Simulation time: 1 hr 55 min 32 sec) 
Heartbeat CPU 2 instructions: 380000002 cycles: 374152919 heartbeat IPC: 1.09284 cumulative IPC: 0.92294 (Simulation time: 1 hr 56 min 6 sec) 
Heartbeat CPU 3 instructions: 360000001 cycles: 374251303 heartbeat IPC: 0.855531 cumulative IPC: 0.852421 (Simulation time: 1 hr 56 min 8 sec) 
Heartbeat CPU 1 instructions: 320000002 cycles: 380310761 heartbeat IPC: 1.19538 cumulative IPC: 0.727773 (Simulation time: 1 hr 58 min 17 sec) 
Heartbeat CPU 2 instructions: 390000003 cycles: 384161006 heartbeat IPC: 0.999192 cumulative IPC: 0.925017 (Simulation time: 1 hr 59 min 30 sec) 
Heartbeat CPU 3 instructions: 370000000 cycles: 386173771 heartbeat IPC: 0.838752 cumulative IPC: 0.85198 (Simulation time: 2 hr 0 min 4 sec) 
Heartbeat CPU 1 instructions: 330000000 cycles: 388673185 heartbeat IPC: 1.19583 cumulative IPC: 0.738292 (Simulation time: 2 hr 0 min 57 sec) 
Heartbeat CPU 2 instructions: 400000003 cycles: 395732498 heartbeat IPC: 0.864193 cumulative IPC: 0.92316 (Simulation time: 2 hr 3 min 10 sec) 
Heartbeat CPU 1 instructions: 340000001 cycles: 397045206 heartbeat IPC: 1.19445 cumulative IPC: 0.748331 (Simulation time: 2 hr 3 min 38 sec) 
Heartbeat CPU 3 instructions: 380000001 cycles: 397935177 heartbeat IPC: 0.850239 cumulative IPC: 0.851926 (Simulation time: 2 hr 3 min 56 sec) 
Heartbeat CPU 1 instructions: 350000002 cycles: 405574251 heartbeat IPC: 1.17246 cumulative IPC: 0.757631 (Simulation time: 2 hr 6 min 22 sec) 
Heartbeat CPU 2 instructions: 410000001 cycles: 405871999 heartbeat IPC: 0.986242 cumulative IPC: 0.924803 (Simulation time: 2 hr 6 min 27 sec) 
Heartbeat CPU 3 instructions: 390000000 cycles: 409448326 heartbeat IPC: 0.868572 cumulative IPC: 0.852414 (Simulation time: 2 hr 7 min 25 sec) 
Heartbeat CPU 0 instructions: 140000000 cycles: 412700176 heartbeat IPC: 0.249881 cumulative IPC: 0.218513 (Simulation time: 2 hr 8 min 16 sec) 
Heartbeat CPU 2 instructions: 420000001 cycles: 418734312 heartbeat IPC: 0.777465 cumulative IPC: 0.920091 (Simulation time: 2 hr 9 min 46 sec) 
Heartbeat CPU 3 instructions: 400000001 cycles: 421121345 heartbeat IPC: 0.856677 cumulative IPC: 0.852537 (Simulation time: 2 hr 10 min 25 sec) 
Heartbeat CPU 1 instructions: 360000003 cycles: 426813861 heartbeat IPC: 0.470818 cumulative IPC: 0.74278 (Simulation time: 2 hr 11 min 53 sec) 
Heartbeat CPU 2 instructions: 430000001 cycles: 432047385 heartbeat IPC: 0.751141 cumulative IPC: 0.914677 (Simulation time: 2 hr 13 min 18 sec) 
Heartbeat CPU 3 instructions: 410000001 cycles: 432778833 heartbeat IPC: 0.857818 cumulative IPC: 0.852685 (Simulation time: 2 hr 13 min 30 sec) 
Heartbeat CPU 3 instructions: 420000001 cycles: 444402479 heartbeat IPC: 0.860315 cumulative IPC: 0.852892 (Simulation time: 2 hr 16 min 25 sec) 
Heartbeat CPU 2 instructions: 440000000 cycles: 447469817 heartbeat IPC: 0.648406 cumulative IPC: 0.905146 (Simulation time: 2 hr 17 min 4 sec) 
Heartbeat CPU 1 instructions: 370000002 cycles: 451246541 heartbeat IPC: 0.409288 cumulative IPC: 0.724034 (Simulation time: 2 hr 18 min 2 sec) 
Heartbeat CPU 3 instructions: 430000000 cycles: 455911349 heartbeat IPC: 0.868895 cumulative IPC: 0.853311 (Simulation time: 2 hr 19 min 6 sec) 
Heartbeat CPU 2 instructions: 450000000 cycles: 461524319 heartbeat IPC: 0.711516 cumulative IPC: 0.899029 (Simulation time: 2 hr 20 min 36 sec) 
Heartbeat CPU 3 instructions: 440000000 cycles: 467507493 heartbeat IPC: 0.862356 cumulative IPC: 0.853544 (Simulation time: 2 hr 22 min 4 sec) 
Heartbeat CPU 1 instructions: 380000003 cycles: 475337178 heartbeat IPC: 0.415099 cumulative IPC: 0.70781 (Simulation time: 2 hr 24 min 11 sec) 
Heartbeat CPU 2 instructions: 460000000 cycles: 475597345 heartbeat IPC: 0.710579 cumulative IPC: 0.893251 (Simulation time: 2 hr 24 min 15 sec) 
Heartbeat CPU 3 instructions: 450000001 cycles: 478704989 heartbeat IPC: 0.893057 cumulative IPC: 0.854501 (Simulation time: 2 hr 25 min 11 sec) 
Heartbeat CPU 2 instructions: 470000001 cycles: 487987373 heartbeat IPC: 0.807101 cumulative IPC: 0.890987 (Simulation time: 2 hr 27 min 27 sec) 
Heartbeat CPU 3 instructions: 460000001 cycles: 490024796 heartbeat IPC: 0.883407 cumulative IPC: 0.855192 (Simulation time: 2 hr 27 min 57 sec) 
Heartbeat CPU 1 instructions: 390000001 cycles: 498642384 heartbeat IPC: 0.429089 cumulative IPC: 0.694335 (Simulation time: 2 hr 30 min 15 sec) 
Heartbeat CPU 2 instructions: 480000002 cycles: 500554929 heartbeat IPC: 0.7957 cumulative IPC: 0.888513 (Simulation time: 2 hr 30 min 50 sec) 
Heartbeat CPU 3 instructions: 470000000 cycles: 501506639 heartbeat IPC: 0.87094 cumulative IPC: 0.855565 (Simulation time: 2 hr 31 min 6 sec) 
Heartbeat CPU 3 instructions: 480000000 cycles: 512764611 heartbeat IPC: 0.888259 cumulative IPC: 0.856307 (Simulation time: 2 hr 33 min 37 sec) 
Heartbeat CPU 2 instructions: 490000002 cycles: 513788241 heartbeat IPC: 0.755669 cumulative IPC: 0.884977 (Simulation time: 2 hr 33 min 55 sec) 
Heartbeat CPU 0 instructions: 150000000 cycles: 519814481 heartbeat IPC: 0.0933582 cumulative IPC: 0.191872 (Simulation time: 2 hr 35 min 26 sec) 
Heartbeat CPU 1 instructions: 400000001 cycles: 521847302 heartbeat IPC: 0.430943 cumulative IPC: 0.682238 (Simulation time: 2 hr 35 min 58 sec) 
Heartbeat CPU 3 instructions: 490000000 cycles: 524239508 heartbeat IPC: 0.871468 cumulative IPC: 0.85665 (Simulation time: 2 hr 36 min 35 sec) 
*** Reached end of trace for Core: 2 Repeating trace: ./traces/ligra/ligra_Radii.com-lj.ungraph.gcc_6.3.0_O3.drop_18000M.length_250M.champsimtrace.xz
Heartbeat CPU 2 instructions: 500000000 cycles: 526555479 heartbeat IPC: 0.783255 cumulative IPC: 0.88243 (Simulation time: 2 hr 37 min 10 sec) 
*** Reached end of trace for Core: 3 Repeating trace: ./traces/ligra/ligra_Radii.com-lj.ungraph.gcc_6.3.0_O3.drop_12500M.length_250M.champsimtrace.xz
Heartbeat CPU 3 instructions: 500000000 cycles: 535800653 heartbeat IPC: 0.864966 cumulative IPC: 0.856835 (Simulation time: 2 hr 39 min 26 sec) 
Heartbeat CPU 2 instructions: 510000003 cycles: 542018386 heartbeat IPC: 0.646709 cumulative IPC: 0.875493 (Simulation time: 2 hr 41 min 3 sec) 
Heartbeat CPU 1 instructions: 410000002 cycles: 546795535 heartbeat IPC: 0.40083 cumulative IPC: 0.668996 (Simulation time: 2 hr 42 min 15 sec) 
Heartbeat CPU 3 instructions: 510000002 cycles: 547391734 heartbeat IPC: 0.862732 cumulative IPC: 0.856964 (Simulation time: 2 hr 42 min 23 sec) 
Heartbeat CPU 2 instructions: 520000000 cycles: 556150752 heartbeat IPC: 0.707595 cumulative IPC: 0.871095 (Simulation time: 2 hr 44 min 22 sec) 
Heartbeat CPU 3 instructions: 520000000 cycles: 558950764 heartbeat IPC: 0.865124 cumulative IPC: 0.857138 (Simulation time: 2 hr 45 min 1 sec) 
Heartbeat CPU 2 instructions: 530000001 cycles: 569951386 heartbeat IPC: 0.724604 cumulative IPC: 0.867442 (Simulation time: 2 hr 47 min 49 sec) 
Heartbeat CPU 3 instructions: 530000003 cycles: 570820426 heartbeat IPC: 0.842484 cumulative IPC: 0.856824 (Simulation time: 2 hr 48 min 4 sec) 
Heartbeat CPU 1 instructions: 420000001 cycles: 571169902 heartbeat IPC: 0.410267 cumulative IPC: 0.657625 (Simulation time: 2 hr 48 min 10 sec) 
Heartbeat CPU 2 instructions: 540000000 cycles: 580019784 heartbeat IPC: 0.993207 cumulative IPC: 0.869689 (Simulation time: 2 hr 50 min 47 sec) 
Heartbeat CPU 3 instructions: 540000001 cycles: 582682434 heartbeat IPC: 0.843027 cumulative IPC: 0.856535 (Simulation time: 2 hr 51 min 36 sec) 
Heartbeat CPU 2 instructions: 550000000 cycles: 589381365 heartbeat IPC: 1.0682 cumulative IPC: 0.872934 (Simulation time: 2 hr 53 min 44 sec) 
Heartbeat CPU 0 instructions: 160000000 cycles: 592317819 heartbeat IPC: 0.137925 cumulative IPC: 0.185078 (Simulation time: 2 hr 54 min 47 sec) 
Heartbeat CPU 3 instructions: 550000000 cycles: 594567471 heartbeat IPC: 0.841394 cumulative IPC: 0.856223 (Simulation time: 2 hr 55 min 36 sec) 
Heartbeat CPU 1 instructions: 430000000 cycles: 595530373 heartbeat IPC: 0.410501 cumulative IPC: 0.647226 (Simulation time: 2 hr 55 min 56 sec) 
Heartbeat CPU 2 instructions: 560000003 cycles: 598195455 heartbeat IPC: 1.13455 cumulative IPC: 0.876898 (Simulation time: 2 hr 56 min 59 sec) 
Heartbeat CPU 1 instructions: 440000000 cycles: 605178458 heartbeat IPC: 1.03648 cumulative IPC: 0.653607 (Simulation time: 2 hr 59 min 34 sec) 
Heartbeat CPU 3 instructions: 560000003 cycles: 606450101 heartbeat IPC: 0.841565 cumulative IPC: 0.855928 (Simulation time: 2 hr 59 min 58 sec) 
Heartbeat CPU 2 instructions: 570000002 cycles: 607382104 heartbeat IPC: 1.08854 cumulative IPC: 0.880189 (Simulation time: 3 hr 0 min 18 sec) 
Heartbeat CPU 1 instructions: 450000003 cycles: 614416310 heartbeat IPC: 1.0825 cumulative IPC: 0.660234 (Simulation time: 3 hr 3 min 6 sec) 
Heartbeat CPU 2 instructions: 580000001 cycles: 616677688 heartbeat IPC: 1.07578 cumulative IPC: 0.883219 (Simulation time: 3 hr 3 min 53 sec) 
Heartbeat CPU 3 instructions: 570000000 cycles: 618259867 heartbeat IPC: 0.846757 cumulative IPC: 0.855748 (Simulation time: 3 hr 4 min 31 sec) 
Heartbeat CPU 0 instructions: 170000001 cycles: 622391939 heartbeat IPC: 0.332512 cumulative IPC: 0.192398 (Simulation time: 3 hr 6 min 10 sec) 
Heartbeat CPU 1 instructions: 460000001 cycles: 624067796 heartbeat IPC: 1.03611 cumulative IPC: 0.666206 (Simulation time: 3 hr 6 min 49 sec) 
Heartbeat CPU 2 instructions: 590000001 cycles: 625713178 heartbeat IPC: 1.10675 cumulative IPC: 0.886535 (Simulation time: 3 hr 7 min 27 sec) 
Heartbeat CPU 3 instructions: 580000000 cycles: 630002949 heartbeat IPC: 0.851565 cumulative IPC: 0.855668 (Simulation time: 3 hr 9 min 1 sec) 
Heartbeat CPU 1 instructions: 470000002 cycles: 634031955 heartbeat IPC: 1.0036 cumulative IPC: 0.671651 (Simulation time: 3 hr 10 min 37 sec) 
Heartbeat CPU 2 instructions: 600000001 cycles: 634889803 heartbeat IPC: 1.08973 cumulative IPC: 0.889551 (Simulation time: 3 hr 10 min 57 sec) 
Heartbeat CPU 3 instructions: 590000001 cycles: 641654871 heartbeat IPC: 0.858228 cumulative IPC: 0.855716 (Simulation time: 3 hr 13 min 34 sec) 
Heartbeat CPU 2 instructions: 610000001 cycles: 643982245 heartbeat IPC: 1.09981 cumulative IPC: 0.892598 (Simulation time: 3 hr 14 min 28 sec) 
Heartbeat CPU 1 instructions: 480000002 cycles: 644992486 heartbeat IPC: 0.912365 cumulative IPC: 0.67585 (Simulation time: 3 hr 14 min 51 sec) 
Heartbeat CPU 0 instructions: 180000000 cycles: 651870041 heartbeat IPC: 0.339235 cumulative IPC: 0.199211 (Simulation time: 3 hr 17 min 17 sec) 
Heartbeat CPU 2 instructions: 620000002 cycles: 653122444 heartbeat IPC: 1.09407 cumulative IPC: 0.895491 (Simulation time: 3 hr 17 min 43 sec) 
Heartbeat CPU 3 instructions: 600000003 cycles: 653321162 heartbeat IPC: 0.857171 cumulative IPC: 0.855742 (Simulation time: 3 hr 17 min 48 sec) 
Heartbeat CPU 1 instructions: 490000002 cycles: 657602243 heartbeat IPC: 0.793037 cumulative IPC: 0.678155 (Simulation time: 3 hr 19 min 22 sec) 
Heartbeat CPU 2 instructions: 630000003 cycles: 662454476 heartbeat IPC: 1.07158 cumulative IPC: 0.898035 (Simulation time: 3 hr 21 min 2 sec) 
Heartbeat CPU 3 instructions: 610000001 cycles: 665007556 heartbeat IPC: 0.855696 cumulative IPC: 0.855742 (Simulation time: 3 hr 21 min 56 sec) 
*** Reached end of trace for Core: 1 Repeating trace: ./traces/ligra/ligra_Components-Shortcut.com-lj.ungraph.gcc_6.3.0_O3.drop_21000M.length_250M.champsimtrace.xz
Heartbeat CPU 1 instructions: 500000002 cycles: 670755936 heartbeat IPC: 0.760243 cumulative IPC: 0.679805 (Simulation time: 3 hr 24 min 4 sec) 
Heartbeat CPU 2 instructions: 640000002 cycles: 671638655 heartbeat IPC: 1.08883 cumulative IPC: 0.90071 (Simulation time: 3 hr 24 min 25 sec) 
Heartbeat CPU 1 instructions: 510000003 cycles: 676768618 heartbeat IPC: 1.66315 cumulative IPC: 0.688762 (Simulation time: 3 hr 26 min 18 sec) 
Heartbeat CPU 3 instructions: 620000000 cycles: 676926033 heartbeat IPC: 0.839033 cumulative IPC: 0.85544 (Simulation time: 3 hr 26 min 22 sec) 
Heartbeat CPU 2 instructions: 650000000 cycles: 682623834 heartbeat IPC: 0.910317 cumulative IPC: 0.900869 (Simulation time: 3 hr 28 min 33 sec) 
Heartbeat CPU 1 instructions: 520000000 cycles: 683002749 heartbeat IPC: 1.60407 cumulative IPC: 0.697324 (Simulation time: 3 hr 28 min 40 sec) 
Heartbeat CPU 0 instructions: 190000001 cycles: 686498901 heartbeat IPC: 0.288776 cumulative IPC: 0.203841 (Simulation time: 3 hr 29 min 59 sec) 
Heartbeat CPU 3 instructions: 630000001 cycles: 688683537 heartbeat IPC: 0.850521 cumulative IPC: 0.855354 (Simulation time: 3 hr 30 min 40 sec) 
Heartbeat CPU 1 instructions: 530000002 cycles: 690691481 heartbeat IPC: 1.3006 cumulative IPC: 0.704205 (Simulation time: 3 hr 31 min 23 sec) 
Heartbeat CPU 2 instructions: 660000000 cycles: 691882879 heartbeat IPC: 1.08002 cumulative IPC: 0.903325 (Simulation time: 3 hr 31 min 50 sec) 
Heartbeat CPU 1 instructions: 540000001 cycles: 699037707 heartbeat IPC: 1.19815 cumulative IPC: 0.710246 (Simulation time: 3 hr 34 min 20 sec) 
Heartbeat CPU 3 instructions: 640000000 cycles: 700194883 heartbeat IPC: 0.868708 cumulative IPC: 0.855579 (Simulation time: 3 hr 34 min 39 sec) 
Heartbeat CPU 2 instructions: 670000003 cycles: 700725031 heartbeat IPC: 1.13095 cumulative IPC: 0.906267 (Simulation time: 3 hr 34 min 48 sec) 
Heartbeat CPU 1 instructions: 550000000 cycles: 707416106 heartbeat IPC: 1.19355 cumulative IPC: 0.716108 (Simulation time: 3 hr 37 min 8 sec) 
Heartbeat CPU 2 instructions: 680000001 cycles: 709518143 heartbeat IPC: 1.13725 cumulative IPC: 0.909198 (Simulation time: 3 hr 37 min 54 sec) 
Heartbeat CPU 3 instructions: 650000001 cycles: 711866315 heartbeat IPC: 0.856793 cumulative IPC: 0.855599 (Simulation time: 3 hr 38 min 42 sec) 
Heartbeat CPU 0 instructions: 200000001 cycles: 712694835 heartbeat IPC: 0.381739 cumulative IPC: 0.210536 (Simulation time: 3 hr 39 min 0 sec) 
Heartbeat CPU 1 instructions: 560000001 cycles: 715762347 heartbeat IPC: 1.19814 cumulative IPC: 0.721862 (Simulation time: 3 hr 40 min 7 sec) 
Heartbeat CPU 2 instructions: 690000000 cycles: 718578474 heartbeat IPC: 1.10371 cumulative IPC: 0.911709 (Simulation time: 3 hr 41 min 8 sec) 
Heartbeat CPU 3 instructions: 660000000 cycles: 723524996 heartbeat IPC: 0.85773 cumulative IPC: 0.855634 (Simulation time: 3 hr 42 min 56 sec) 
Heartbeat CPU 1 instructions: 570000002 cycles: 724115515 heartbeat IPC: 1.19715 cumulative IPC: 0.727473 (Simulation time: 3 hr 43 min 8 sec) 
Heartbeat CPU 2 instructions: 700000003 cycles: 728474850 heartbeat IPC: 1.01047 cumulative IPC: 0.913082 (Simulation time: 3 hr 44 min 31 sec) 
Heartbeat CPU 1 instructions: 580000000 cycles: 732474924 heartbeat IPC: 1.19626 cumulative IPC: 0.732948 (Simulation time: 3 hr 45 min 52 sec) 
Heartbeat CPU 3 instructions: 670000001 cycles: 735147321 heartbeat IPC: 0.860413 cumulative IPC: 0.855712 (Simulation time: 3 hr 46 min 46 sec) 
Heartbeat CPU 2 instructions: 710000001 cycles: 739174513 heartbeat IPC: 0.934609 cumulative IPC: 0.913401 (Simulation time: 3 hr 48 min 4 sec) 
Heartbeat CPU 1 instructions: 590000001 cycles: 740839024 heartbeat IPC: 1.19559 cumulative IPC: 0.73829 (Simulation time: 3 hr 48 min 39 sec) 
Heartbeat CPU 3 instructions: 680000000 cycles: 746655798 heartbeat IPC: 0.868925 cumulative IPC: 0.85592 (Simulation time: 3 hr 50 min 29 sec) 
Heartbeat CPU 2 instructions: 720000003 cycles: 749266716 heartbeat IPC: 0.990864 cumulative IPC: 0.914468 (Simulation time: 3 hr 51 min 21 sec) 
Heartbeat CPU 1 instructions: 600000000 cycles: 749354802 heartbeat IPC: 1.17429 cumulative IPC: 0.743358 (Simulation time: 3 hr 51 min 23 sec) 
Heartbeat CPU 0 instructions: 210000000 cycles: 751413833 heartbeat IPC: 0.258271 cumulative IPC: 0.213051 (Simulation time: 3 hr 52 min 2 sec) 
Heartbeat CPU 3 instructions: 690000003 cycles: 758247727 heartbeat IPC: 0.862669 cumulative IPC: 0.856025 (Simulation time: 3 hr 53 min 51 sec) 
Heartbeat CPU 2 instructions: 730000000 cycles: 761234034 heartbeat IPC: 0.835609 cumulative IPC: 0.9132 (Simulation time: 3 hr 54 min 41 sec) 
Heartbeat CPU 3 instructions: 700000001 cycles: 769444683 heartbeat IPC: 0.8931 cumulative IPC: 0.856577 (Simulation time: 3 hr 56 min 52 sec) 
Heartbeat CPU 1 instructions: 610000003 cycles: 769665439 heartbeat IPC: 0.492353 cumulative IPC: 0.736588 (Simulation time: 3 hr 56 min 55 sec) 
Heartbeat CPU 2 instructions: 740000000 cycles: 774061965 heartbeat IPC: 0.779549 cumulative IPC: 0.910937 (Simulation time: 3 hr 58 min 4 sec) 
Heartbeat CPU 3 instructions: 710000001 cycles: 780766439 heartbeat IPC: 0.883255 cumulative IPC: 0.856972 (Simulation time: 3 hr 59 min 52 sec) 
*** Reached end of trace for Core: 2 Repeating trace: ./traces/ligra/ligra_Radii.com-lj.ungraph.gcc_6.3.0_O3.drop_18000M.length_250M.champsimtrace.xz
Heartbeat CPU 2 instructions: 750000003 cycles: 786749153 heartbeat IPC: 0.788197 cumulative IPC: 0.908915 (Simulation time: 4 hr 1 min 31 sec) 
Heartbeat CPU 3 instructions: 720000000 cycles: 792248486 heartbeat IPC: 0.870925 cumulative IPC: 0.857179 (Simulation time: 4 hr 2 min 46 sec) 
Heartbeat CPU 1 instructions: 620000002 cycles: 794169436 heartbeat IPC: 0.408097 cumulative IPC: 0.726236 (Simulation time: 4 hr 3 min 15 sec) 
Heartbeat CPU 2 instructions: 760000001 cycles: 802246462 heartbeat IPC: 0.645273 cumulative IPC: 0.903714 (Simulation time: 4 hr 5 min 24 sec) 
Heartbeat CPU 3 instructions: 730000000 cycles: 803505632 heartbeat IPC: 0.888325 cumulative IPC: 0.857624 (Simulation time: 4 hr 5 min 44 sec) 
Heartbeat CPU 3 instructions: 740000000 cycles: 814978364 heartbeat IPC: 0.871632 cumulative IPC: 0.857825 (Simulation time: 4 hr 8 min 42 sec) 
Heartbeat CPU 2 instructions: 770000000 cycles: 816283142 heartbeat IPC: 0.712419 cumulative IPC: 0.900357 (Simulation time: 4 hr 9 min 1 sec) 
Heartbeat CPU 1 instructions: 630000003 cycles: 818259273 heartbeat IPC: 0.415113 cumulative IPC: 0.716887 (Simulation time: 4 hr 9 min 29 sec) 
*** Reached end of trace for Core: 3 Repeating trace: ./traces/ligra/ligra_Radii.com-lj.ungraph.gcc_6.3.0_O3.drop_12500M.length_250M.champsimtrace.xz
Heartbeat CPU 3 instructions: 750000000 cycles: 826537772 heartbeat IPC: 0.865096 cumulative IPC: 0.857929 (Simulation time: 4 hr 11 min 42 sec) 
Heartbeat CPU 2 instructions: 780000000 cycles: 830037776 heartbeat IPC: 0.727028 cumulative IPC: 0.897426 (Simulation time: 4 hr 12 min 39 sec) 
Heartbeat CPU 3 instructions: 760000002 cycles: 838126457 heartbeat IPC: 0.862911 cumulative IPC: 0.858 (Simulation time: 4 hr 14 min 44 sec) 
Heartbeat CPU 1 instructions: 640000001 cycles: 841248889 heartbeat IPC: 0.434979 cumulative IPC: 0.709028 (Simulation time: 4 hr 15 min 31 sec) 
Heartbeat CPU 2 instructions: 790000002 cycles: 843419585 heartbeat IPC: 0.747283 cumulative IPC: 0.894996 (Simulation time: 4 hr 16 min 5 sec) 
Heartbeat CPU 3 instructions: 770000000 cycles: 849687168 heartbeat IPC: 0.864999 cumulative IPC: 0.858097 (Simulation time: 4 hr 17 min 42 sec) 
Heartbeat CPU 0 instructions: 220000000 cycles: 855682793 heartbeat IPC: 0.0959058 cumulative IPC: 0.198494 (Simulation time: 4 hr 19 min 12 sec) 
Heartbeat CPU 2 instructions: 800000002 cycles: 857918232 heartbeat IPC: 0.68972 cumulative IPC: 0.891458 (Simulation time: 4 hr 19 min 44 sec) 
Heartbeat CPU 3 instructions: 780000003 cycles: 861554703 heartbeat IPC: 0.842635 cumulative IPC: 0.857879 (Simulation time: 4 hr 20 min 36 sec) 
Heartbeat CPU 1 instructions: 650000000 cycles: 865111103 heartbeat IPC: 0.419073 cumulative IPC: 0.700873 (Simulation time: 4 hr 21 min 28 sec) 
Heartbeat CPU 2 instructions: 810000001 cycles: 870913741 heartbeat IPC: 0.769497 cumulative IPC: 0.889603 (Simulation time: 4 hr 22 min 55 sec) 
Heartbeat CPU 3 instructions: 790000001 cycles: 873410887 heartbeat IPC: 0.843442 cumulative IPC: 0.85768 (Simulation time: 4 hr 23 min 30 sec) 
Heartbeat CPU 3 instructions: 800000001 cycles: 885298799 heartbeat IPC: 0.841191 cumulative IPC: 0.857454 (Simulation time: 4 hr 26 min 29 sec) 
Heartbeat CPU 2 instructions: 820000003 cycles: 885300225 heartbeat IPC: 0.695097 cumulative IPC: 0.886382 (Simulation time: 4 hr 26 min 29 sec) 
Heartbeat CPU 1 instructions: 660000000 cycles: 888610282 heartbeat IPC: 0.425547 cumulative IPC: 0.693454 (Simulation time: 4 hr 27 min 23 sec) 
Heartbeat CPU 3 instructions: 810000003 cycles: 897178134 heartbeat IPC: 0.841798 cumulative IPC: 0.857243 (Simulation time: 4 hr 29 min 28 sec) 
Heartbeat CPU 2 instructions: 830000003 cycles: 899155225 heartbeat IPC: 0.721761 cumulative IPC: 0.883797 (Simulation time: 4 hr 29 min 58 sec) 
Heartbeat CPU 3 instructions: 820000000 cycles: 908984401 heartbeat IPC: 0.847008 cumulative IPC: 0.857107 (Simulation time: 4 hr 32 min 21 sec) 
Heartbeat CPU 2 instructions: 840000000 cycles: 912585426 heartbeat IPC: 0.74459 cumulative IPC: 0.881711 (Simulation time: 4 hr 33 min 21 sec) 
Heartbeat CPU 1 instructions: 670000002 cycles: 912818117 heartbeat IPC: 0.413089 cumulative IPC: 0.685881 (Simulation time: 4 hr 33 min 24 sec) 
Heartbeat CPU 3 instructions: 830000000 cycles: 920724785 heartbeat IPC: 0.851761 cumulative IPC: 0.857038 (Simulation time: 4 hr 35 min 40 sec) 
Heartbeat CPU 2 instructions: 850000002 cycles: 922662915 heartbeat IPC: 0.992311 cumulative IPC: 0.882941 (Simulation time: 4 hr 36 min 15 sec) 
Heartbeat CPU 2 instructions: 860000002 cycles: 931801051 heartbeat IPC: 1.09432 cumulative IPC: 0.885051 (Simulation time: 4 hr 39 min 5 sec) 
Heartbeat CPU 0 instructions: 230000001 cycles: 932288417 heartbeat IPC: 0.130539 cumulative IPC: 0.192809 (Simulation time: 4 hr 39 min 15 sec) 
Heartbeat CPU 3 instructions: 840000001 cycles: 932375188 heartbeat IPC: 0.858339 cumulative IPC: 0.857055 (Simulation time: 4 hr 39 min 17 sec) 
Heartbeat CPU 1 instructions: 680000002 cycles: 937326064 heartbeat IPC: 0.408031 cumulative IPC: 0.678485 (Simulation time: 4 hr 41 min 3 sec) 
Heartbeat CPU 2 instructions: 870000000 cycles: 940830262 heartbeat IPC: 1.10752 cumulative IPC: 0.887225 (Simulation time: 4 hr 42 min 22 sec) 
Heartbeat CPU 3 instructions: 850000003 cycles: 944039569 heartbeat IPC: 0.857311 cumulative IPC: 0.857058 (Simulation time: 4 hr 43 min 39 sec) 
Heartbeat CPU 1 instructions: 690000000 cycles: 946948539 heartbeat IPC: 1.03923 cumulative IPC: 0.682216 (Simulation time: 4 hr 44 min 45 sec) 
Heartbeat CPU 2 instructions: 880000000 cycles: 949847559 heartbeat IPC: 1.10898 cumulative IPC: 0.889368 (Simulation time: 4 hr 45 min 57 sec) 
Heartbeat CPU 3 instructions: 860000001 cycles: 955723035 heartbeat IPC: 0.85591 cumulative IPC: 0.857044 (Simulation time: 4 hr 48 min 11 sec) 
Heartbeat CPU 1 instructions: 700000001 cycles: 956276034 heartbeat IPC: 1.0721 cumulative IPC: 0.686086 (Simulation time: 4 hr 48 min 23 sec) 
Heartbeat CPU 2 instructions: 890000000 cycles: 958824626 heartbeat IPC: 1.11395 cumulative IPC: 0.891507 (Simulation time: 4 hr 49 min 20 sec) 
Heartbeat CPU 0 instructions: 240000002 cycles: 960750017 heartbeat IPC: 0.351351 cumulative IPC: 0.197588 (Simulation time: 4 hr 50 min 1 sec) 
Heartbeat CPU 1 instructions: 710000000 cycles: 965737159 heartbeat IPC: 1.05696 cumulative IPC: 0.689783 (Simulation time: 4 hr 51 min 49 sec) 
Heartbeat CPU 3 instructions: 870000000 cycles: 967641197 heartbeat IPC: 0.839055 cumulative IPC: 0.856818 (Simulation time: 4 hr 52 min 26 sec) 
Heartbeat CPU 2 instructions: 900000001 cycles: 968173721 heartbeat IPC: 1.06962 cumulative IPC: 0.893257 (Simulation time: 4 hr 52 min 38 sec) 
Heartbeat CPU 1 instructions: 720000001 cycles: 975726453 heartbeat IPC: 1.00107 cumulative IPC: 0.693025 (Simulation time: 4 hr 55 min 30 sec) 
Heartbeat CPU 2 instructions: 910000001 cycles: 977077143 heartbeat IPC: 1.12316 cumulative IPC: 0.895388 (Simulation time: 4 hr 55 min 58 sec) 
Heartbeat CPU 3 instructions: 880000000 cycles: 979396708 heartbeat IPC: 0.850665 cumulative IPC: 0.856743 (Simulation time: 4 hr 56 min 49 sec) 
Heartbeat CPU 2 instructions: 920000003 cycles: 986161732 heartbeat IPC: 1.10077 cumulative IPC: 0.897313 (Simulation time: 4 hr 59 min 19 sec) 
Heartbeat CPU 1 instructions: 730000000 cycles: 986660156 heartbeat IPC: 0.914603 cumulative IPC: 0.695523 (Simulation time: 4 hr 59 min 31 sec) 
Heartbeat CPU 0 instructions: 250000000 cycles: 988946189 heartbeat IPC: 0.354658 cumulative IPC: 0.202143 (Simulation time: 5 hr 0 min 24 sec) 
Heartbeat CPU 3 instructions: 890000000 cycles: 990902637 heartbeat IPC: 0.869117 cumulative IPC: 0.856889 (Simulation time: 5 hr 1 min 8 sec) 
Heartbeat CPU 2 instructions: 930000000 cycles: 995036893 heartbeat IPC: 1.12674 cumulative IPC: 0.899394 (Simulation time: 5 hr 2 min 36 sec) 
Finished CPU 0 instructions: 200000002 cycles: 982201446 cumulative IPC: 0.203624 (Simulation time: 5 hr 4 min 0 sec) 

ChampSim completed all CPUs

Total Simulation Statistics (not including warmup)

CPU 0 cumulative IPC: 0.203624 instructions: 200000002 cycles: 982201446
ITLB TOTAL     ACCESS:   24586559  HIT:   24586559  MISS:          0  HIT %:        100  MISS %:          0   MPKI: 0
ITLB LOAD      ACCESS:          0  HIT:          0  MISS:          0  HIT %:       -nan  MISS %:       -nan   MPKI: 0
ITLB RFO       ACCESS:          0  HIT:          0  MISS:          0  HIT %:       -nan  MISS %:       -nan   MPKI: 0
ITLB PREFETCH  ACCESS:          0  HIT:          0  MISS:          0  HIT %:       -nan  MISS %:       -nan   MPKI: 0
ITLB WRITEBACK ACCESS:          0  HIT:          0  MISS:          0  HIT %:       -nan  MISS %:       -nan   MPKI: 0
DTLB TOTAL     ACCESS:   41019090  HIT:   36462158  MISS:    4556932  HIT %:    88.8907  MISS %:    11.1093   MPKI: 22.7847
DTLB LOAD      ACCESS:          0  HIT:          0  MISS:          0  HIT %:       -nan  MISS %:       -nan   MPKI: 0
DTLB RFO       ACCESS:          0  HIT:          0  MISS:          0  HIT %:       -nan  MISS %:       -nan   MPKI: 0
DTLB PREFETCH  ACCESS:          0  HIT:          0  MISS:          0  HIT %:       -nan  MISS %:       -nan   MPKI: 0
DTLB WRITEBACK ACCESS:          0  HIT:          0  MISS:          0  HIT %:       -nan  MISS %:       -nan   MPKI: 0
STLB TOTAL     ACCESS:   14592273  HIT:   14526613  MISS:      65660  HIT %:      99.55  MISS %:   0.449964   MPKI: 0.3283
STLB LOAD      ACCESS:          0  HIT:          0  MISS:          0  HIT %:       -nan  MISS %:       -nan   MPKI: 0
STLB RFO       ACCESS:          0  HIT:          0  MISS:          0  HIT %:       -nan  MISS %:       -nan   MPKI: 0
STLB PREFETCH  ACCESS:          0  HIT:          0  MISS:          0  HIT %:       -nan  MISS %:       -nan   MPKI: 0
STLB WRITEBACK ACCESS:          0  HIT:          0  MISS:          0  HIT %:       -nan  MISS %:       -nan   MPKI: 0
L1D TOTAL     ACCESS:   83079869  HIT:   72222725  MISS:   10857144  HIT %:    86.9317  MISS %:    13.0683   MPKI: 54.2857
L1D LOAD      ACCESS:   43052936  HIT:   33885433  MISS:    9167503  HIT %:    78.7064  MISS %:    21.2936   MPKI: 45.8375
L1D RFO       ACCESS:    2010314  HIT:    1543678  MISS:     466636  HIT %:    76.7879  MISS %:    23.2121   MPKI: 2.33318
L1D PREFETCH  ACCESS:   38016619  HIT:   36793614  MISS:    1223005  HIT %:     96.783  MISS %:    3.21703   MPKI: 6.11502
L1D WRITEBACK ACCESS:          0  HIT:          0  MISS:          0  HIT %:       -nan  MISS %:       -nan   MPKI: 0
L1I TOTAL     ACCESS:   25242858  HIT:   25242858  MISS:          0  HIT %:        100  MISS %:          0   MPKI: 0
L1I LOAD      ACCESS:   25242858  HIT:   25242858  MISS:          0  HIT %:        100  MISS %:          0   MPKI: 0
L1I RFO       ACCESS:          0  HIT:          0  MISS:          0  HIT %:       -nan  MISS %:       -nan   MPKI: 0
L1I PREFETCH  ACCESS:          0  HIT:          0  MISS:          0  HIT %:       -nan  MISS %:       -nan   MPKI: 0
L1I WRITEBACK ACCESS:          0  HIT:          0  MISS:          0  HIT %:       -nan  MISS %:       -nan   MPKI: 0
L2C TOTAL     ACCESS:   23645298  HIT:   13158711  MISS:   10486587  HIT %:    55.6504  MISS %:    44.3496   MPKI: 52.4329
L2C LOAD      ACCESS:    9148219  HIT:    2208516  MISS:    6939703  HIT %:    24.1415  MISS %:    75.8585   MPKI: 34.6985
L2C RFO       ACCESS:     466633  HIT:     280369  MISS:     186264  HIT %:    60.0834  MISS %:    39.9166   MPKI: 0.93132
L2C PREFETCH  ACCESS:    8742218  HIT:    5518106  MISS:    3224112  HIT %:    63.1202  MISS %:    36.8798   MPKI: 16.1206
L2C WRITEBACK ACCESS:    1269657  HIT:    1183292  MISS:      86365  HIT %:    93.1978  MISS %:    6.80223   MPKI: 0.431825
PSCL5 TOTAL     ACCESS:    3989536  HIT:    3989536  MISS:          0  HIT %:        100  MISS %:          0   MPKI: 0
PSCL5 LOAD      ACCESS:          0  HIT:          0  MISS:          0  HIT %:       -nan  MISS %:       -nan   MPKI: 0
PSCL5 RFO       ACCESS:          0  HIT:          0  MISS:          0  HIT %:       -nan  MISS %:       -nan   MPKI: 0
PSCL5 PREFETCH  ACCESS:          0  HIT:          0  MISS:          0  HIT %:       -nan  MISS %:       -nan   MPKI: 0
PSCL5 WRITEBACK ACCESS:          0  HIT:          0  MISS:          0  HIT %:       -nan  MISS %:       -nan   MPKI: 0
PSCL4 TOTAL     ACCESS:    3989536  HIT:    3989536  MISS:          0  HIT %:        100  MISS %:          0   MPKI: 0
PSCL4 LOAD      ACCESS:          0  HIT:          0  MISS:          0  HIT %:       -nan  MISS %:       -nan   MPKI: 0
PSCL4 RFO       ACCESS:          0  HIT:          0  MISS:          0  HIT %:       -nan  MISS %:       -nan   MPKI: 0
PSCL4 PREFETCH  ACCESS:          0  HIT:          0  MISS:          0  HIT %:       -nan  MISS %:       -nan   MPKI: 0
PSCL4 WRITEBACK ACCESS:          0  HIT:          0  MISS:          0  HIT %:       -nan  MISS %:       -nan   MPKI: 0
PSCL3 TOTAL     ACCESS:    3989536  HIT:    3989536  MISS:          0  HIT %:        100  MISS %:          0   MPKI: 0
PSCL3 LOAD      ACCESS:          0  HIT:          0  MISS:          0  HIT %:       -nan  MISS %:       -nan   MPKI: 0
PSCL3 RFO       ACCESS:          0  HIT:          0  MISS:          0  HIT %:       -nan  MISS %:       -nan   MPKI: 0
PSCL3 PREFETCH  ACCESS:          0  HIT:          0  MISS:          0  HIT %:       -nan  MISS %:       -nan   MPKI: 0
PSCL3 WRITEBACK ACCESS:          0  HIT:          0  MISS:          0  HIT %:       -nan  MISS %:       -nan   MPKI: 0
PSCL2 TOTAL     ACCESS:    3972947  HIT:    3960499  MISS:      12448  HIT %:    99.6867  MISS %:   0.313319   MPKI: 0.06224
PSCL2 LOAD      ACCESS:          0  HIT:          0  MISS:          0  HIT %:       -nan  MISS %:       -nan   MPKI: 0
PSCL2 RFO       ACCESS:          0  HIT:          0  MISS:          0  HIT %:       -nan  MISS %:       -nan   MPKI: 0
PSCL2 PREFETCH  ACCESS:          0  HIT:          0  MISS:          0  HIT %:       -nan  MISS %:       -nan   MPKI: 0
PSCL2 WRITEBACK ACCESS:          0  HIT:          0  MISS:          0  HIT %:       -nan  MISS %:       -nan   MPKI: 0
LLC TOTAL     ACCESS:   11254762  HIT:    6241120  MISS:    5013642  HIT %:    55.4531  MISS %:    44.5469   MPKI: 25.0682
LLC LOAD      ACCESS:    6839296  HIT:    4471095  MISS:    2368201  HIT %:    65.3736  MISS %:    34.6264   MPKI: 11.841
LLC RFO       ACCESS:     186262  HIT:      79124  MISS:     107138  HIT %:    42.4799  MISS %:    57.5201   MPKI: 0.53569
LLC PREFETCH  ACCESS:    3324518  HIT:     880084  MISS:    2444434  HIT %:    26.4725  MISS %:    73.5275   MPKI: 12.2222
LLC WRITEBACK ACCESS:     854543  HIT:     795431  MISS:      59112  HIT %:    93.0826  MISS %:    6.91738   MPKI: 0.29556

RAW hits: 78965
Loads Generated: 76840588
Loads sent to L1D: 76761622
Stores Generated: 2188776
Stores sent to L1D: 2188776

CPU 1 cumulative IPC: 0.696847 instructions: 684443808 cycles: 982201446
ITLB TOTAL     ACCESS:  119665611  HIT:  119665608  MISS:          3  HIT %:        100  MISS %: 2.50699e-06   MPKI: 4.38312e-06
ITLB LOAD      ACCESS:          0  HIT:          0  MISS:          0  HIT %:       -nan  MISS %:       -nan   MPKI: 0
ITLB RFO       ACCESS:          0  HIT:          0  MISS:          0  HIT %:       -nan  MISS %:       -nan   MPKI: 0
ITLB PREFETCH  ACCESS:          0  HIT:          0  MISS:          0  HIT %:       -nan  MISS %:       -nan   MPKI: 0
ITLB WRITEBACK ACCESS:          0  HIT:          0  MISS:          0  HIT %:       -nan  MISS %:       -nan   MPKI: 0
DTLB TOTAL     ACCESS:  142399774  HIT:  136773632  MISS:    5626142  HIT %:    96.0491  MISS %:    3.95095   MPKI: 8.22002
DTLB LOAD      ACCESS:          0  HIT:          0  MISS:          0  HIT %:       -nan  MISS %:       -nan   MPKI: 0
DTLB RFO       ACCESS:          0  HIT:          0  MISS:          0  HIT %:       -nan  MISS %:       -nan   MPKI: 0
DTLB PREFETCH  ACCESS:          0  HIT:          0  MISS:          0  HIT %:       -nan  MISS %:       -nan   MPKI: 0
DTLB WRITEBACK ACCESS:          0  HIT:          0  MISS:          0  HIT %:       -nan  MISS %:       -nan   MPKI: 0
STLB TOTAL     ACCESS:   58679301  HIT:   58456434  MISS:     222867  HIT %:    99.6202  MISS %:   0.379805   MPKI: 0.325618
STLB LOAD      ACCESS:          0  HIT:          0  MISS:          0  HIT %:       -nan  MISS %:       -nan   MPKI: 0
STLB RFO       ACCESS:          0  HIT:          0  MISS:          0  HIT %:       -nan  MISS %:       -nan   MPKI: 0
STLB PREFETCH  ACCESS:          0  HIT:          0  MISS:          0  HIT %:       -nan  MISS %:       -nan   MPKI: 0
STLB WRITEBACK ACCESS:          0  HIT:          0  MISS:          0  HIT %:       -nan  MISS %:       -nan   MPKI: 0
L1D TOTAL     ACCESS:  309714070  HIT:  281291301  MISS:   28422769  HIT %:    90.8229  MISS %:     9.1771   MPKI: 41.5268
L1D LOAD      ACCESS:  104966626  HIT:   88995377  MISS:   15971249  HIT %:    84.7845  MISS %:    15.2155   MPKI: 23.3346
L1D RFO       ACCESS:   12971083  HIT:    6932340  MISS:    6038743  HIT %:    53.4446  MISS %:    46.5554   MPKI: 8.82285
L1D PREFETCH  ACCESS:  191776361  HIT:  185363584  MISS:    6412777  HIT %:    96.6561  MISS %:    3.34388   MPKI: 9.36933
L1D WRITEBACK ACCESS:          0  HIT:          0  MISS:          0  HIT %:       -nan  MISS %:       -nan   MPKI: 0
L1I TOTAL     ACCESS:  137356953  HIT:  137356900  MISS:         53  HIT %:        100  MISS %: 3.85856e-05   MPKI: 7.74351e-05
L1I LOAD      ACCESS:  137356953  HIT:  137356900  MISS:         53  HIT %:        100  MISS %: 3.85856e-05   MPKI: 7.74351e-05
L1I RFO       ACCESS:          0  HIT:          0  MISS:          0  HIT %:       -nan  MISS %:       -nan   MPKI: 0
L1I PREFETCH  ACCESS:          0  HIT:          0  MISS:          0  HIT %:       -nan  MISS %:       -nan   MPKI: 0
L1I WRITEBACK ACCESS:          0  HIT:          0  MISS:          0  HIT %:       -nan  MISS %:       -nan   MPKI: 0
L2C TOTAL     ACCESS:   61252291  HIT:   44484643  MISS:   16767648  HIT %:    72.6253  MISS %:    27.3747   MPKI: 24.4982
L2C LOAD      ACCESS:   14919020  HIT:   12918818  MISS:    2000202  HIT %:    86.5929  MISS %:    13.4071   MPKI: 2.92238
L2C RFO       ACCESS:    6038743  HIT:         45  MISS:    6038698  HIT %: 0.000745188  MISS %:    99.9993   MPKI: 8.82278
L2C PREFETCH  ACCESS:   33217383  HIT:   24696197  MISS:    8521186  HIT %:    74.3472  MISS %:    25.6528   MPKI: 12.4498
L2C WRITEBACK ACCESS:    6210113  HIT:    6031919  MISS:     178194  HIT %:    97.1306  MISS %:    2.86942   MPKI: 0.260349
PSCL5 TOTAL     ACCESS:     866673  HIT:     866673  MISS:          0  HIT %:        100  MISS %:          0   MPKI: 0
PSCL5 LOAD      ACCESS:          0  HIT:          0  MISS:          0  HIT %:       -nan  MISS %:       -nan   MPKI: 0
PSCL5 RFO       ACCESS:          0  HIT:          0  MISS:          0  HIT %:       -nan  MISS %:       -nan   MPKI: 0
PSCL5 PREFETCH  ACCESS:          0  HIT:          0  MISS:          0  HIT %:       -nan  MISS %:       -nan   MPKI: 0
PSCL5 WRITEBACK ACCESS:          0  HIT:          0  MISS:          0  HIT %:       -nan  MISS %:       -nan   MPKI: 0
PSCL4 TOTAL     ACCESS:     866673  HIT:     866673  MISS:          0  HIT %:        100  MISS %:          0   MPKI: 0
PSCL4 LOAD      ACCESS:          0  HIT:          0  MISS:          0  HIT %:       -nan  MISS %:       -nan   MPKI: 0
PSCL4 RFO       ACCESS:          0  HIT:          0  MISS:          0  HIT %:       -nan  MISS %:       -nan   MPKI: 0
PSCL4 PREFETCH  ACCESS:          0  HIT:          0  MISS:          0  HIT %:       -nan  MISS %:       -nan   MPKI: 0
PSCL4 WRITEBACK ACCESS:          0  HIT:          0  MISS:          0  HIT %:       -nan  MISS %:       -nan   MPKI: 0
PSCL3 TOTAL     ACCESS:     866673  HIT:     866673  MISS:          0  HIT %:        100  MISS %:          0   MPKI: 0
PSCL3 LOAD      ACCESS:          0  HIT:          0  MISS:          0  HIT %:       -nan  MISS %:       -nan   MPKI: 0
PSCL3 RFO       ACCESS:          0  HIT:          0  MISS:          0  HIT %:       -nan  MISS %:       -nan   MPKI: 0
PSCL3 PREFETCH  ACCESS:          0  HIT:          0  MISS:          0  HIT %:       -nan  MISS %:       -nan   MPKI: 0
PSCL3 WRITEBACK ACCESS:          0  HIT:          0  MISS:          0  HIT %:       -nan  MISS %:       -nan   MPKI: 0
PSCL2 TOTAL     ACCESS:     865855  HIT:     865375  MISS:        480  HIT %:    99.9446  MISS %:  0.0554365   MPKI: 0.000701299
PSCL2 LOAD      ACCESS:          0  HIT:          0  MISS:          0  HIT %:       -nan  MISS %:       -nan   MPKI: 0
PSCL2 RFO       ACCESS:          0  HIT:          0  MISS:          0  HIT %:       -nan  MISS %:       -nan   MPKI: 0
PSCL2 PREFETCH  ACCESS:          0  HIT:          0  MISS:          0  HIT %:       -nan  MISS %:       -nan   MPKI: 0
PSCL2 WRITEBACK ACCESS:          0  HIT:          0  MISS:          0  HIT %:       -nan  MISS %:       -nan   MPKI: 0
LLC TOTAL     ACCESS:   22799543  HIT:    8209748  MISS:   14589795  HIT %:    36.0084  MISS %:    63.9916   MPKI: 21.3163
LLC LOAD      ACCESS:    1792290  HIT:    1670377  MISS:     121913  HIT %:    93.1979  MISS %:    6.80208   MPKI: 0.17812
LLC RFO       ACCESS:    6038698  HIT:         34  MISS:    6038664  HIT %: 0.000563035  MISS %:    99.9994   MPKI: 8.82273
LLC PREFETCH  ACCESS:    8729098  HIT:     381322  MISS:    8347776  HIT %:     4.3684  MISS %:    95.6316   MPKI: 12.1964
LLC WRITEBACK ACCESS:    6210089  HIT:    6157061  MISS:      53028  HIT %:    99.1461  MISS %:   0.853901   MPKI: 0.077476

RAW hits: 11697
Loads Generated: 197779571
Loads sent to L1D: 197767873
Stores Generated: 77357610
Stores sent to L1D: 77357610

CPU 2 cumulative IPC: 0.90021 instructions: 884187723 cycles: 982201446
ITLB TOTAL     ACCESS:  162807640  HIT:  162807640  MISS:          0  HIT %:        100  MISS %:          0   MPKI: 0
ITLB LOAD      ACCESS:          0  HIT:          0  MISS:          0  HIT %:       -nan  MISS %:       -nan   MPKI: 0
ITLB RFO       ACCESS:          0  HIT:          0  MISS:          0  HIT %:       -nan  MISS %:       -nan   MPKI: 0
ITLB PREFETCH  ACCESS:          0  HIT:          0  MISS:          0  HIT %:       -nan  MISS %:       -nan   MPKI: 0
ITLB WRITEBACK ACCESS:          0  HIT:          0  MISS:          0  HIT %:       -nan  MISS %:       -nan   MPKI: 0
DTLB TOTAL     ACCESS:  254965425  HIT:  254564393  MISS:     401032  HIT %:    99.8427  MISS %:   0.157289   MPKI: 0.45356
DTLB LOAD      ACCESS:          0  HIT:          0  MISS:          0  HIT %:       -nan  MISS %:       -nan   MPKI: 0
DTLB RFO       ACCESS:          0  HIT:          0  MISS:          0  HIT %:       -nan  MISS %:       -nan   MPKI: 0
DTLB PREFETCH  ACCESS:          0  HIT:          0  MISS:          0  HIT %:       -nan  MISS %:       -nan   MPKI: 0
DTLB WRITEBACK ACCESS:          0  HIT:          0  MISS:          0  HIT %:       -nan  MISS %:       -nan   MPKI: 0
STLB TOTAL     ACCESS:   98074644  HIT:   98000825  MISS:      73819  HIT %:    99.9247  MISS %:  0.0752682   MPKI: 0.0834879
STLB LOAD      ACCESS:          0  HIT:          0  MISS:          0  HIT %:       -nan  MISS %:       -nan   MPKI: 0
STLB RFO       ACCESS:          0  HIT:          0  MISS:          0  HIT %:       -nan  MISS %:       -nan   MPKI: 0
STLB PREFETCH  ACCESS:          0  HIT:          0  MISS:          0  HIT %:       -nan  MISS %:       -nan   MPKI: 0
STLB WRITEBACK ACCESS:          0  HIT:          0  MISS:          0  HIT %:       -nan  MISS %:       -nan   MPKI: 0
L1D TOTAL     ACCESS:  624915231  HIT:  602830224  MISS:   22085007  HIT %:    96.4659  MISS %:    3.53408   MPKI: 24.9777
L1D LOAD      ACCESS:  129708760  HIT:  127953542  MISS:    1755218  HIT %:    98.6468  MISS %:     1.3532   MPKI: 1.98512
L1D RFO       ACCESS:  143830124  HIT:  134124125  MISS:    9705999  HIT %:    93.2518  MISS %:    6.74824   MPKI: 10.9773
L1D PREFETCH  ACCESS:  351376347  HIT:  340752557  MISS:   10623790  HIT %:    96.9765  MISS %:    3.02348   MPKI: 12.0153
L1D WRITEBACK ACCESS:          0  HIT:          0  MISS:          0  HIT %:       -nan  MISS %:       -nan   MPKI: 0
L1I TOTAL     ACCESS:  163402011  HIT:  163402010  MISS:          1  HIT %:        100  MISS %: 6.11988e-07   MPKI: 1.13098e-06
L1I LOAD      ACCESS:  163402011  HIT:  163402010  MISS:          1  HIT %:        100  MISS %: 6.11988e-07   MPKI: 1.13098e-06
L1I RFO       ACCESS:          0  HIT:          0  MISS:          0  HIT %:       -nan  MISS %:       -nan   MPKI: 0
L1I PREFETCH  ACCESS:          0  HIT:          0  MISS:          0  HIT %:       -nan  MISS %:       -nan   MPKI: 0
L1I WRITEBACK ACCESS:          0  HIT:          0  MISS:          0  HIT %:       -nan  MISS %:       -nan   MPKI: 0
L2C TOTAL     ACCESS:  123494452  HIT:  104714425  MISS:   18780027  HIT %:    84.7928  MISS %:    15.2072   MPKI: 21.2399
L2C LOAD      ACCESS:     722399  HIT:     579554  MISS:     142845  HIT %:    80.2263  MISS %:    19.7737   MPKI: 0.161555
L2C RFO       ACCESS:    9705587  HIT:     703479  MISS:    9002108  HIT %:    7.24819  MISS %:    92.7518   MPKI: 10.1812
L2C PREFETCH  ACCESS:  102864524  HIT:   93604731  MISS:    9259793  HIT %:    90.9981  MISS %:    9.00193   MPKI: 10.4727
L2C WRITEBACK ACCESS:    9730362  HIT:    9367662  MISS:     362700  HIT %:    96.2725  MISS %:    3.72751   MPKI: 0.410207
PSCL5 TOTAL     ACCESS:     466181  HIT:     466181  MISS:          0  HIT %:        100  MISS %:          0   MPKI: 0
PSCL5 LOAD      ACCESS:          0  HIT:          0  MISS:          0  HIT %:       -nan  MISS %:       -nan   MPKI: 0
PSCL5 RFO       ACCESS:          0  HIT:          0  MISS:          0  HIT %:       -nan  MISS %:       -nan   MPKI: 0
PSCL5 PREFETCH  ACCESS:          0  HIT:          0  MISS:          0  HIT %:       -nan  MISS %:       -nan   MPKI: 0
PSCL5 WRITEBACK ACCESS:          0  HIT:          0  MISS:          0  HIT %:       -nan  MISS %:       -nan   MPKI: 0
PSCL4 TOTAL     ACCESS:     466179  HIT:     466179  MISS:          0  HIT %:        100  MISS %:          0   MPKI: 0
PSCL4 LOAD      ACCESS:          0  HIT:          0  MISS:          0  HIT %:       -nan  MISS %:       -nan   MPKI: 0
PSCL4 RFO       ACCESS:          0  HIT:          0  MISS:          0  HIT %:       -nan  MISS %:       -nan   MPKI: 0
PSCL4 PREFETCH  ACCESS:          0  HIT:          0  MISS:          0  HIT %:       -nan  MISS %:       -nan   MPKI: 0
PSCL4 WRITEBACK ACCESS:          0  HIT:          0  MISS:          0  HIT %:       -nan  MISS %:       -nan   MPKI: 0
PSCL3 TOTAL     ACCESS:     466179  HIT:     466179  MISS:          0  HIT %:        100  MISS %:          0   MPKI: 0
PSCL3 LOAD      ACCESS:          0  HIT:          0  MISS:          0  HIT %:       -nan  MISS %:       -nan   MPKI: 0
PSCL3 RFO       ACCESS:          0  HIT:          0  MISS:          0  HIT %:       -nan  MISS %:       -nan   MPKI: 0
PSCL3 PREFETCH  ACCESS:          0  HIT:          0  MISS:          0  HIT %:       -nan  MISS %:       -nan   MPKI: 0
PSCL3 WRITEBACK ACCESS:          0  HIT:          0  MISS:          0  HIT %:       -nan  MISS %:       -nan   MPKI: 0
PSCL2 TOTAL     ACCESS:     460889  HIT:     460728  MISS:        161  HIT %:    99.9651  MISS %:  0.0349325   MPKI: 0.000182088
PSCL2 LOAD      ACCESS:          0  HIT:          0  MISS:          0  HIT %:       -nan  MISS %:       -nan   MPKI: 0
PSCL2 RFO       ACCESS:          0  HIT:          0  MISS:          0  HIT %:       -nan  MISS %:       -nan   MPKI: 0
PSCL2 PREFETCH  ACCESS:          0  HIT:          0  MISS:          0  HIT %:       -nan  MISS %:       -nan   MPKI: 0
PSCL2 WRITEBACK ACCESS:          0  HIT:          0  MISS:          0  HIT %:       -nan  MISS %:       -nan   MPKI: 0
LLC TOTAL     ACCESS:   27565781  HIT:   20846612  MISS:    6719169  HIT %:     75.625  MISS %:     24.375   MPKI: 7.59926
LLC LOAD      ACCESS:     101827  HIT:      81475  MISS:      20352  HIT %:    80.0132  MISS %:    19.9868   MPKI: 0.0230177
LLC RFO       ACCESS:    9001945  HIT:    5735919  MISS:    3266026  HIT %:    63.7187  MISS %:    36.2813   MPKI: 3.69382
LLC PREFETCH  ACCESS:    9300938  HIT:    5937950  MISS:    3362988  HIT %:    63.8425  MISS %:    36.1575   MPKI: 3.80348
LLC WRITEBACK ACCESS:    9148490  HIT:    9088757  MISS:      59733  HIT %:    99.3471  MISS %:   0.652927   MPKI: 0.0675569

RAW hits: 13025482
Loads Generated: 226103104
Loads sent to L1D: 213077621
Stores Generated: 189762914
Stores sent to L1D: 189762918

CPU 3 cumulative IPC: 0.856904 instructions: 841652745 cycles: 982201447
ITLB TOTAL     ACCESS:  154759259  HIT:  154759259  MISS:          0  HIT %:        100  MISS %:          0   MPKI: 0
ITLB LOAD      ACCESS:          0  HIT:          0  MISS:          0  HIT %:       -nan  MISS %:       -nan   MPKI: 0
ITLB RFO       ACCESS:          0  HIT:          0  MISS:          0  HIT %:       -nan  MISS %:       -nan   MPKI: 0
ITLB PREFETCH  ACCESS:          0  HIT:          0  MISS:          0  HIT %:       -nan  MISS %:       -nan   MPKI: 0
ITLB WRITEBACK ACCESS:          0  HIT:          0  MISS:          0  HIT %:       -nan  MISS %:       -nan   MPKI: 0
DTLB TOTAL     ACCESS:  109247736  HIT:  109230752  MISS:      16984  HIT %:    99.9845  MISS %:  0.0155463   MPKI: 0.0201793
DTLB LOAD      ACCESS:          0  HIT:          0  MISS:          0  HIT %:       -nan  MISS %:       -nan   MPKI: 0
DTLB RFO       ACCESS:          0  HIT:          0  MISS:          0  HIT %:       -nan  MISS %:       -nan   MPKI: 0
DTLB PREFETCH  ACCESS:          0  HIT:          0  MISS:          0  HIT %:       -nan  MISS %:       -nan   MPKI: 0
DTLB WRITEBACK ACCESS:          0  HIT:          0  MISS:          0  HIT %:       -nan  MISS %:       -nan   MPKI: 0
STLB TOTAL     ACCESS:   27896682  HIT:   27879695  MISS:      16987  HIT %:    99.9391  MISS %:  0.0608925   MPKI: 0.0201829
STLB LOAD      ACCESS:          0  HIT:          0  MISS:          0  HIT %:       -nan  MISS %:       -nan   MPKI: 0
STLB RFO       ACCESS:          0  HIT:          0  MISS:          0  HIT %:       -nan  MISS %:       -nan   MPKI: 0
STLB PREFETCH  ACCESS:          0  HIT:          0  MISS:          0  HIT %:       -nan  MISS %:       -nan   MPKI: 0
STLB WRITEBACK ACCESS:          0  HIT:          0  MISS:          0  HIT %:       -nan  MISS %:       -nan   MPKI: 0
L1D TOTAL     ACCESS:  275796532  HIT:  274709950  MISS:    1086582  HIT %:     99.606  MISS %:    0.39398   MPKI: 1.29101
L1D LOAD      ACCESS:   80675115  HIT:   80671957  MISS:       3158  HIT %:    99.9961  MISS %: 0.00391447   MPKI: 0.00375214
L1D RFO       ACCESS:   41930659  HIT:   41709765  MISS:     220894  HIT %:    99.4732  MISS %:   0.526808   MPKI: 0.262453
L1D PREFETCH  ACCESS:  153190758  HIT:  152328228  MISS:     862530  HIT %:     99.437  MISS %:   0.563043   MPKI: 1.02481
L1D WRITEBACK ACCESS:          0  HIT:          0  MISS:          0  HIT %:       -nan  MISS %:       -nan   MPKI: 0
L1I TOTAL     ACCESS:  165350699  HIT:  165350699  MISS:          0  HIT %:        100  MISS %:          0   MPKI: 0
L1I LOAD      ACCESS:  165350699  HIT:  165350699  MISS:          0  HIT %:        100  MISS %:          0   MPKI: 0
L1I RFO       ACCESS:          0  HIT:          0  MISS:          0  HIT %:       -nan  MISS %:       -nan   MPKI: 0
L1I PREFETCH  ACCESS:          0  HIT:          0  MISS:          0  HIT %:       -nan  MISS %:       -nan   MPKI: 0
L1I WRITEBACK ACCESS:          0  HIT:          0  MISS:          0  HIT %:       -nan  MISS %:       -nan   MPKI: 0
L2C TOTAL     ACCESS:   30850758  HIT:   29739842  MISS:    1110916  HIT %:    96.3991  MISS %:    3.60094   MPKI: 1.31992
L2C LOAD      ACCESS:       2488  HIT:          8  MISS:       2480  HIT %:   0.321543  MISS %:    99.6785   MPKI: 0.00294658
L2C RFO       ACCESS:     220894  HIT:          0  MISS:     220894  HIT %:          0  MISS %:        100   MPKI: 0.262453
L2C PREFETCH  ACCESS:   29872186  HIT:   29008965  MISS:     863221  HIT %:    97.1103  MISS %:    2.88971   MPKI: 1.02563
L2C WRITEBACK ACCESS:     220890  HIT:     198886  MISS:      22004  HIT %:    90.0385  MISS %:    9.96152   MPKI: 0.0261438
PSCL5 TOTAL     ACCESS:     534300  HIT:     534300  MISS:          0  HIT %:        100  MISS %:          0   MPKI: 0
PSCL5 LOAD      ACCESS:          0  HIT:          0  MISS:          0  HIT %:       -nan  MISS %:       -nan   MPKI: 0
PSCL5 RFO       ACCESS:          0  HIT:          0  MISS:          0  HIT %:       -nan  MISS %:       -nan   MPKI: 0
PSCL5 PREFETCH  ACCESS:          0  HIT:          0  MISS:          0  HIT %:       -nan  MISS %:       -nan   MPKI: 0
PSCL5 WRITEBACK ACCESS:          0  HIT:          0  MISS:          0  HIT %:       -nan  MISS %:       -nan   MPKI: 0
PSCL4 TOTAL     ACCESS:     534300  HIT:     534300  MISS:          0  HIT %:        100  MISS %:          0   MPKI: 0
PSCL4 LOAD      ACCESS:          0  HIT:          0  MISS:          0  HIT %:       -nan  MISS %:       -nan   MPKI: 0
PSCL4 RFO       ACCESS:          0  HIT:          0  MISS:          0  HIT %:       -nan  MISS %:       -nan   MPKI: 0
PSCL4 PREFETCH  ACCESS:          0  HIT:          0  MISS:          0  HIT %:       -nan  MISS %:       -nan   MPKI: 0
PSCL4 WRITEBACK ACCESS:          0  HIT:          0  MISS:          0  HIT %:       -nan  MISS %:       -nan   MPKI: 0
PSCL3 TOTAL     ACCESS:     534300  HIT:     534300  MISS:          0  HIT %:        100  MISS %:          0   MPKI: 0
PSCL3 LOAD      ACCESS:          0  HIT:          0  MISS:          0  HIT %:       -nan  MISS %:       -nan   MPKI: 0
PSCL3 RFO       ACCESS:          0  HIT:          0  MISS:          0  HIT %:       -nan  MISS %:       -nan   MPKI: 0
PSCL3 PREFETCH  ACCESS:          0  HIT:          0  MISS:          0  HIT %:       -nan  MISS %:       -nan   MPKI: 0
PSCL3 WRITEBACK ACCESS:          0  HIT:          0  MISS:          0  HIT %:       -nan  MISS %:       -nan   MPKI: 0
PSCL2 TOTAL     ACCESS:     533448  HIT:     533440  MISS:          8  HIT %:    99.9985  MISS %: 0.00149968   MPKI: 9.50511e-06
PSCL2 LOAD      ACCESS:          0  HIT:          0  MISS:          0  HIT %:       -nan  MISS %:       -nan   MPKI: 0
PSCL2 RFO       ACCESS:          0  HIT:          0  MISS:          0  HIT %:       -nan  MISS %:       -nan   MPKI: 0
PSCL2 PREFETCH  ACCESS:          0  HIT:          0  MISS:          0  HIT %:       -nan  MISS %:       -nan   MPKI: 0
PSCL2 WRITEBACK ACCESS:          0  HIT:          0  MISS:          0  HIT %:       -nan  MISS %:       -nan   MPKI: 0
LLC TOTAL     ACCESS:    1309807  HIT:      55529  MISS:    1254278  HIT %:    4.23948  MISS %:    95.7605   MPKI: 1.49026
LLC LOAD      ACCESS:       2480  HIT:          0  MISS:       2480  HIT %:          0  MISS %:        100   MPKI: 0.00294658
LLC RFO       ACCESS:     220894  HIT:          0  MISS:     220894  HIT %:          0  MISS %:        100   MPKI: 0.262453
LLC PREFETCH  ACCESS:     863221  HIT:          7  MISS:     863214  HIT %: 0.000810916  MISS %:    99.9992   MPKI: 1.02562
LLC WRITEBACK ACCESS:     220895  HIT:      55354  MISS:     165541  HIT %:     25.059  MISS %:     74.941   MPKI: 0.196686

RAW hits: 11065911
Loads Generated: 117868669
Loads sent to L1D: 106802758
Stores Generated: 42411240
Stores sent to L1D: 42411238

Region of Interest Statistics

CPU 0 cumulative IPC: 0.203624 instructions: 200000002 cycles: 982201446
ITLB TOTAL     ACCESS:   24586559  HIT:   24586559  MISS:          0  HIT %:        100  MISS %:          0   MPKI: 0
ITLB LOAD TRANSLATION ACCESS:   24586559  HIT:   24586559  MISS:          0  HIT %:        100  MISS %:          0   MPKI: 0
ITLB PREFETCH  REQUESTED:          0  ISSUED:          0  USEFUL:          0  USELESS:          0
ITLB USEFUL LOAD PREFETCHES:          0 PREFETCH ISSUED TO LOWER LEVEL:          0  ACCURACY: -nan
ITLB TIMELY PREFETCHES:          0 LATE PREFETCHES: 0 DROPPED PREFETCHES: 0
ITLB PREFETCHES SAME FILL-ORIGIN LEVEL: 0 DIFFERENT FILL-ORIGIN LEVEL: 0
ITLB AVERAGE MISS LATENCY: -nan cycles
ITLB RQ	ACCESS:   25242858	FORWARD:          0	MERGED:     656299	TO_CACHE:   24586559

DTLB TOTAL     ACCESS:   41019090  HIT:   36462158  MISS:    4556932  HIT %:    88.8907  MISS %:    11.1093   MPKI: 22.7847
DTLB LOAD TRANSLATION ACCESS:   41019090  HIT:   36462158  MISS:    4556932  HIT %:    88.8907  MISS %:    11.1093   MPKI: 22.7847
DTLB PREFETCH  REQUESTED:          0  ISSUED:          0  USEFUL:          0  USELESS:          0
DTLB USEFUL LOAD PREFETCHES:          0 PREFETCH ISSUED TO LOWER LEVEL:          0  ACCURACY: -nan
DTLB TIMELY PREFETCHES:          0 LATE PREFETCHES: 0 DROPPED PREFETCHES: 0
DTLB PREFETCHES SAME FILL-ORIGIN LEVEL: 0 DIFFERENT FILL-ORIGIN LEVEL: 0
DTLB AVERAGE MISS LATENCY: 13.7719 cycles
DTLB RQ	ACCESS:   45425356	FORWARD:          0	MERGED:    4120011	TO_CACHE:   41305345

STLB TOTAL     ACCESS:   14592273  HIT:   14526613  MISS:      65660  HIT %:      99.55  MISS %:   0.449964   MPKI: 0.3283
STLB LOAD TRANSLATION ACCESS:    4556932  HIT:    4497930  MISS:      59002  HIT %:    98.7052  MISS %:    1.29477   MPKI: 0.29501
STLB TRANSLATION FROM L1D PREFETCHER ACCESS:   10035341  HIT:   10028683  MISS:       6658  HIT %:    99.9337  MISS %:  0.0663455   MPKI: 0.03329
STLB PREFETCH  REQUESTED:          0  ISSUED:          0  USEFUL:       6320  USELESS:        338
STLB USEFUL LOAD PREFETCHES:       6320 PREFETCH ISSUED TO LOWER LEVEL:          0  ACCURACY: inf
STLB TIMELY PREFETCHES:       6320 LATE PREFETCHES: 3251 DROPPED PREFETCHES: 3921122
STLB PREFETCHES SAME FILL-ORIGIN LEVEL: 0 DIFFERENT FILL-ORIGIN LEVEL: 0
STLB AVERAGE MISS LATENCY: 332.418 cycles
STLB RQ	ACCESS:   60917430	FORWARD:          0	MERGED:   41982377	TO_CACHE:   18935053

STLB Hit, L1D data hit: 0
STLB Hit, L2C data hit: 0
STLB Hit, LLC data hit: 0
STLB Hit, LLC data miss: 0
STLB STLB hints to L2: 0
L1D TOTAL     ACCESS:   83079869  HIT:   72222725  MISS:   10857144  HIT %:    86.9317  MISS %:    13.0683   MPKI: 54.2857
L1D LOAD      ACCESS:   43052936  HIT:   33885433  MISS:    9167503  HIT %:    78.7064  MISS %:    21.2936   MPKI: 45.8375
L1D RFO       ACCESS:    2010314  HIT:    1543678  MISS:     466636  HIT %:    76.7879  MISS %:    23.2121   MPKI: 2.33318
L1D PREFETCH  ACCESS:   38016619  HIT:   36793614  MISS:    1223005  HIT %:     96.783  MISS %:    3.21703   MPKI: 6.11502
L1D PREFETCH  REQUESTED:  193926248  ISSUED:  186554714  USEFUL:    1135793  USELESS:      87209
L1D USEFUL LOAD PREFETCHES:    1135793 PREFETCH ISSUED TO LOWER LEVEL:   10499369  ACCURACY: 10.8177
L1D TIMELY PREFETCHES:    1135793 LATE PREFETCHES: 19283 DROPPED PREFETCHES: 6337287
L1D PREFETCHES SAME FILL-ORIGIN LEVEL: 1242291 DIFFERENT FILL-ORIGIN LEVEL: 9257078
L1D AVERAGE MISS LATENCY: 211.822 cycles
L1D RQ	ACCESS:   76761622	FORWARD:          0	MERGED:   33523932	TO_CACHE:   43237251
L1D WQ	ACCESS:    2188776	FORWARD:        439	MERGED:        671	TO_CACHE:    2188105
L1D PQ	ACCESS:  130194216	FORWARD:          0	MERGED:   73833718	TO_CACHE:   56360498

L1D UNIQUE REGIONS ACCESSED: 0
L1D REGIONS CONFLICTS: 0
L1D Cross Page Prefetch Requests: 19760148
L1D Same Page Prefetch Requests: 143441991
L1D ROI Sum of L1D PQ occupancy: 1338798068
L1D PREFETCHES PUSHED FROM L2C: 0
L1I TOTAL     ACCESS:   25242858  HIT:   25242858  MISS:          0  HIT %:        100  MISS %:          0   MPKI: 0
L1I LOAD      ACCESS:   25242858  HIT:   25242858  MISS:          0  HIT %:        100  MISS %:          0   MPKI: 0
L1I PREFETCH  REQUESTED:          0  ISSUED:          0  USEFUL:          0  USELESS:          0
L1I USEFUL LOAD PREFETCHES:          0 PREFETCH ISSUED TO LOWER LEVEL:          0  ACCURACY: -nan
L1I TIMELY PREFETCHES:          0 LATE PREFETCHES: 0 DROPPED PREFETCHES: 0
L1I PREFETCHES SAME FILL-ORIGIN LEVEL: 0 DIFFERENT FILL-ORIGIN LEVEL: 0
L1I AVERAGE MISS LATENCY: -nan cycles
L1I RQ	ACCESS:   39022458	FORWARD:          0	MERGED:   13779600	TO_CACHE:   25242858

BTB TOTAL     ACCESS:   29076329  HIT:   29076278  MISS:         51  HIT %:    99.9998  MISS %:  0.0001754   MPKI: 0.000255
BTB BRANCH_DIRECT_JUMP	ACCESS:    9234587  HIT:    9234573  MISS:         14
BTB BRANCH_INDIRECT	ACCESS:          0  HIT:          0  MISS:          0
BTB BRANCH_CONDITIONAL	ACCESS:   19839222  HIT:   19839198  MISS:         24
BTB BRANCH_DIRECT_CALL	ACCESS:       1260  HIT:       1256  MISS:          4
BTB BRANCH_INDIRECT_CALL	ACCESS:          0  HIT:          0  MISS:          0
BTB BRANCH_RETURN	ACCESS:       1260  HIT:       1251  MISS:          9
BTB BRANCH_OTHER ACCESS:          0  HIT:          0  MISS:          0

L2C TOTAL     ACCESS:   23645298  HIT:   13158711  MISS:   10486587  HIT %:    55.6504  MISS %:    44.3496   MPKI: 52.4329
L2C LOAD      ACCESS:    9148219  HIT:    2208516  MISS:    6939703  HIT %:    24.1415  MISS %:    75.8585   MPKI: 34.6985
L2C DATA LOAD MPKI: 34.6985
L2C INSTRUCTION LOAD MPKI: 0
L2C RFO       ACCESS:     466633  HIT:     280369  MISS:     186264  HIT %:    60.0834  MISS %:    39.9166   MPKI: 0.93132
L2C PREFETCH  ACCESS:    8742218  HIT:    5518106  MISS:    3224112  HIT %:    63.1202  MISS %:    36.8798   MPKI: 16.1206
L2C DATA PREFETCH MPKI: 16.1206
L2C INSTRUCTION PREFETCH MPKI: 0
L2C WRITEBACK ACCESS:    1269657  HIT:    1183292  MISS:      86365  HIT %:    93.1978  MISS %:    6.80223   MPKI: 0.431825
L2C LOAD TRANSLATION ACCESS:      70840  HIT:      26967  MISS:      43873  HIT %:    38.0675  MISS %:    61.9325   MPKI: 0.219365
L2C TRANSLATION FROM L1D PREFETCHER ACCESS:    3947731  HIT:    3941461  MISS:       6270  HIT %:    99.8412  MISS %:   0.158825   MPKI: 0.03135
L2C PREFETCH  REQUESTED:          0  ISSUED:          0  USEFUL:     295230  USELESS:    2936385
L2C USEFUL LOAD PREFETCHES:     295230 PREFETCH ISSUED TO LOWER LEVEL:    3324519  ACCURACY: 8.88038
L2C TIMELY PREFETCHES:     295230 LATE PREFETCHES: 100406 DROPPED PREFETCHES: 0
L2C PREFETCHES SAME FILL-ORIGIN LEVEL: 2498098 DIFFERENT FILL-ORIGIN LEVEL: 0
L2C AVERAGE MISS LATENCY: 301.893 cycles
L2C RQ	ACCESS:   13633425	FORWARD:          0	MERGED:          0	TO_CACHE:   13633423
L2C WQ	ACCESS:    1269657	FORWARD:         16	MERGED:          0	TO_CACHE:    1269657
L2C PQ	ACCESS:   10495923	FORWARD:          0	MERGED:      23002	TO_CACHE:   10472907

L2C Instructions Evicting Data 0
L2C Translations Evicting Data 49915
L2C Data Evicting Data 10300536
L2C Instructions Evicting Instructions 0
L2C Translations Evicting Instructions 0
L2C Data Evicting Instructions 0
L2C Instructions Evicting Translations 0
L2C Translations Evicting Translations 228
L2C Data Evicting Translations 49543
L2C Dense regions hint from L2: 0
PSCL5 TOTAL     ACCESS:    3989536  HIT:    3989536  MISS:          0  HIT %:        100  MISS %:          0   MPKI: 0
PSCL5 LOAD TRANSLATION ACCESS:      58505  HIT:      58505  MISS:          0  HIT %:        100  MISS %:          0   MPKI: 0
PSCL5 TRANSLATION FROM L1D PREFETCHER ACCESS:    3931031  HIT:    3931031  MISS:          0  HIT %:        100  MISS %:          0   MPKI: 0
PSCL5 PREFETCH  REQUESTED:          0  ISSUED:          0  USEFUL:          0  USELESS:          0
PSCL5 USEFUL LOAD PREFETCHES:          0 PREFETCH ISSUED TO LOWER LEVEL:          0  ACCURACY: -nan
PSCL5 TIMELY PREFETCHES:          0 LATE PREFETCHES: 0 DROPPED PREFETCHES: 0
PSCL5 PREFETCHES SAME FILL-ORIGIN LEVEL: 0 DIFFERENT FILL-ORIGIN LEVEL: 0

[...]
L2C PREFETCHES SAME FILL-ORIGIN LEVEL: 1615117 DIFFERENT FILL-ORIGIN LEVEL: 0
L2C AVERAGE MISS LATENCY: 1093.2 cycles
L2C RQ	ACCESS:   10899964	FORWARD:          0	MERGED:          0	TO_CACHE:   10899567
L2C WQ	ACCESS:    9730362	FORWARD:        479	MERGED:          0	TO_CACHE:    9730362
L2C PQ	ACCESS:  105727133	FORWARD:          0	MERGED:    1013121	TO_CACHE:  104713930

L2C Instructions Evicting Data 1
L2C Translations Evicting Data 12572
L2C Data Evicting Data 18392387
L2C Instructions Evicting Instructions 0
L2C Translations Evicting Instructions 0
L2C Data Evicting Instructions 1
L2C Instructions Evicting Translations 0
L2C Translations Evicting Translations 9
L2C Data Evicting Translations 12357
L2C Dense regions hint from L2: 0
PSCL5 TOTAL     ACCESS:     184468  HIT:     184468  MISS:          0  HIT %:        100  MISS %:          0   MPKI: 0
PSCL5 LOAD TRANSLATION ACCESS:      16296  HIT:      16296  MISS:          0  HIT %:        100  MISS %:          0   MPKI: 0
PSCL5 TRANSLATION FROM L1D PREFETCHER ACCESS:     168172  HIT:     168172  MISS:          0  HIT %:        100  MISS %:          0   MPKI: 0
PSCL5 PREFETCH  REQUESTED:          0  ISSUED:          0  USEFUL:          0  USELESS:          0
PSCL5 USEFUL LOAD PREFETCHES:          0 PREFETCH ISSUED TO LOWER LEVEL:          0  ACCURACY: -nan
PSCL5 TIMELY PREFETCHES:          0 LATE PREFETCHES: 0 DROPPED PREFETCHES: 0
PSCL5 PREFETCHES SAME FILL-ORIGIN LEVEL: 0 DIFFERENT FILL-ORIGIN LEVEL: 0

PSCL4 TOTAL     ACCESS:     184466  HIT:     184466  MISS:          0  HIT %:        100  MISS %:          0   MPKI: 0
PSCL4 LOAD TRANSLATION ACCESS:      16296  HIT:      16296  MISS:          0  HIT %:        100  MISS %:          0   MPKI: 0
PSCL4 TRANSLATION FROM L1D PREFETCHER ACCESS:     168170  HIT:     168170  MISS:          0  HIT %:        100  MISS %:          0   MPKI: 0
PSCL4 PREFETCH  REQUESTED:          0  ISSUED:          0  USEFUL:          0  USELESS:          0
PSCL4 USEFUL LOAD PREFETCHES:          0 PREFETCH ISSUED TO LOWER LEVEL:          0  ACCURACY: -nan
PSCL4 TIMELY PREFETCHES:          0 LATE PREFETCHES: 0 DROPPED PREFETCHES: 0
PSCL4 PREFETCHES SAME FILL-ORIGIN LEVEL: 0 DIFFERENT FILL-ORIGIN LEVEL: 0

PSCL3 TOTAL     ACCESS:     184466  HIT:     184466  MISS:          0  HIT %:        100  MISS %:          0   MPKI: 0
PSCL3 LOAD TRANSLATION ACCESS:      16296  HIT:      16296  MISS:          0  HIT %:        100  MISS %:          0   MPKI: 0
PSCL3 TRANSLATION FROM L1D PREFETCHER ACCESS:     168170  HIT:     168170  MISS:          0  HIT %:        100  MISS %:          0   MPKI: 0
PSCL3 PREFETCH  REQUESTED:          0  ISSUED:          0  USEFUL:          0  USELESS:          0
PSCL3 USEFUL LOAD PREFETCHES:          0 PREFETCH ISSUED TO LOWER LEVEL:          0  ACCURACY: -nan
PSCL3 TIMELY PREFETCHES:          0 LATE PREFETCHES: 0 DROPPED PREFETCHES: 0
PSCL3 PREFETCHES SAME FILL-ORIGIN LEVEL: 0 DIFFERENT FILL-ORIGIN LEVEL: 0

PSCL2 TOTAL     ACCESS:     183991  HIT:     183957  MISS:         34  HIT %:    99.9815  MISS %:  0.0184792   MPKI: 0.00017
PSCL2 LOAD TRANSLATION ACCESS:      16296  HIT:      16262  MISS:         34  HIT %:    99.7914  MISS %:    0.20864   MPKI: 0.00017
PSCL2 TRANSLATION FROM L1D PREFETCHER ACCESS:     167695  HIT:     167695  MISS:          0  HIT %:        100  MISS %:          0   MPKI: 0
PSCL2 PREFETCH  REQUESTED:          0  ISSUED:          0  USEFUL:          0  USELESS:          0
PSCL2 USEFUL LOAD PREFETCHES:          0 PREFETCH ISSUED TO LOWER LEVEL:          0  ACCURACY: -nan
PSCL2 TIMELY PREFETCHES:          0 LATE PREFETCHES: 0 DROPPED PREFETCHES: 0
PSCL2 PREFETCHES SAME FILL-ORIGIN LEVEL: 0 DIFFERENT FILL-ORIGIN LEVEL: 0

LLC TOTAL     ACCESS:    6226554  HIT:    4687593  MISS:    1538961  HIT %:    75.2839  MISS %:    24.7161   MPKI: 7.6948
LLC LOAD      ACCESS:      33462  HIT:      19905  MISS:      13557  HIT %:    59.4854  MISS %:    40.5146   MPKI: 0.067785
LLC RFO       ACCESS:    2036974  HIT:    1295055  MISS:     741919  HIT %:    63.5774  MISS %:    36.4226   MPKI: 3.70959
LLC PREFETCH  ACCESS:    2085594  HIT:    1314563  MISS:     771031  HIT %:    63.0306  MISS %:    36.9694   MPKI: 3.85515
LLC WRITEBACK ACCESS:    2067860  HIT:    2057633  MISS:      10227  HIT %:    99.5054  MISS %:   0.494569   MPKI: 0.051135
LLC LOAD TRANSLATION ACCESS:       1257  HIT:         96  MISS:       1161  HIT %:    7.63723  MISS %:    92.3628   MPKI: 0.005805
LLC TRANSLATION FROM L1D PREFETCHER ACCESS:       1407  HIT:        341  MISS:       1066  HIT %:     24.236  MISS %:     75.764   MPKI: 0.00533
LLC PREFETCH  REQUESTED:          0  ISSUED:          0  USEFUL:    2476279  USELESS:   12567963
LLC USEFUL LOAD PREFETCHES:    2476279 PREFETCH ISSUED TO LOWER LEVEL:   15153426  ACCURACY: 16.3414
LLC TIMELY PREFETCHES:    2476279 LATE PREFETCHES: 0 DROPPED PREFETCHES: 0
LLC PREFETCHES SAME FILL-ORIGIN LEVEL: 0 DIFFERENT FILL-ORIGIN LEVEL: 0
LLC AVERAGE MISS LATENCY: 10822.3 cycles
LLC RQ	ACCESS:   24278115	FORWARD:          0	MERGED:          0	TO_CACHE:   24278103
LLC WQ	ACCESS:   16434017	FORWARD:         39	MERGED:          0	TO_CACHE:   16434017
LLC PQ	ACCESS:   22217805	FORWARD:          0	MERGED:          0	TO_CACHE:   22217778

LLC Dense regions hint to LLC: 0

RAW hits: 3050462
Loads Generated: 51156997
Loads sent to L1D: 48106529
Stores Generated: 42933546
Stores sent to L1D: 42933528
Major fault: 0 Minor fault: 21109
Allocated PAGES: 129090

CPU 3 cumulative IPC: 0.853392 instructions: 200000002 cycles: 234359000
ITLB TOTAL     ACCESS:   36775737  HIT:   36775737  MISS:          0  HIT %:        100  MISS %:          0   MPKI: 0
ITLB LOAD TRANSLATION ACCESS:   36775737  HIT:   36775737  MISS:          0  HIT %:        100  MISS %:          0   MPKI: 0
ITLB PREFETCH  REQUESTED:          0  ISSUED:          0  USEFUL:          0  USELESS:          0
ITLB USEFUL LOAD PREFETCHES:          0 PREFETCH ISSUED TO LOWER LEVEL:          0  ACCURACY: -nan
ITLB TIMELY PREFETCHES:          0 LATE PREFETCHES: 0 DROPPED PREFETCHES: 0
ITLB PREFETCHES SAME FILL-ORIGIN LEVEL: 0 DIFFERENT FILL-ORIGIN LEVEL: 0
ITLB AVERAGE MISS LATENCY: -nan cycles
ITLB RQ	ACCESS:  165350699	FORWARD:          0	MERGED:   10591440	TO_CACHE:  154759259

DTLB TOTAL     ACCESS:   25934775  HIT:   25930737  MISS:       4038  HIT %:    99.9844  MISS %:  0.0155698   MPKI: 0.02019
DTLB LOAD TRANSLATION ACCESS:   25934775  HIT:   25930737  MISS:       4038  HIT %:    99.9844  MISS %:  0.0155698   MPKI: 0.02019
DTLB PREFETCH  REQUESTED:          0  ISSUED:          0  USEFUL:          0  USELESS:          0
DTLB USEFUL LOAD PREFETCHES:          0 PREFETCH ISSUED TO LOWER LEVEL:          0  ACCURACY: -nan
DTLB TIMELY PREFETCHES:          0 LATE PREFETCHES: 0 DROPPED PREFETCHES: 0
DTLB PREFETCHES SAME FILL-ORIGIN LEVEL: 0 DIFFERENT FILL-ORIGIN LEVEL: 0
DTLB AVERAGE MISS LATENCY: 244.13 cycles
DTLB RQ	ACCESS:  123088542	FORWARD:          0	MERGED:   13839808	TO_CACHE:  109248734

STLB TOTAL     ACCESS:    6376677  HIT:    6372638  MISS:       4039  HIT %:    99.9367  MISS %:  0.0633402   MPKI: 0.020195
STLB LOAD TRANSLATION ACCESS:       4038  HIT:         83  MISS:       3955  HIT %:    2.05547  MISS %:    97.9445   MPKI: 0.019775
STLB TRANSLATION FROM L1D PREFETCHER ACCESS:    6372639  HIT:    6372555  MISS:         84  HIT %:    99.9987  MISS %: 0.00131814   MPKI: 0.00042
STLB PREFETCH  REQUESTED:          0  ISSUED:          0  USEFUL:      10397  USELESS:          0
STLB USEFUL LOAD PREFETCHES:      10397 PREFETCH ISSUED TO LOWER LEVEL:          0  ACCURACY: inf
STLB TIMELY PREFETCHES:      10397 LATE PREFETCHES: 431 DROPPED PREFETCHES: 516882
STLB PREFETCHES SAME FILL-ORIGIN LEVEL: 0 DIFFERENT FILL-ORIGIN LEVEL: 0
STLB AVERAGE MISS LATENCY: 489.169 cycles
STLB RQ	ACCESS:  189181155	FORWARD:          0	MERGED:  160755612	TO_CACHE:   28425543

STLB Hit, L1D data hit: 0
STLB Hit, L2C data hit: 0
STLB Hit, LLC data hit: 0
STLB Hit, LLC data miss: 0
STLB STLB hints to L2: 0
L1D TOTAL     ACCESS:   65682083  HIT:   65423798  MISS:     258285  HIT %:    99.6068  MISS %:   0.393235   MPKI: 1.29142
L1D LOAD      ACCESS:   19140212  HIT:   19137062  MISS:       3150  HIT %:    99.9835  MISS %:  0.0164575   MPKI: 0.01575
L1D RFO       ACCESS:    9957374  HIT:    9904845  MISS:      52529  HIT %:    99.4725  MISS %:   0.527539   MPKI: 0.262645
L1D PREFETCH  ACCESS:   36584497  HIT:   36381891  MISS:     202606  HIT %:    99.4462  MISS %:   0.553803   MPKI: 1.01303
L1D PREFETCH  REQUESTED:  510155417  ISSUED:  506232122  USEFUL:     862472  USELESS:         57
L1D USEFUL LOAD PREFETCHES:     862472 PREFETCH ISSUED TO LOWER LEVEL:   32860224  ACCURACY: 2.62467
L1D TIMELY PREFETCHES:     862472 LATE PREFETCHES: 670 DROPPED PREFETCHES: 2137241
L1D PREFETCHES SAME FILL-ORIGIN LEVEL: 863200 DIFFERENT FILL-ORIGIN LEVEL: 31997024
L1D AVERAGE MISS LATENCY: 1534.7 cycles
L1D RQ	ACCESS:  106802758	FORWARD:          0	MERGED:   26066739	TO_CACHE:   80677304
L1D WQ	ACCESS:   42411238	FORWARD:      58715	MERGED:          0	TO_CACHE:   42411238
L1D PQ	ACCESS:  317067951	FORWARD:          0	MERGED:  127903780	TO_CACHE:  189164171

L1D UNIQUE REGIONS ACCESSED: 0
L1D REGIONS CONFLICTS: 0
L1D Cross Page Prefetch Requests: 21123407
L1D Same Page Prefetch Requests: 322665233
L1D ROI Sum of L1D PQ occupancy: 2491486098
L1D PREFETCHES PUSHED FROM L2C: 0
L1I TOTAL     ACCESS:   39293931  HIT:   39293931  MISS:          0  HIT %:        100  MISS %:          0   MPKI: 0
L1I LOAD      ACCESS:   39293931  HIT:   39293931  MISS:          0  HIT %:        100  MISS %:          0   MPKI: 0
L1I PREFETCH  REQUESTED:          0  ISSUED:          0  USEFUL:          0  USELESS:          0
L1I USEFUL LOAD PREFETCHES:          0 PREFETCH ISSUED TO LOWER LEVEL:          0  ACCURACY: -nan
L1I TIMELY PREFETCHES:          0 LATE PREFETCHES: 0 DROPPED PREFETCHES: 0
L1I PREFETCHES SAME FILL-ORIGIN LEVEL: 0 DIFFERENT FILL-ORIGIN LEVEL: 0
L1I AVERAGE MISS LATENCY: -nan cycles
L1I RQ	ACCESS:  231792116	FORWARD:          0	MERGED:   66441417	TO_CACHE:  165350699

BTB TOTAL     ACCESS:   33743567  HIT:   33743567  MISS:          0  HIT %:        100  MISS %:          0   MPKI: 0
BTB BRANCH_DIRECT_JUMP	ACCESS:    8124490  HIT:    8124490  MISS:          0
BTB BRANCH_INDIRECT	ACCESS:          0  HIT:          0  MISS:          0
BTB BRANCH_CONDITIONAL	ACCESS:   23938169  HIT:   23938169  MISS:          0
BTB BRANCH_DIRECT_CALL	ACCESS:     840454  HIT:     840454  MISS:          0
BTB BRANCH_INDIRECT_CALL	ACCESS:          0  HIT:          0  MISS:          0
BTB BRANCH_RETURN	ACCESS:     840454  HIT:     840454  MISS:          0
BTB BRANCH_OTHER ACCESS:          0  HIT:          0  MISS:          0

L2C TOTAL     ACCESS:    7030658  HIT:    6766778  MISS:     263880  HIT %:    96.2467  MISS %:    3.75328   MPKI: 1.3194
L2C LOAD      ACCESS:       2481  HIT:          5  MISS:       2476  HIT %:   0.201532  MISS %:    99.7985   MPKI: 0.01238
L2C DATA LOAD MPKI: 0.01238
L2C INSTRUCTION LOAD MPKI: 0
L2C RFO       ACCESS:      52529  HIT:          0  MISS:      52529  HIT %:          0  MISS %:        100   MPKI: 0.262645
L2C PREFETCH  ACCESS:    6401814  HIT:    6198530  MISS:     203284  HIT %:    96.8246  MISS %:    3.17541   MPKI: 1.01642
L2C DATA PREFETCH MPKI: 1.01642
L2C INSTRUCTION PREFETCH MPKI: 0
L2C WRITEBACK ACCESS:      52520  HIT:      47461  MISS:       5059  HIT %:    90.3675  MISS %:    9.63252   MPKI: 0.025295
L2C LOAD TRANSLATION ACCESS:       3955  HIT:       3835  MISS:        120  HIT %:    96.9659  MISS %:    3.03413   MPKI: 0.0006
L2C TRANSLATION FROM L1D PREFETCHER ACCESS:     517359  HIT:     516947  MISS:        412  HIT %:    99.9204  MISS %:  0.0796352   MPKI: 0.00206
L2C PREFETCH  REQUESTED:          0  ISSUED:          0  USEFUL:       1745  USELESS:     863172
L2C USEFUL LOAD PREFETCHES:       1745 PREFETCH ISSUED TO LOWER LEVEL:     863221  ACCURACY: 0.20215
L2C TIMELY PREFETCHES:       1745 LATE PREFETCHES: 0 DROPPED PREFETCHES: 0
L2C PREFETCHES SAME FILL-ORIGIN LEVEL: 555346 DIFFERENT FILL-ORIGIN LEVEL: 0
L2C AVERAGE MISS LATENCY: 2937.75 cycles
L2C RQ	ACCESS:     757682	FORWARD:          0	MERGED:          0	TO_CACHE:     757682
L2C WQ	ACCESS:     220890	FORWARD:          0	MERGED:          0	TO_CACHE:     220890
L2C PQ	ACCESS:   32860224	FORWARD:          0	MERGED:       3918	TO_CACHE:   32856306

L2C Instructions Evicting Data 0
L2C Translations Evicting Data 2279
L2C Data Evicting Data 1084349
L2C Instructions Evicting Instructions 0
L2C Translations Evicting Instructions 0
L2C Data Evicting Instructions 0
L2C Instructions Evicting Translations 0
L2C Translations Evicting Translations 38
L2C Data Evicting Translations 2244
L2C Dense regions hint from L2: 0
PSCL5 TOTAL     ACCESS:     521314  HIT:     521314  MISS:          0  HIT %:        100  MISS %:          0   MPKI: 0
PSCL5 LOAD TRANSLATION ACCESS:       3955  HIT:       3955  MISS:          0  HIT %:        100  MISS %:          0   MPKI: 0
PSCL5 TRANSLATION FROM L1D PREFETCHER ACCESS:     517359  HIT:     517359  MISS:          0  HIT %:        100  MISS %:          0   MPKI: 0
PSCL5 PREFETCH  REQUESTED:          0  ISSUED:          0  USEFUL:          0  USELESS:          0
PSCL5 USEFUL LOAD PREFETCHES:          0 PREFETCH ISSUED TO LOWER LEVEL:          0  ACCURACY: -nan
PSCL5 TIMELY PREFETCHES:          0 LATE PREFETCHES: 0 DROPPED PREFETCHES: 0
PSCL5 PREFETCHES SAME FILL-ORIGIN LEVEL: 0 DIFFERENT FILL-ORIGIN LEVEL: 0

PSCL4 TOTAL     ACCESS:     521314  HIT:     521314  MISS:          0  HIT %:        100  MISS %:          0   MPKI: 0
PSCL4 LOAD TRANSLATION ACCESS:       3955  HIT:       3955  MISS:          0  HIT %:        100  MISS %:          0   MPKI: 0
PSCL4 TRANSLATION FROM L1D PREFETCHER ACCESS:     517359  HIT:     517359  MISS:          0  HIT %:        100  MISS %:          0   MPKI: 0
PSCL4 PREFETCH  REQUESTED:          0  ISSUED:          0  USEFUL:          0  USELESS:          0
PSCL4 USEFUL LOAD PREFETCHES:          0 PREFETCH ISSUED TO LOWER LEVEL:          0  ACCURACY: -nan
PSCL4 TIMELY PREFETCHES:          0 LATE PREFETCHES: 0 DROPPED PREFETCHES: 0
PSCL4 PREFETCHES SAME FILL-ORIGIN LEVEL: 0 DIFFERENT FILL-ORIGIN LEVEL: 0

PSCL3 TOTAL     ACCESS:     521314  HIT:     521314  MISS:          0  HIT %:        100  MISS %:          0   MPKI: 0
PSCL3 LOAD TRANSLATION ACCESS:       3955  HIT:       3955  MISS:          0  HIT %:        100  MISS %:          0   MPKI: 0
PSCL3 TRANSLATION FROM L1D PREFETCHER ACCESS:     517359  HIT:     517359  MISS:          0  HIT %:        100  MISS %:          0   MPKI: 0
PSCL3 PREFETCH  REQUESTED:          0  ISSUED:          0  USEFUL:          0  USELESS:          0
PSCL3 USEFUL LOAD PREFETCHES:          0 PREFETCH ISSUED TO LOWER LEVEL:          0  ACCURACY: -nan
PSCL3 TIMELY PREFETCHES:          0 LATE PREFETCHES: 0 DROPPED PREFETCHES: 0
PSCL3 PREFETCHES SAME FILL-ORIGIN LEVEL: 0 DIFFERENT FILL-ORIGIN LEVEL: 0

PSCL2 TOTAL     ACCESS:     520462  HIT:     520454  MISS:          8  HIT %:    99.9985  MISS %:  0.0015371   MPKI: 4e-05
PSCL2 LOAD TRANSLATION ACCESS:       3955  HIT:       3947  MISS:          8  HIT %:    99.7977  MISS %:   0.202276   MPKI: 4e-05
PSCL2 TRANSLATION FROM L1D PREFETCHER ACCESS:     516507  HIT:     516507  MISS:          0  HIT %:        100  MISS %:          0   MPKI: 0
PSCL2 PREFETCH  REQUESTED:          0  ISSUED:          0  USEFUL:          0  USELESS:          0
PSCL2 USEFUL LOAD PREFETCHES:          0 PREFETCH ISSUED TO LOWER LEVEL:          0  ACCURACY: -nan
PSCL2 TIMELY PREFETCHES:          0 LATE PREFETCHES: 0 DROPPED PREFETCHES: 0
PSCL2 PREFETCHES SAME FILL-ORIGIN LEVEL: 0 DIFFERENT FILL-ORIGIN LEVEL: 0

LLC TOTAL     ACCESS:     311412  HIT:      12865  MISS:     298547  HIT %:    4.13118  MISS %:    95.8688   MPKI: 1.49273
LLC LOAD      ACCESS:       2476  HIT:          0  MISS:       2476  HIT %:          0  MISS %:        100   MPKI: 0.01238
LLC RFO       ACCESS:      52529  HIT:          0  MISS:      52529  HIT %:          0  MISS %:        100   MPKI: 0.262645
LLC PREFETCH  ACCESS:     203284  HIT:          0  MISS:     203284  HIT %:          0  MISS %:        100   MPKI: 1.01642
LLC WRITEBACK ACCESS:      52591  HIT:      12850  MISS:      39741  HIT %:    24.4338  MISS %:    75.5662   MPKI: 0.198705
LLC LOAD TRANSLATION ACCESS:        120  HIT:         12  MISS:        108  HIT %:         10  MISS %:         90   MPKI: 0.00054
LLC TRANSLATION FROM L1D PREFETCHER ACCESS:        412  HIT:          3  MISS:        409  HIT %:   0.728155  MISS %:    99.2718   MPKI: 0.002045
LLC PREFETCH  REQUESTED:          0  ISSUED:          0  USEFUL:    2476279  USELESS:   12567963
LLC USEFUL LOAD PREFETCHES:    2476279 PREFETCH ISSUED TO LOWER LEVEL:   15153426  ACCURACY: 16.3414
LLC TIMELY PREFETCHES:    2476279 LATE PREFETCHES: 0 DROPPED PREFETCHES: 0
LLC PREFETCHES SAME FILL-ORIGIN LEVEL: 0 DIFFERENT FILL-ORIGIN LEVEL: 0
LLC AVERAGE MISS LATENCY: 55787.2 cycles
LLC RQ	ACCESS:   24278115	FORWARD:          0	MERGED:          0	TO_CACHE:   24278103
LLC WQ	ACCESS:   16434017	FORWARD:         39	MERGED:          0	TO_CACHE:   16434017
LLC PQ	ACCESS:   22217805	FORWARD:          0	MERGED:          0	TO_CACHE:   22217778

LLC Dense regions hint to LLC: 0

RAW hits: 2654934
Loads Generated: 28015326
Loads sent to L1D: 25360391
Stores Generated: 10085440
Stores sent to L1D: 10085440
Major fault: 0 Minor fault: 5083
Allocated PAGES: 129090

DRAM Statistics
 CHANNEL 0
 RQ ROW_BUFFER_HIT:    8046140  ROW_BUFFER_MISS:   19188531
 DBUS_CONGESTED:         86
 WQ ROW_BUFFER_HIT:    1482133  ROW_BUFFER_MISS:   11246499  FULL:          0

 AVG_CONGESTED_CYCLE: 6
 All warmup complete: 5
Channel 0 Bank busy for read cycles: 0
Channel 0 Bank busy for write cycles: 0
Channel 0
Rank 0
0banks busy for read cycles: 196641
0banks busy for write cycles: 0
1banks busy for read cycles: 27839835
1banks busy for write cycles: 1389799
2banks busy for read cycles: 54914018
2banks busy for write cycles: 1389251
3banks busy for read cycles: 65304034
3banks busy for write cycles: 1388966
4banks busy for read cycles: 65939176
4banks busy for write cycles: 1389411
5banks busy for read cycles: 66625983
5banks busy for write cycles: 1427134
6banks busy for read cycles: 74357361
6banks busy for write cycles: 2945107
7banks busy for read cycles: 101284932
7banks busy for write cycles: 35902827
8banks busy for read cycles: 199686687
8banks busy for write cycles: 280220285

CPU 0 Branch Prediction Accuracy: 97.8145% MPKI: 3.19609 Average ROB Occupancy at Mispredict: 176.312
Branch types
NOT_BRANCH: 170247690 85.1238%
BRANCH_DIRECT_JUMP: 9234587 4.61729%
BRANCH_INDIRECT: 0 0%
BRANCH_CONDITIONAL: 20515459 10.2577%
BRANCH_DIRECT_CALL: 1260 0.00063%
BRANCH_INDIRECT_CALL: 0 0%
BRANCH_RETURN: 1260 0.00063%
BRANCH_OTHER: 0 0%


CPU 1 Branch Prediction Accuracy: 99.2209% MPKI: 1.41975 Average ROB Occupancy at Mispredict: 63.816
Branch types
NOT_BRANCH: 558751521 81.6359%
BRANCH_DIRECT_JUMP: 80093 0.0117019%
BRANCH_INDIRECT: 0 0%
BRANCH_CONDITIONAL: 125611988 18.3524%
BRANCH_DIRECT_CALL: 114 1.66559e-05%
BRANCH_INDIRECT_CALL: 0 0%
BRANCH_RETURN: 115 1.6802e-05%
BRANCH_OTHER: 0 0%


CPU 2 Branch Prediction Accuracy: 99.0509% MPKI: 0.96162 Average ROB Occupancy at Mispredict: 68.349
Branch types
NOT_BRANCH: 794606004 89.8685%
BRANCH_DIRECT_JUMP: 4679 0.000529186%
BRANCH_INDIRECT: 0 0%
BRANCH_CONDITIONAL: 89563051 10.1294%
BRANCH_DIRECT_CALL: 7003 0.000792026%
BRANCH_INDIRECT_CALL: 0 0%
BRANCH_RETURN: 7003 0.000792026%
BRANCH_OTHER: 0 0%


CPU 3 Branch Prediction Accuracy: 97.7778% MPKI: 6.69715 Average ROB Occupancy at Mispredict: 84.4917
Branch types
NOT_BRANCH: 586452479 69.6787%
BRANCH_DIRECT_JUMP: 34194445 4.06277%
BRANCH_INDIRECT: 0 0%
BRANCH_CONDITIONAL: 213937330 25.4187%
BRANCH_DIRECT_CALL: 3534269 0.41992%
BRANCH_INDIRECT_CALL: 0 0%
BRANCH_RETURN: 3534269 0.41992%
BRANCH_OTHER: 0 0%

DRAM PAGES: 1048576
Allocated PAGES: 129090
