
*** ChampSim Multicore Out-of-Order Simulator ***

Warmup Instructions: 50000000
Simulation Instructions: 200000000
Number of CPUs: 4
LLC sets: 8192
LLC ways: 16
Off-chip DRAM Size: 4096 MB Channels: 1 Width: 64-bit Data Rate: 6400 MT/s
CPU 0 runs ./traces/ligra/ligra_BFS-Bitvector.com-lj.ungraph.gcc_6.3.0_O3.drop_18000M.length_250M.champsimtrace.xz
.xz
CPU 1 runs ./traces/ligra/ligra_BFS.com-lj.ungraph.gcc_6.3.0_O3.drop_11500M.length_250M.champsimtrace.xz
.xz
CPU 2 runs ./traces/gap/bfs-8.trace.gz
.gz
CPU 3 runs ./traces/spec/619.lbm_s-2677B.champsimtrace.xz
.xz
BTB has LRU replacement policy
ITLB has LRU replacement policy
DTLB has LRU replacement policy
STLB has LRU replacement policy
L1I has LRU replacement policy
History Sets: 8
History Ways: 16
BERTI Size: 16
BERTI Stride Size: 8
L1D has LRU replacement policy
Initialize SRRIP state for L2C
Initialize DRRIP state for LLC
BTB has LRU replacement policy
ITLB has LRU replacement policy
DTLB has LRU replacement policy
STLB has LRU replacement policy
L1I has LRU replacement policy
History Sets: 8
History Ways: 16
BERTI Size: 16
BERTI Stride Size: 8
L1D has LRU replacement policy
Initialize SRRIP state for L2C
Initialize DRRIP state for LLC
BTB has LRU replacement policy
ITLB has LRU replacement policy
DTLB has LRU replacement policy
STLB has LRU replacement policy
L1I has LRU replacement policy
History Sets: 8
History Ways: 16
BERTI Size: 16
BERTI Stride Size: 8
L1D has LRU replacement policy
Initialize SRRIP state for L2C
Initialize DRRIP state for LLC
BTB has LRU replacement policy
ITLB has LRU replacement policy
DTLB has LRU replacement policy
STLB has LRU replacement policy
L1I has LRU replacement policy
History Sets: 8
History Ways: 16
BERTI Size: 16
BERTI Stride Size: 8
L1D has LRU replacement policy
Initialize SRRIP state for L2C
Initialize DRRIP state for LLC
Heartbeat CPU 3 instructions: 10000001 cycles: 2919045 heartbeat IPC: 3.42578 cumulative IPC: 3.42578 (Simulation time: 0 hr 3 min 2 sec) 
Heartbeat CPU 1 instructions: 10000000 cycles: 2931627 heartbeat IPC: 3.41108 cumulative IPC: 3.41108 (Simulation time: 0 hr 3 min 3 sec) 
Heartbeat CPU 2 instructions: 10000003 cycles: 2972341 heartbeat IPC: 3.36435 cumulative IPC: 3.36435 (Simulation time: 0 hr 3 min 6 sec) 
Heartbeat CPU 0 instructions: 10000003 cycles: 3044116 heartbeat IPC: 3.28503 cumulative IPC: 3.28503 (Simulation time: 0 hr 3 min 10 sec) 
Heartbeat CPU 3 instructions: 20000001 cycles: 5826898 heartbeat IPC: 3.43896 cumulative IPC: 3.43236 (Simulation time: 0 hr 6 min 29 sec) 
Heartbeat CPU 1 instructions: 20000000 cycles: 5861069 heartbeat IPC: 3.41362 cumulative IPC: 3.41235 (Simulation time: 0 hr 6 min 32 sec) 
Heartbeat CPU 2 instructions: 20000001 cycles: 5936712 heartbeat IPC: 3.3734 cumulative IPC: 3.36887 (Simulation time: 0 hr 6 min 38 sec) 
Heartbeat CPU 0 instructions: 20000002 cycles: 6087136 heartbeat IPC: 3.28621 cumulative IPC: 3.28562 (Simulation time: 0 hr 6 min 49 sec) 
Heartbeat CPU 3 instructions: 30000000 cycles: 8741888 heartbeat IPC: 3.43054 cumulative IPC: 3.43175 (Simulation time: 0 hr 10 min 2 sec) 
Heartbeat CPU 1 instructions: 30000000 cycles: 8791936 heartbeat IPC: 3.41196 cumulative IPC: 3.41222 (Simulation time: 0 hr 10 min 6 sec) 
Heartbeat CPU 2 instructions: 30000003 cycles: 8892730 heartbeat IPC: 3.38293 cumulative IPC: 3.37354 (Simulation time: 0 hr 10 min 13 sec) 
Heartbeat CPU 0 instructions: 30000001 cycles: 9129425 heartbeat IPC: 3.287 cumulative IPC: 3.28608 (Simulation time: 0 hr 10 min 30 sec) 
Heartbeat CPU 3 instructions: 40000000 cycles: 11653922 heartbeat IPC: 3.43403 cumulative IPC: 3.43232 (Simulation time: 0 hr 13 min 19 sec) 
Heartbeat CPU 1 instructions: 40000000 cycles: 11723029 heartbeat IPC: 3.4117 cumulative IPC: 3.41209 (Simulation time: 0 hr 13 min 24 sec) 
Heartbeat CPU 2 instructions: 40000003 cycles: 11959911 heartbeat IPC: 3.26032 cumulative IPC: 3.34451 (Simulation time: 0 hr 13 min 40 sec) 
Heartbeat CPU 0 instructions: 40000000 cycles: 12176002 heartbeat IPC: 3.28237 cumulative IPC: 3.28515 (Simulation time: 0 hr 13 min 53 sec) 
Heartbeat CPU 3 instructions: 50000001 cycles: 14574584 heartbeat IPC: 3.42388 cumulative IPC: 3.43063 (Simulation time: 0 hr 16 min 20 sec) 
Heartbeat CPU 1 instructions: 50000000 cycles: 14651944 heartbeat IPC: 3.41423 cumulative IPC: 3.41252 (Simulation time: 0 hr 16 min 25 sec) 
Heartbeat CPU 2 instructions: 50000002 cycles: 15130665 heartbeat IPC: 3.15382 cumulative IPC: 3.30455 (Simulation time: 0 hr 16 min 46 sec) 
Heartbeat CPU 0 instructions: 50000000 cycles: 15222359 heartbeat IPC: 3.28261 cumulative IPC: 3.28464 (Simulation time: 0 hr 16 min 51 sec) 

Warmup complete CPU 0 instructions: 50000004 cycles: 15222360 (Simulation time: 0 hr 16 min 51 sec) 
Warmup complete CPU 1 instructions: 51514961 cycles: 15222359 (Simulation time: 0 hr 16 min 51 sec) 
Warmup complete CPU 2 instructions: 50279834 cycles: 15222359 (Simulation time: 0 hr 16 min 51 sec) 
Warmup complete CPU 3 instructions: 52212445 cycles: 15222359 (Simulation time: 0 hr 16 min 51 sec) 

Heartbeat CPU 1 instructions: 60000002 cycles: 25547857 heartbeat IPC: 0.917776 cumulative IPC: 0.821756 (Simulation time: 0 hr 19 min 52 sec) 
Heartbeat CPU 0 instructions: 60000001 cycles: 27916049 heartbeat IPC: 0.787793 cumulative IPC: 0.787793 (Simulation time: 0 hr 20 min 31 sec) 
Heartbeat CPU 1 instructions: 70000000 cycles: 37534502 heartbeat IPC: 0.834262 cumulative IPC: 0.828474 (Simulation time: 0 hr 22 min 46 sec) 
Heartbeat CPU 3 instructions: 60000002 cycles: 38128345 heartbeat IPC: 0.424561 cumulative IPC: 0.339979 (Simulation time: 0 hr 22 min 55 sec) 
Heartbeat CPU 0 instructions: 70000001 cycles: 43219610 heartbeat IPC: 0.653443 cumulative IPC: 0.714356 (Simulation time: 0 hr 24 min 0 sec) 
Heartbeat CPU 1 instructions: 80000001 cycles: 49558187 heartbeat IPC: 0.831692 cumulative IPC: 0.829601 (Simulation time: 0 hr 25 min 31 sec) 
Heartbeat CPU 0 instructions: 80000000 cycles: 58305295 heartbeat IPC: 0.66288 cumulative IPC: 0.696331 (Simulation time: 0 hr 27 min 21 sec) 
Heartbeat CPU 1 instructions: 90000001 cycles: 61592318 heartbeat IPC: 0.83097 cumulative IPC: 0.829956 (Simulation time: 0 hr 28 min 5 sec) 
Heartbeat CPU 3 instructions: 70000003 cycles: 67977848 heartbeat IPC: 0.335014 cumulative IPC: 0.33717 (Simulation time: 0 hr 29 min 22 sec) 
Heartbeat CPU 2 instructions: 60000000 cycles: 69049162 heartbeat IPC: 0.185465 cumulative IPC: 0.180582 (Simulation time: 0 hr 29 min 37 sec) 
Heartbeat CPU 0 instructions: 90000002 cycles: 71742479 heartbeat IPC: 0.744204 cumulative IPC: 0.707713 (Simulation time: 0 hr 30 min 24 sec) 
Heartbeat CPU 1 instructions: 100000001 cycles: 73651659 heartbeat IPC: 0.829233 cumulative IPC: 0.829807 (Simulation time: 0 hr 30 min 55 sec) 
Heartbeat CPU 1 instructions: 110000000 cycles: 85750605 heartbeat IPC: 0.826518 cumulative IPC: 0.829243 (Simulation time: 0 hr 34 min 6 sec) 
Heartbeat CPU 0 instructions: 100000000 cycles: 86400615 heartbeat IPC: 0.682215 cumulative IPC: 0.702462 (Simulation time: 0 hr 34 min 15 sec) 
Heartbeat CPU 2 instructions: 70000000 cycles: 96662927 heartbeat IPC: 0.362138 cumulative IPC: 0.242142 (Simulation time: 0 hr 36 min 34 sec) 
Heartbeat CPU 1 instructions: 120000000 cycles: 97666137 heartbeat IPC: 0.839241 cumulative IPC: 0.830688 (Simulation time: 0 hr 36 min 48 sec) 
Heartbeat CPU 3 instructions: 80000001 cycles: 99606782 heartbeat IPC: 0.316166 cumulative IPC: 0.329297 (Simulation time: 0 hr 37 min 11 sec) 
Heartbeat CPU 0 instructions: 110000000 cycles: 102314540 heartbeat IPC: 0.62838 cumulative IPC: 0.688925 (Simulation time: 0 hr 37 min 52 sec) 
Heartbeat CPU 1 instructions: 130000001 cycles: 109459335 heartbeat IPC: 0.847947 cumulative IPC: 0.832848 (Simulation time: 0 hr 39 min 38 sec) 
Heartbeat CPU 0 instructions: 120000002 cycles: 118956080 heartbeat IPC: 0.600906 cumulative IPC: 0.674805 (Simulation time: 0 hr 41 min 57 sec) 
Heartbeat CPU 1 instructions: 140000000 cycles: 121613402 heartbeat IPC: 0.82277 cumulative IPC: 0.831696 (Simulation time: 0 hr 42 min 34 sec) 
Heartbeat CPU 3 instructions: 90000000 cycles: 132676232 heartbeat IPC: 0.302394 cumulative IPC: 0.321723 (Simulation time: 0 hr 45 min 3 sec) 
Heartbeat CPU 0 instructions: 130000000 cycles: 132766404 heartbeat IPC: 0.724096 cumulative IPC: 0.680596 (Simulation time: 0 hr 45 min 4 sec) 
Heartbeat CPU 1 instructions: 150000000 cycles: 133904542 heartbeat IPC: 0.813594 cumulative IPC: 0.829822 (Simulation time: 0 hr 45 min 24 sec) 
Heartbeat CPU 1 instructions: 160000002 cycles: 146059966 heartbeat IPC: 0.822678 cumulative IPC: 0.829158 (Simulation time: 0 hr 47 min 59 sec) 
Heartbeat CPU 0 instructions: 140000003 cycles: 147159079 heartbeat IPC: 0.694798 cumulative IPC: 0.682145 (Simulation time: 0 hr 48 min 13 sec) 
Heartbeat CPU 2 instructions: 80000001 cycles: 154012089 heartbeat IPC: 0.17437 cumulative IPC: 0.214138 (Simulation time: 0 hr 49 min 48 sec) 
Heartbeat CPU 1 instructions: 170000001 cycles: 158193043 heartbeat IPC: 0.824193 cumulative IPC: 0.828737 (Simulation time: 0 hr 50 min 40 sec) 
Heartbeat CPU 0 instructions: 150000002 cycles: 163568246 heartbeat IPC: 0.609415 cumulative IPC: 0.6741 (Simulation time: 0 hr 51 min 45 sec) 
Heartbeat CPU 3 instructions: 100000002 cycles: 164378151 heartbeat IPC: 0.315438 cumulative IPC: 0.320387 (Simulation time: 0 hr 52 min 0 sec) 
Heartbeat CPU 1 instructions: 180000000 cycles: 170447534 heartbeat IPC: 0.816027 cumulative IPC: 0.827733 (Simulation time: 0 hr 53 min 21 sec) 
Heartbeat CPU 0 instructions: 160000001 cycles: 176761112 heartbeat IPC: 0.757985 cumulative IPC: 0.680951 (Simulation time: 0 hr 54 min 52 sec) 
Heartbeat CPU 1 instructions: 190000000 cycles: 182685549 heartbeat IPC: 0.817126 cumulative IPC: 0.826958 (Simulation time: 0 hr 56 min 12 sec) 
Heartbeat CPU 0 instructions: 170000003 cycles: 191429685 heartbeat IPC: 0.68173 cumulative IPC: 0.681016 (Simulation time: 0 hr 58 min 9 sec) 
Heartbeat CPU 1 instructions: 200000001 cycles: 194826898 heartbeat IPC: 0.823632 cumulative IPC: 0.826733 (Simulation time: 0 hr 59 min 2 sec) 
Heartbeat CPU 3 instructions: 110000000 cycles: 195721009 heartbeat IPC: 0.319052 cumulative IPC: 0.320155 (Simulation time: 0 hr 59 min 13 sec) 
Heartbeat CPU 0 instructions: 180000000 cycles: 204750619 heartbeat IPC: 0.750698 cumulative IPC: 0.685914 (Simulation time: 1 hr 1 min 18 sec) 
Heartbeat CPU 1 instructions: 210000003 cycles: 206878292 heartbeat IPC: 0.82978 cumulative IPC: 0.826925 (Simulation time: 1 hr 1 min 50 sec) 
Heartbeat CPU 1 instructions: 220000000 cycles: 218901893 heartbeat IPC: 0.831697 cumulative IPC: 0.827207 (Simulation time: 1 hr 4 min 27 sec) 
Heartbeat CPU 0 instructions: 190000000 cycles: 221657861 heartbeat IPC: 0.591462 cumulative IPC: 0.678178 (Simulation time: 1 hr 4 min 58 sec) 
Heartbeat CPU 2 instructions: 90000001 cycles: 224331050 heartbeat IPC: 0.142209 cumulative IPC: 0.18995 (Simulation time: 1 hr 5 min 41 sec) 
Heartbeat CPU 3 instructions: 120000000 cycles: 227510709 heartbeat IPC: 0.314567 cumulative IPC: 0.319318 (Simulation time: 1 hr 6 min 24 sec) 
Heartbeat CPU 1 instructions: 230000003 cycles: 230956350 heartbeat IPC: 0.829569 cumulative IPC: 0.827339 (Simulation time: 1 hr 7 min 10 sec) 
Heartbeat CPU 0 instructions: 200000000 cycles: 236456410 heartbeat IPC: 0.675742 cumulative IPC: 0.678015 (Simulation time: 1 hr 8 min 36 sec) 
Heartbeat CPU 1 instructions: 240000001 cycles: 242834315 heartbeat IPC: 0.841895 cumulative IPC: 0.828098 (Simulation time: 1 hr 9 min 55 sec) 
Heartbeat CPU 0 instructions: 210000000 cycles: 251216767 heartbeat IPC: 0.67749 cumulative IPC: 0.677982 (Simulation time: 1 hr 12 min 0 sec) 
*** Reached end of trace for Core: 1 Repeating trace: ./traces/ligra/ligra_BFS.com-lj.ungraph.gcc_6.3.0_O3.drop_11500M.length_250M.champsimtrace.xz
Heartbeat CPU 1 instructions: 250000001 cycles: 254626419 heartbeat IPC: 0.848025 cumulative IPC: 0.82908 (Simulation time: 1 hr 12 min 58 sec) 
Finished CPU 1 instructions: 200000002 cycles: 241157330 cumulative IPC: 0.829334 (Simulation time: 1 hr 13 min 21 sec) 
Heartbeat CPU 3 instructions: 130000001 cycles: 258592385 heartbeat IPC: 0.321733 cumulative IPC: 0.319627 (Simulation time: 1 hr 13 min 47 sec) 
Heartbeat CPU 0 instructions: 220000000 cycles: 263964814 heartbeat IPC: 0.784434 cumulative IPC: 0.683438 (Simulation time: 1 hr 15 min 5 sec) 
Heartbeat CPU 1 instructions: 260000002 cycles: 266474643 heartbeat IPC: 0.844008 cumulative IPC: 0.829784 (Simulation time: 1 hr 15 min 36 sec) 
Heartbeat CPU 0 instructions: 230000002 cycles: 277588132 heartbeat IPC: 0.734036 cumulative IPC: 0.686065 (Simulation time: 1 hr 18 min 5 sec) 
Heartbeat CPU 1 instructions: 270000001 cycles: 278492939 heartbeat IPC: 0.832065 cumulative IPC: 0.829888 (Simulation time: 1 hr 18 min 17 sec) 
Heartbeat CPU 3 instructions: 140000001 cycles: 289870792 heartbeat IPC: 0.319709 cumulative IPC: 0.319636 (Simulation time: 1 hr 20 min 50 sec) 
Heartbeat CPU 1 instructions: 280000001 cycles: 290352371 heartbeat IPC: 0.843211 cumulative IPC: 0.830462 (Simulation time: 1 hr 20 min 58 sec) 
Heartbeat CPU 0 instructions: 240000003 cycles: 290875049 heartbeat IPC: 0.75262 cumulative IPC: 0.689273 (Simulation time: 1 hr 21 min 8 sec) 
Heartbeat CPU 2 instructions: 100000000 cycles: 293793340 heartbeat IPC: 0.143963 cumulative IPC: 0.178483 (Simulation time: 1 hr 21 min 54 sec) 
Heartbeat CPU 1 instructions: 290000001 cycles: 302110950 heartbeat IPC: 0.850443 cumulative IPC: 0.831281 (Simulation time: 1 hr 23 min 55 sec) 
*** Reached end of trace for Core: 0 Repeating trace: ./traces/ligra/ligra_BFS-Bitvector.com-lj.ungraph.gcc_6.3.0_O3.drop_18000M.length_250M.champsimtrace.xz
Heartbeat CPU 0 instructions: 250000001 cycles: 303851216 heartbeat IPC: 0.770643 cumulative IPC: 0.692931 (Simulation time: 1 hr 24 min 18 sec) 
Finished CPU 0 instructions: 200000001 cycles: 288628857 cumulative IPC: 0.692931 (Simulation time: 1 hr 24 min 18 sec) 
Heartbeat CPU 1 instructions: 300000003 cycles: 313845334 heartbeat IPC: 0.852197 cumulative IPC: 0.832103 (Simulation time: 1 hr 26 min 16 sec) 
Heartbeat CPU 0 instructions: 260000003 cycles: 319154713 heartbeat IPC: 0.653446 cumulative IPC: 0.690943 (Simulation time: 1 hr 27 min 30 sec) 
Heartbeat CPU 3 instructions: 150000002 cycles: 320825907 heartbeat IPC: 0.323048 cumulative IPC: 0.319982 (Simulation time: 1 hr 27 min 52 sec) 
Heartbeat CPU 1 instructions: 310000000 cycles: 325773903 heartbeat IPC: 0.838323 cumulative IPC: 0.832342 (Simulation time: 1 hr 28 min 51 sec) 
Heartbeat CPU 0 instructions: 270000001 cycles: 333570332 heartbeat IPC: 0.693692 cumulative IPC: 0.691068 (Simulation time: 1 hr 30 min 29 sec) 
Heartbeat CPU 1 instructions: 320000001 cycles: 337565126 heartbeat IPC: 0.848089 cumulative IPC: 0.832918 (Simulation time: 1 hr 31 min 26 sec) 
Heartbeat CPU 0 instructions: 280000002 cycles: 347223920 heartbeat IPC: 0.732408 cumulative IPC: 0.692768 (Simulation time: 1 hr 33 min 40 sec) 
Heartbeat CPU 1 instructions: 330000000 cycles: 349408413 heartbeat IPC: 0.84436 cumulative IPC: 0.833323 (Simulation time: 1 hr 34 min 12 sec) 
Heartbeat CPU 3 instructions: 160000002 cycles: 350243308 heartbeat IPC: 0.339935 cumulative IPC: 0.321734 (Simulation time: 1 hr 34 min 25 sec) 
Heartbeat CPU 0 instructions: 290000003 cycles: 360266571 heartbeat IPC: 0.766715 cumulative IPC: 0.695563 (Simulation time: 1 hr 36 min 45 sec) 
Heartbeat CPU 1 instructions: 340000002 cycles: 361250483 heartbeat IPC: 0.844447 cumulative IPC: 0.833704 (Simulation time: 1 hr 37 min 0 sec) 
Heartbeat CPU 1 instructions: 350000000 cycles: 373127875 heartbeat IPC: 0.841936 cumulative IPC: 0.833977 (Simulation time: 1 hr 39 min 42 sec) 
Heartbeat CPU 0 instructions: 300000001 cycles: 374810978 heartbeat IPC: 0.687549 cumulative IPC: 0.695239 (Simulation time: 1 hr 40 min 2 sec) 
Heartbeat CPU 3 instructions: 170000000 cycles: 379525740 heartbeat IPC: 0.341502 cumulative IPC: 0.323323 (Simulation time: 1 hr 41 min 9 sec) 
Heartbeat CPU 1 instructions: 360000001 cycles: 385033378 heartbeat IPC: 0.839948 cumulative IPC: 0.834169 (Simulation time: 1 hr 42 min 19 sec) 
Heartbeat CPU 0 instructions: 310000001 cycles: 387628295 heartbeat IPC: 0.780194 cumulative IPC: 0.698163 (Simulation time: 1 hr 42 min 57 sec) 
Heartbeat CPU 2 instructions: 110000000 cycles: 395912758 heartbeat IPC: 0.0979246 cumulative IPC: 0.156873 (Simulation time: 1 hr 44 min 48 sec) 
Heartbeat CPU 1 instructions: 370000003 cycles: 396757865 heartbeat IPC: 0.852916 cumulative IPC: 0.834745 (Simulation time: 1 hr 45 min 0 sec) 
Heartbeat CPU 0 instructions: 320000001 cycles: 402407089 heartbeat IPC: 0.676645 cumulative IPC: 0.697342 (Simulation time: 1 hr 46 min 10 sec) 
Heartbeat CPU 3 instructions: 180000000 cycles: 407722073 heartbeat IPC: 0.354656 cumulative IPC: 0.325574 (Simulation time: 1 hr 47 min 24 sec) 
Heartbeat CPU 1 instructions: 380000000 cycles: 408343318 heartbeat IPC: 0.863151 cumulative IPC: 0.835583 (Simulation time: 1 hr 47 min 31 sec) 
Heartbeat CPU 0 instructions: 330000000 cycles: 416611932 heartbeat IPC: 0.703985 cumulative IPC: 0.697577 (Simulation time: 1 hr 49 min 19 sec) 
Heartbeat CPU 1 instructions: 390000001 cycles: 420287602 heartbeat IPC: 0.837221 cumulative IPC: 0.835631 (Simulation time: 1 hr 50 min 11 sec) 
Heartbeat CPU 0 instructions: 340000002 cycles: 430757856 heartbeat IPC: 0.706918 cumulative IPC: 0.697895 (Simulation time: 1 hr 52 min 39 sec) 
Heartbeat CPU 1 instructions: 400000001 cycles: 432382792 heartbeat IPC: 0.826775 cumulative IPC: 0.835374 (Simulation time: 1 hr 52 min 57 sec) 
Heartbeat CPU 3 instructions: 190000000 cycles: 438934311 heartbeat IPC: 0.320387 cumulative IPC: 0.325192 (Simulation time: 1 hr 54 min 31 sec) 
Heartbeat CPU 1 instructions: 410000003 cycles: 444364994 heartbeat IPC: 0.834571 cumulative IPC: 0.835352 (Simulation time: 1 hr 55 min 55 sec) 
Heartbeat CPU 2 instructions: 120000001 cycles: 444506663 heartbeat IPC: 0.205787 cumulative IPC: 0.16241 (Simulation time: 1 hr 55 min 57 sec) 
Heartbeat CPU 0 instructions: 350000000 cycles: 445780629 heartbeat IPC: 0.665656 cumulative IPC: 0.69677 (Simulation time: 1 hr 56 min 16 sec) 
Heartbeat CPU 2 instructions: 130000001 cycles: 455806117 heartbeat IPC: 0.884999 cumulative IPC: 0.180942 (Simulation time: 1 hr 59 min 9 sec) 
Heartbeat CPU 1 instructions: 420000002 cycles: 456325568 heartbeat IPC: 0.83608 cumulative IPC: 0.835371 (Simulation time: 1 hr 59 min 18 sec) 
Heartbeat CPU 0 instructions: 360000003 cycles: 458561584 heartbeat IPC: 0.782414 cumulative IPC: 0.699239 (Simulation time: 1 hr 59 min 59 sec) 
Heartbeat CPU 3 instructions: 200000000 cycles: 468106386 heartbeat IPC: 0.342794 cumulative IPC: 0.326325 (Simulation time: 2 hr 2 min 17 sec) 
Heartbeat CPU 1 instructions: 430000001 cycles: 468399797 heartbeat IPC: 0.82821 cumulative IPC: 0.835181 (Simulation time: 2 hr 2 min 22 sec) 
Heartbeat CPU 0 instructions: 370000002 cycles: 473016961 heartbeat IPC: 0.691784 cumulative IPC: 0.699003 (Simulation time: 2 hr 3 min 36 sec) 
Heartbeat CPU 2 instructions: 140000000 cycles: 476846319 heartbeat IPC: 0.475281 cumulative IPC: 0.194358 (Simulation time: 2 hr 4 min 31 sec) 
Heartbeat CPU 1 instructions: 440000000 cycles: 480435684 heartbeat IPC: 0.830849 cumulative IPC: 0.835069 (Simulation time: 2 hr 5 min 34 sec) 
Heartbeat CPU 0 instructions: 380000001 cycles: 487483415 heartbeat IPC: 0.691254 cumulative IPC: 0.698766 (Simulation time: 2 hr 7 min 21 sec) 
Heartbeat CPU 1 instructions: 450000000 cycles: 492392863 heartbeat IPC: 0.836318 cumulative IPC: 0.8351 (Simulation time: 2 hr 8 min 29 sec) 
Heartbeat CPU 3 instructions: 210000003 cycles: 500074395 heartbeat IPC: 0.312813 cumulative IPC: 0.325434 (Simulation time: 2 hr 10 min 20 sec) 
Heartbeat CPU 0 instructions: 390000000 cycles: 502080086 heartbeat IPC: 0.685088 cumulative IPC: 0.698356 (Simulation time: 2 hr 10 min 47 sec) 
Heartbeat CPU 1 instructions: 460000000 cycles: 504257389 heartbeat IPC: 0.842849 cumulative IPC: 0.835288 (Simulation time: 2 hr 11 min 21 sec) 
Heartbeat CPU 2 instructions: 150000001 cycles: 514407661 heartbeat IPC: 0.266231 cumulative IPC: 0.199766 (Simulation time: 2 hr 13 min 34 sec) 
Heartbeat CPU 1 instructions: 470000000 cycles: 516070293 heartbeat IPC: 0.846532 cumulative IPC: 0.835553 (Simulation time: 2 hr 13 min 57 sec) 
Heartbeat CPU 0 instructions: 400000003 cycles: 519206514 heartbeat IPC: 0.583893 cumulative IPC: 0.694466 (Simulation time: 2 hr 14 min 37 sec) 
Heartbeat CPU 1 instructions: 480000001 cycles: 527930815 heartbeat IPC: 0.843133 cumulative IPC: 0.835728 (Simulation time: 2 hr 16 min 42 sec) 
Heartbeat CPU 0 instructions: 410000002 cycles: 532473535 heartbeat IPC: 0.753749 cumulative IPC: 0.695987 (Simulation time: 2 hr 17 min 53 sec) 
Heartbeat CPU 3 instructions: 220000000 cycles: 532573374 heartbeat IPC: 0.307702 cumulative IPC: 0.324321 (Simulation time: 2 hr 17 min 54 sec) 
Heartbeat CPU 1 instructions: 490000000 cycles: 539634425 heartbeat IPC: 0.854437 cumulative IPC: 0.836146 (Simulation time: 2 hr 19 min 33 sec) 
Heartbeat CPU 0 instructions: 420000002 cycles: 547127335 heartbeat IPC: 0.682417 cumulative IPC: 0.695613 (Simulation time: 2 hr 21 min 14 sec) 
*** Reached end of trace for Core: 1 Repeating trace: ./traces/ligra/ligra_BFS.com-lj.ungraph.gcc_6.3.0_O3.drop_11500M.length_250M.champsimtrace.xz
Heartbeat CPU 1 instructions: 500000002 cycles: 551256722 heartbeat IPC: 0.860415 cumulative IPC: 0.836672 (Simulation time: 2 hr 22 min 14 sec) 
Heartbeat CPU 0 instructions: 430000000 cycles: 560399371 heartbeat IPC: 0.753464 cumulative IPC: 0.697021 (Simulation time: 2 hr 24 min 35 sec) 
Heartbeat CPU 1 instructions: 510000003 cycles: 563098659 heartbeat IPC: 0.844457 cumulative IPC: 0.83684 (Simulation time: 2 hr 25 min 14 sec) 
Heartbeat CPU 3 instructions: 230000000 cycles: 564724575 heartbeat IPC: 0.31103 cumulative IPC: 0.323543 (Simulation time: 2 hr 25 min 42 sec) 
Heartbeat CPU 1 instructions: 520000002 cycles: 575110515 heartbeat IPC: 0.832511 cumulative IPC: 0.836748 (Simulation time: 2 hr 28 min 9 sec) 
Heartbeat CPU 2 instructions: 160000000 cycles: 576366725 heartbeat IPC: 0.161397 cumulative IPC: 0.195529 (Simulation time: 2 hr 28 min 25 sec) 
Heartbeat CPU 0 instructions: 440000000 cycles: 577382372 heartbeat IPC: 0.588824 cumulative IPC: 0.693753 (Simulation time: 2 hr 28 min 38 sec) 
Heartbeat CPU 1 instructions: 530000002 cycles: 586962425 heartbeat IPC: 0.843746 cumulative IPC: 0.836893 (Simulation time: 2 hr 30 min 55 sec) 
Heartbeat CPU 0 instructions: 450000002 cycles: 592370867 heartbeat IPC: 0.667179 cumulative IPC: 0.693063 (Simulation time: 2 hr 32 min 25 sec) 
Heartbeat CPU 1 instructions: 540000002 cycles: 598720937 heartbeat IPC: 0.850448 cumulative IPC: 0.837166 (Simulation time: 2 hr 33 min 58 sec) 
Heartbeat CPU 3 instructions: 240000002 cycles: 598959411 heartbeat IPC: 0.2921 cumulative IPC: 0.321699 (Simulation time: 2 hr 34 min 3 sec) 
Heartbeat CPU 0 instructions: 460000000 cycles: 607196255 heartbeat IPC: 0.674518 cumulative IPC: 0.692598 (Simulation time: 2 hr 36 min 13 sec) 
Heartbeat CPU 1 instructions: 550000000 cycles: 610447446 heartbeat IPC: 0.852769 cumulative IPC: 0.837473 (Simulation time: 2 hr 37 min 5 sec) 
Heartbeat CPU 0 instructions: 470000003 cycles: 619859327 heartbeat IPC: 0.789698 cumulative IPC: 0.694632 (Simulation time: 2 hr 39 min 19 sec) 
Heartbeat CPU 1 instructions: 560000001 cycles: 622375327 heartbeat IPC: 0.838372 cumulative IPC: 0.837491 (Simulation time: 2 hr 39 min 56 sec) 
Heartbeat CPU 3 instructions: 250000000 cycles: 631801550 heartbeat IPC: 0.304487 cumulative IPC: 0.320782 (Simulation time: 2 hr 42 min 19 sec) 
Heartbeat CPU 0 instructions: 480000002 cycles: 633702592 heartbeat IPC: 0.722373 cumulative IPC: 0.695253 (Simulation time: 2 hr 42 min 44 sec) 
Heartbeat CPU 1 instructions: 570000000 cycles: 634159861 heartbeat IPC: 0.84857 cumulative IPC: 0.837702 (Simulation time: 2 hr 42 min 53 sec) 
Heartbeat CPU 2 instructions: 170000001 cycles: 638158450 heartbeat IPC: 0.161834 cumulative IPC: 0.192187 (Simulation time: 2 hr 43 min 54 sec) 
Finished CPU 3 instructions: 200000001 cycles: 623813916 cumulative IPC: 0.320608 (Simulation time: 2 hr 44 min 7 sec) 
Heartbeat CPU 1 instructions: 580000000 cycles: 645997675 heartbeat IPC: 0.844751 cumulative IPC: 0.837834 (Simulation time: 2 hr 45 min 57 sec) 
Heartbeat CPU 0 instructions: 490000000 cycles: 647044101 heartbeat IPC: 0.74954 cumulative IPC: 0.696399 (Simulation time: 2 hr 46 min 14 sec) 
Heartbeat CPU 1 instructions: 590000003 cycles: 657835286 heartbeat IPC: 0.844765 cumulative IPC: 0.837962 (Simulation time: 2 hr 49 min 5 sec) 
*** Reached end of trace for Core: 0 Repeating trace: ./traces/ligra/ligra_BFS-Bitvector.com-lj.ungraph.gcc_6.3.0_O3.drop_18000M.length_250M.champsimtrace.xz
Heartbeat CPU 0 instructions: 500000001 cycles: 659860435 heartbeat IPC: 0.780254 cumulative IPC: 0.698066 (Simulation time: 2 hr 49 min 32 sec) 
Heartbeat CPU 3 instructions: 260000003 cycles: 664726934 heartbeat IPC: 0.303717 cumulative IPC: 0.319917 (Simulation time: 2 hr 50 min 42 sec) 
Heartbeat CPU 1 instructions: 600000001 cycles: 669706697 heartbeat IPC: 0.84236 cumulative IPC: 0.838041 (Simulation time: 2 hr 51 min 58 sec) 
Heartbeat CPU 0 instructions: 510000001 cycles: 677020349 heartbeat IPC: 0.582753 cumulative IPC: 0.695076 (Simulation time: 2 hr 53 min 51 sec) 
Heartbeat CPU 1 instructions: 610000002 cycles: 681605963 heartbeat IPC: 0.840388 cumulative IPC: 0.838083 (Simulation time: 2 hr 55 min 1 sec) 
Heartbeat CPU 0 instructions: 520000003 cycles: 692831515 heartbeat IPC: 0.632465 cumulative IPC: 0.693615 (Simulation time: 2 hr 57 min 44 sec) 
Heartbeat CPU 1 instructions: 620000000 cycles: 693331411 heartbeat IPC: 0.852846 cumulative IPC: 0.838339 (Simulation time: 2 hr 57 min 53 sec) 
Heartbeat CPU 3 instructions: 270000001 cycles: 697100669 heartbeat IPC: 0.308892 cumulative IPC: 0.319394 (Simulation time: 2 hr 58 min 52 sec) 
Heartbeat CPU 1 instructions: 630000001 cycles: 704917695 heartbeat IPC: 0.86309 cumulative IPC: 0.838754 (Simulation time: 3 hr 0 min 39 sec) 
Heartbeat CPU 2 instructions: 180000000 cycles: 706154587 heartbeat IPC: 0.147067 cumulative IPC: 0.187747 (Simulation time: 3 hr 1 min 0 sec) 
Heartbeat CPU 0 instructions: 530000002 cycles: 706552347 heartbeat IPC: 0.728819 cumulative IPC: 0.694314 (Simulation time: 3 hr 1 min 8 sec) 
Heartbeat CPU 1 instructions: 640000000 cycles: 716856204 heartbeat IPC: 0.837625 cumulative IPC: 0.838735 (Simulation time: 3 hr 3 min 43 sec) 
Heartbeat CPU 0 instructions: 540000000 cycles: 719808796 heartbeat IPC: 0.75435 cumulative IPC: 0.695443 (Simulation time: 3 hr 4 min 22 sec) 
Heartbeat CPU 3 instructions: 280000002 cycles: 726506372 heartbeat IPC: 0.34007 cumulative IPC: 0.320248 (Simulation time: 3 hr 6 min 2 sec) 
Heartbeat CPU 1 instructions: 650000002 cycles: 728942998 heartbeat IPC: 0.827349 cumulative IPC: 0.838542 (Simulation time: 3 hr 6 min 31 sec) 
Heartbeat CPU 0 instructions: 550000000 cycles: 734476981 heartbeat IPC: 0.681748 cumulative IPC: 0.695164 (Simulation time: 3 hr 7 min 53 sec) 
Heartbeat CPU 1 instructions: 660000000 cycles: 740919067 heartbeat IPC: 0.834998 cumulative IPC: 0.838484 (Simulation time: 3 hr 9 min 28 sec) 
Heartbeat CPU 0 instructions: 560000003 cycles: 747331666 heartbeat IPC: 0.777927 cumulative IPC: 0.696617 (Simulation time: 3 hr 11 min 3 sec) 
Heartbeat CPU 1 instructions: 670000003 cycles: 752875474 heartbeat IPC: 0.836372 cumulative IPC: 0.83845 (Simulation time: 3 hr 12 min 23 sec) 
Heartbeat CPU 3 instructions: 290000000 cycles: 756181258 heartbeat IPC: 0.336985 cumulative IPC: 0.320919 (Simulation time: 3 hr 13 min 14 sec) 
Heartbeat CPU 0 instructions: 570000002 cycles: 762237536 heartbeat IPC: 0.670877 cumulative IPC: 0.696104 (Simulation time: 3 hr 14 min 49 sec) 
Heartbeat CPU 1 instructions: 680000000 cycles: 764941219 heartbeat IPC: 0.828792 cumulative IPC: 0.838294 (Simulation time: 3 hr 15 min 26 sec) 
Heartbeat CPU 0 instructions: 580000000 cycles: 776782302 heartbeat IPC: 0.687532 cumulative IPC: 0.69594 (Simulation time: 3 hr 18 min 16 sec) 
Heartbeat CPU 1 instructions: 690000002 cycles: 776969780 heartbeat IPC: 0.831355 cumulative IPC: 0.838185 (Simulation time: 3 hr 18 min 20 sec) 
Heartbeat CPU 3 instructions: 300000000 cycles: 785711885 heartbeat IPC: 0.338631 cumulative IPC: 0.321598 (Simulation time: 3 hr 20 min 27 sec) 
Heartbeat CPU 1 instructions: 700000003 cycles: 788922616 heartbeat IPC: 0.836622 cumulative IPC: 0.838161 (Simulation time: 3 hr 21 min 19 sec) 
Heartbeat CPU 0 instructions: 590000001 cycles: 789571686 heartbeat IPC: 0.781899 cumulative IPC: 0.69736 (Simulation time: 3 hr 21 min 29 sec) 
Heartbeat CPU 1 instructions: 710000001 cycles: 800786439 heartbeat IPC: 0.842898 cumulative IPC: 0.838232 (Simulation time: 3 hr 24 min 26 sec) 
Heartbeat CPU 0 instructions: 600000000 cycles: 803761050 heartbeat IPC: 0.704753 cumulative IPC: 0.697493 (Simulation time: 3 hr 25 min 7 sec) 
Heartbeat CPU 1 instructions: 720000001 cycles: 812599717 heartbeat IPC: 0.846505 cumulative IPC: 0.838355 (Simulation time: 3 hr 27 min 26 sec) 
Heartbeat CPU 3 instructions: 310000003 cycles: 815320974 heartbeat IPC: 0.337734 cumulative IPC: 0.322195 (Simulation time: 3 hr 28 min 1 sec) 
Heartbeat CPU 0 instructions: 610000003 cycles: 817524803 heartbeat IPC: 0.726546 cumulative IPC: 0.697991 (Simulation time: 3 hr 28 min 38 sec) 
Heartbeat CPU 1 instructions: 730000002 cycles: 824459069 heartbeat IPC: 0.843216 cumulative IPC: 0.838426 (Simulation time: 3 hr 30 min 17 sec) 
Heartbeat CPU 0 instructions: 620000002 cycles: 831532487 heartbeat IPC: 0.713894 cumulative IPC: 0.698264 (Simulation time: 3 hr 31 min 59 sec) 
Heartbeat CPU 2 instructions: 190000001 cycles: 835269029 heartbeat IPC: 0.0774507 cumulative IPC: 0.170381 (Simulation time: 3 hr 32 min 53 sec) 
Heartbeat CPU 1 instructions: 740000000 cycles: 836162429 heartbeat IPC: 0.854455 cumulative IPC: 0.838654 (Simulation time: 3 hr 33 min 8 sec) 
Heartbeat CPU 3 instructions: 320000001 cycles: 843806195 heartbeat IPC: 0.351059 cumulative IPC: 0.323187 (Simulation time: 3 hr 34 min 59 sec) 
Heartbeat CPU 0 instructions: 630000000 cycles: 844671926 heartbeat IPC: 0.761067 cumulative IPC: 0.699259 (Simulation time: 3 hr 35 min 16 sec) 
*** Reached end of trace for Core: 1 Repeating trace: ./traces/ligra/ligra_BFS.com-lj.ungraph.gcc_6.3.0_O3.drop_11500M.length_250M.champsimtrace.xz
Heartbeat CPU 1 instructions: 750000003 cycles: 847787770 heartbeat IPC: 0.86019 cumulative IPC: 0.838955 (Simulation time: 3 hr 36 min 9 sec) 
Heartbeat CPU 0 instructions: 640000001 cycles: 857931391 heartbeat IPC: 0.754178 cumulative IPC: 0.700123 (Simulation time: 3 hr 38 min 49 sec) 
Heartbeat CPU 1 instructions: 760000000 cycles: 859629883 heartbeat IPC: 0.844444 cumulative IPC: 0.839032 (Simulation time: 3 hr 39 min 15 sec) 
Heartbeat CPU 1 instructions: 770000000 cycles: 871639050 heartbeat IPC: 0.832697 cumulative IPC: 0.838943 (Simulation time: 3 hr 42 min 12 sec) 
Heartbeat CPU 3 instructions: 330000000 cycles: 873323676 heartbeat IPC: 0.338782 cumulative IPC: 0.323723 (Simulation time: 3 hr 42 min 32 sec) 
Heartbeat CPU 0 instructions: 650000002 cycles: 874123358 heartbeat IPC: 0.61759 cumulative IPC: 0.698567 (Simulation time: 3 hr 42 min 43 sec) 
Heartbeat CPU 1 instructions: 780000000 cycles: 883485625 heartbeat IPC: 0.844126 cumulative IPC: 0.839014 (Simulation time: 3 hr 45 min 14 sec) 
Heartbeat CPU 0 instructions: 660000000 cycles: 887095601 heartbeat IPC: 0.770877 cumulative IPC: 0.699643 (Simulation time: 3 hr 46 min 18 sec) 
Heartbeat CPU 2 instructions: 200000001 cycles: 891674157 heartbeat IPC: 0.177289 cumulative IPC: 0.170825 (Simulation time: 3 hr 47 min 27 sec) 
Heartbeat CPU 1 instructions: 790000000 cycles: 895238068 heartbeat IPC: 0.850887 cumulative IPC: 0.839173 (Simulation time: 3 hr 48 min 31 sec) 
Heartbeat CPU 0 instructions: 670000003 cycles: 900463004 heartbeat IPC: 0.748089 cumulative IPC: 0.700375 (Simulation time: 3 hr 50 min 10 sec) 
Heartbeat CPU 3 instructions: 340000000 cycles: 901503313 heartbeat IPC: 0.354866 cumulative IPC: 0.324714 (Simulation time: 3 hr 50 min 38 sec) 
Heartbeat CPU 2 instructions: 210000000 cycles: 903549231 heartbeat IPC: 0.8421 cumulative IPC: 0.179799 (Simulation time: 3 hr 51 min 25 sec) 
Heartbeat CPU 1 instructions: 800000001 cycles: 906963788 heartbeat IPC: 0.852826 cumulative IPC: 0.839352 (Simulation time: 3 hr 52 min 30 sec) 
Heartbeat CPU 0 instructions: 680000000 cycles: 912242242 heartbeat IPC: 0.848951 cumulative IPC: 0.702326 (Simulation time: 3 hr 54 min 4 sec) 
Heartbeat CPU 1 instructions: 810000002 cycles: 918885812 heartbeat IPC: 0.838784 cumulative IPC: 0.839345 (Simulation time: 3 hr 56 min 5 sec) 
Heartbeat CPU 2 instructions: 220000000 cycles: 925817347 heartbeat IPC: 0.449073 cumulative IPC: 0.186384 (Simulation time: 3 hr 57 min 46 sec) 
Heartbeat CPU 0 instructions: 690000000 cycles: 928902485 heartbeat IPC: 0.600231 cumulative IPC: 0.700464 (Simulation time: 3 hr 58 min 22 sec) 
Heartbeat CPU 1 instructions: 820000001 cycles: 930667296 heartbeat IPC: 0.848789 cumulative IPC: 0.839466 (Simulation time: 3 hr 58 min 48 sec) 
Heartbeat CPU 3 instructions: 350000001 cycles: 932862431 heartbeat IPC: 0.318887 cumulative IPC: 0.324515 (Simulation time: 3 hr 59 min 23 sec) 
Heartbeat CPU 1 instructions: 830000001 cycles: 942504875 heartbeat IPC: 0.844767 cumulative IPC: 0.839534 (Simulation time: 4 hr 1 min 49 sec) 
Heartbeat CPU 0 instructions: 700000003 cycles: 944787365 heartbeat IPC: 0.62953 cumulative IPC: 0.699252 (Simulation time: 4 hr 2 min 32 sec) 
Heartbeat CPU 1 instructions: 840000000 cycles: 954340895 heartbeat IPC: 0.844878 cumulative IPC: 0.839601 (Simulation time: 4 hr 5 min 5 sec) 
Heartbeat CPU 0 instructions: 710000000 cycles: 959926280 heartbeat IPC: 0.660549 cumulative IPC: 0.698632 (Simulation time: 4 hr 6 min 28 sec) 
Heartbeat CPU 3 instructions: 360000003 cycles: 965951280 heartbeat IPC: 0.302217 cumulative IPC: 0.323739 (Simulation time: 4 hr 7 min 58 sec) 
Heartbeat CPU 1 instructions: 850000002 cycles: 966214784 heartbeat IPC: 0.842184 cumulative IPC: 0.839633 (Simulation time: 4 hr 8 min 1 sec) 
Heartbeat CPU 0 instructions: 720000003 cycles: 972355342 heartbeat IPC: 0.804566 cumulative IPC: 0.700007 (Simulation time: 4 hr 9 min 31 sec) 
Heartbeat CPU 1 instructions: 860000003 cycles: 978116038 heartbeat IPC: 0.840248 cumulative IPC: 0.839641 (Simulation time: 4 hr 10 min 50 sec) 
Heartbeat CPU 2 instructions: 230000000 cycles: 982376149 heartbeat IPC: 0.176807 cumulative IPC: 0.185824 (Simulation time: 4 hr 11 min 53 sec) 
Heartbeat CPU 0 instructions: 730000003 cycles: 985850008 heartbeat IPC: 0.741034 cumulative IPC: 0.700578 (Simulation time: 4 hr 12 min 48 sec) 
Heartbeat CPU 1 instructions: 870000001 cycles: 989836914 heartbeat IPC: 0.853178 cumulative IPC: 0.839804 (Simulation time: 4 hr 13 min 48 sec) 
Heartbeat CPU 3 instructions: 370000001 cycles: 996403227 heartbeat IPC: 0.328386 cumulative IPC: 0.323883 (Simulation time: 4 hr 15 min 34 sec) 
Heartbeat CPU 0 instructions: 740000000 cycles: 999555114 heartbeat IPC: 0.729655 cumulative IPC: 0.700982 (Simulation time: 4 hr 16 min 27 sec) 
Heartbeat CPU 1 instructions: 880000000 cycles: 1001418938 heartbeat IPC: 0.863407 cumulative IPC: 0.840081 (Simulation time: 4 hr 17 min 0 sec) 
*** Reached end of trace for Core: 0 Repeating trace: ./traces/ligra/ligra_BFS-Bitvector.com-lj.ungraph.gcc_6.3.0_O3.drop_18000M.length_250M.champsimtrace.xz
Heartbeat CPU 0 instructions: 750000001 cycles: 1012675612 heartbeat IPC: 0.762166 cumulative IPC: 0.701787 (Simulation time: 4 hr 20 min 3 sec) 
Heartbeat CPU 1 instructions: 890000003 cycles: 1013357711 heartbeat IPC: 0.837607 cumulative IPC: 0.840051 (Simulation time: 4 hr 20 min 13 sec) 
Heartbeat CPU 1 instructions: 900000003 cycles: 1025444231 heartbeat IPC: 0.827368 cumulative IPC: 0.8399 (Simulation time: 4 hr 23 min 10 sec) 
Heartbeat CPU 3 instructions: 380000002 cycles: 1029025857 heartbeat IPC: 0.306536 cumulative IPC: 0.323325 (Simulation time: 4 hr 24 min 17 sec) 
Heartbeat CPU 0 instructions: 760000003 cycles: 1029619942 heartbeat IPC: 0.590168 cumulative IPC: 0.699923 (Simulation time: 4 hr 24 min 25 sec) 
Heartbeat CPU 1 instructions: 910000001 cycles: 1037420323 heartbeat IPC: 0.834997 cumulative IPC: 0.839842 (Simulation time: 4 hr 26 min 26 sec) 
Heartbeat CPU 0 instructions: 770000000 cycles: 1045421408 heartbeat IPC: 0.632852 cumulative IPC: 0.698894 (Simulation time: 4 hr 28 min 35 sec) 
Heartbeat CPU 1 instructions: 920000000 cycles: 1049376663 heartbeat IPC: 0.836376 cumulative IPC: 0.839802 (Simulation time: 4 hr 29 min 36 sec) 
Heartbeat CPU 0 instructions: 780000000 cycles: 1060429860 heartbeat IPC: 0.666291 cumulative IPC: 0.698426 (Simulation time: 4 hr 32 min 36 sec) 
Heartbeat CPU 3 instructions: 390000000 cycles: 1060449115 heartbeat IPC: 0.318236 cumulative IPC: 0.323172 (Simulation time: 4 hr 32 min 36 sec) 
Heartbeat CPU 1 instructions: 930000001 cycles: 1061442750 heartbeat IPC: 0.828769 cumulative IPC: 0.839675 (Simulation time: 4 hr 32 min 54 sec) 
Heartbeat CPU 2 instructions: 240000001 cycles: 1063147582 heartbeat IPC: 0.123806 cumulative IPC: 0.181044 (Simulation time: 4 hr 33 min 17 sec) 
Heartbeat CPU 1 instructions: 940000003 cycles: 1073474339 heartbeat IPC: 0.831146 cumulative IPC: 0.839578 (Simulation time: 4 hr 36 min 3 sec) 
Heartbeat CPU 0 instructions: 790000002 cycles: 1074796140 heartbeat IPC: 0.696075 cumulative IPC: 0.698394 (Simulation time: 4 hr 36 min 22 sec) 
Heartbeat CPU 1 instructions: 950000000 cycles: 1085428066 heartbeat IPC: 0.836559 cumulative IPC: 0.839544 (Simulation time: 4 hr 39 min 5 sec) 
Heartbeat CPU 0 instructions: 800000001 cycles: 1090726324 heartbeat IPC: 0.627739 cumulative IPC: 0.697348 (Simulation time: 4 hr 40 min 22 sec) 
Heartbeat CPU 3 instructions: 400000001 cycles: 1092371308 heartbeat IPC: 0.313262 cumulative IPC: 0.322878 (Simulation time: 4 hr 40 min 52 sec) 
Heartbeat CPU 1 instructions: 960000002 cycles: 1097287179 heartbeat IPC: 0.843234 cumulative IPC: 0.839585 (Simulation time: 4 hr 42 min 4 sec) 
Heartbeat CPU 0 instructions: 810000001 cycles: 1104443581 heartbeat IPC: 0.729009 cumulative IPC: 0.697746 (Simulation time: 4 hr 44 min 2 sec) 
Heartbeat CPU 1 instructions: 970000002 cycles: 1109100961 heartbeat IPC: 0.846469 cumulative IPC: 0.839659 (Simulation time: 4 hr 45 min 13 sec) 
Heartbeat CPU 0 instructions: 820000003 cycles: 1120269463 heartbeat IPC: 0.631876 cumulative IPC: 0.696803 (Simulation time: 4 hr 47 min 57 sec) 
Heartbeat CPU 1 instructions: 980000003 cycles: 1120960704 heartbeat IPC: 0.843189 cumulative IPC: 0.839697 (Simulation time: 4 hr 48 min 5 sec) 
Heartbeat CPU 3 instructions: 410000002 cycles: 1124277289 heartbeat IPC: 0.313421 cumulative IPC: 0.322606 (Simulation time: 4 hr 48 min 57 sec) 
Heartbeat CPU 1 instructions: 990000000 cycles: 1132658100 heartbeat IPC: 0.854891 cumulative IPC: 0.839856 (Simulation time: 4 hr 51 min 4 sec) 
Heartbeat CPU 2 instructions: 250000002 cycles: 1136116059 heartbeat IPC: 0.137045 cumulative IPC: 0.178179 (Simulation time: 4 hr 51 min 52 sec) 
Heartbeat CPU 0 instructions: 830000000 cycles: 1136154808 heartbeat IPC: 0.629511 cumulative IPC: 0.695849 (Simulation time: 4 hr 51 min 53 sec) 
Finished CPU 2 instructions: 200000000 cycles: 1122759189 cumulative IPC: 0.178133 (Simulation time: 4 hr 52 min 25 sec) 

ChampSim completed all CPUs

Total Simulation Statistics (not including warmup)

CPU 0 cumulative IPC: 0.696448 instructions: 781943174 cycles: 1122759188
ITLB TOTAL     ACCESS:  126477944  HIT:  126477944  MISS:          0  HIT %:        100  MISS %:          0   MPKI: 0
ITLB LOAD      ACCESS:          0  HIT:          0  MISS:          0  HIT %:       -nan  MISS %:       -nan   MPKI: 0
ITLB RFO       ACCESS:          0  HIT:          0  MISS:          0  HIT %:       -nan  MISS %:       -nan   MPKI: 0
ITLB PREFETCH  ACCESS:          0  HIT:          0  MISS:          0  HIT %:       -nan  MISS %:       -nan   MPKI: 0
ITLB WRITEBACK ACCESS:          0  HIT:          0  MISS:          0  HIT %:       -nan  MISS %:       -nan   MPKI: 0
DTLB TOTAL     ACCESS:  194163969  HIT:  193809094  MISS:     354875  HIT %:    99.8172  MISS %:   0.182771   MPKI: 0.453837
DTLB LOAD      ACCESS:          0  HIT:          0  MISS:          0  HIT %:       -nan  MISS %:       -nan   MPKI: 0
DTLB RFO       ACCESS:          0  HIT:          0  MISS:          0  HIT %:       -nan  MISS %:       -nan   MPKI: 0
DTLB PREFETCH  ACCESS:          0  HIT:          0  MISS:          0  HIT %:       -nan  MISS %:       -nan   MPKI: 0
DTLB WRITEBACK ACCESS:          0  HIT:          0  MISS:          0  HIT %:       -nan  MISS %:       -nan   MPKI: 0
STLB TOTAL     ACCESS:   52452266  HIT:   52386706  MISS:      65560  HIT %:     99.875  MISS %:    0.12499   MPKI: 0.0838424
STLB LOAD      ACCESS:          0  HIT:          0  MISS:          0  HIT %:       -nan  MISS %:       -nan   MPKI: 0
STLB RFO       ACCESS:          0  HIT:          0  MISS:          0  HIT %:       -nan  MISS %:       -nan   MPKI: 0
STLB PREFETCH  ACCESS:          0  HIT:          0  MISS:          0  HIT %:       -nan  MISS %:       -nan   MPKI: 0
STLB WRITEBACK ACCESS:          0  HIT:          0  MISS:          0  HIT %:       -nan  MISS %:       -nan   MPKI: 0
L1D TOTAL     ACCESS:  380888461  HIT:  361406132  MISS:   19482329  HIT %:     94.885  MISS %:    5.11497   MPKI: 24.9153
L1D LOAD      ACCESS:   86413012  HIT:   83716036  MISS:    2696976  HIT %:     96.879  MISS %:    3.12103   MPKI: 3.44907
L1D RFO       ACCESS:  122064977  HIT:  113488792  MISS:    8576185  HIT %:    92.9741  MISS %:    7.02592   MPKI: 10.9678
L1D PREFETCH  ACCESS:  172410472  HIT:  164201304  MISS:    8209168  HIT %:    95.2386  MISS %:    4.76141   MPKI: 10.4984
L1D WRITEBACK ACCESS:          0  HIT:          0  MISS:          0  HIT %:       -nan  MISS %:       -nan   MPKI: 0
L1I TOTAL     ACCESS:  127592754  HIT:  127592753  MISS:          1  HIT %:        100  MISS %: 7.83744e-07   MPKI: 1.27887e-06
L1I LOAD      ACCESS:  127592754  HIT:  127592753  MISS:          1  HIT %:        100  MISS %: 7.83744e-07   MPKI: 1.27887e-06
L1I RFO       ACCESS:          0  HIT:          0  MISS:          0  HIT %:       -nan  MISS %:       -nan   MPKI: 0
L1I PREFETCH  ACCESS:          0  HIT:          0  MISS:          0  HIT %:       -nan  MISS %:       -nan   MPKI: 0
L1I WRITEBACK ACCESS:          0  HIT:          0  MISS:          0  HIT %:       -nan  MISS %:       -nan   MPKI: 0
L2C TOTAL     ACCESS:  101481812  HIT:   84644595  MISS:   16837217  HIT %:    83.4086  MISS %:    16.5914   MPKI: 21.5325
L2C LOAD      ACCESS:    1654023  HIT:    1446038  MISS:     207985  HIT %:    87.4255  MISS %:    12.5745   MPKI: 0.265985
L2C RFO       ACCESS:    8575738  HIT:     627674  MISS:    7948064  HIT %:    7.31918  MISS %:    92.6808   MPKI: 10.1645
L2C PREFETCH  ACCESS:   82377687  HIT:   74228338  MISS:    8149349  HIT %:    90.1073  MISS %:    9.89267   MPKI: 10.4219
L2C WRITEBACK ACCESS:    8593813  HIT:    8074008  MISS:     519805  HIT %:    93.9514  MISS %:     6.0486   MPKI: 0.664761
PSCL5 TOTAL     ACCESS:     277118  HIT:     277118  MISS:          0  HIT %:        100  MISS %:          0   MPKI: 0
PSCL5 LOAD      ACCESS:          0  HIT:          0  MISS:          0  HIT %:       -nan  MISS %:       -nan   MPKI: 0
PSCL5 RFO       ACCESS:          0  HIT:          0  MISS:          0  HIT %:       -nan  MISS %:       -nan   MPKI: 0
PSCL5 PREFETCH  ACCESS:          0  HIT:          0  MISS:          0  HIT %:       -nan  MISS %:       -nan   MPKI: 0
PSCL5 WRITEBACK ACCESS:          0  HIT:          0  MISS:          0  HIT %:       -nan  MISS %:       -nan   MPKI: 0
PSCL4 TOTAL     ACCESS:     277118  HIT:     277118  MISS:          0  HIT %:        100  MISS %:          0   MPKI: 0
PSCL4 LOAD      ACCESS:          0  HIT:          0  MISS:          0  HIT %:       -nan  MISS %:       -nan   MPKI: 0
PSCL4 RFO       ACCESS:          0  HIT:          0  MISS:          0  HIT %:       -nan  MISS %:       -nan   MPKI: 0
PSCL4 PREFETCH  ACCESS:          0  HIT:          0  MISS:          0  HIT %:       -nan  MISS %:       -nan   MPKI: 0
PSCL4 WRITEBACK ACCESS:          0  HIT:          0  MISS:          0  HIT %:       -nan  MISS %:       -nan   MPKI: 0
PSCL3 TOTAL     ACCESS:     277118  HIT:     277118  MISS:          0  HIT %:        100  MISS %:          0   MPKI: 0
PSCL3 LOAD      ACCESS:          0  HIT:          0  MISS:          0  HIT %:       -nan  MISS %:       -nan   MPKI: 0
PSCL3 RFO       ACCESS:          0  HIT:          0  MISS:          0  HIT %:       -nan  MISS %:       -nan   MPKI: 0
PSCL3 PREFETCH  ACCESS:          0  HIT:          0  MISS:          0  HIT %:       -nan  MISS %:       -nan   MPKI: 0
PSCL3 WRITEBACK ACCESS:          0  HIT:          0  MISS:          0  HIT %:       -nan  MISS %:       -nan   MPKI: 0
PSCL2 TOTAL     ACCESS:     273767  HIT:     273623  MISS:        144  HIT %:    99.9474  MISS %:  0.0525995   MPKI: 0.000184157
PSCL2 LOAD      ACCESS:          0  HIT:          0  MISS:          0  HIT %:       -nan  MISS %:       -nan   MPKI: 0
PSCL2 RFO       ACCESS:          0  HIT:          0  MISS:          0  HIT %:       -nan  MISS %:       -nan   MPKI: 0
PSCL2 PREFETCH  ACCESS:          0  HIT:          0  MISS:          0  HIT %:       -nan  MISS %:       -nan   MPKI: 0
PSCL2 WRITEBACK ACCESS:          0  HIT:          0  MISS:          0  HIT %:       -nan  MISS %:       -nan   MPKI: 0
LLC TOTAL     ACCESS:   24415961  HIT:   18316538  MISS:    6099423  HIT %:    75.0187  MISS %:    24.9813   MPKI: 7.80034
LLC LOAD      ACCESS:     156334  HIT:     135609  MISS:      20725  HIT %:    86.7431  MISS %:    13.2569   MPKI: 0.0265045
LLC RFO       ACCESS:    7947729  HIT:    4898289  MISS:    3049440  HIT %:    61.6313  MISS %:    38.3687   MPKI: 3.89982
LLC PREFETCH  ACCESS:    8201292  HIT:    5239809  MISS:    2961483  HIT %:      63.89  MISS %:      36.11   MPKI: 3.78734
LLC WRITEBACK ACCESS:    8098592  HIT:    8039651  MISS:      58941  HIT %:    99.2722  MISS %:   0.727793   MPKI: 0.0753776

RAW hits: 13771254
Loads Generated: 199994373
Loads sent to L1D: 186223119
Stores Generated: 167835163
Stores sent to L1D: 167835163

CPU 1 cumulative IPC: 0.839978 instructions: 943093428 cycles: 1122759189
ITLB TOTAL     ACCESS:  169329386  HIT:  169329386  MISS:          0  HIT %:        100  MISS %:          0   MPKI: 0
ITLB LOAD      ACCESS:          0  HIT:          0  MISS:          0  HIT %:       -nan  MISS %:       -nan   MPKI: 0
ITLB RFO       ACCESS:          0  HIT:          0  MISS:          0  HIT %:       -nan  MISS %:       -nan   MPKI: 0
ITLB PREFETCH  ACCESS:          0  HIT:          0  MISS:          0  HIT %:       -nan  MISS %:       -nan   MPKI: 0
ITLB WRITEBACK ACCESS:          0  HIT:          0  MISS:          0  HIT %:       -nan  MISS %:       -nan   MPKI: 0
DTLB TOTAL     ACCESS:  123505160  HIT:  123486017  MISS:      19143  HIT %:    99.9845  MISS %:  0.0154998   MPKI: 0.0202981
DTLB LOAD      ACCESS:          0  HIT:          0  MISS:          0  HIT %:       -nan  MISS %:       -nan   MPKI: 0
DTLB RFO       ACCESS:          0  HIT:          0  MISS:          0  HIT %:       -nan  MISS %:       -nan   MPKI: 0
DTLB PREFETCH  ACCESS:          0  HIT:          0  MISS:          0  HIT %:       -nan  MISS %:       -nan   MPKI: 0
DTLB WRITEBACK ACCESS:          0  HIT:          0  MISS:          0  HIT %:       -nan  MISS %:       -nan   MPKI: 0
STLB TOTAL     ACCESS:   27101443  HIT:   27082300  MISS:      19143  HIT %:    99.9294  MISS %:  0.0706346   MPKI: 0.0202981
STLB LOAD      ACCESS:          0  HIT:          0  MISS:          0  HIT %:       -nan  MISS %:       -nan   MPKI: 0
STLB RFO       ACCESS:          0  HIT:          0  MISS:          0  HIT %:       -nan  MISS %:       -nan   MPKI: 0
STLB PREFETCH  ACCESS:          0  HIT:          0  MISS:          0  HIT %:       -nan  MISS %:       -nan   MPKI: 0
STLB WRITEBACK ACCESS:          0  HIT:          0  MISS:          0  HIT %:       -nan  MISS %:       -nan   MPKI: 0
L1D TOTAL     ACCESS:  280220210  HIT:  278995480  MISS:    1224730  HIT %:    99.5629  MISS %:    0.43706   MPKI: 1.29863
L1D LOAD      ACCESS:   91071679  HIT:   91068368  MISS:       3311  HIT %:    99.9964  MISS %:  0.0036356   MPKI: 0.00351079
L1D RFO       ACCESS:   47138218  HIT:   46887472  MISS:     250746  HIT %:    99.4681  MISS %:   0.531938   MPKI: 0.265876
L1D PREFETCH  ACCESS:  142010313  HIT:  141039640  MISS:     970673  HIT %:    99.3165  MISS %:   0.683523   MPKI: 1.02924
L1D WRITEBACK ACCESS:          0  HIT:          0  MISS:          0  HIT %:       -nan  MISS %:       -nan   MPKI: 0
L1I TOTAL     ACCESS:  181122785  HIT:  181122785  MISS:          0  HIT %:        100  MISS %:          0   MPKI: 0
L1I LOAD      ACCESS:  181122785  HIT:  181122785  MISS:          0  HIT %:        100  MISS %:          0   MPKI: 0
L1I RFO       ACCESS:          0  HIT:          0  MISS:          0  HIT %:       -nan  MISS %:       -nan   MPKI: 0
L1I PREFETCH  ACCESS:          0  HIT:          0  MISS:          0  HIT %:       -nan  MISS %:       -nan   MPKI: 0
L1I WRITEBACK ACCESS:          0  HIT:          0  MISS:          0  HIT %:       -nan  MISS %:       -nan   MPKI: 0
L2C TOTAL     ACCESS:   33413891  HIT:   32162513  MISS:    1251378  HIT %:    96.2549  MISS %:    3.74508   MPKI: 1.32689
L2C LOAD      ACCESS:       2551  HIT:         19  MISS:       2532  HIT %:   0.744806  MISS %:    99.2552   MPKI: 0.00268478
L2C RFO       ACCESS:     250746  HIT:          0  MISS:     250746  HIT %:          0  MISS %:        100   MPKI: 0.265876
L2C PREFETCH  ACCESS:   32347531  HIT:   31376026  MISS:     971505  HIT %:    96.9967  MISS %:    3.00334   MPKI: 1.03013
L2C WRITEBACK ACCESS:     250757  HIT:     226805  MISS:      23952  HIT %:    90.4481  MISS %:    9.55188   MPKI: 0.0253973
PSCL5 TOTAL     ACCESS:     562306  HIT:     562306  MISS:          0  HIT %:        100  MISS %:          0   MPKI: 0
PSCL5 LOAD      ACCESS:          0  HIT:          0  MISS:          0  HIT %:       -nan  MISS %:       -nan   MPKI: 0
PSCL5 RFO       ACCESS:          0  HIT:          0  MISS:          0  HIT %:       -nan  MISS %:       -nan   MPKI: 0
PSCL5 PREFETCH  ACCESS:          0  HIT:          0  MISS:          0  HIT %:       -nan  MISS %:       -nan   MPKI: 0
PSCL5 WRITEBACK ACCESS:          0  HIT:          0  MISS:          0  HIT %:       -nan  MISS %:       -nan   MPKI: 0
PSCL4 TOTAL     ACCESS:     562306  HIT:     562306  MISS:          0  HIT %:        100  MISS %:          0   MPKI: 0
PSCL4 LOAD      ACCESS:          0  HIT:          0  MISS:          0  HIT %:       -nan  MISS %:       -nan   MPKI: 0
PSCL4 RFO       ACCESS:          0  HIT:          0  MISS:          0  HIT %:       -nan  MISS %:       -nan   MPKI: 0
PSCL4 PREFETCH  ACCESS:          0  HIT:          0  MISS:          0  HIT %:       -nan  MISS %:       -nan   MPKI: 0
PSCL4 WRITEBACK ACCESS:          0  HIT:          0  MISS:          0  HIT %:       -nan  MISS %:       -nan   MPKI: 0
PSCL3 TOTAL     ACCESS:     562306  HIT:     562306  MISS:          0  HIT %:        100  MISS %:          0   MPKI: 0
PSCL3 LOAD      ACCESS:          0  HIT:          0  MISS:          0  HIT %:       -nan  MISS %:       -nan   MPKI: 0
PSCL3 RFO       ACCESS:          0  HIT:          0  MISS:          0  HIT %:       -nan  MISS %:       -nan   MPKI: 0
PSCL3 PREFETCH  ACCESS:          0  HIT:          0  MISS:          0  HIT %:       -nan  MISS %:       -nan   MPKI: 0
PSCL3 WRITEBACK ACCESS:          0  HIT:          0  MISS:          0  HIT %:       -nan  MISS %:       -nan   MPKI: 0
PSCL2 TOTAL     ACCESS:     561414  HIT:     561406  MISS:          8  HIT %:    99.9986  MISS %: 0.00142497   MPKI: 8.48272e-06
PSCL2 LOAD      ACCESS:          0  HIT:          0  MISS:          0  HIT %:       -nan  MISS %:       -nan   MPKI: 0
PSCL2 RFO       ACCESS:          0  HIT:          0  MISS:          0  HIT %:       -nan  MISS %:       -nan   MPKI: 0
PSCL2 PREFETCH  ACCESS:          0  HIT:          0  MISS:          0  HIT %:       -nan  MISS %:       -nan   MPKI: 0
PSCL2 WRITEBACK ACCESS:          0  HIT:          0  MISS:          0  HIT %:       -nan  MISS %:       -nan   MPKI: 0
LLC TOTAL     ACCESS:    1478138  HIT:      79971  MISS:    1398167  HIT %:    5.41025  MISS %:    94.5897   MPKI: 1.48253
LLC LOAD      ACCESS:       2532  HIT:          0  MISS:       2532  HIT %:          0  MISS %:        100   MPKI: 0.00268478
LLC RFO       ACCESS:     250746  HIT:          0  MISS:     250746  HIT %:          0  MISS %:        100   MPKI: 0.265876
LLC PREFETCH  ACCESS:     971505  HIT:         44  MISS:     971461  HIT %: 0.00452906  MISS %:    99.9955   MPKI: 1.03008
LLC WRITEBACK ACCESS:     250712  HIT:      79701  MISS:     171011  HIT %:    31.7899  MISS %:    68.2101   MPKI: 0.18133

RAW hits: 12585169
Loads Generated: 132687891
Loads sent to L1D: 120102722
Stores Generated: 48142481
Stores sent to L1D: 48142483

CPU 2 cumulative IPC: 0.178133 instructions: 200000000 cycles: 1122759189
ITLB TOTAL     ACCESS:   33642511  HIT:   33642511  MISS:          0  HIT %:        100  MISS %:          0   MPKI: 0
ITLB LOAD      ACCESS:          0  HIT:          0  MISS:          0  HIT %:       -nan  MISS %:       -nan   MPKI: 0
ITLB RFO       ACCESS:          0  HIT:          0  MISS:          0  HIT %:       -nan  MISS %:       -nan   MPKI: 0
ITLB PREFETCH  ACCESS:          0  HIT:          0  MISS:          0  HIT %:       -nan  MISS %:       -nan   MPKI: 0
ITLB WRITEBACK ACCESS:          0  HIT:          0  MISS:          0  HIT %:       -nan  MISS %:       -nan   MPKI: 0
DTLB TOTAL     ACCESS:   36647422  HIT:   36378274  MISS:     269148  HIT %:    99.2656  MISS %:   0.734425   MPKI: 1.34574
DTLB LOAD      ACCESS:          0  HIT:          0  MISS:          0  HIT %:       -nan  MISS %:       -nan   MPKI: 0
DTLB RFO       ACCESS:          0  HIT:          0  MISS:          0  HIT %:       -nan  MISS %:       -nan   MPKI: 0
DTLB PREFETCH  ACCESS:          0  HIT:          0  MISS:          0  HIT %:       -nan  MISS %:       -nan   MPKI: 0
DTLB WRITEBACK ACCESS:          0  HIT:          0  MISS:          0  HIT %:       -nan  MISS %:       -nan   MPKI: 0
STLB TOTAL     ACCESS:   20627274  HIT:   20451410  MISS:     175864  HIT %:    99.1474  MISS %:    0.85258   MPKI: 0.87932
STLB LOAD      ACCESS:          0  HIT:          0  MISS:          0  HIT %:       -nan  MISS %:       -nan   MPKI: 0
STLB RFO       ACCESS:          0  HIT:          0  MISS:          0  HIT %:       -nan  MISS %:       -nan   MPKI: 0
STLB PREFETCH  ACCESS:          0  HIT:          0  MISS:          0  HIT %:       -nan  MISS %:       -nan   MPKI: 0
STLB WRITEBACK ACCESS:          0  HIT:          0  MISS:          0  HIT %:       -nan  MISS %:       -nan   MPKI: 0
L1D TOTAL     ACCESS:  107934169  HIT:  102630750  MISS:    5303419  HIT %:    95.0864  MISS %:    4.91357   MPKI: 26.5171
L1D LOAD      ACCESS:   32224746  HIT:   29006884  MISS:    3217862  HIT %:    90.0143  MISS %:    9.98569   MPKI: 16.0893
L1D RFO       ACCESS:    4334092  HIT:    4095146  MISS:     238946  HIT %:    94.4868  MISS %:    5.51317   MPKI: 1.19473
L1D PREFETCH  ACCESS:   71375331  HIT:   69528720  MISS:    1846611  HIT %:    97.4128  MISS %:    2.58718   MPKI: 9.23306
L1D WRITEBACK ACCESS:          0  HIT:          0  MISS:          0  HIT %:       -nan  MISS %:       -nan   MPKI: 0
L1I TOTAL     ACCESS:   42660028  HIT:   42660015  MISS:         13  HIT %:        100  MISS %: 3.04735e-05   MPKI: 6.5e-05
L1I LOAD      ACCESS:   42660028  HIT:   42660015  MISS:         13  HIT %:        100  MISS %: 3.04735e-05   MPKI: 6.5e-05
L1I RFO       ACCESS:          0  HIT:          0  MISS:          0  HIT %:       -nan  MISS %:       -nan   MPKI: 0
L1I PREFETCH  ACCESS:          0  HIT:          0  MISS:          0  HIT %:       -nan  MISS %:       -nan   MPKI: 0
L1I WRITEBACK ACCESS:          0  HIT:          0  MISS:          0  HIT %:       -nan  MISS %:       -nan   MPKI: 0
L2C TOTAL     ACCESS:   30048500  HIT:   24056634  MISS:    5991866  HIT %:    80.0594  MISS %:    19.9406   MPKI: 29.9593
L2C LOAD      ACCESS:    3071909  HIT:    1776149  MISS:    1295760  HIT %:    57.8191  MISS %:    42.1809   MPKI: 6.4788
L2C RFO       ACCESS:     238944  HIT:       6536  MISS:     232408  HIT %:    2.73537  MISS %:    97.2646   MPKI: 1.16204
L2C PREFETCH  ACCESS:   25856336  HIT:   21493966  MISS:    4362370  HIT %:    83.1284  MISS %:    16.8716   MPKI: 21.8118
L2C WRITEBACK ACCESS:     661377  HIT:     593588  MISS:      67789  HIT %:    89.7503  MISS %:    10.2497   MPKI: 0.338945
PSCL5 TOTAL     ACCESS:     218987  HIT:     218987  MISS:          0  HIT %:        100  MISS %:          0   MPKI: 0
PSCL5 LOAD      ACCESS:          0  HIT:          0  MISS:          0  HIT %:       -nan  MISS %:       -nan   MPKI: 0
PSCL5 RFO       ACCESS:          0  HIT:          0  MISS:          0  HIT %:       -nan  MISS %:       -nan   MPKI: 0
PSCL5 PREFETCH  ACCESS:          0  HIT:          0  MISS:          0  HIT %:       -nan  MISS %:       -nan   MPKI: 0
PSCL5 WRITEBACK ACCESS:          0  HIT:          0  MISS:          0  HIT %:       -nan  MISS %:       -nan   MPKI: 0
PSCL4 TOTAL     ACCESS:     218987  HIT:     218987  MISS:          0  HIT %:        100  MISS %:          0   MPKI: 0
PSCL4 LOAD      ACCESS:          0  HIT:          0  MISS:          0  HIT %:       -nan  MISS %:       -nan   MPKI: 0
PSCL4 RFO       ACCESS:          0  HIT:          0  MISS:          0  HIT %:       -nan  MISS %:       -nan   MPKI: 0
PSCL4 PREFETCH  ACCESS:          0  HIT:          0  MISS:          0  HIT %:       -nan  MISS %:       -nan   MPKI: 0
PSCL4 WRITEBACK ACCESS:          0  HIT:          0  MISS:          0  HIT %:       -nan  MISS %:       -nan   MPKI: 0
PSCL3 TOTAL     ACCESS:     218987  HIT:     218987  MISS:          0  HIT %:        100  MISS %:          0   MPKI: 0
PSCL3 LOAD      ACCESS:          0  HIT:          0  MISS:          0  HIT %:       -nan  MISS %:       -nan   MPKI: 0
PSCL3 RFO       ACCESS:          0  HIT:          0  MISS:          0  HIT %:       -nan  MISS %:       -nan   MPKI: 0
PSCL3 PREFETCH  ACCESS:          0  HIT:          0  MISS:          0  HIT %:       -nan  MISS %:       -nan   MPKI: 0
PSCL3 WRITEBACK ACCESS:          0  HIT:          0  MISS:          0  HIT %:       -nan  MISS %:       -nan   MPKI: 0
PSCL2 TOTAL     ACCESS:     218932  HIT:     218040  MISS:        892  HIT %:    99.5926  MISS %:   0.407432   MPKI: 0.00446
PSCL2 LOAD      ACCESS:          0  HIT:          0  MISS:          0  HIT %:       -nan  MISS %:       -nan   MPKI: 0
PSCL2 RFO       ACCESS:          0  HIT:          0  MISS:          0  HIT %:       -nan  MISS %:       -nan   MPKI: 0
PSCL2 PREFETCH  ACCESS:          0  HIT:          0  MISS:          0  HIT %:       -nan  MISS %:       -nan   MPKI: 0
PSCL2 WRITEBACK ACCESS:          0  HIT:          0  MISS:          0  HIT %:       -nan  MISS %:       -nan   MPKI: 0
LLC TOTAL     ACCESS:    6554266  HIT:    1170787  MISS:    5383479  HIT %:     17.863  MISS %:     82.137   MPKI: 26.9174
LLC LOAD      ACCESS:    1081205  HIT:     558843  MISS:     522362  HIT %:    51.6871  MISS %:    48.3129   MPKI: 2.61181
LLC RFO       ACCESS:     232408  HIT:       6111  MISS:     226297  HIT %:    2.62943  MISS %:    97.3706   MPKI: 1.13149
LLC PREFETCH  ACCESS:    4576923  HIT:      66143  MISS:    4510780  HIT %:    1.44514  MISS %:    98.5549   MPKI: 22.5539
LLC WRITEBACK ACCESS:     630191  HIT:     536797  MISS:      93394  HIT %:      85.18  MISS %:      14.82   MPKI: 0.46697

RAW hits: 240379
Loads Generated: 49183000
Loads sent to L1D: 48942621
Stores Generated: 7121361
Stores sent to L1D: 7121356

CPU 3 cumulative IPC: 0.322675 instructions: 362286503 cycles: 1122759189
ITLB TOTAL     ACCESS:   49453791  HIT:   49453791  MISS:          0  HIT %:        100  MISS %:          0   MPKI: 0
ITLB LOAD      ACCESS:          0  HIT:          0  MISS:          0  HIT %:       -nan  MISS %:       -nan   MPKI: 0
ITLB RFO       ACCESS:          0  HIT:          0  MISS:          0  HIT %:       -nan  MISS %:       -nan   MPKI: 0
ITLB PREFETCH  ACCESS:          0  HIT:          0  MISS:          0  HIT %:       -nan  MISS %:       -nan   MPKI: 0
ITLB WRITEBACK ACCESS:          0  HIT:          0  MISS:          0  HIT %:       -nan  MISS %:       -nan   MPKI: 0
DTLB TOTAL     ACCESS:   59619116  HIT:   59121927  MISS:     497189  HIT %:    99.1661  MISS %:   0.833942   MPKI: 1.37236
DTLB LOAD      ACCESS:          0  HIT:          0  MISS:          0  HIT %:       -nan  MISS %:       -nan   MPKI: 0
DTLB RFO       ACCESS:          0  HIT:          0  MISS:          0  HIT %:       -nan  MISS %:       -nan   MPKI: 0
DTLB PREFETCH  ACCESS:          0  HIT:          0  MISS:          0  HIT %:       -nan  MISS %:       -nan   MPKI: 0
DTLB WRITEBACK ACCESS:          0  HIT:          0  MISS:          0  HIT %:       -nan  MISS %:       -nan   MPKI: 0
STLB TOTAL     ACCESS:    4540500  HIT:    4270761  MISS:     269739  HIT %:    94.0593  MISS %:    5.94073   MPKI: 0.744546
STLB LOAD      ACCESS:          0  HIT:          0  MISS:          0  HIT %:       -nan  MISS %:       -nan   MPKI: 0
STLB RFO       ACCESS:          0  HIT:          0  MISS:          0  HIT %:       -nan  MISS %:       -nan   MPKI: 0
STLB PREFETCH  ACCESS:          0  HIT:          0  MISS:          0  HIT %:       -nan  MISS %:       -nan   MPKI: 0
STLB WRITEBACK ACCESS:          0  HIT:          0  MISS:          0  HIT %:       -nan  MISS %:       -nan   MPKI: 0
L1D TOTAL     ACCESS:   98272153  HIT:   69776559  MISS:   28495594  HIT %:    71.0034  MISS %:    28.9966   MPKI: 78.6549
L1D LOAD      ACCESS:   27597162  HIT:   24026257  MISS:    3570905  HIT %:    87.0606  MISS %:    12.9394   MPKI: 9.85658
L1D RFO       ACCESS:   62198826  HIT:   38033065  MISS:   24165761  HIT %:    61.1476  MISS %:    38.8524   MPKI: 66.7035
L1D PREFETCH  ACCESS:    8476165  HIT:    7717237  MISS:     758928  HIT %:    91.0463  MISS %:    8.95367   MPKI: 2.09483
L1D WRITEBACK ACCESS:          0  HIT:          0  MISS:          0  HIT %:       -nan  MISS %:       -nan   MPKI: 0
L1I TOTAL     ACCESS:   65232050  HIT:   65232050  MISS:          0  HIT %:        100  MISS %:          0   MPKI: 0
L1I LOAD      ACCESS:   65232050  HIT:   65232050  MISS:          0  HIT %:        100  MISS %:          0   MPKI: 0
L1I RFO       ACCESS:          0  HIT:          0  MISS:          0  HIT %:       -nan  MISS %:       -nan   MPKI: 0
L1I PREFETCH  ACCESS:          0  HIT:          0  MISS:          0  HIT %:       -nan  MISS %:       -nan   MPKI: 0
L1I WRITEBACK ACCESS:          0  HIT:          0  MISS:          0  HIT %:       -nan  MISS %:       -nan   MPKI: 0
L2C TOTAL     ACCESS:   63418761  HIT:   44258364  MISS:   19160397  HIT %:    69.7875  MISS %:    30.2125   MPKI: 52.8874
L2C LOAD      ACCESS:    3455981  HIT:    2462339  MISS:     993642  HIT %:    71.2486  MISS %:    28.7514   MPKI: 2.7427
L2C RFO       ACCESS:   24165751  HIT:   10424047  MISS:   13741704  HIT %:    43.1356  MISS %:    56.8644   MPKI: 37.9305
L2C PREFETCH  ACCESS:   10678657  HIT:    7347126  MISS:    3331531  HIT %:     68.802  MISS %:     31.198   MPKI: 9.19585
L2C WRITEBACK ACCESS:   24165766  HIT:   23107065  MISS:    1058701  HIT %:     95.619  MISS %:    4.38099   MPKI: 2.92228
PSCL5 TOTAL     ACCESS:     948423  HIT:     948423  MISS:          0  HIT %:        100  MISS %:          0   MPKI: 0
PSCL5 LOAD      ACCESS:          0  HIT:          0  MISS:          0  HIT %:       -nan  MISS %:       -nan   MPKI: 0
PSCL5 RFO       ACCESS:          0  HIT:          0  MISS:          0  HIT %:       -nan  MISS %:       -nan   MPKI: 0
PSCL5 PREFETCH  ACCESS:          0  HIT:          0  MISS:          0  HIT %:       -nan  MISS %:       -nan   MPKI: 0
PSCL5 WRITEBACK ACCESS:          0  HIT:          0  MISS:          0  HIT %:       -nan  MISS %:       -nan   MPKI: 0
PSCL4 TOTAL     ACCESS:     948423  HIT:     948423  MISS:          0  HIT %:        100  MISS %:          0   MPKI: 0
PSCL4 LOAD      ACCESS:          0  HIT:          0  MISS:          0  HIT %:       -nan  MISS %:       -nan   MPKI: 0
PSCL4 RFO       ACCESS:          0  HIT:          0  MISS:          0  HIT %:       -nan  MISS %:       -nan   MPKI: 0
PSCL4 PREFETCH  ACCESS:          0  HIT:          0  MISS:          0  HIT %:       -nan  MISS %:       -nan   MPKI: 0
PSCL4 WRITEBACK ACCESS:          0  HIT:          0  MISS:          0  HIT %:       -nan  MISS %:       -nan   MPKI: 0
PSCL3 TOTAL     ACCESS:     948413  HIT:     948412  MISS:          1  HIT %:    99.9999  MISS %: 0.000105439   MPKI: 2.76025e-06
PSCL3 LOAD      ACCESS:          0  HIT:          0  MISS:          0  HIT %:       -nan  MISS %:       -nan   MPKI: 0
PSCL3 RFO       ACCESS:          0  HIT:          0  MISS:          0  HIT %:       -nan  MISS %:       -nan   MPKI: 0
PSCL3 PREFETCH  ACCESS:          0  HIT:          0  MISS:          0  HIT %:       -nan  MISS %:       -nan   MPKI: 0
PSCL3 WRITEBACK ACCESS:          0  HIT:          0  MISS:          0  HIT %:       -nan  MISS %:       -nan   MPKI: 0
PSCL2 TOTAL     ACCESS:     942864  HIT:     942592  MISS:        272  HIT %:    99.9712  MISS %:  0.0288483   MPKI: 0.000750787
PSCL2 LOAD      ACCESS:          0  HIT:          0  MISS:          0  HIT %:       -nan  MISS %:       -nan   MPKI: 0
PSCL2 RFO       ACCESS:          0  HIT:          0  MISS:          0  HIT %:       -nan  MISS %:       -nan   MPKI: 0
PSCL2 PREFETCH  ACCESS:          0  HIT:          0  MISS:          0  HIT %:       -nan  MISS %:       -nan   MPKI: 0
PSCL2 WRITEBACK ACCESS:          0  HIT:          0  MISS:          0  HIT %:       -nan  MISS %:       -nan   MPKI: 0
LLC TOTAL     ACCESS:   31861155  HIT:   14516749  MISS:   17344406  HIT %:    45.5625  MISS %:    54.4375   MPKI: 47.8748
LLC LOAD      ACCESS:     741686  HIT:       1203  MISS:     740483  HIT %:   0.162198  MISS %:    99.8378   MPKI: 2.04392
LLC RFO       ACCESS:   13740967  HIT:     795612  MISS:   12945355  HIT %:    5.79007  MISS %:    94.2099   MPKI: 35.7324
LLC PREFETCH  ACCESS:    3583487  HIT:       8483  MISS:    3575004  HIT %:   0.236725  MISS %:    99.7633   MPKI: 9.86789
LLC WRITEBACK ACCESS:   13760196  HIT:   13710742  MISS:      49454  HIT %:    99.6406  MISS %:   0.359399   MPKI: 0.136505

RAW hits: 8405301
Loads Generated: 94509934
Loads sent to L1D: 86104633
Stores Generated: 66788655
Stores sent to L1D: 66788678

Region of Interest Statistics

CPU 0 cumulative IPC: 0.692931 instructions: 200000001 cycles: 288628857
ITLB TOTAL     ACCESS:   32364649  HIT:   32364649  MISS:          0  HIT %:        100  MISS %:          0   MPKI: 0
ITLB LOAD TRANSLATION ACCESS:   32364649  HIT:   32364649  MISS:          0  HIT %:        100  MISS %:          0   MPKI: 0
ITLB PREFETCH  REQUESTED:          0  ISSUED:          0  USEFUL:          0  USELESS:          0
ITLB USEFUL LOAD PREFETCHES:          0 PREFETCH ISSUED TO LOWER LEVEL:          0  ACCURACY: -nan
ITLB TIMELY PREFETCHES:          0 LATE PREFETCHES: 0 DROPPED PREFETCHES: 0
ITLB PREFETCHES SAME FILL-ORIGIN LEVEL: 0 DIFFERENT FILL-ORIGIN LEVEL: 0
ITLB AVERAGE MISS LATENCY: -nan cycles
ITLB RQ	ACCESS:  127592755	FORWARD:          0	MERGED:    1114811	TO_CACHE:  126477944

DTLB TOTAL     ACCESS:   49632918  HIT:   49542997  MISS:      89921  HIT %:    99.8188  MISS %:   0.181172   MPKI: 0.449605
DTLB LOAD TRANSLATION ACCESS:   49632918  HIT:   49542997  MISS:      89921  HIT %:    99.8188  MISS %:   0.181172   MPKI: 0.449605
DTLB PREFETCH  REQUESTED:          0  ISSUED:          0  USEFUL:          0  USELESS:          0
DTLB USEFUL LOAD PREFETCHES:          0 PREFETCH ISSUED TO LOWER LEVEL:          0  ACCURACY: -nan
DTLB TIMELY PREFETCHES:          0 LATE PREFETCHES: 0 DROPPED PREFETCHES: 0
DTLB PREFETCHES SAME FILL-ORIGIN LEVEL: 0 DIFFERENT FILL-ORIGIN LEVEL: 0
DTLB AVERAGE MISS LATENCY: 509.9 cycles
DTLB RQ	ACCESS:  251340800	FORWARD:          0	MERGED:   56849776	TO_CACHE:  194491024

STLB TOTAL     ACCESS:   13169640  HIT:   13153343  MISS:      16297  HIT %:    99.8763  MISS %:   0.123747   MPKI: 0.081485
STLB LOAD TRANSLATION ACCESS:      89921  HIT:      73624  MISS:      16297  HIT %:    81.8763  MISS %:    18.1237   MPKI: 0.081485
STLB TRANSLATION FROM L1D PREFETCHER ACCESS:   13079719  HIT:   13079719  MISS:          0  HIT %:        100  MISS %:          0   MPKI: 0
STLB PREFETCH  REQUESTED:          0  ISSUED:          0  USEFUL:      22170  USELESS:          0
STLB USEFUL LOAD PREFETCHES:      22170 PREFETCH ISSUED TO LOWER LEVEL:          0  ACCURACY: inf
STLB TIMELY PREFETCHES:      22170 LATE PREFETCHES: 3089 DROPPED PREFETCHES: 209456
STLB PREFETCHES SAME FILL-ORIGIN LEVEL: 0 DIFFERENT FILL-ORIGIN LEVEL: 0
STLB AVERAGE MISS LATENCY: 2785.57 cycles
STLB RQ	ACCESS:  276998687	FORWARD:          0	MERGED:  224288945	TO_CACHE:   52709742

STLB Hit, L1D data hit: 0
STLB Hit, L2C data hit: 0
STLB Hit, LLC data hit: 0
STLB Hit, LLC data miss: 0
STLB STLB hints to L2: 0
L1D TOTAL     ACCESS:   97299901  HIT:   92320012  MISS:    4979889  HIT %:    94.8819  MISS %:    5.11808   MPKI: 24.8994
L1D LOAD      ACCESS:   22043880  HIT:   21356524  MISS:     687356  HIT %:    96.8819  MISS %:    3.11813   MPKI: 3.43678
L1D RFO       ACCESS:   31212928  HIT:   29021054  MISS:    2191874  HIT %:    92.9777  MISS %:    7.02233   MPKI: 10.9594
L1D PREFETCH  ACCESS:   44043093  HIT:   41942434  MISS:    2100659  HIT %:    95.2304  MISS %:    4.76955   MPKI: 10.5033
L1D PREFETCH  REQUESTED: 1220912395  ISSUED:  848269456  USEFUL:    7979262  USELESS:     229908
L1D USEFUL LOAD PREFETCHES:    7979262 PREFETCH ISSUED TO LOWER LEVEL:   85592995  ACCURACY: 9.32233
L1D TIMELY PREFETCHES:    7979262 LATE PREFETCHES: 1042939 DROPPED PREFETCHES: 540074
L1D PREFETCHES SAME FILL-ORIGIN LEVEL: 9252615 DIFFERENT FILL-ORIGIN LEVEL: 76340380
L1D AVERAGE MISS LATENCY: 1196.71 cycles
L1D RQ	ACCESS:  186223119	FORWARD:          0	MERGED:   96434428	TO_CACHE:   88998294
L1D WQ	ACCESS:  167835163	FORWARD:    1332573	MERGED:    5492657	TO_CACHE:  162342506
L1D PQ	ACCESS:  571625644	FORWARD:          0	MERGED:  294439656	TO_CACHE:  276643812

L1D UNIQUE REGIONS ACCESSED: 0
L1D REGIONS CONFLICTS: 0
L1D Cross Page Prefetch Requests: 48893380
L1D Same Page Prefetch Requests: 571445909
L1D ROI Sum of L1D PQ occupancy: 5605412636
L1D PREFETCHES PUSHED FROM L2C: 0
L1I TOTAL     ACCESS:   32652794  HIT:   32652793  MISS:          1  HIT %:        100  MISS %: 3.06253e-06   MPKI: 5e-06
L1I LOAD      ACCESS:   32652794  HIT:   32652793  MISS:          1  HIT %:        100  MISS %: 3.06253e-06   MPKI: 5e-06
L1I PREFETCH  REQUESTED:          0  ISSUED:          0  USEFUL:          0  USELESS:          0
L1I USEFUL LOAD PREFETCHES:          0 PREFETCH ISSUED TO LOWER LEVEL:          0  ACCURACY: -nan
L1I TIMELY PREFETCHES:          0 LATE PREFETCHES: 0 DROPPED PREFETCHES: 0
L1I PREFETCHES SAME FILL-ORIGIN LEVEL: 0 DIFFERENT FILL-ORIGIN LEVEL: 0
L1I AVERAGE MISS LATENCY: 615 cycles
L1I RQ	ACCESS:  193488138	FORWARD:          0	MERGED:   65895383	TO_CACHE:  127592755

BTB TOTAL     ACCESS:   19983054  HIT:   19982708  MISS:        346  HIT %:    99.9983  MISS %: 0.00173147   MPKI: 0.00173
BTB BRANCH_DIRECT_JUMP	ACCESS:       1127  HIT:       1123  MISS:          4
BTB BRANCH_INDIRECT	ACCESS:          0  HIT:          0  MISS:          0
BTB BRANCH_CONDITIONAL	ACCESS:   19978739  HIT:   19978707  MISS:         32
BTB BRANCH_DIRECT_CALL	ACCESS:       1594  HIT:       1584  MISS:         10
BTB BRANCH_INDIRECT_CALL	ACCESS:          0  HIT:          0  MISS:          0
BTB BRANCH_RETURN	ACCESS:       1594  HIT:       1294  MISS:        300
BTB BRANCH_OTHER ACCESS:          0  HIT:          0  MISS:          0

L2C TOTAL     ACCESS:   25426543  HIT:   21132951  MISS:    4293592  HIT %:    83.1137  MISS %:    16.8863   MPKI: 21.468
L2C LOAD      ACCESS:     428582  HIT:     365052  MISS:      63530  HIT %:    85.1767  MISS %:    14.8233   MPKI: 0.31765
L2C DATA LOAD MPKI: 0.317645
L2C INSTRUCTION LOAD MPKI: 5e-06
L2C RFO       ACCESS:    2191775  HIT:     162143  MISS:    2029632  HIT %:    7.39779  MISS %:    92.6022   MPKI: 10.1482
L2C PREFETCH  ACCESS:   20433792  HIT:   18366399  MISS:    2067393  HIT %:    89.8825  MISS %:    10.1175   MPKI: 10.337
L2C DATA PREFETCH MPKI: 10.337
L2C INSTRUCTION PREFETCH MPKI: 0
L2C WRITEBACK ACCESS:    2196381  HIT:    2066216  MISS:     130165  HIT %:    94.0737  MISS %:    5.92634   MPKI: 0.650825
L2C LOAD TRANSLATION ACCESS:      16298  HIT:      14960  MISS:       1338  HIT %:    91.7904  MISS %:     8.2096   MPKI: 0.00669
L2C TRANSLATION FROM L1D PREFETCHER ACCESS:     159715  HIT:     158181  MISS:       1534  HIT %:    99.0395  MISS %:   0.960461   MPKI: 0.00767
L2C PREFETCH  REQUESTED:          0  ISSUED:          0  USEFUL:    1464235  USELESS:    6692047
L2C USEFUL LOAD PREFETCHES:    1464235 PREFETCH ISSUED TO LOWER LEVEL:    8201330  ACCURACY: 17.8536
L2C TIMELY PREFETCHES:    1464235 LATE PREFETCHES: 51981 DROPPED PREFETCHES: 0
L2C PREFETCHES SAME FILL-ORIGIN LEVEL: 1933883 DIFFERENT FILL-ORIGIN LEVEL: 0
L2C AVERAGE MISS LATENCY: 1728.54 cycles
L2C RQ	ACCESS:   10510719	FORWARD:          0	MERGED:          0	TO_CACHE:   10510312
L2C WQ	ACCESS:    8593813	FORWARD:        559	MERGED:          0	TO_CACHE:    8593813
L2C PQ	ACCESS:   85563579	FORWARD:          0	MERGED:    1198629	TO_CACHE:   84364798

L2C Instructions Evicting Data 1
L2C Translations Evicting Data 12011
L2C Data Evicting Data 16293756
L2C Instructions Evicting Instructions 0
L2C Translations Evicting Instructions 0
L2C Data Evicting Instructions 1
L2C Instructions Evicting Translations 0
L2C Translations Evicting Translations 3
L2C Data Evicting Translations 11640
L2C Dense regions hint from L2: 0
PSCL5 TOTAL     ACCESS:     175337  HIT:     175337  MISS:          0  HIT %:        100  MISS %:          0   MPKI: 0
PSCL5 LOAD TRANSLATION ACCESS:      16298  HIT:      16298  MISS:          0  HIT %:        100  MISS %:          0   MPKI: 0
PSCL5 TRANSLATION FROM L1D PREFETCHER ACCESS:     159039  HIT:     159039  MISS:          0  HIT %:        100  MISS %:          0   MPKI: 0
PSCL5 PREFETCH  REQUESTED:          0  ISSUED:          0  USEFUL:          0  USELESS:          0
PSCL5 USEFUL LOAD PREFETCHES:          0 PREFETCH ISSUED TO LOWER LEVEL:          0  ACCURACY: -nan
PSCL5 TIMELY PREFETCHES:          0 LATE PREFETCHES: 0 DROPPED PREFETCHES: 0
PSCL5 PREFETCHES SAME FILL-ORIGIN LEVEL: 0 DIFFERENT FILL-ORIGIN LEVEL: 0

PSCL4 TOTAL     ACCESS:     175337  HIT:     175337  MISS:          0  HIT %:        100  MISS %:          0   MPKI: 0
PSCL4 LOAD TRANSLATION ACCESS:      16298  HIT:      16298  MISS:          0  HIT %:        100  MISS %:          0   MPKI: 0
PSCL4 TRANSLATION FROM L1D PREFETCHER ACCESS:     159039  HIT:     159039  MISS:          0  HIT %:        100  MISS %:          0   MPKI: 0
PSCL4 PREFETCH  REQUESTED:          0  ISSUED:          0  USEFUL:          0  USELESS:          0
PSCL4 USEFUL LOAD PREFETCHES:          0 PREFETCH ISSUED TO LOWER LEVEL:          0  ACCURACY: -nan
PSCL4 TIMELY PREFETCHES:          0 LATE PREFETCHES: 0 DROPPED PREFETCHES: 0
PSCL4 PREFETCHES SAME FILL-ORIGIN LEVEL: 0 DIFFERENT FILL-ORIGIN LEVEL: 0

PSCL3 TOTAL     ACCESS:     175337  HIT:     175337  MISS:          0  HIT %:        100  MISS %:          0   MPKI: 0
PSCL3 LOAD TRANSLATION ACCESS:      16298  HIT:      16298  MISS:          0  HIT %:        100  MISS %:          0   MPKI: 0
PSCL3 TRANSLATION FROM L1D PREFETCHER ACCESS:     159039  HIT:     159039  MISS:          0  HIT %:        100  MISS %:          0   MPKI: 0
PSCL3 PREFETCH  REQUESTED:          0  ISSUED:          0  USEFUL:          0  USELESS:          0
PSCL3 USEFUL LOAD PREFETCHES:          0 PREFETCH ISSUED TO LOWER LEVEL:          0  ACCURACY: -nan
PSCL3 TIMELY PREFETCHES:          0 LATE PREFETCHES: 0 DROPPED PREFETCHES: 0
PSCL3 PREFETCHES SAME FILL-ORIGIN LEVEL: 0 DIFFERENT FILL-ORIGIN LEVEL: 0

PSCL2 TOTAL     ACCESS:     174632  HIT:     174598  MISS:         34  HIT %:    99.9805  MISS %:  0.0194695   MPKI: 0.00017
PSCL2 LOAD TRANSLATION ACCESS:      16298  HIT:      16264  MISS:         34  HIT %:    99.7914  MISS %:   0.208615   MPKI: 0.00017
PSCL2 TRANSLATION FROM L1D PREFETCHER ACCESS:     158334  HIT:     158334  MISS:          0  HIT %:        100  MISS %:          0   MPKI: 0
PSCL2 PREFETCH  REQUESTED:          0  ISSUED:          0  USEFUL:          0  USELESS:          0
PSCL2 USEFUL LOAD PREFETCHES:          0 PREFETCH ISSUED TO LOWER LEVEL:          0  ACCURACY: -nan
PSCL2 TIMELY PREFETCHES:          0 LATE PREFETCHES: 0 DROPPED PREFETCHES: 0
PSCL2 PREFETCHES SAME FILL-ORIGIN LEVEL: 0 DIFFERENT FILL-ORIGIN LEVEL: 0

LLC TOTAL     ACCESS:    6233033  HIT:    4694685  MISS:    1538348  HIT %:    75.3194  MISS %:    24.6806   MPKI: 7.69174
LLC LOAD      ACCESS:      47213  HIT:      33176  MISS:      14037  HIT %:    70.2688  MISS %:    29.7312   MPKI: 0.070185
LLC RFO       ACCESS:    2029536  HIT:    1264743  MISS:     764793  HIT %:    62.3169  MISS %:    37.6831   MPKI: 3.82396
LLC PREFETCH  ACCESS:    2083792  HIT:    1341058  MISS:     742734  HIT %:    64.3566  MISS %:    35.6434   MPKI: 3.71367
LLC WRITEBACK ACCESS:    2069620  HIT:    2055029  MISS:      14591  HIT %:     99.295  MISS %:   0.705009   MPKI: 0.072955
LLC LOAD TRANSLATION ACCESS:       1338  HIT:        180  MISS:       1158  HIT %:    13.4529  MISS %:    86.5471   MPKI: 0.00579
LLC TRANSLATION FROM L1D PREFETCHER ACCESS:       1534  HIT:        499  MISS:       1035  HIT %:    32.5293  MISS %:    67.4707   MPKI: 0.005175
LLC PREFETCH  REQUESTED:          0  ISSUED:          0  USEFUL:    1910994  USELESS:   10122522
LLC USEFUL LOAD PREFETCHES:    1910994 PREFETCH ISSUED TO LOWER LEVEL:   12442103  ACCURACY: 15.3591
LLC TIMELY PREFETCHES:    1910994 LATE PREFETCHES: 0 DROPPED PREFETCHES: 0
LLC PREFETCHES SAME FILL-ORIGIN LEVEL: 0 DIFFERENT FILL-ORIGIN LEVEL: 0
LLC AVERAGE MISS LATENCY: 21203 cycles
LLC RQ	ACCESS:   24237379	FORWARD:          0	MERGED:          0	TO_CACHE:   24236636
LLC WQ	ACCESS:   22739692	FORWARD:        782	MERGED:          0	TO_CACHE:   22739692
LLC PQ	ACCESS:   17333261	FORWARD:          0	MERGED:          0	TO_CACHE:   17333222

LLC Dense regions hint to LLC: 0

RAW hits: 3565505
Loads Generated: 51161449
Loads sent to L1D: 47595939
Stores Generated: 42934187
Stores sent to L1D: 42934168
Major fault: 0 Minor fault: 21110
Allocated PAGES: 211186

CPU 1 cumulative IPC: 0.829334 instructions: 200000002 cycles: 241157330
ITLB TOTAL     ACCESS:   35905955  HIT:   35905955  MISS:          0  HIT %:        100  MISS %:          0   MPKI: 0
ITLB LOAD TRANSLATION ACCESS:   35905955  HIT:   35905955  MISS:          0  HIT %:        100  MISS %:          0   MPKI: 0
ITLB PREFETCH  REQUESTED:          0  ISSUED:          0  USEFUL:          0  USELESS:          0
ITLB USEFUL LOAD PREFETCHES:          0 PREFETCH ISSUED TO LOWER LEVEL:          0  ACCURACY: -nan
ITLB TIMELY PREFETCHES:          0 LATE PREFETCHES: 0 DROPPED PREFETCHES: 0
ITLB PREFETCHES SAME FILL-ORIGIN LEVEL: 0 DIFFERENT FILL-ORIGIN LEVEL: 0
ITLB AVERAGE MISS LATENCY: -nan cycles
ITLB RQ	ACCESS:  181122784	FORWARD:          0	MERGED:   11793399	TO_CACHE:  169329385

DTLB TOTAL     ACCESS:   26204728  HIT:   26200667  MISS:       4061  HIT %:    99.9845  MISS %:  0.0154972   MPKI: 0.020305
[...]
L2C PREFETCHES SAME FILL-ORIGIN LEVEL: 3586882 DIFFERENT FILL-ORIGIN LEVEL: 0
L2C AVERAGE MISS LATENCY: 966.994 cycles
L2C RQ	ACCESS:    3530788	FORWARD:          0	MERGED:          0	TO_CACHE:    3530787
L2C WQ	ACCESS:     661377	FORWARD:          2	MERGED:          0	TO_CACHE:     661377
L2C PQ	ACCESS:   34436667	FORWARD:          0	MERGED:      23858	TO_CACHE:   34412808

L2C Instructions Evicting Data 13
L2C Translations Evicting Data 33251
L2C Data Evicting Data 5857406
L2C Instructions Evicting Instructions 0
L2C Translations Evicting Instructions 0
L2C Data Evicting Instructions 15
L2C Instructions Evicting Translations 0
L2C Translations Evicting Translations 288
L2C Data Evicting Translations 33104
L2C Dense regions hint from L2: 0
PSCL5 TOTAL     ACCESS:     218987  HIT:     218987  MISS:          0  HIT %:        100  MISS %:          0   MPKI: 0
PSCL5 LOAD TRANSLATION ACCESS:      93860  HIT:      93860  MISS:          0  HIT %:        100  MISS %:          0   MPKI: 0
PSCL5 TRANSLATION FROM L1D PREFETCHER ACCESS:     125127  HIT:     125127  MISS:          0  HIT %:        100  MISS %:          0   MPKI: 0
PSCL5 PREFETCH  REQUESTED:          0  ISSUED:          0  USEFUL:          0  USELESS:          0
PSCL5 USEFUL LOAD PREFETCHES:          0 PREFETCH ISSUED TO LOWER LEVEL:          0  ACCURACY: -nan
PSCL5 TIMELY PREFETCHES:          0 LATE PREFETCHES: 0 DROPPED PREFETCHES: 0
PSCL5 PREFETCHES SAME FILL-ORIGIN LEVEL: 0 DIFFERENT FILL-ORIGIN LEVEL: 0

PSCL4 TOTAL     ACCESS:     218987  HIT:     218987  MISS:          0  HIT %:        100  MISS %:          0   MPKI: 0
PSCL4 LOAD TRANSLATION ACCESS:      93860  HIT:      93860  MISS:          0  HIT %:        100  MISS %:          0   MPKI: 0
PSCL4 TRANSLATION FROM L1D PREFETCHER ACCESS:     125127  HIT:     125127  MISS:          0  HIT %:        100  MISS %:          0   MPKI: 0
PSCL4 PREFETCH  REQUESTED:          0  ISSUED:          0  USEFUL:          0  USELESS:          0
PSCL4 USEFUL LOAD PREFETCHES:          0 PREFETCH ISSUED TO LOWER LEVEL:          0  ACCURACY: -nan
PSCL4 TIMELY PREFETCHES:          0 LATE PREFETCHES: 0 DROPPED PREFETCHES: 0
PSCL4 PREFETCHES SAME FILL-ORIGIN LEVEL: 0 DIFFERENT FILL-ORIGIN LEVEL: 0

PSCL3 TOTAL     ACCESS:     218987  HIT:     218987  MISS:          0  HIT %:        100  MISS %:          0   MPKI: 0
PSCL3 LOAD TRANSLATION ACCESS:      93860  HIT:      93860  MISS:          0  HIT %:        100  MISS %:          0   MPKI: 0
PSCL3 TRANSLATION FROM L1D PREFETCHER ACCESS:     125127  HIT:     125127  MISS:          0  HIT %:        100  MISS %:          0   MPKI: 0
PSCL3 PREFETCH  REQUESTED:          0  ISSUED:          0  USEFUL:          0  USELESS:          0
PSCL3 USEFUL LOAD PREFETCHES:          0 PREFETCH ISSUED TO LOWER LEVEL:          0  ACCURACY: -nan
PSCL3 TIMELY PREFETCHES:          0 LATE PREFETCHES: 0 DROPPED PREFETCHES: 0
PSCL3 PREFETCHES SAME FILL-ORIGIN LEVEL: 0 DIFFERENT FILL-ORIGIN LEVEL: 0

PSCL2 TOTAL     ACCESS:     218932  HIT:     218040  MISS:        892  HIT %:    99.5926  MISS %:   0.407432   MPKI: 0.00446
PSCL2 LOAD TRANSLATION ACCESS:      94036  HIT:      93144  MISS:        892  HIT %:    99.0514  MISS %:   0.948573   MPKI: 0.00446
PSCL2 TRANSLATION FROM L1D PREFETCHER ACCESS:     124896  HIT:     124896  MISS:          0  HIT %:        100  MISS %:          0   MPKI: 0
PSCL2 PREFETCH  REQUESTED:          0  ISSUED:          0  USEFUL:          0  USELESS:          0
PSCL2 USEFUL LOAD PREFETCHES:          0 PREFETCH ISSUED TO LOWER LEVEL:          0  ACCURACY: -nan
PSCL2 TIMELY PREFETCHES:          0 LATE PREFETCHES: 0 DROPPED PREFETCHES: 0
PSCL2 PREFETCHES SAME FILL-ORIGIN LEVEL: 0 DIFFERENT FILL-ORIGIN LEVEL: 0

LLC TOTAL     ACCESS:    6554266  HIT:    1170787  MISS:    5383479  HIT %:     17.863  MISS %:     82.137   MPKI: 26.9174
LLC LOAD      ACCESS:    1081205  HIT:     558843  MISS:     522362  HIT %:    51.6871  MISS %:    48.3129   MPKI: 2.61181
LLC RFO       ACCESS:     232408  HIT:       6111  MISS:     226297  HIT %:    2.62943  MISS %:    97.3706   MPKI: 1.13149
LLC PREFETCH  ACCESS:    4576923  HIT:      66143  MISS:    4510780  HIT %:    1.44514  MISS %:    98.5549   MPKI: 22.5539
LLC WRITEBACK ACCESS:     630191  HIT:     536797  MISS:      93394  HIT %:      85.18  MISS %:      14.82   MPKI: 0.46697
LLC LOAD TRANSLATION ACCESS:      20799  HIT:       2115  MISS:      18684  HIT %:    10.1688  MISS %:    89.8312   MPKI: 0.09342
LLC TRANSLATION FROM L1D PREFETCHER ACCESS:      12740  HIT:        778  MISS:      11962  HIT %:    6.10675  MISS %:    93.8932   MPKI: 0.05981
LLC PREFETCH  REQUESTED:          0  ISSUED:          0  USEFUL:    1910994  USELESS:   10122522
LLC USEFUL LOAD PREFETCHES:    1910994 PREFETCH ISSUED TO LOWER LEVEL:   12442103  ACCURACY: 15.3591
LLC TIMELY PREFETCHES:    1910994 LATE PREFETCHES: 0 DROPPED PREFETCHES: 0
LLC PREFETCHES SAME FILL-ORIGIN LEVEL: 0 DIFFERENT FILL-ORIGIN LEVEL: 0
LLC AVERAGE MISS LATENCY: 6058.82 cycles
LLC RQ	ACCESS:   24237379	FORWARD:          0	MERGED:          0	TO_CACHE:   24236636
LLC WQ	ACCESS:   22739692	FORWARD:        782	MERGED:          0	TO_CACHE:   22739692
LLC PQ	ACCESS:   17333261	FORWARD:          0	MERGED:          0	TO_CACHE:   17333222

LLC Dense regions hint to LLC: 0

RAW hits: 240379
Loads Generated: 49183000
Loads sent to L1D: 48942621
Stores Generated: 7121361
Stores sent to L1D: 7121356
Major fault: 0 Minor fault: 27368
Allocated PAGES: 211186

CPU 3 cumulative IPC: 0.320608 instructions: 200000001 cycles: 623813916
ITLB TOTAL     ACCESS:   27319195  HIT:   27319195  MISS:          0  HIT %:        100  MISS %:          0   MPKI: 0
ITLB LOAD TRANSLATION ACCESS:   27319195  HIT:   27319195  MISS:          0  HIT %:        100  MISS %:          0   MPKI: 0
ITLB PREFETCH  REQUESTED:          0  ISSUED:          0  USEFUL:          0  USELESS:          0
ITLB USEFUL LOAD PREFETCHES:          0 PREFETCH ISSUED TO LOWER LEVEL:          0  ACCURACY: -nan
ITLB TIMELY PREFETCHES:          0 LATE PREFETCHES: 0 DROPPED PREFETCHES: 0
ITLB PREFETCHES SAME FILL-ORIGIN LEVEL: 0 DIFFERENT FILL-ORIGIN LEVEL: 0
ITLB AVERAGE MISS LATENCY: -nan cycles
ITLB RQ	ACCESS:   65232050	FORWARD:          0	MERGED:   15778259	TO_CACHE:   49453791

DTLB TOTAL     ACCESS:   32980821  HIT:   32704665  MISS:     276156  HIT %:    99.1627  MISS %:   0.837323   MPKI: 1.38078
DTLB LOAD TRANSLATION ACCESS:   32980821  HIT:   32704665  MISS:     276156  HIT %:    99.1627  MISS %:   0.837323   MPKI: 1.38078
DTLB PREFETCH  REQUESTED:          0  ISSUED:          0  USEFUL:          0  USELESS:          0
DTLB USEFUL LOAD PREFETCHES:          0 PREFETCH ISSUED TO LOWER LEVEL:          0  ACCURACY: -nan
DTLB TIMELY PREFETCHES:          0 LATE PREFETCHES: 0 DROPPED PREFETCHES: 0
DTLB PREFETCHES SAME FILL-ORIGIN LEVEL: 0 DIFFERENT FILL-ORIGIN LEVEL: 0
DTLB AVERAGE MISS LATENCY: 262.35 cycles
DTLB RQ	ACCESS:   90747295	FORWARD:          0	MERGED:   30884196	TO_CACHE:   59863099

STLB TOTAL     ACCESS:    2488080  HIT:    2338259  MISS:     149821  HIT %:    93.9784  MISS %:    6.02155   MPKI: 0.749105
STLB LOAD TRANSLATION ACCESS:     276156  HIT:     126336  MISS:     149820  HIT %:    45.7481  MISS %:    54.2519   MPKI: 0.7491
STLB TRANSLATION FROM L1D PREFETCHER ACCESS:    2211924  HIT:    2211923  MISS:          1  HIT %:        100  MISS %: 4.52095e-05   MPKI: 5e-06
STLB PREFETCH  REQUESTED:          0  ISSUED:          0  USEFUL:          5  USELESS:          0
STLB USEFUL LOAD PREFETCHES:          5 PREFETCH ISSUED TO LOWER LEVEL:          0  ACCURACY: inf
STLB TIMELY PREFETCHES:          5 LATE PREFETCHES: 16262 DROPPED PREFETCHES: 662422
STLB PREFETCHES SAME FILL-ORIGIN LEVEL: 0 DIFFERENT FILL-ORIGIN LEVEL: 0
STLB AVERAGE MISS LATENCY: 450.184 cycles
STLB RQ	ACCESS:   24863798	FORWARD:          0	MERGED:   19522625	TO_CACHE:    5341173

STLB Hit, L1D data hit: 0
STLB Hit, L2C data hit: 0
STLB Hit, LLC data hit: 0
STLB Hit, LLC data miss: 0
STLB STLB hints to L2: 0
L1D TOTAL     ACCESS:   54331451  HIT:   38504095  MISS:   15827356  HIT %:    70.8689  MISS %:    29.1311   MPKI: 79.1368
L1D LOAD      ACCESS:   15229524  HIT:   13241005  MISS:    1988519  HIT %:     86.943  MISS %:     13.057   MPKI: 9.94259
L1D RFO       ACCESS:   34419211  HIT:   20996749  MISS:   13422462  HIT %:     61.003  MISS %:     38.997   MPKI: 67.1123
L1D PREFETCH  ACCESS:    4682716  HIT:    4266341  MISS:     416375  HIT %:    91.1083  MISS %:    8.89174   MPKI: 2.08187
L1D PREFETCH  REQUESTED:  133296657  ISSUED:   80693835  USEFUL:     744785  USELESS:      14144
L1D USEFUL LOAD PREFETCHES:     744785 PREFETCH ISSUED TO LOWER LEVEL:   12434808  ACCURACY: 5.98952
L1D TIMELY PREFETCHES:     744785 LATE PREFETCHES: 114924 DROPPED PREFETCHES: 2125312
L1D PREFETCHES SAME FILL-ORIGIN LEVEL: 873930 DIFFERENT FILL-ORIGIN LEVEL: 11560878
L1D AVERAGE MISS LATENCY: 1009.21 cycles
L1D RQ	ACCESS:   86104633	FORWARD:          0	MERGED:   46145598	TO_CACHE:   27961513
L1D WQ	ACCESS:   66788678	FORWARD:   12010417	MERGED:    4002896	TO_CACHE:   62785782
L1D PQ	ACCESS:   56327226	FORWARD:          0	MERGED:   31947722	TO_CACHE:   24366609

L1D UNIQUE REGIONS ACCESSED: 0
L1D REGIONS CONFLICTS: 0
L1D Cross Page Prefetch Requests: 7158329
L1D Same Page Prefetch Requests: 65275025
L1D ROI Sum of L1D PQ occupancy: 10688274576
L1D PREFETCHES PUSHED FROM L2C: 0
L1I TOTAL     ACCESS:   36030611  HIT:   36030611  MISS:          0  HIT %:        100  MISS %:          0   MPKI: 0
L1I LOAD      ACCESS:   36030611  HIT:   36030611  MISS:          0  HIT %:        100  MISS %:          0   MPKI: 0
L1I PREFETCH  REQUESTED:          0  ISSUED:          0  USEFUL:          0  USELESS:          0
L1I USEFUL LOAD PREFETCHES:          0 PREFETCH ISSUED TO LOWER LEVEL:          0  ACCURACY: -nan
L1I TIMELY PREFETCHES:          0 LATE PREFETCHES: 0 DROPPED PREFETCHES: 0
L1I PREFETCHES SAME FILL-ORIGIN LEVEL: 0 DIFFERENT FILL-ORIGIN LEVEL: 0
L1I AVERAGE MISS LATENCY: -nan cycles
L1I RQ	ACCESS:   92285837	FORWARD:          0	MERGED:   27053787	TO_CACHE:   65232050

BTB TOTAL     ACCESS:    3610815  HIT:    3610815  MISS:          0  HIT %:        100  MISS %:          0   MPKI: 0
BTB BRANCH_DIRECT_JUMP	ACCESS:     591354  HIT:     591354  MISS:          0
BTB BRANCH_INDIRECT	ACCESS:          0  HIT:          0  MISS:          0
BTB BRANCH_CONDITIONAL	ACCESS:    3019461  HIT:    3019461  MISS:          0
BTB BRANCH_DIRECT_CALL	ACCESS:          0  HIT:          0  MISS:          0
BTB BRANCH_INDIRECT_CALL	ACCESS:          0  HIT:          0  MISS:          0
BTB BRANCH_RETURN	ACCESS:          0  HIT:          0  MISS:          0
BTB BRANCH_OTHER ACCESS:          0  HIT:          0  MISS:          0

L2C TOTAL     ACCESS:   35122834  HIT:   24456473  MISS:   10666361  HIT %:    69.6313  MISS %:    30.3687   MPKI: 53.3318
L2C LOAD      ACCESS:    1925708  HIT:    1370622  MISS:     555086  HIT %:     71.175  MISS %:     28.825   MPKI: 2.77543
L2C DATA LOAD MPKI: 2.77543
L2C INSTRUCTION LOAD MPKI: 0
L2C RFO       ACCESS:   13422455  HIT:    5758993  MISS:    7663462  HIT %:    42.9057  MISS %:    57.0943   MPKI: 38.3173
L2C PREFETCH  ACCESS:    5823381  HIT:    3976309  MISS:    1847072  HIT %:    68.2818  MISS %:    31.7182   MPKI: 9.23536
L2C DATA PREFETCH MPKI: 9.23536
L2C INSTRUCTION PREFETCH MPKI: 0
L2C WRITEBACK ACCESS:   13422463  HIT:   12841042  MISS:     581421  HIT %:    95.6683  MISS %:     4.3317   MPKI: 2.9071
L2C LOAD TRANSLATION ACCESS:     149823  HIT:     135326  MISS:      14497  HIT %:    90.3239  MISS %:    9.67608   MPKI: 0.072485
L2C TRANSLATION FROM L1D PREFETCHER ACCESS:     379004  HIT:     374181  MISS:       4823  HIT %:    98.7275  MISS %:    1.27255   MPKI: 0.024115
L2C PREFETCH  REQUESTED:          0  ISSUED:          0  USEFUL:    2470888  USELESS:     869941
L2C USEFUL LOAD PREFETCHES:    2470888 PREFETCH ISSUED TO LOWER LEVEL:    3583487  ACCURACY: 68.9521
L2C TIMELY PREFETCHES:    2470888 LATE PREFETCHES: 251956 DROPPED PREFETCHES: 0
L2C PREFETCHES SAME FILL-ORIGIN LEVEL: 3414958 DIFFERENT FILL-ORIGIN LEVEL: 0
L2C AVERAGE MISS LATENCY: 1756.68 cycles
L2C RQ	ACCESS:   28574362	FORWARD:          0	MERGED:          0	TO_CACHE:   28574353
L2C WQ	ACCESS:   24165766	FORWARD:          9	MERGED:          0	TO_CACHE:   24165766
L2C PQ	ACCESS:   12422272	FORWARD:          0	MERGED:     106958	TO_CACHE:   12315314

L2C Instructions Evicting Data 0
L2C Translations Evicting Data 34646
L2C Data Evicting Data 18033704
L2C Instructions Evicting Instructions 0
L2C Translations Evicting Instructions 0
L2C Data Evicting Instructions 0
L2C Instructions Evicting Translations 0
L2C Translations Evicting Translations 173
L2C Data Evicting Translations 33173
L2C Dense regions hint from L2: 0
PSCL5 TOTAL     ACCESS:     526804  HIT:     526804  MISS:          0  HIT %:        100  MISS %:          0   MPKI: 0
PSCL5 LOAD TRANSLATION ACCESS:     149820  HIT:     149820  MISS:          0  HIT %:        100  MISS %:          0   MPKI: 0
PSCL5 TRANSLATION FROM L1D PREFETCHER ACCESS:     376984  HIT:     376984  MISS:          0  HIT %:        100  MISS %:          0   MPKI: 0
PSCL5 PREFETCH  REQUESTED:          0  ISSUED:          0  USEFUL:          0  USELESS:          0
PSCL5 USEFUL LOAD PREFETCHES:          0 PREFETCH ISSUED TO LOWER LEVEL:          0  ACCURACY: -nan
PSCL5 TIMELY PREFETCHES:          0 LATE PREFETCHES: 0 DROPPED PREFETCHES: 0
PSCL5 PREFETCHES SAME FILL-ORIGIN LEVEL: 0 DIFFERENT FILL-ORIGIN LEVEL: 0

PSCL4 TOTAL     ACCESS:     526804  HIT:     526804  MISS:          0  HIT %:        100  MISS %:          0   MPKI: 0
PSCL4 LOAD TRANSLATION ACCESS:     149820  HIT:     149820  MISS:          0  HIT %:        100  MISS %:          0   MPKI: 0
PSCL4 TRANSLATION FROM L1D PREFETCHER ACCESS:     376984  HIT:     376984  MISS:          0  HIT %:        100  MISS %:          0   MPKI: 0
PSCL4 PREFETCH  REQUESTED:          0  ISSUED:          0  USEFUL:          0  USELESS:          0
PSCL4 USEFUL LOAD PREFETCHES:          0 PREFETCH ISSUED TO LOWER LEVEL:          0  ACCURACY: -nan
PSCL4 TIMELY PREFETCHES:          0 LATE PREFETCHES: 0 DROPPED PREFETCHES: 0
PSCL4 PREFETCHES SAME FILL-ORIGIN LEVEL: 0 DIFFERENT FILL-ORIGIN LEVEL: 0

PSCL3 TOTAL     ACCESS:     526804  HIT:     526804  MISS:          0  HIT %:        100  MISS %:          0   MPKI: 0
PSCL3 LOAD TRANSLATION ACCESS:     149820  HIT:     149820  MISS:          0  HIT %:        100  MISS %:          0   MPKI: 0
PSCL3 TRANSLATION FROM L1D PREFETCHER ACCESS:     376984  HIT:     376984  MISS:          0  HIT %:        100  MISS %:          0   MPKI: 0
PSCL3 PREFETCH  REQUESTED:          0  ISSUED:          0  USEFUL:          0  USELESS:          0
PSCL3 USEFUL LOAD PREFETCHES:          0 PREFETCH ISSUED TO LOWER LEVEL:          0  ACCURACY: -nan
PSCL3 TIMELY PREFETCHES:          0 LATE PREFETCHES: 0 DROPPED PREFETCHES: 0
PSCL3 PREFETCHES SAME FILL-ORIGIN LEVEL: 0 DIFFERENT FILL-ORIGIN LEVEL: 0

PSCL2 TOTAL     ACCESS:     524027  HIT:     523877  MISS:        150  HIT %:    99.9714  MISS %:  0.0286245   MPKI: 0.00075
PSCL2 LOAD TRANSLATION ACCESS:     149821  HIT:     149671  MISS:        150  HIT %:    99.8999  MISS %:   0.100119   MPKI: 0.00075
PSCL2 TRANSLATION FROM L1D PREFETCHER ACCESS:     374206  HIT:     374206  MISS:          0  HIT %:        100  MISS %:          0   MPKI: 0
PSCL2 PREFETCH  REQUESTED:          0  ISSUED:          0  USEFUL:          0  USELESS:          0
PSCL2 USEFUL LOAD PREFETCHES:          0 PREFETCH ISSUED TO LOWER LEVEL:          0  ACCURACY: -nan
PSCL2 TIMELY PREFETCHES:          0 LATE PREFETCHES: 0 DROPPED PREFETCHES: 0
PSCL2 PREFETCHES SAME FILL-ORIGIN LEVEL: 0 DIFFERENT FILL-ORIGIN LEVEL: 0

LLC TOTAL     ACCESS:   17757101  HIT:    8123381  MISS:    9633720  HIT %:    45.7472  MISS %:    54.2528   MPKI: 48.1686
LLC LOAD      ACCESS:     415544  HIT:        645  MISS:     414899  HIT %:   0.155218  MISS %:    99.8448   MPKI: 2.07449
LLC RFO       ACCESS:    7663030  HIT:     472742  MISS:    7190288  HIT %:    6.16913  MISS %:    93.8309   MPKI: 35.9514
LLC PREFETCH  ACCESS:    1986614  HIT:       4531  MISS:    1982083  HIT %:   0.228077  MISS %:    99.7719   MPKI: 9.91041
LLC WRITEBACK ACCESS:    7672593  HIT:    7645088  MISS:      27505  HIT %:    99.6415  MISS %:   0.358484   MPKI: 0.137525
LLC LOAD TRANSLATION ACCESS:      14497  HIT:        354  MISS:      14143  HIT %:    2.44188  MISS %:    97.5581   MPKI: 0.070715
LLC TRANSLATION FROM L1D PREFETCHER ACCESS:       4823  HIT:         21  MISS:       4802  HIT %:   0.435414  MISS %:    99.5646   MPKI: 0.02401
LLC PREFETCH  REQUESTED:          0  ISSUED:          0  USEFUL:    1910994  USELESS:   10122522
LLC USEFUL LOAD PREFETCHES:    1910994 PREFETCH ISSUED TO LOWER LEVEL:   12442103  ACCURACY: 15.3591
LLC TIMELY PREFETCHES:    1910994 LATE PREFETCHES: 0 DROPPED PREFETCHES: 0
LLC PREFETCHES SAME FILL-ORIGIN LEVEL: 0 DIFFERENT FILL-ORIGIN LEVEL: 0
LLC AVERAGE MISS LATENCY: 3385.77 cycles
LLC RQ	ACCESS:   24237379	FORWARD:          0	MERGED:          0	TO_CACHE:   24236636
LLC WQ	ACCESS:   22739692	FORWARD:        782	MERGED:          0	TO_CACHE:   22739692
LLC PQ	ACCESS:   17333261	FORWARD:          0	MERGED:          0	TO_CACHE:   17333222

LLC Dense regions hint to LLC: 0

RAW hits: 4632082
Loads Generated: 52235576
Loads sent to L1D: 47603490
Stores Generated: 36950237
Stores sent to L1D: 36950247
Major fault: 0 Minor fault: 157596
Allocated PAGES: 211186

DRAM Statistics
 CHANNEL 0
 RQ ROW_BUFFER_HIT:    4952059  ROW_BUFFER_MISS:   24898175
 DBUS_CONGESTED:          0
 WQ ROW_BUFFER_HIT:    1590258  ROW_BUFFER_MISS:   17260850  FULL:        115

 AVG_CONGESTED_CYCLE: -
 All warmup complete: 5
Channel 0 Bank busy for read cycles: 0
Channel 0 Bank busy for write cycles: 0
Channel 0
Rank 0
0banks busy for read cycles: 3724
0banks busy for write cycles: 0
1banks busy for read cycles: 2328595
1banks busy for write cycles: 1837342
2banks busy for read cycles: 3243362
2banks busy for write cycles: 1837322
3banks busy for read cycles: 4664572
3banks busy for write cycles: 1837322
4banks busy for read cycles: 7539295
4banks busy for write cycles: 1837383
5banks busy for read cycles: 16383462
5banks busy for write cycles: 1844083
6banks busy for read cycles: 46325206
6banks busy for write cycles: 2346247
7banks busy for read cycles: 144237842
7banks busy for write cycles: 32435999
8banks busy for read cycles: 399050150
8banks busy for write cycles: 455007283

CPU 0 Branch Prediction Accuracy: 99.0549% MPKI: 0.957388 Average ROB Occupancy at Mispredict: 83.794
Branch types
NOT_BRANCH: 702733033 89.8701%
BRANCH_DIRECT_JUMP: 4372 0.00055912%
BRANCH_INDIRECT: 0 0%
BRANCH_CONDITIONAL: 79193689 10.1278%
BRANCH_DIRECT_CALL: 6192 0.000791873%
BRANCH_INDIRECT_CALL: 0 0%
BRANCH_RETURN: 6192 0.000791873%
BRANCH_OTHER: 0 0%


CPU 1 Branch Prediction Accuracy: 97.5899% MPKI: 7.28387 Average ROB Occupancy at Mispredict: 79.0533
Branch types
NOT_BRANCH: 657614211 69.7295%
BRANCH_DIRECT_JUMP: 38260844 4.05695%
BRANCH_INDIRECT: 0 0%
BRANCH_CONDITIONAL: 239194946 25.3628%
BRANCH_DIRECT_CALL: 4011875 0.425395%
BRANCH_INDIRECT_CALL: 0 0%
BRANCH_RETURN: 4011875 0.425395%
BRANCH_OTHER: 0 0%


CPU 2 Branch Prediction Accuracy: 86.5297% MPKI: 28.7852 Average ROB Occupancy at Mispredict: 10.4635
Branch types
NOT_BRANCH: 157201309 78.6007%
BRANCH_DIRECT_JUMP: 40166 0.020083%
BRANCH_INDIRECT: 3 1.5e-06%
BRANCH_CONDITIONAL: 42757921 21.379%
BRANCH_DIRECT_CALL: 311 0.0001555%
BRANCH_INDIRECT_CALL: 9 4.5e-06%
BRANCH_RETURN: 321 0.0001605%
BRANCH_OTHER: 0 0%


CPU 3 Branch Prediction Accuracy: 97.0805% MPKI: 0.521532 Average ROB Occupancy at Mispredict: 269.21
Branch types
NOT_BRANCH: 355775512 98.2028%
BRANCH_DIRECT_JUMP: 1059502 0.292449%
BRANCH_INDIRECT: 0 0%
BRANCH_CONDITIONAL: 5451729 1.50481%
BRANCH_DIRECT_CALL: 0 0%
BRANCH_INDIRECT_CALL: 0 0%
BRANCH_RETURN: 0 0%
BRANCH_OTHER: 0 0%

DRAM PAGES: 1048576
Allocated PAGES: 211186
