
*** ChampSim Multicore Out-of-Order Simulator ***

Warmup Instructions: 50000000
Simulation Instructions: 200000000
Number of CPUs: 4
LLC sets: 8192
LLC ways: 16
Off-chip DRAM Size: 4096 MB Channels: 1 Width: 64-bit Data Rate: 6400 MT/s
CPU 0 runs ./traces/ligra/ligra_BFS.com-lj.ungraph.gcc_6.3.0_O3.drop_11500M.length_250M.champsimtrace.xz
.xz
CPU 1 runs ./traces/ligra/ligra_BFS.com-lj.ungraph.gcc_6.3.0_O3.drop_11500M.length_250M.champsimtrace.xz
.xz
CPU 2 runs ./traces/ligra/ligra_BFS.com-lj.ungraph.gcc_6.3.0_O3.drop_11500M.length_250M.champsimtrace.xz
.xz
CPU 3 runs ./traces/ligra/ligra_BFS.com-lj.ungraph.gcc_6.3.0_O3.drop_11500M.length_250M.champsimtrace.xz
.xz
BTB has LRU replacement policy
ITLB has LRU replacement policy
DTLB has LRU replacement policy
STLB has LRU replacement policy
L1I has LRU replacement policy
History Sets: 8
History Ways: 16
BERTI Size: 16
BERTI Stride Size: 8
L1D has LRU replacement policy
Initialize SRRIP state for L2C
Initialize DRRIP state for LLC
BTB has LRU replacement policy
ITLB has LRU replacement policy
DTLB has LRU replacement policy
STLB has LRU replacement policy
L1I has LRU replacement policy
History Sets: 8
History Ways: 16
BERTI Size: 16
BERTI Stride Size: 8
L1D has LRU replacement policy
Initialize SRRIP state for L2C
Initialize DRRIP state for LLC
BTB has LRU replacement policy
ITLB has LRU replacement policy
DTLB has LRU replacement policy
STLB has LRU replacement policy
L1I has LRU replacement policy
History Sets: 8
History Ways: 16
BERTI Size: 16
BERTI Stride Size: 8
L1D has LRU replacement policy
Initialize SRRIP state for L2C
Initialize DRRIP state for LLC
BTB has LRU replacement policy
ITLB has LRU replacement policy
DTLB has LRU replacement policy
STLB has LRU replacement policy
L1I has LRU replacement policy
History Sets: 8
History Ways: 16
BERTI Size: 16
BERTI Stride Size: 8
L1D has LRU replacement policy
Initialize SRRIP state for L2C
Initialize DRRIP state for LLC
Heartbeat CPU 0 instructions: 10000000 cycles: 2931491 heartbeat IPC: 3.41123 cumulative IPC: 3.41123 (Simulation time: 0 hr 2 min 41 sec) 
Heartbeat CPU 1 instructions: 10000000 cycles: 2931493 heartbeat IPC: 3.41123 cumulative IPC: 3.41123 (Simulation time: 0 hr 2 min 41 sec) 
Heartbeat CPU 2 instructions: 10000000 cycles: 2931510 heartbeat IPC: 3.41121 cumulative IPC: 3.41121 (Simulation time: 0 hr 2 min 41 sec) 
Heartbeat CPU 3 instructions: 10000000 cycles: 2931522 heartbeat IPC: 3.4112 cumulative IPC: 3.4112 (Simulation time: 0 hr 2 min 41 sec) 
Heartbeat CPU 0 instructions: 20000000 cycles: 5860931 heartbeat IPC: 3.41362 cumulative IPC: 3.41243 (Simulation time: 0 hr 5 min 6 sec) 
Heartbeat CPU 1 instructions: 20000000 cycles: 5860933 heartbeat IPC: 3.41362 cumulative IPC: 3.41243 (Simulation time: 0 hr 5 min 6 sec) 
Heartbeat CPU 2 instructions: 20000000 cycles: 5860954 heartbeat IPC: 3.41362 cumulative IPC: 3.41241 (Simulation time: 0 hr 5 min 6 sec) 
Heartbeat CPU 3 instructions: 20000000 cycles: 5860962 heartbeat IPC: 3.41362 cumulative IPC: 3.41241 (Simulation time: 0 hr 5 min 6 sec) 
Heartbeat CPU 0 instructions: 30000000 cycles: 8791805 heartbeat IPC: 3.41195 cumulative IPC: 3.41227 (Simulation time: 0 hr 7 min 34 sec) 
Heartbeat CPU 1 instructions: 30000000 cycles: 8791807 heartbeat IPC: 3.41195 cumulative IPC: 3.41227 (Simulation time: 0 hr 7 min 34 sec) 
Heartbeat CPU 2 instructions: 30000000 cycles: 8791828 heartbeat IPC: 3.41195 cumulative IPC: 3.41226 (Simulation time: 0 hr 7 min 34 sec) 
Heartbeat CPU 3 instructions: 30000000 cycles: 8791832 heartbeat IPC: 3.41196 cumulative IPC: 3.41226 (Simulation time: 0 hr 7 min 34 sec) 
Heartbeat CPU 0 instructions: 40000000 cycles: 11722904 heartbeat IPC: 3.41169 cumulative IPC: 3.41212 (Simulation time: 0 hr 10 min 4 sec) 
Heartbeat CPU 1 instructions: 40000000 cycles: 11722906 heartbeat IPC: 3.41169 cumulative IPC: 3.41212 (Simulation time: 0 hr 10 min 4 sec) 
Heartbeat CPU 2 instructions: 40000000 cycles: 11722927 heartbeat IPC: 3.41169 cumulative IPC: 3.41212 (Simulation time: 0 hr 10 min 4 sec) 
Heartbeat CPU 3 instructions: 40000000 cycles: 11722929 heartbeat IPC: 3.41169 cumulative IPC: 3.41212 (Simulation time: 0 hr 10 min 4 sec) 
Heartbeat CPU 0 instructions: 50000000 cycles: 14651812 heartbeat IPC: 3.41424 cumulative IPC: 3.41255 (Simulation time: 0 hr 12 min 38 sec) 
Heartbeat CPU 1 instructions: 50000000 cycles: 14651814 heartbeat IPC: 3.41424 cumulative IPC: 3.41255 (Simulation time: 0 hr 12 min 38 sec) 
Heartbeat CPU 2 instructions: 50000000 cycles: 14651837 heartbeat IPC: 3.41424 cumulative IPC: 3.41254 (Simulation time: 0 hr 12 min 38 sec) 
Heartbeat CPU 3 instructions: 50000000 cycles: 14651848 heartbeat IPC: 3.41423 cumulative IPC: 3.41254 (Simulation time: 0 hr 12 min 38 sec) 

Warmup complete CPU 0 instructions: 50000129 cycles: 14651849 (Simulation time: 0 hr 12 min 38 sec) 
Warmup complete CPU 1 instructions: 50000121 cycles: 14651849 (Simulation time: 0 hr 12 min 38 sec) 
Warmup complete CPU 2 instructions: 50000036 cycles: 14651849 (Simulation time: 0 hr 12 min 38 sec) 
Warmup complete CPU 3 instructions: 50000002 cycles: 14651849 (Simulation time: 0 hr 12 min 38 sec) 

Heartbeat CPU 0 instructions: 60000002 cycles: 26657789 heartbeat IPC: 0.832919 cumulative IPC: 0.83291 (Simulation time: 0 hr 15 min 49 sec) 
Heartbeat CPU 1 instructions: 60000002 cycles: 26658486 heartbeat IPC: 0.83287 cumulative IPC: 0.832863 (Simulation time: 0 hr 15 min 49 sec) 
Heartbeat CPU 2 instructions: 60000002 cycles: 26658588 heartbeat IPC: 0.832865 cumulative IPC: 0.832863 (Simulation time: 0 hr 15 min 49 sec) 
Heartbeat CPU 3 instructions: 60000002 cycles: 26661472 heartbeat IPC: 0.832666 cumulative IPC: 0.832666 (Simulation time: 0 hr 15 min 49 sec) 
Heartbeat CPU 0 instructions: 70000000 cycles: 38507088 heartbeat IPC: 0.843932 cumulative IPC: 0.838385 (Simulation time: 0 hr 19 min 19 sec) 
Heartbeat CPU 1 instructions: 70000000 cycles: 38511459 heartbeat IPC: 0.84367 cumulative IPC: 0.838232 (Simulation time: 0 hr 19 min 19 sec) 
Heartbeat CPU 2 instructions: 70000000 cycles: 38511561 heartbeat IPC: 0.84367 cumulative IPC: 0.838232 (Simulation time: 0 hr 19 min 19 sec) 
Heartbeat CPU 3 instructions: 70000000 cycles: 38514678 heartbeat IPC: 0.843653 cumulative IPC: 0.838124 (Simulation time: 0 hr 19 min 19 sec) 
Heartbeat CPU 0 instructions: 80000001 cycles: 50413686 heartbeat IPC: 0.839871 cumulative IPC: 0.83888 (Simulation time: 0 hr 22 min 39 sec) 
Heartbeat CPU 1 instructions: 80000001 cycles: 50420873 heartbeat IPC: 0.839672 cumulative IPC: 0.838711 (Simulation time: 0 hr 22 min 40 sec) 
Heartbeat CPU 2 instructions: 80000001 cycles: 50420975 heartbeat IPC: 0.839672 cumulative IPC: 0.838711 (Simulation time: 0 hr 22 min 40 sec) 
Heartbeat CPU 3 instructions: 80000001 cycles: 50425253 heartbeat IPC: 0.83959 cumulative IPC: 0.838612 (Simulation time: 0 hr 22 min 40 sec) 
Heartbeat CPU 0 instructions: 90000001 cycles: 62308928 heartbeat IPC: 0.840672 cumulative IPC: 0.839327 (Simulation time: 0 hr 26 min 2 sec) 
Heartbeat CPU 1 instructions: 90000001 cycles: 62319255 heartbeat IPC: 0.84045 cumulative IPC: 0.839145 (Simulation time: 0 hr 26 min 2 sec) 
Heartbeat CPU 2 instructions: 90000001 cycles: 62319357 heartbeat IPC: 0.84045 cumulative IPC: 0.839145 (Simulation time: 0 hr 26 min 2 sec) 
Heartbeat CPU 3 instructions: 90000001 cycles: 62324008 heartbeat IPC: 0.840424 cumulative IPC: 0.839064 (Simulation time: 0 hr 26 min 2 sec) 
Heartbeat CPU 0 instructions: 100000001 cycles: 74237066 heartbeat IPC: 0.838354 cumulative IPC: 0.839132 (Simulation time: 0 hr 29 min 30 sec) 
Heartbeat CPU 1 instructions: 100000001 cycles: 74247941 heartbeat IPC: 0.838315 cumulative IPC: 0.838979 (Simulation time: 0 hr 29 min 30 sec) 
Heartbeat CPU 2 instructions: 100000001 cycles: 74248779 heartbeat IPC: 0.838264 cumulative IPC: 0.838969 (Simulation time: 0 hr 29 min 30 sec) 
Heartbeat CPU 3 instructions: 100000001 cycles: 74253893 heartbeat IPC: 0.838231 cumulative IPC: 0.838897 (Simulation time: 0 hr 29 min 30 sec) 
Heartbeat CPU 0 instructions: 110000000 cycles: 86197391 heartbeat IPC: 0.836098 cumulative IPC: 0.838625 (Simulation time: 0 hr 32 min 53 sec) 
Heartbeat CPU 1 instructions: 110000000 cycles: 86207494 heartbeat IPC: 0.836152 cumulative IPC: 0.838507 (Simulation time: 0 hr 32 min 53 sec) 
Heartbeat CPU 2 instructions: 110000000 cycles: 86207596 heartbeat IPC: 0.836203 cumulative IPC: 0.838507 (Simulation time: 0 hr 32 min 53 sec) 
Heartbeat CPU 3 instructions: 110000000 cycles: 86215130 heartbeat IPC: 0.836034 cumulative IPC: 0.838419 (Simulation time: 0 hr 32 min 53 sec) 
Heartbeat CPU 0 instructions: 120000000 cycles: 97973424 heartbeat IPC: 0.849182 cumulative IPC: 0.840117 (Simulation time: 0 hr 35 min 59 sec) 
Heartbeat CPU 1 instructions: 120000000 cycles: 97984914 heartbeat IPC: 0.849082 cumulative IPC: 0.840001 (Simulation time: 0 hr 36 min 0 sec) 
Heartbeat CPU 2 instructions: 120000000 cycles: 97985016 heartbeat IPC: 0.849082 cumulative IPC: 0.840001 (Simulation time: 0 hr 36 min 0 sec) 
Heartbeat CPU 3 instructions: 120000000 cycles: 97991941 heartbeat IPC: 0.849126 cumulative IPC: 0.839932 (Simulation time: 0 hr 36 min 0 sec) 
Heartbeat CPU 0 instructions: 130000001 cycles: 109605346 heartbeat IPC: 0.859703 cumulative IPC: 0.842516 (Simulation time: 0 hr 39 min 9 sec) 
Heartbeat CPU 1 instructions: 130000001 cycles: 109617920 heartbeat IPC: 0.859623 cumulative IPC: 0.842405 (Simulation time: 0 hr 39 min 9 sec) 
Heartbeat CPU 2 instructions: 130000001 cycles: 109618033 heartbeat IPC: 0.859622 cumulative IPC: 0.842405 (Simulation time: 0 hr 39 min 9 sec) 
Heartbeat CPU 3 instructions: 130000001 cycles: 109626881 heartbeat IPC: 0.85948 cumulative IPC: 0.842327 (Simulation time: 0 hr 39 min 9 sec) 
Heartbeat CPU 0 instructions: 140000000 cycles: 121594290 heartbeat IPC: 0.834102 cumulative IPC: 0.841573 (Simulation time: 0 hr 42 min 10 sec) 
Heartbeat CPU 1 instructions: 140000000 cycles: 121607365 heartbeat IPC: 0.834067 cumulative IPC: 0.84147 (Simulation time: 0 hr 42 min 11 sec) 
Heartbeat CPU 2 instructions: 140000000 cycles: 121607467 heartbeat IPC: 0.834068 cumulative IPC: 0.84147 (Simulation time: 0 hr 42 min 11 sec) 
Heartbeat CPU 3 instructions: 140000000 cycles: 121615529 heartbeat IPC: 0.834122 cumulative IPC: 0.841407 (Simulation time: 0 hr 42 min 11 sec) 
Heartbeat CPU 0 instructions: 150000000 cycles: 133738579 heartbeat IPC: 0.823432 cumulative IPC: 0.839723 (Simulation time: 0 hr 45 min 6 sec) 
Heartbeat CPU 1 instructions: 150000000 cycles: 133751930 heartbeat IPC: 0.823414 cumulative IPC: 0.839629 (Simulation time: 0 hr 45 min 7 sec) 
Heartbeat CPU 2 instructions: 150000000 cycles: 133752083 heartbeat IPC: 0.82341 cumulative IPC: 0.839629 (Simulation time: 0 hr 45 min 7 sec) 
Heartbeat CPU 3 instructions: 150000000 cycles: 133759657 heartbeat IPC: 0.823443 cumulative IPC: 0.839576 (Simulation time: 0 hr 45 min 7 sec) 
Heartbeat CPU 0 instructions: 160000002 cycles: 145768033 heartbeat IPC: 0.831293 cumulative IPC: 0.83895 (Simulation time: 0 hr 48 min 11 sec) 
Heartbeat CPU 1 instructions: 160000002 cycles: 145782292 heartbeat IPC: 0.83123 cumulative IPC: 0.838858 (Simulation time: 0 hr 48 min 12 sec) 
Heartbeat CPU 2 instructions: 160000002 cycles: 145782394 heartbeat IPC: 0.831234 cumulative IPC: 0.838858 (Simulation time: 0 hr 48 min 12 sec) 
Heartbeat CPU 3 instructions: 160000002 cycles: 145789574 heartbeat IPC: 0.831261 cumulative IPC: 0.838813 (Simulation time: 0 hr 48 min 12 sec) 
Heartbeat CPU 0 instructions: 170000001 cycles: 157774990 heartbeat IPC: 0.83285 cumulative IPC: 0.838438 (Simulation time: 0 hr 51 min 16 sec) 
Heartbeat CPU 1 instructions: 170000001 cycles: 157789377 heartbeat IPC: 0.832842 cumulative IPC: 0.838354 (Simulation time: 0 hr 51 min 16 sec) 
Heartbeat CPU 2 instructions: 170000001 cycles: 157789773 heartbeat IPC: 0.832821 cumulative IPC: 0.838352 (Simulation time: 0 hr 51 min 16 sec) 
Heartbeat CPU 3 instructions: 170000001 cycles: 157795861 heartbeat IPC: 0.832897 cumulative IPC: 0.838317 (Simulation time: 0 hr 51 min 16 sec) 
Heartbeat CPU 0 instructions: 180000000 cycles: 169893995 heartbeat IPC: 0.82515 cumulative IPC: 0.837401 (Simulation time: 0 hr 54 min 25 sec) 
Heartbeat CPU 1 instructions: 180000000 cycles: 169909850 heartbeat IPC: 0.82505 cumulative IPC: 0.837315 (Simulation time: 0 hr 54 min 26 sec) 
Heartbeat CPU 2 instructions: 180000000 cycles: 169909969 heartbeat IPC: 0.825069 cumulative IPC: 0.837315 (Simulation time: 0 hr 54 min 26 sec) 
Heartbeat CPU 3 instructions: 180000000 cycles: 169916386 heartbeat IPC: 0.825047 cumulative IPC: 0.837281 (Simulation time: 0 hr 54 min 26 sec) 
Heartbeat CPU 0 instructions: 190000000 cycles: 181977510 heartbeat IPC: 0.827574 cumulative IPC: 0.836691 (Simulation time: 0 hr 57 min 49 sec) 
Heartbeat CPU 1 instructions: 190000000 cycles: 181994211 heartbeat IPC: 0.827516 cumulative IPC: 0.836608 (Simulation time: 0 hr 57 min 49 sec) 
Heartbeat CPU 2 instructions: 190000000 cycles: 181994990 heartbeat IPC: 0.827471 cumulative IPC: 0.836604 (Simulation time: 0 hr 57 min 49 sec) 
Heartbeat CPU 3 instructions: 190000000 cycles: 182001236 heartbeat IPC: 0.827482 cumulative IPC: 0.836573 (Simulation time: 0 hr 57 min 49 sec) 
Heartbeat CPU 0 instructions: 200000001 cycles: 193981485 heartbeat IPC: 0.833057 cumulative IPC: 0.836448 (Simulation time: 1 hr 1 min 4 sec) 
Heartbeat CPU 1 instructions: 200000001 cycles: 193997418 heartbeat IPC: 0.833111 cumulative IPC: 0.836374 (Simulation time: 1 hr 1 min 4 sec) 
Heartbeat CPU 2 instructions: 200000001 cycles: 193998947 heartbeat IPC: 0.833059 cumulative IPC: 0.836367 (Simulation time: 1 hr 1 min 4 sec) 
Heartbeat CPU 3 instructions: 200000001 cycles: 194006421 heartbeat IPC: 0.832973 cumulative IPC: 0.836332 (Simulation time: 1 hr 1 min 4 sec) 
Heartbeat CPU 0 instructions: 210000003 cycles: 205894791 heartbeat IPC: 0.839398 cumulative IPC: 0.836632 (Simulation time: 1 hr 4 min 2 sec) 
Heartbeat CPU 1 instructions: 210000003 cycles: 205911239 heartbeat IPC: 0.839361 cumulative IPC: 0.83656 (Simulation time: 1 hr 4 min 2 sec) 
Heartbeat CPU 2 instructions: 210000003 cycles: 205914163 heartbeat IPC: 0.839263 cumulative IPC: 0.836547 (Simulation time: 1 hr 4 min 2 sec) 
Heartbeat CPU 3 instructions: 210000003 cycles: 205921234 heartbeat IPC: 0.839292 cumulative IPC: 0.836516 (Simulation time: 1 hr 4 min 2 sec) 
Heartbeat CPU 0 instructions: 220000000 cycles: 217752677 heartbeat IPC: 0.84332 cumulative IPC: 0.837022 (Simulation time: 1 hr 7 min 9 sec) 
Heartbeat CPU 1 instructions: 220000000 cycles: 217770031 heartbeat IPC: 0.843256 cumulative IPC: 0.836951 (Simulation time: 1 hr 7 min 9 sec) 
Heartbeat CPU 2 instructions: 220000000 cycles: 217773300 heartbeat IPC: 0.843231 cumulative IPC: 0.836938 (Simulation time: 1 hr 7 min 9 sec) 
Heartbeat CPU 3 instructions: 220000000 cycles: 217780666 heartbeat IPC: 0.84321 cumulative IPC: 0.836907 (Simulation time: 1 hr 7 min 10 sec) 
Heartbeat CPU 0 instructions: 230000003 cycles: 229657898 heartbeat IPC: 0.839968 cumulative IPC: 0.837185 (Simulation time: 1 hr 10 min 21 sec) 
Heartbeat CPU 1 instructions: 230000003 cycles: 229675125 heartbeat IPC: 0.839977 cumulative IPC: 0.837118 (Simulation time: 1 hr 10 min 22 sec) 
Heartbeat CPU 2 instructions: 230000003 cycles: 229680158 heartbeat IPC: 0.839852 cumulative IPC: 0.837099 (Simulation time: 1 hr 10 min 22 sec) 
Heartbeat CPU 3 instructions: 230000003 cycles: 229688134 heartbeat IPC: 0.839809 cumulative IPC: 0.837068 (Simulation time: 1 hr 10 min 22 sec) 
Heartbeat CPU 0 instructions: 240000001 cycles: 241403180 heartbeat IPC: 0.851406 cumulative IPC: 0.837922 (Simulation time: 1 hr 13 min 24 sec) 
Heartbeat CPU 1 instructions: 240000001 cycles: 241418635 heartbeat IPC: 0.851534 cumulative IPC: 0.837865 (Simulation time: 1 hr 13 min 24 sec) 
Heartbeat CPU 2 instructions: 240000001 cycles: 241426006 heartbeat IPC: 0.851364 cumulative IPC: 0.837838 (Simulation time: 1 hr 13 min 24 sec) 
Heartbeat CPU 3 instructions: 240000001 cycles: 241433365 heartbeat IPC: 0.851409 cumulative IPC: 0.837811 (Simulation time: 1 hr 13 min 24 sec) 
*** Reached end of trace for Core: 0 Repeating trace: ./traces/ligra/ligra_BFS.com-lj.ungraph.gcc_6.3.0_O3.drop_11500M.length_250M.champsimtrace.xz
Heartbeat CPU 0 instructions: 250000001 cycles: 253069955 heartbeat IPC: 0.857135 cumulative IPC: 0.838862 (Simulation time: 1 hr 16 min 33 sec) 
Finished CPU 0 instructions: 200000002 cycles: 238418592 cumulative IPC: 0.838861 (Simulation time: 1 hr 16 min 33 sec) 
*** Reached end of trace for Core: 1 Repeating trace: ./traces/ligra/ligra_BFS.com-lj.ungraph.gcc_6.3.0_O3.drop_11500M.length_250M.champsimtrace.xz
Heartbeat CPU 1 instructions: 250000001 cycles: 253085639 heartbeat IPC: 0.857118 cumulative IPC: 0.838807 (Simulation time: 1 hr 16 min 34 sec) 
Finished CPU 1 instructions: 200000002 cycles: 238434274 cumulative IPC: 0.838806 (Simulation time: 1 hr 16 min 34 sec) 
*** Reached end of trace for Core: 2 Repeating trace: ./traces/ligra/ligra_BFS.com-lj.ungraph.gcc_6.3.0_O3.drop_11500M.length_250M.champsimtrace.xz
Heartbeat CPU 2 instructions: 250000001 cycles: 253091196 heartbeat IPC: 0.857251 cumulative IPC: 0.838788 (Simulation time: 1 hr 16 min 34 sec) 
Finished CPU 2 instructions: 200000003 cycles: 238439810 cumulative IPC: 0.838786 (Simulation time: 1 hr 16 min 34 sec) 
*** Reached end of trace for Core: 3 Repeating trace: ./traces/ligra/ligra_BFS.com-lj.ungraph.gcc_6.3.0_O3.drop_11500M.length_250M.champsimtrace.xz
Heartbeat CPU 3 instructions: 250000001 cycles: 253099837 heartbeat IPC: 0.857157 cumulative IPC: 0.838757 (Simulation time: 1 hr 16 min 34 sec) 
Finished CPU 3 instructions: 200000003 cycles: 238447989 cumulative IPC: 0.838757 (Simulation time: 1 hr 16 min 34 sec) 

ChampSim completed all CPUs

Total Simulation Statistics (not including warmup)

CPU 0 cumulative IPC: 0.838859 instructions: 200024305 cycles: 238447989
ITLB TOTAL     ACCESS:   35908060  HIT:   35908060  MISS:          0  HIT %:        100  MISS %:          0   MPKI: 0
ITLB LOAD      ACCESS:          0  HIT:          0  MISS:          0  HIT %:       -nan  MISS %:       -nan   MPKI: 0
ITLB RFO       ACCESS:          0  HIT:          0  MISS:          0  HIT %:       -nan  MISS %:       -nan   MPKI: 0
ITLB PREFETCH  ACCESS:          0  HIT:          0  MISS:          0  HIT %:       -nan  MISS %:       -nan   MPKI: 0
ITLB WRITEBACK ACCESS:          0  HIT:          0  MISS:          0  HIT %:       -nan  MISS %:       -nan   MPKI: 0
DTLB TOTAL     ACCESS:   26209353  HIT:   26205291  MISS:       4062  HIT %:    99.9845  MISS %:  0.0154983   MPKI: 0.0203075
DTLB LOAD      ACCESS:          0  HIT:          0  MISS:          0  HIT %:       -nan  MISS %:       -nan   MPKI: 0
DTLB RFO       ACCESS:          0  HIT:          0  MISS:          0  HIT %:       -nan  MISS %:       -nan   MPKI: 0
DTLB PREFETCH  ACCESS:          0  HIT:          0  MISS:          0  HIT %:       -nan  MISS %:       -nan   MPKI: 0
DTLB WRITEBACK ACCESS:          0  HIT:          0  MISS:          0  HIT %:       -nan  MISS %:       -nan   MPKI: 0
STLB TOTAL     ACCESS:    5117544  HIT:    5113482  MISS:       4062  HIT %:    99.9206  MISS %:   0.079374   MPKI: 0.0203075
STLB LOAD      ACCESS:          0  HIT:          0  MISS:          0  HIT %:       -nan  MISS %:       -nan   MPKI: 0
STLB RFO       ACCESS:          0  HIT:          0  MISS:          0  HIT %:       -nan  MISS %:       -nan   MPKI: 0
STLB PREFETCH  ACCESS:          0  HIT:          0  MISS:          0  HIT %:       -nan  MISS %:       -nan   MPKI: 0
STLB WRITEBACK ACCESS:          0  HIT:          0  MISS:          0  HIT %:       -nan  MISS %:       -nan   MPKI: 0
L1D TOTAL     ACCESS:   58094849  HIT:   57835057  MISS:     259792  HIT %:    99.5528  MISS %:   0.447186   MPKI: 1.2988
L1D LOAD      ACCESS:   19328148  HIT:   19324896  MISS:       3252  HIT %:    99.9832  MISS %:  0.0168252   MPKI: 0.016258
L1D RFO       ACCESS:   10208771  HIT:   10155577  MISS:      53194  HIT %:    99.4789  MISS %:   0.521062   MPKI: 0.265938
L1D PREFETCH  ACCESS:   28557930  HIT:   28354584  MISS:     203346  HIT %:     99.288  MISS %:   0.712047   MPKI: 1.01661
L1D WRITEBACK ACCESS:          0  HIT:          0  MISS:          0  HIT %:       -nan  MISS %:       -nan   MPKI: 0
L1I TOTAL     ACCESS:   38407834  HIT:   38407834  MISS:          0  HIT %:        100  MISS %:          0   MPKI: 0
L1I LOAD      ACCESS:   38407834  HIT:   38407834  MISS:          0  HIT %:        100  MISS %:          0   MPKI: 0
L1I RFO       ACCESS:          0  HIT:          0  MISS:          0  HIT %:       -nan  MISS %:       -nan   MPKI: 0
L1I PREFETCH  ACCESS:          0  HIT:          0  MISS:          0  HIT %:       -nan  MISS %:       -nan   MPKI: 0
L1I WRITEBACK ACCESS:          0  HIT:          0  MISS:          0  HIT %:       -nan  MISS %:       -nan   MPKI: 0
L2C TOTAL     ACCESS:    7999432  HIT:    7728223  MISS:     271209  HIT %:    96.6096  MISS %:    3.39035   MPKI: 1.35588
L2C LOAD      ACCESS:       2595  HIT:         20  MISS:       2575  HIT %:   0.770713  MISS %:    99.2293   MPKI: 0.0128734
L2C RFO       ACCESS:      53194  HIT:          0  MISS:      53194  HIT %:          0  MISS %:        100   MPKI: 0.265938
L2C PREFETCH  ACCESS:    7337050  HIT:    7133000  MISS:     204050  HIT %:    97.2189  MISS %:    2.78109   MPKI: 1.02013
L2C WRITEBACK ACCESS:      53172  HIT:      42303  MISS:      10869  HIT %:    79.5588  MISS %:    20.4412   MPKI: 0.0543384
PSCL5 TOTAL     ACCESS:     553421  HIT:     553421  MISS:          0  HIT %:        100  MISS %:          0   MPKI: 0
PSCL5 LOAD      ACCESS:          0  HIT:          0  MISS:          0  HIT %:       -nan  MISS %:       -nan   MPKI: 0
PSCL5 RFO       ACCESS:          0  HIT:          0  MISS:          0  HIT %:       -nan  MISS %:       -nan   MPKI: 0
PSCL5 PREFETCH  ACCESS:          0  HIT:          0  MISS:          0  HIT %:       -nan  MISS %:       -nan   MPKI: 0
PSCL5 WRITEBACK ACCESS:          0  HIT:          0  MISS:          0  HIT %:       -nan  MISS %:       -nan   MPKI: 0
PSCL4 TOTAL     ACCESS:     553421  HIT:     553421  MISS:          0  HIT %:        100  MISS %:          0   MPKI: 0
PSCL4 LOAD      ACCESS:          0  HIT:          0  MISS:          0  HIT %:       -nan  MISS %:       -nan   MPKI: 0
PSCL4 RFO       ACCESS:          0  HIT:          0  MISS:          0  HIT %:       -nan  MISS %:       -nan   MPKI: 0
PSCL4 PREFETCH  ACCESS:          0  HIT:          0  MISS:          0  HIT %:       -nan  MISS %:       -nan   MPKI: 0
PSCL4 WRITEBACK ACCESS:          0  HIT:          0  MISS:          0  HIT %:       -nan  MISS %:       -nan   MPKI: 0
PSCL3 TOTAL     ACCESS:     553421  HIT:     553421  MISS:          0  HIT %:        100  MISS %:          0   MPKI: 0
PSCL3 LOAD      ACCESS:          0  HIT:          0  MISS:          0  HIT %:       -nan  MISS %:       -nan   MPKI: 0
PSCL3 RFO       ACCESS:          0  HIT:          0  MISS:          0  HIT %:       -nan  MISS %:       -nan   MPKI: 0
PSCL3 PREFETCH  ACCESS:          0  HIT:          0  MISS:          0  HIT %:       -nan  MISS %:       -nan   MPKI: 0
PSCL3 WRITEBACK ACCESS:          0  HIT:          0  MISS:          0  HIT %:       -nan  MISS %:       -nan   MPKI: 0
PSCL2 TOTAL     ACCESS:     552334  HIT:     552326  MISS:          8  HIT %:    99.9986  MISS %:  0.0014484   MPKI: 3.99951e-05
PSCL2 LOAD      ACCESS:          0  HIT:          0  MISS:          0  HIT %:       -nan  MISS %:       -nan   MPKI: 0
PSCL2 RFO       ACCESS:          0  HIT:          0  MISS:          0  HIT %:       -nan  MISS %:       -nan   MPKI: 0
PSCL2 PREFETCH  ACCESS:          0  HIT:          0  MISS:          0  HIT %:       -nan  MISS %:       -nan   MPKI: 0
PSCL2 WRITEBACK ACCESS:          0  HIT:          0  MISS:          0  HIT %:       -nan  MISS %:       -nan   MPKI: 0
LLC TOTAL     ACCESS:     314470  HIT:      50083  MISS:     264387  HIT %:    15.9262  MISS %:    84.0738   MPKI: 1.32177
LLC LOAD      ACCESS:       2575  HIT:          0  MISS:       2575  HIT %:          0  MISS %:        100   MPKI: 0.0128734
LLC RFO       ACCESS:      53194  HIT:          0  MISS:      53194  HIT %:          0  MISS %:        100   MPKI: 0.265938
LLC PREFETCH  ACCESS:     204050  HIT:          0  MISS:     204050  HIT %:          0  MISS %:        100   MPKI: 1.02013
LLC WRITEBACK ACCESS:      54130  HIT:      50082  MISS:       4048  HIT %:    92.5217  MISS %:    7.47829   MPKI: 0.0202375

RAW hits: 2666909
Loads Generated: 28146011
Loads sent to L1D: 25479101
Stores Generated: 10212906
Stores sent to L1D: 10212903

CPU 1 cumulative IPC: 0.838806 instructions: 200011564 cycles: 238447989
ITLB TOTAL     ACCESS:   35905780  HIT:   35905780  MISS:          0  HIT %:        100  MISS %:          0   MPKI: 0
ITLB LOAD      ACCESS:          0  HIT:          0  MISS:          0  HIT %:       -nan  MISS %:       -nan   MPKI: 0
ITLB RFO       ACCESS:          0  HIT:          0  MISS:          0  HIT %:       -nan  MISS %:       -nan   MPKI: 0
ITLB PREFETCH  ACCESS:          0  HIT:          0  MISS:          0  HIT %:       -nan  MISS %:       -nan   MPKI: 0
ITLB WRITEBACK ACCESS:          0  HIT:          0  MISS:          0  HIT %:       -nan  MISS %:       -nan   MPKI: 0
DTLB TOTAL     ACCESS:   26207670  HIT:   26203608  MISS:       4062  HIT %:    99.9845  MISS %:  0.0154993   MPKI: 0.0203088
DTLB LOAD      ACCESS:          0  HIT:          0  MISS:          0  HIT %:       -nan  MISS %:       -nan   MPKI: 0
DTLB RFO       ACCESS:          0  HIT:          0  MISS:          0  HIT %:       -nan  MISS %:       -nan   MPKI: 0
DTLB PREFETCH  ACCESS:          0  HIT:          0  MISS:          0  HIT %:       -nan  MISS %:       -nan   MPKI: 0
DTLB WRITEBACK ACCESS:          0  HIT:          0  MISS:          0  HIT %:       -nan  MISS %:       -nan   MPKI: 0
STLB TOTAL     ACCESS:    5114297  HIT:    5110235  MISS:       4062  HIT %:    99.9206  MISS %:  0.0794244   MPKI: 0.0203088
STLB LOAD      ACCESS:          0  HIT:          0  MISS:          0  HIT %:       -nan  MISS %:       -nan   MPKI: 0
STLB RFO       ACCESS:          0  HIT:          0  MISS:          0  HIT %:       -nan  MISS %:       -nan   MPKI: 0
STLB PREFETCH  ACCESS:          0  HIT:          0  MISS:          0  HIT %:       -nan  MISS %:       -nan   MPKI: 0
STLB WRITEBACK ACCESS:          0  HIT:          0  MISS:          0  HIT %:       -nan  MISS %:       -nan   MPKI: 0
L1D TOTAL     ACCESS:   58239923  HIT:   57980143  MISS:     259780  HIT %:    99.5539  MISS %:   0.446051   MPKI: 1.29882
L1D LOAD      ACCESS:   19326894  HIT:   19323659  MISS:       3235  HIT %:    99.9833  MISS %:  0.0167383   MPKI: 0.0161741
L1D RFO       ACCESS:   10208346  HIT:   10155156  MISS:      53190  HIT %:     99.479  MISS %:   0.521044   MPKI: 0.265935
L1D PREFETCH  ACCESS:   28704683  HIT:   28501328  MISS:     203355  HIT %:    99.2916  MISS %:   0.708438   MPKI: 1.01672
L1D WRITEBACK ACCESS:          0  HIT:          0  MISS:          0  HIT %:       -nan  MISS %:       -nan   MPKI: 0
L1I TOTAL     ACCESS:   38405399  HIT:   38405399  MISS:          0  HIT %:        100  MISS %:          0   MPKI: 0
L1I LOAD      ACCESS:   38405399  HIT:   38405399  MISS:          0  HIT %:        100  MISS %:          0   MPKI: 0
L1I RFO       ACCESS:          0  HIT:          0  MISS:          0  HIT %:       -nan  MISS %:       -nan   MPKI: 0
L1I PREFETCH  ACCESS:          0  HIT:          0  MISS:          0  HIT %:       -nan  MISS %:       -nan   MPKI: 0
L1I WRITEBACK ACCESS:          0  HIT:          0  MISS:          0  HIT %:       -nan  MISS %:       -nan   MPKI: 0
L2C TOTAL     ACCESS:    7875148  HIT:    7603381  MISS:     271767  HIT %:    96.5491  MISS %:    3.45094   MPKI: 1.35876
L2C LOAD      ACCESS:       2581  HIT:          5  MISS:       2576  HIT %:   0.193723  MISS %:    99.8063   MPKI: 0.0128793
L2C RFO       ACCESS:      53190  HIT:          0  MISS:      53190  HIT %:          0  MISS %:        100   MPKI: 0.265935
L2C PREFETCH  ACCESS:    7219578  HIT:    7015553  MISS:     204025  HIT %:     97.174  MISS %:      2.826   MPKI: 1.02007
L2C WRITEBACK ACCESS:      53169  HIT:      41713  MISS:      11456  HIT %:    78.4536  MISS %:    21.5464   MPKI: 0.0572767
PSCL5 TOTAL     ACCESS:     546630  HIT:     546630  MISS:          0  HIT %:        100  MISS %:          0   MPKI: 0
PSCL5 LOAD      ACCESS:          0  HIT:          0  MISS:          0  HIT %:       -nan  MISS %:       -nan   MPKI: 0
PSCL5 RFO       ACCESS:          0  HIT:          0  MISS:          0  HIT %:       -nan  MISS %:       -nan   MPKI: 0
PSCL5 PREFETCH  ACCESS:          0  HIT:          0  MISS:          0  HIT %:       -nan  MISS %:       -nan   MPKI: 0
PSCL5 WRITEBACK ACCESS:          0  HIT:          0  MISS:          0  HIT %:       -nan  MISS %:       -nan   MPKI: 0
PSCL4 TOTAL     ACCESS:     546630  HIT:     546630  MISS:          0  HIT %:        100  MISS %:          0   MPKI: 0
PSCL4 LOAD      ACCESS:          0  HIT:          0  MISS:          0  HIT %:       -nan  MISS %:       -nan   MPKI: 0
PSCL4 RFO       ACCESS:          0  HIT:          0  MISS:          0  HIT %:       -nan  MISS %:       -nan   MPKI: 0
PSCL4 PREFETCH  ACCESS:          0  HIT:          0  MISS:          0  HIT %:       -nan  MISS %:       -nan   MPKI: 0
PSCL4 WRITEBACK ACCESS:          0  HIT:          0  MISS:          0  HIT %:       -nan  MISS %:       -nan   MPKI: 0
PSCL3 TOTAL     ACCESS:     546630  HIT:     546630  MISS:          0  HIT %:        100  MISS %:          0   MPKI: 0
PSCL3 LOAD      ACCESS:          0  HIT:          0  MISS:          0  HIT %:       -nan  MISS %:       -nan   MPKI: 0
PSCL3 RFO       ACCESS:          0  HIT:          0  MISS:          0  HIT %:       -nan  MISS %:       -nan   MPKI: 0
PSCL3 PREFETCH  ACCESS:          0  HIT:          0  MISS:          0  HIT %:       -nan  MISS %:       -nan   MPKI: 0
PSCL3 WRITEBACK ACCESS:          0  HIT:          0  MISS:          0  HIT %:       -nan  MISS %:       -nan   MPKI: 0
PSCL2 TOTAL     ACCESS:     545542  HIT:     545534  MISS:          8  HIT %:    99.9985  MISS %: 0.00146643   MPKI: 3.99977e-05
PSCL2 LOAD      ACCESS:          0  HIT:          0  MISS:          0  HIT %:       -nan  MISS %:       -nan   MPKI: 0
PSCL2 RFO       ACCESS:          0  HIT:          0  MISS:          0  HIT %:       -nan  MISS %:       -nan   MPKI: 0
PSCL2 PREFETCH  ACCESS:          0  HIT:          0  MISS:          0  HIT %:       -nan  MISS %:       -nan   MPKI: 0
PSCL2 WRITEBACK ACCESS:          0  HIT:          0  MISS:          0  HIT %:       -nan  MISS %:       -nan   MPKI: 0
LLC TOTAL     ACCESS:     314447  HIT:      49835  MISS:     264612  HIT %:    15.8485  MISS %:    84.1515   MPKI: 1.32298
LLC LOAD      ACCESS:       2576  HIT:          0  MISS:       2576  HIT %:          0  MISS %:        100   MPKI: 0.0128793
LLC RFO       ACCESS:      53190  HIT:          0  MISS:      53190  HIT %:          0  MISS %:        100   MPKI: 0.265935
LLC PREFETCH  ACCESS:     204025  HIT:          0  MISS:     204025  HIT %:          0  MISS %:        100   MPKI: 1.02007
LLC WRITEBACK ACCESS:      54136  HIT:      49835  MISS:       4301  HIT %:    92.0552  MISS %:    7.94481   MPKI: 0.0215038

RAW hits: 2666741
Loads Generated: 28144215
Loads sent to L1D: 25477474
Stores Generated: 10212265
Stores sent to L1D: 10212266

CPU 2 cumulative IPC: 0.838787 instructions: 200007174 cycles: 238447989
ITLB TOTAL     ACCESS:   35905011  HIT:   35905011  MISS:          0  HIT %:        100  MISS %:          0   MPKI: 0
ITLB LOAD      ACCESS:          0  HIT:          0  MISS:          0  HIT %:       -nan  MISS %:       -nan   MPKI: 0
ITLB RFO       ACCESS:          0  HIT:          0  MISS:          0  HIT %:       -nan  MISS %:       -nan   MPKI: 0
ITLB PREFETCH  ACCESS:          0  HIT:          0  MISS:          0  HIT %:       -nan  MISS %:       -nan   MPKI: 0
ITLB WRITEBACK ACCESS:          0  HIT:          0  MISS:          0  HIT %:       -nan  MISS %:       -nan   MPKI: 0
DTLB TOTAL     ACCESS:   26207096  HIT:   26203034  MISS:       4062  HIT %:    99.9845  MISS %:  0.0154996   MPKI: 0.0203093
DTLB LOAD      ACCESS:          0  HIT:          0  MISS:          0  HIT %:       -nan  MISS %:       -nan   MPKI: 0
DTLB RFO       ACCESS:          0  HIT:          0  MISS:          0  HIT %:       -nan  MISS %:       -nan   MPKI: 0
DTLB PREFETCH  ACCESS:          0  HIT:          0  MISS:          0  HIT %:       -nan  MISS %:       -nan   MPKI: 0
DTLB WRITEBACK ACCESS:          0  HIT:          0  MISS:          0  HIT %:       -nan  MISS %:       -nan   MPKI: 0
STLB TOTAL     ACCESS:    5115673  HIT:    5111611  MISS:       4062  HIT %:    99.9206  MISS %:   0.079403   MPKI: 0.0203093
STLB LOAD      ACCESS:          0  HIT:          0  MISS:          0  HIT %:       -nan  MISS %:       -nan   MPKI: 0
STLB RFO       ACCESS:          0  HIT:          0  MISS:          0  HIT %:       -nan  MISS %:       -nan   MPKI: 0
STLB PREFETCH  ACCESS:          0  HIT:          0  MISS:          0  HIT %:       -nan  MISS %:       -nan   MPKI: 0
STLB WRITEBACK ACCESS:          0  HIT:          0  MISS:          0  HIT %:       -nan  MISS %:       -nan   MPKI: 0
L1D TOTAL     ACCESS:   58200716  HIT:   57940945  MISS:     259771  HIT %:    99.5537  MISS %:   0.446336   MPKI: 1.29881
L1D LOAD      ACCESS:   19326471  HIT:   19323237  MISS:       3234  HIT %:    99.9833  MISS %:  0.0167335   MPKI: 0.0161694
L1D RFO       ACCESS:   10209529  HIT:   10156340  MISS:      53189  HIT %:     99.479  MISS %:   0.520974   MPKI: 0.265935
L1D PREFETCH  ACCESS:   28664716  HIT:   28461368  MISS:     203348  HIT %:    99.2906  MISS %:   0.709402   MPKI: 1.0167
L1D WRITEBACK ACCESS:          0  HIT:          0  MISS:          0  HIT %:       -nan  MISS %:       -nan   MPKI: 0
L1I TOTAL     ACCESS:   38404572  HIT:   38404572  MISS:          0  HIT %:        100  MISS %:          0   MPKI: 0
L1I LOAD      ACCESS:   38404572  HIT:   38404572  MISS:          0  HIT %:        100  MISS %:          0   MPKI: 0
L1I RFO       ACCESS:          0  HIT:          0  MISS:          0  HIT %:       -nan  MISS %:       -nan   MPKI: 0
L1I PREFETCH  ACCESS:          0  HIT:          0  MISS:          0  HIT %:       -nan  MISS %:       -nan   MPKI: 0
L1I WRITEBACK ACCESS:          0  HIT:          0  MISS:          0  HIT %:       -nan  MISS %:       -nan   MPKI: 0
L2C TOTAL     ACCESS:    7903491  HIT:    7631562  MISS:     271929  HIT %:    96.5594  MISS %:    3.44062   MPKI: 1.3596
L2C LOAD      ACCESS:       2575  HIT:          4  MISS:       2571  HIT %:    0.15534  MISS %:    99.8447   MPKI: 0.0128545
L2C RFO       ACCESS:      53189  HIT:          0  MISS:      53189  HIT %:          0  MISS %:        100   MPKI: 0.265935
L2C PREFETCH  ACCESS:    7239505  HIT:    7035487  MISS:     204018  HIT %:    97.1819  MISS %:    2.81812   MPKI: 1.02005
L2C WRITEBACK ACCESS:      53165  HIT:      41537  MISS:      11628  HIT %:    78.1285  MISS %:    21.8715   MPKI: 0.0581379
PSCL5 TOTAL     ACCESS:     555057  HIT:     555057  MISS:          0  HIT %:        100  MISS %:          0   MPKI: 0
PSCL5 LOAD      ACCESS:          0  HIT:          0  MISS:          0  HIT %:       -nan  MISS %:       -nan   MPKI: 0
PSCL5 RFO       ACCESS:          0  HIT:          0  MISS:          0  HIT %:       -nan  MISS %:       -nan   MPKI: 0
PSCL5 PREFETCH  ACCESS:          0  HIT:          0  MISS:          0  HIT %:       -nan  MISS %:       -nan   MPKI: 0
PSCL5 WRITEBACK ACCESS:          0  HIT:          0  MISS:          0  HIT %:       -nan  MISS %:       -nan   MPKI: 0
PSCL4 TOTAL     ACCESS:     555057  HIT:     555057  MISS:          0  HIT %:        100  MISS %:          0   MPKI: 0
PSCL4 LOAD      ACCESS:          0  HIT:          0  MISS:          0  HIT %:       -nan  MISS %:       -nan   MPKI: 0
PSCL4 RFO       ACCESS:          0  HIT:          0  MISS:          0  HIT %:       -nan  MISS %:       -nan   MPKI: 0
PSCL4 PREFETCH  ACCESS:          0  HIT:          0  MISS:          0  HIT %:       -nan  MISS %:       -nan   MPKI: 0
PSCL4 WRITEBACK ACCESS:          0  HIT:          0  MISS:          0  HIT %:       -nan  MISS %:       -nan   MPKI: 0
PSCL3 TOTAL     ACCESS:     555057  HIT:     555057  MISS:          0  HIT %:        100  MISS %:          0   MPKI: 0
PSCL3 LOAD      ACCESS:          0  HIT:          0  MISS:          0  HIT %:       -nan  MISS %:       -nan   MPKI: 0
PSCL3 RFO       ACCESS:          0  HIT:          0  MISS:          0  HIT %:       -nan  MISS %:       -nan   MPKI: 0
PSCL3 PREFETCH  ACCESS:          0  HIT:          0  MISS:          0  HIT %:       -nan  MISS %:       -nan   MPKI: 0
PSCL3 WRITEBACK ACCESS:          0  HIT:          0  MISS:          0  HIT %:       -nan  MISS %:       -nan   MPKI: 0
PSCL2 TOTAL     ACCESS:     554130  HIT:     554122  MISS:          8  HIT %:    99.9986  MISS %:  0.0014437   MPKI: 3.99986e-05
PSCL2 LOAD      ACCESS:          0  HIT:          0  MISS:          0  HIT %:       -nan  MISS %:       -nan   MPKI: 0
PSCL2 RFO       ACCESS:          0  HIT:          0  MISS:          0  HIT %:       -nan  MISS %:       -nan   MPKI: 0
PSCL2 PREFETCH  ACCESS:          0  HIT:          0  MISS:          0  HIT %:       -nan  MISS %:       -nan   MPKI: 0
PSCL2 WRITEBACK ACCESS:          0  HIT:          0  MISS:          0  HIT %:       -nan  MISS %:       -nan   MPKI: 0
LLC TOTAL     ACCESS:     314390  HIT:      49871  MISS:     264519  HIT %:    15.8628  MISS %:    84.1372   MPKI: 1.32255
LLC LOAD      ACCESS:       2571  HIT:          0  MISS:       2571  HIT %:          0  MISS %:        100   MPKI: 0.0128545
LLC RFO       ACCESS:      53189  HIT:          0  MISS:      53189  HIT %:          0  MISS %:        100   MPKI: 0.265935
LLC PREFETCH  ACCESS:     204018  HIT:          0  MISS:     204018  HIT %:          0  MISS %:        100   MPKI: 1.02005
LLC WRITEBACK ACCESS:      54089  HIT:      49868  MISS:       4221  HIT %:    92.1962  MISS %:     7.8038   MPKI: 0.0211042

RAW hits: 2666684
Loads Generated: 28143585
Loads sent to L1D: 25476898
Stores Generated: 10212025
Stores sent to L1D: 10212037

CPU 3 cumulative IPC: 0.838757 instructions: 200000003 cycles: 238447989
ITLB TOTAL     ACCESS:   35903669  HIT:   35903669  MISS:          0  HIT %:        100  MISS %:          0   MPKI: 0
ITLB LOAD      ACCESS:          0  HIT:          0  MISS:          0  HIT %:       -nan  MISS %:       -nan   MPKI: 0
ITLB RFO       ACCESS:          0  HIT:          0  MISS:          0  HIT %:       -nan  MISS %:       -nan   MPKI: 0
ITLB PREFETCH  ACCESS:          0  HIT:          0  MISS:          0  HIT %:       -nan  MISS %:       -nan   MPKI: 0
ITLB WRITEBACK ACCESS:          0  HIT:          0  MISS:          0  HIT %:       -nan  MISS %:       -nan   MPKI: 0
DTLB TOTAL     ACCESS:   26206180  HIT:   26202122  MISS:       4058  HIT %:    99.9845  MISS %:  0.0154849   MPKI: 0.02029
DTLB LOAD      ACCESS:          0  HIT:          0  MISS:          0  HIT %:       -nan  MISS %:       -nan   MPKI: 0
DTLB RFO       ACCESS:          0  HIT:          0  MISS:          0  HIT %:       -nan  MISS %:       -nan   MPKI: 0
DTLB PREFETCH  ACCESS:          0  HIT:          0  MISS:          0  HIT %:       -nan  MISS %:       -nan   MPKI: 0
DTLB WRITEBACK ACCESS:          0  HIT:          0  MISS:          0  HIT %:       -nan  MISS %:       -nan   MPKI: 0
STLB TOTAL     ACCESS:    5123182  HIT:    5119124  MISS:       4058  HIT %:    99.9208  MISS %:  0.0792086   MPKI: 0.02029
STLB LOAD      ACCESS:          0  HIT:          0  MISS:          0  HIT %:       -nan  MISS %:       -nan   MPKI: 0
STLB RFO       ACCESS:          0  HIT:          0  MISS:          0  HIT %:       -nan  MISS %:       -nan   MPKI: 0
STLB PREFETCH  ACCESS:          0  HIT:          0  MISS:          0  HIT %:       -nan  MISS %:       -nan   MPKI: 0
STLB WRITEBACK ACCESS:          0  HIT:          0  MISS:          0  HIT %:       -nan  MISS %:       -nan   MPKI: 0
L1D TOTAL     ACCESS:   58194482  HIT:   57934732  MISS:     259750  HIT %:    99.5537  MISS %:   0.446348   MPKI: 1.29875
L1D LOAD      ACCESS:   19325805  HIT:   19322576  MISS:       3229  HIT %:    99.9833  MISS %:  0.0167082   MPKI: 0.016145
L1D RFO       ACCESS:   10207969  HIT:   10154783  MISS:      53186  HIT %:     99.479  MISS %:   0.521024   MPKI: 0.26593
L1D PREFETCH  ACCESS:   28660708  HIT:   28457373  MISS:     203335  HIT %:    99.2905  MISS %:   0.709456   MPKI: 1.01667
L1D WRITEBACK ACCESS:          0  HIT:          0  MISS:          0  HIT %:       -nan  MISS %:       -nan   MPKI: 0
L1I TOTAL     ACCESS:   38403136  HIT:   38403136  MISS:          0  HIT %:        100  MISS %:          0   MPKI: 0
L1I LOAD      ACCESS:   38403136  HIT:   38403136  MISS:          0  HIT %:        100  MISS %:          0   MPKI: 0
L1I RFO       ACCESS:          0  HIT:          0  MISS:          0  HIT %:       -nan  MISS %:       -nan   MPKI: 0
L1I PREFETCH  ACCESS:          0  HIT:          0  MISS:          0  HIT %:       -nan  MISS %:       -nan   MPKI: 0
L1I WRITEBACK ACCESS:          0  HIT:          0  MISS:          0  HIT %:       -nan  MISS %:       -nan   MPKI: 0
L2C TOTAL     ACCESS:    7976323  HIT:    7704137  MISS:     272186  HIT %:    96.5876  MISS %:    3.41242   MPKI: 1.36093
L2C LOAD      ACCESS:       2554  HIT:          2  MISS:       2552  HIT %:  0.0783085  MISS %:    99.9217   MPKI: 0.01276
L2C RFO       ACCESS:      53186  HIT:          0  MISS:      53186  HIT %:          0  MISS %:        100   MPKI: 0.26593
L2C PREFETCH  ACCESS:    7331079  HIT:    7127090  MISS:     203989  HIT %:    97.2175  MISS %:    2.78252   MPKI: 1.01994
L2C WRITEBACK ACCESS:      53163  HIT:      41222  MISS:      11941  HIT %:    77.5389  MISS %:    22.4611   MPKI: 0.059705
PSCL5 TOTAL     ACCESS:     536341  HIT:     536341  MISS:          0  HIT %:        100  MISS %:          0   MPKI: 0
PSCL5 LOAD      ACCESS:          0  HIT:          0  MISS:          0  HIT %:       -nan  MISS %:       -nan   MPKI: 0
PSCL5 RFO       ACCESS:          0  HIT:          0  MISS:          0  HIT %:       -nan  MISS %:       -nan   MPKI: 0
PSCL5 PREFETCH  ACCESS:          0  HIT:          0  MISS:          0  HIT %:       -nan  MISS %:       -nan   MPKI: 0
PSCL5 WRITEBACK ACCESS:          0  HIT:          0  MISS:          0  HIT %:       -nan  MISS %:       -nan   MPKI: 0
PSCL4 TOTAL     ACCESS:     536341  HIT:     536341  MISS:          0  HIT %:        100  MISS %:          0   MPKI: 0
PSCL4 LOAD      ACCESS:          0  HIT:          0  MISS:          0  HIT %:       -nan  MISS %:       -nan   MPKI: 0
PSCL4 RFO       ACCESS:          0  HIT:          0  MISS:          0  HIT %:       -nan  MISS %:       -nan   MPKI: 0
PSCL4 PREFETCH  ACCESS:          0  HIT:          0  MISS:          0  HIT %:       -nan  MISS %:       -nan   MPKI: 0
PSCL4 WRITEBACK ACCESS:          0  HIT:          0  MISS:          0  HIT %:       -nan  MISS %:       -nan   MPKI: 0
PSCL3 TOTAL     ACCESS:     536341  HIT:     536341  MISS:          0  HIT %:        100  MISS %:          0   MPKI: 0
PSCL3 LOAD      ACCESS:          0  HIT:          0  MISS:          0  HIT %:       -nan  MISS %:       -nan   MPKI: 0
PSCL3 RFO       ACCESS:          0  HIT:          0  MISS:          0  HIT %:       -nan  MISS %:       -nan   MPKI: 0
PSCL3 PREFETCH  ACCESS:          0  HIT:          0  MISS:          0  HIT %:       -nan  MISS %:       -nan   MPKI: 0
PSCL3 WRITEBACK ACCESS:          0  HIT:          0  MISS:          0  HIT %:       -nan  MISS %:       -nan   MPKI: 0
PSCL2 TOTAL     ACCESS:     535414  HIT:     535406  MISS:          8  HIT %:    99.9985  MISS %: 0.00149417   MPKI: 4e-05
PSCL2 LOAD      ACCESS:          0  HIT:          0  MISS:          0  HIT %:       -nan  MISS %:       -nan   MPKI: 0
PSCL2 RFO       ACCESS:          0  HIT:          0  MISS:          0  HIT %:       -nan  MISS %:       -nan   MPKI: 0
PSCL2 PREFETCH  ACCESS:          0  HIT:          0  MISS:          0  HIT %:       -nan  MISS %:       -nan   MPKI: 0
PSCL2 WRITEBACK ACCESS:          0  HIT:          0  MISS:          0  HIT %:       -nan  MISS %:       -nan   MPKI: 0
LLC TOTAL     ACCESS:     314505  HIT:      50140  MISS:     264365  HIT %:    15.9425  MISS %:    84.0575   MPKI: 1.32182
LLC LOAD      ACCESS:       2552  HIT:          0  MISS:       2552  HIT %:          0  MISS %:        100   MPKI: 0.01276
LLC RFO       ACCESS:      53186  HIT:          0  MISS:      53186  HIT %:          0  MISS %:        100   MPKI: 0.26593
LLC PREFETCH  ACCESS:     203989  HIT:          0  MISS:     203989  HIT %:          0  MISS %:        100   MPKI: 1.01994
LLC WRITEBACK ACCESS:      54260  HIT:      50138  MISS:       4122  HIT %:    92.4032  MISS %:    7.59676   MPKI: 0.02061

RAW hits: 2666585
Loads Generated: 28142583
Loads sent to L1D: 25475998
Stores Generated: 10211665
Stores sent to L1D: 10211677

Region of Interest Statistics

CPU 0 cumulative IPC: 0.838861 instructions: 200000002 cycles: 238418592
ITLB TOTAL     ACCESS:   35903710  HIT:   35903710  MISS:          0  HIT %:        100  MISS %:          0   MPKI: 0
ITLB LOAD TRANSLATION ACCESS:   35903710  HIT:   35903710  MISS:          0  HIT %:        100  MISS %:          0   MPKI: 0
ITLB PREFETCH  REQUESTED:          0  ISSUED:          0  USEFUL:          0  USELESS:          0
ITLB USEFUL LOAD PREFETCHES:          0 PREFETCH ISSUED TO LOWER LEVEL:          0  ACCURACY: -nan
ITLB TIMELY PREFETCHES:          0 LATE PREFETCHES: 0 DROPPED PREFETCHES: 0
ITLB PREFETCHES SAME FILL-ORIGIN LEVEL: 0 DIFFERENT FILL-ORIGIN LEVEL: 0
ITLB AVERAGE MISS LATENCY: -nan cycles
ITLB RQ	ACCESS:   38407834	FORWARD:          0	MERGED:    2499774	TO_CACHE:   35908060

DTLB TOTAL     ACCESS:   26206206  HIT:   26202147  MISS:       4059  HIT %:    99.9845  MISS %:  0.0154887   MPKI: 0.020295
DTLB LOAD TRANSLATION ACCESS:   26206206  HIT:   26202147  MISS:       4059  HIT %:    99.9845  MISS %:  0.0154887   MPKI: 0.020295
DTLB PREFETCH  REQUESTED:          0  ISSUED:          0  USEFUL:          0  USELESS:          0
DTLB USEFUL LOAD PREFETCHES:          0 PREFETCH ISSUED TO LOWER LEVEL:          0  ACCURACY: -nan
DTLB TIMELY PREFETCHES:          0 LATE PREFETCHES: 0 DROPPED PREFETCHES: 0
DTLB PREFETCHES SAME FILL-ORIGIN LEVEL: 0 DIFFERENT FILL-ORIGIN LEVEL: 0
DTLB AVERAGE MISS LATENCY: 125.968 cycles
DTLB RQ	ACCESS:   29543167	FORWARD:          0	MERGED:    3333800	TO_CACHE:   26209367

STLB TOTAL     ACCESS:    5116960  HIT:    5112900  MISS:       4060  HIT %:    99.9207  MISS %:   0.079344   MPKI: 0.0203
STLB LOAD TRANSLATION ACCESS:       4059  HIT:          0  MISS:       4059  HIT %:          0  MISS %:        100   MPKI: 0.020295
STLB TRANSLATION FROM L1D PREFETCHER ACCESS:    5112901  HIT:    5112900  MISS:          1  HIT %:        100  MISS %: 1.95584e-05   MPKI: 5e-06
STLB PREFETCH  REQUESTED:          0  ISSUED:          0  USEFUL:          1  USELESS:          0
STLB USEFUL LOAD PREFETCHES:          1 PREFETCH ISSUED TO LOWER LEVEL:          0  ACCURACY: inf
STLB TIMELY PREFETCHES:          1 LATE PREFETCHES: 472 DROPPED PREFETCHES: 548887
STLB PREFETCHES SAME FILL-ORIGIN LEVEL: 0 DIFFERENT FILL-ORIGIN LEVEL: 0
STLB AVERAGE MISS LATENCY: 117.961 cycles
STLB RQ	ACCESS:   38094239	FORWARD:          0	MERGED:   32422242	TO_CACHE:    5671997

STLB Hit, L1D data hit: 0
STLB Hit, L2C data hit: 0
STLB Hit, LLC data hit: 0
STLB Hit, LLC data miss: 0
STLB STLB hints to L2: 0
L1D TOTAL     ACCESS:   58089691  HIT:   57829937  MISS:     259754  HIT %:    99.5528  MISS %:    0.44716   MPKI: 1.29877
L1D LOAD      ACCESS:   19325830  HIT:   19322579  MISS:       3251  HIT %:    99.9832  MISS %:   0.016822   MPKI: 0.016255
L1D RFO       ACCESS:   10207534  HIT:   10154348  MISS:      53186  HIT %:     99.479  MISS %:   0.521047   MPKI: 0.26593
L1D PREFETCH  ACCESS:   28556327  HIT:   28353010  MISS:     203317  HIT %:     99.288  MISS %:   0.711986   MPKI: 1.01658
L1D PREFETCH  REQUESTED:  106456896  ISSUED:  106324753  USEFUL:     203342  USELESS:          0
L1D USEFUL LOAD PREFETCHES:     203342 PREFETCH ISSUED TO LOWER LEVEL:    7434923  ACCURACY: 2.73496
L1D TIMELY PREFETCHES:     203342 LATE PREFETCHES: 657 DROPPED PREFETCHES: 2231194
L1D PREFETCHES SAME FILL-ORIGIN LEVEL: 204003 DIFFERENT FILL-ORIGIN LEVEL: 7230920
L1D AVERAGE MISS LATENCY: 93.7512 cycles
L1D RQ	ACCESS:   25479101	FORWARD:          0	MERGED:    6134819	TO_CACHE:   19330265
L1D WQ	ACCESS:   10212903	FORWARD:      14017	MERGED:          1	TO_CACHE:   10212902
L1D PQ	ACCESS:   68234576	FORWARD:          0	MERGED:   30144399	TO_CACHE:   38090177

L1D UNIQUE REGIONS ACCESSED: 0
L1D REGIONS CONFLICTS: 0
L1D Cross Page Prefetch Requests: 6314855
L1D Same Page Prefetch Requests: 85919198
L1D ROI Sum of L1D PQ occupancy: 544938540
L1D PREFETCHES PUSHED FROM L2C: 0
L1I TOTAL     ACCESS:   38403183  HIT:   38403183  MISS:          0  HIT %:        100  MISS %:          0   MPKI: 0
L1I LOAD      ACCESS:   38403183  HIT:   38403183  MISS:          0  HIT %:        100  MISS %:          0   MPKI: 0
L1I PREFETCH  REQUESTED:          0  ISSUED:          0  USEFUL:          0  USELESS:          0
L1I USEFUL LOAD PREFETCHES:          0 PREFETCH ISSUED TO LOWER LEVEL:          0  ACCURACY: -nan
L1I TIMELY PREFETCHES:          0 LATE PREFETCHES: 0 DROPPED PREFETCHES: 0
L1I PREFETCHES SAME FILL-ORIGIN LEVEL: 0 DIFFERENT FILL-ORIGIN LEVEL: 0
L1I AVERAGE MISS LATENCY: -nan cycles
L1I RQ	ACCESS:   55013900	FORWARD:          0	MERGED:   16606066	TO_CACHE:   38407834

BTB TOTAL     ACCESS:   33640242  HIT:   33640231  MISS:         11  HIT %:        100  MISS %: 3.26989e-05   MPKI: 5.5e-05
BTB BRANCH_DIRECT_JUMP	ACCESS:    8114490  HIT:    8114487  MISS:          3
BTB BRANCH_INDIRECT	ACCESS:          0  HIT:          0  MISS:          0
BTB BRANCH_CONDITIONAL	ACCESS:   23823808  HIT:   23823802  MISS:          6
BTB BRANCH_DIRECT_CALL	ACCESS:     850972  HIT:     850971  MISS:          1
BTB BRANCH_INDIRECT_CALL	ACCESS:          0  HIT:          0  MISS:          0
BTB BRANCH_RETURN	ACCESS:     850972  HIT:     850971  MISS:          1
BTB BRANCH_OTHER ACCESS:          0  HIT:          0  MISS:          0

L2C TOTAL     ACCESS:    7997734  HIT:    7726590  MISS:     271144  HIT %:    96.6097  MISS %:    3.39026   MPKI: 1.35572
L2C LOAD      ACCESS:       2594  HIT:         20  MISS:       2574  HIT %:    0.77101  MISS %:     99.229   MPKI: 0.01287
L2C DATA LOAD MPKI: 0.01287
L2C INSTRUCTION LOAD MPKI: 0
L2C RFO       ACCESS:      53186  HIT:          0  MISS:      53186  HIT %:          0  MISS %:        100   MPKI: 0.26593
L2C PREFETCH  ACCESS:    7335372  HIT:    7131375  MISS:     203997  HIT %:     97.219  MISS %:      2.781   MPKI: 1.01998
L2C DATA PREFETCH MPKI: 1.01998
L2C INSTRUCTION PREFETCH MPKI: 0
L2C WRITEBACK ACCESS:      53163  HIT:      42295  MISS:      10868  HIT %:    79.5572  MISS %:    20.4428   MPKI: 0.05434
L2C LOAD TRANSLATION ACCESS:       4059  HIT:       3951  MISS:        108  HIT %:    97.3392  MISS %:    2.66075   MPKI: 0.00054
L2C TRANSLATION FROM L1D PREFETCHER ACCESS:     549360  HIT:     548949  MISS:        411  HIT %:    99.9252  MISS %:  0.0748143   MPKI: 0.002055
L2C PREFETCH  REQUESTED:          0  ISSUED:          0  USEFUL:        430  USELESS:     203087
L2C USEFUL LOAD PREFETCHES:        430 PREFETCH ISSUED TO LOWER LEVEL:     204050  ACCURACY: 0.210733
L2C TIMELY PREFETCHES:        430 LATE PREFETCHES: 0 DROPPED PREFETCHES: 0
L2C PREFETCHES SAME FILL-ORIGIN LEVEL: 124975 DIFFERENT FILL-ORIGIN LEVEL: 0
L2C AVERAGE MISS LATENCY: 146.221 cycles
L2C RQ	ACCESS:     609210	FORWARD:          0	MERGED:          0	TO_CACHE:     609210
L2C WQ	ACCESS:      53172	FORWARD:          0	MERGED:          0	TO_CACHE:      53172
L2C PQ	ACCESS:    7434923	FORWARD:          0	MERGED:        991	TO_CACHE:    7433932

L2C Instructions Evicting Data 0
L2C Translations Evicting Data 518
L2C Data Evicting Data 259309
L2C Instructions Evicting Instructions 0
L2C Translations Evicting Instructions 0
L2C Data Evicting Instructions 0
L2C Instructions Evicting Translations 0
L2C Translations Evicting Translations 3
L2C Data Evicting Translations 509
L2C Dense regions hint from L2: 0
PSCL5 TOTAL     ACCESS:     553419  HIT:     553419  MISS:          0  HIT %:        100  MISS %:          0   MPKI: 0
PSCL5 LOAD TRANSLATION ACCESS:       4059  HIT:       4059  MISS:          0  HIT %:        100  MISS %:          0   MPKI: 0
PSCL5 TRANSLATION FROM L1D PREFETCHER ACCESS:     549360  HIT:     549360  MISS:          0  HIT %:        100  MISS %:          0   MPKI: 0
PSCL5 PREFETCH  REQUESTED:          0  ISSUED:          0  USEFUL:          0  USELESS:          0
PSCL5 USEFUL LOAD PREFETCHES:          0 PREFETCH ISSUED TO LOWER LEVEL:          0  ACCURACY: -nan
PSCL5 TIMELY PREFETCHES:          0 LATE PREFETCHES: 0 DROPPED PREFETCHES: 0
PSCL5 PREFETCHES SAME FILL-ORIGIN LEVEL: 0 DIFFERENT FILL-ORIGIN LEVEL: 0

PSCL4 TOTAL     ACCESS:     553419  HIT:     553419  MISS:          0  HIT %:        100  MISS %:          0   MPKI: 0
PSCL4 LOAD TRANSLATION ACCESS:       4059  HIT:       4059  MISS:          0  HIT %:        100  MISS %:          0   MPKI: 0
PSCL4 TRANSLATION FROM L1D PREFETCHER ACCESS:     549360  HIT:     549360  MISS:          0  HIT %:        100  MISS %:          0   MPKI: 0
PSCL4 PREFETCH  REQUESTED:          0  ISSUED:          0  USEFUL:          0  USELESS:          0
PSCL4 USEFUL LOAD PREFETCHES:          0 PREFETCH ISSUED TO LOWER LEVEL:          0  ACCURACY: -nan
PSCL4 TIMELY PREFETCHES:          0 LATE PREFETCHES: 0 DROPPED PREFETCHES: 0
PSCL4 PREFETCHES SAME FILL-ORIGIN LEVEL: 0 DIFFERENT FILL-ORIGIN LEVEL: 0

PSCL3 TOTAL     ACCESS:     553419  HIT:     553419  MISS:          0  HIT %:        100  MISS %:          0   MPKI: 0
PSCL3 LOAD TRANSLATION ACCESS:       4059  HIT:       4059  MISS:          0  HIT %:        100  MISS %:          0   MPKI: 0
PSCL3 TRANSLATION FROM L1D PREFETCHER ACCESS:     549360  HIT:     549360  MISS:          0  HIT %:        100  MISS %:          0   MPKI: 0
PSCL3 PREFETCH  REQUESTED:          0  ISSUED:          0  USEFUL:          0  USELESS:          0
PSCL3 USEFUL LOAD PREFETCHES:          0 PREFETCH ISSUED TO LOWER LEVEL:          0  ACCURACY: -nan
PSCL3 TIMELY PREFETCHES:          0 LATE PREFETCHES: 0 DROPPED PREFETCHES: 0
PSCL3 PREFETCHES SAME FILL-ORIGIN LEVEL: 0 DIFFERENT FILL-ORIGIN LEVEL: 0

PSCL2 TOTAL     ACCESS:     552332  HIT:     552324  MISS:          8  HIT %:    99.9986  MISS %:  0.0014484   MPKI: 4e-05
PSCL2 LOAD TRANSLATION ACCESS:       4059  HIT:       4051  MISS:          8  HIT %:    99.8029  MISS %:   0.197093   MPKI: 4e-05
PSCL2 TRANSLATION FROM L1D PREFETCHER ACCESS:     548273  HIT:     548273  MISS:          0  HIT %:        100  MISS %:          0   MPKI: 0
PSCL2 PREFETCH  REQUESTED:          0  ISSUED:          0  USEFUL:          0  USELESS:          0
PSCL2 USEFUL LOAD PREFETCHES:          0 PREFETCH ISSUED TO LOWER LEVEL:          0  ACCURACY: -nan
PSCL2 TIMELY PREFETCHES:          0 LATE PREFETCHES: 0 DROPPED PREFETCHES: 0
PSCL2 PREFETCHES SAME FILL-ORIGIN LEVEL: 0 DIFFERENT FILL-ORIGIN LEVEL: 0

LLC TOTAL     ACCESS:     314387  HIT:      50071  MISS:     264316  HIT %:    15.9265  MISS %:    84.0735   MPKI: 1.32158
LLC LOAD      ACCESS:       2574  HIT:          0  MISS:       2574  HIT %:          0  MISS %:        100   MPKI: 0.01287
LLC RFO       ACCESS:      53186  HIT:          0  MISS:      53186  HIT %:          0  MISS %:        100   MPKI: 0.26593
LLC PREFETCH  ACCESS:     203997  HIT:          0  MISS:     203997  HIT %:          0  MISS %:        100   MPKI: 1.01998
LLC WRITEBACK ACCESS:      54111  HIT:      50070  MISS:       4041  HIT %:     92.532  MISS %:    7.46798   MPKI: 0.020205
LLC LOAD TRANSLATION ACCESS:        108  HIT:          1  MISS:        107  HIT %:   0.925926  MISS %:    99.0741   MPKI: 0.000535
LLC TRANSLATION FROM L1D PREFETCHER ACCESS:        411  HIT:          0  MISS:        411  HIT %:          0  MISS %:        100   MPKI: 0.002055
LLC PREFETCH  REQUESTED:          0  ISSUED:          0  USEFUL:          0  USELESS:     815662
LLC USEFUL LOAD PREFETCHES:          0 PREFETCH ISSUED TO LOWER LEVEL:     816083  ACCURACY: 0
LLC TIMELY PREFETCHES:          0 LATE PREFETCHES: 0 DROPPED PREFETCHES: 0
LLC PREFETCHES SAME FILL-ORIGIN LEVEL: 0 DIFFERENT FILL-ORIGIN LEVEL: 0
LLC AVERAGE MISS LATENCY: 472.387 cycles
LLC RQ	ACCESS:     225115	FORWARD:          0	MERGED:          0	TO_CACHE:     225115
LLC WQ	ACCESS:     216615	FORWARD:          0	MERGED:          0	TO_CACHE:     216615
LLC PQ	ACCESS:     816083	FORWARD:          0	MERGED:          0	TO_CACHE:     816083

LLC Dense regions hint to LLC: 0

RAW hits: 2666577
Loads Generated: 28142593
Loads sent to L1D: 25476015
Stores Generated: 10211665
Stores sent to L1D: 10211665
Major fault: 0 Minor fault: 5112
Allocated PAGES: 20448

CPU 1 cumulative IPC: 0.838806 instructions: 200000002 cycles: 238434274
ITLB TOTAL     ACCESS:   35903722  HIT:   35903722  MISS:          0  HIT %:        100  MISS %:          0   MPKI: 0
ITLB LOAD TRANSLATION ACCESS:   35903722  HIT:   35903722  MISS:          0  HIT %:        100  MISS %:          0   MPKI: 0
ITLB PREFETCH  REQUESTED:          0  ISSUED:          0  USEFUL:          0  USELESS:          0
ITLB USEFUL LOAD PREFETCHES:          0 PREFETCH ISSUED TO LOWER LEVEL:          0  ACCURACY: -nan
ITLB TIMELY PREFETCHES:          0 LATE PREFETCHES: 0 DROPPED PREFETCHES: 0
ITLB PREFETCHES SAME FILL-ORIGIN LEVEL: 0 DIFFERENT FILL-ORIGIN LEVEL: 0
ITLB AVERAGE MISS LATENCY: -nan cycles
ITLB RQ	ACCESS:   38405399	FORWARD:          0	MERGED:    2499620	TO_CACHE:   35905779

DTLB TOTAL     ACCESS:   26206187  HIT:   26202128  MISS:       4059  HIT %:    99.9845  MISS %:  0.0154887   MPKI: 0.020295
DTLB LOAD TRANSLATION ACCESS:   26206187  HIT:   26202128  MISS:       4059  HIT %:    99.9845  MISS %:  0.0154887   MPKI: 0.020295
DTLB PREFETCH  REQUESTED:          0  ISSUED:          0  USEFUL:          0  USELESS:          0
DTLB USEFUL LOAD PREFETCHES:          0 PREFETCH ISSUED TO LOWER LEVEL:          0  ACCURACY: -nan
DTLB TIMELY PREFETCHES:          0 LATE PREFETCHES: 0 DROPPED PREFETCHES: 0
DTLB PREFETCHES SAME FILL-ORIGIN LEVEL: 0 DIFFERENT FILL-ORIGIN LEVEL: 0
DTLB AVERAGE MISS LATENCY: 126.001 cycles
DTLB RQ	ACCESS:   29541299	FORWARD:          0	MERGED:    3333611	TO_CACHE:   26207688

STLB TOTAL     ACCESS:    5114030  HIT:    5109970  MISS:       4060  HIT %:    99.9206  MISS %:  0.0793894   MPKI: 0.0203
STLB LOAD TRANSLATION ACCESS:       4059  HIT:          0  MISS:       4059  HIT %:          0  MISS %:        100   MPKI: 0.020295
STLB TRANSLATION FROM L1D PREFETCHER ACCESS:    5109971  HIT:    5109970  MISS:          1  HIT %:        100  MISS %: 1.95696e-05   MPKI: 5e-06
STLB PREFETCH  REQUESTED:          0  ISSUED:          0  USEFUL:          1  USELESS:          0
STLB USEFUL LOAD PREFETCHES:          1 PREFETCH ISSUED TO LOWER LEVEL:          0  ACCURACY: inf
STLB TIMELY PREFETCHES:          1 LATE PREFETCHES: 472 DROPPED PREFETCHES: 542096
STLB PREFETCHES SAME FILL-ORIGIN LEVEL: 0 DIFFERENT FILL-ORIGIN LEVEL: 0
STLB AVERAGE MISS LATENCY: 117.995 cycles
STLB RQ	ACCESS:   38121265	FORWARD:          0	MERGED:   32459313	TO_CACHE:    5661952

STLB Hit, L1D data hit: 0
STLB Hit, L2C data hit: 0
STLB Hit, LLC data hit: 0
STLB Hit, LLC data miss: 0
STLB STLB hints to L2: 0
L1D TOTAL     ACCESS:   58237170  HIT:   57977418  MISS:     259752  HIT %:     99.554  MISS %:   0.446024   MPKI: 1.29876
L1D LOAD      ACCESS:   19325810  HIT:   19322576  MISS:       3234  HIT %:    99.9833  MISS %:  0.0167341   MPKI: 0.01617
L1D RFO       ACCESS:   10207746  HIT:   10154560  MISS:      53186  HIT %:     99.479  MISS %:   0.521036   MPKI: 0.26593
L1D PREFETCH  ACCESS:   28703614  HIT:   28500282  MISS:     203332  HIT %:    99.2916  MISS %:   0.708385   MPKI: 1.01666
L1D PREFETCH  REQUESTED:  106487701  ISSUED:  106355642  USEFUL:     203347  USELESS:          0
L1D USEFUL LOAD PREFETCHES:     203347 PREFETCH ISSUED TO LOWER LEVEL:    7317085  ACCURACY: 2.77907
L1D TIMELY PREFETCHES:     203347 LATE PREFETCHES: 654 DROPPED PREFETCHES: 2228002
L1D PREFETCHES SAME FILL-ORIGIN LEVEL: 204009 DIFFERENT FILL-ORIGIN LEVEL: 7113076
L1D AVERAGE MISS LATENCY: 93.809 cycles
L1D RQ	ACCESS:   25477474	FORWARD:          0	MERGED:    6134423	TO_CACHE:   19329034
L1D WQ	ACCESS:   10212266	FORWARD:      14017	MERGED:          1	TO_CACHE:   10212265
L1D PQ	ACCESS:   68238439	FORWARD:          0	MERGED:   30121236	TO_CACHE:   38117203

L1D UNIQUE REGIONS ACCESSED: 0
L1D REGIONS CONFLICTS: 0
L1D Cross Page Prefetch Requests: 6319697
L1D Same Page Prefetch Requests: 85918070
L1D ROI Sum of L1D PQ occupancy: 544416508
L1D PREFETCHES PUSHED FROM L2C: 0
L1I TOTAL     ACCESS:   38403198  HIT:   38403198  MISS:          0  HIT %:        100  MISS %:          0   MPKI: 0
L1I LOAD      ACCESS:   38403198  HIT:   38403198  MISS:          0  HIT %:        100  MISS %:          0   MPKI: 0
L1I PREFETCH  REQUESTED:          0  ISSUED:          0  USEFUL:          0  USELESS:          0
L1I USEFUL LOAD PREFETCHES:          0 PREFETCH ISSUED TO LOWER LEVEL:          0  ACCURACY: -nan
L1I TIMELY PREFETCHES:          0 LATE PREFETCHES: 0 DROPPED PREFETCHES: 0
L1I PREFETCHES SAME FILL-ORIGIN LEVEL: 0 DIFFERENT FILL-ORIGIN LEVEL: 0
L1I AVERAGE MISS LATENCY: -nan cycles
L1I RQ	ACCESS:   55010402	FORWARD:          0	MERGED:   16605003	TO_CACHE:   38405399

BTB TOTAL     ACCESS:   33640242  HIT:   33640231  MISS:         11  HIT %:        100  MISS %: 3.26989e-05   MPKI: 5.5e-05
BTB BRANCH_DIRECT_JUMP	ACCESS:    8114490  HIT:    8114487  MISS:          3
BTB BRANCH_INDIRECT	ACCESS:          0  HIT:          0  MISS:          0
BTB BRANCH_CONDITIONAL	ACCESS:   23823808  HIT:   23823802  MISS:          6
BTB BRANCH_DIRECT_CALL	ACCESS:     850972  HIT:     850971  MISS:          1
BTB BRANCH_INDIRECT_CALL	ACCESS:          0  HIT:          0  MISS:          0
BTB BRANCH_RETURN	ACCESS:     850972  HIT:     850971  MISS:          1
BTB BRANCH_OTHER ACCESS:          0  HIT:          0  MISS:          0

L2C TOTAL     ACCESS:    7874945  HIT:    7603217  MISS:     271728  HIT %:    96.5495  MISS %:    3.45054   MPKI: 1.35864
L2C LOAD      ACCESS:       2580  HIT:          5  MISS:       2575  HIT %:   0.193798  MISS %:    99.8062   MPKI: 0.012875
L2C DATA LOAD MPKI: 0.012875
L2C INSTRUCTION LOAD MPKI: 0
L2C RFO       ACCESS:      53186  HIT:          0  MISS:      53186  HIT %:          0  MISS %:        100   MPKI: 0.26593
L2C PREFETCH  ACCESS:    7219388  HIT:    7015393  MISS:     203995  HIT %:    97.1743  MISS %:    2.82566   MPKI: 1.01997
L2C DATA PREFETCH MPKI: 1.01997
L2C INSTRUCTION PREFETCH MPKI: 0
L2C WRITEBACK ACCESS:      53163  HIT:      41709  MISS:      11454  HIT %:    78.4549  MISS %:    21.5451   MPKI: 0.05727
L2C LOAD TRANSLATION ACCESS:       4059  HIT:       3952  MISS:        107  HIT %:    97.3639  MISS %:    2.63612   MPKI: 0.000535
L2C TRANSLATION FROM L1D PREFETCHER ACCESS:     542569  HIT:     542158  MISS:        411  HIT %:    99.9242  MISS %:  0.0757507   MPKI: 0.002055
L2C PREFETCH  REQUESTED:          0  ISSUED:          0  USEFUL:        415  USELESS:     203079
L2C USEFUL LOAD PREFETCHES:        415 PREFETCH ISSUED TO LOWER LEVEL:     204026  ACCURACY: 0.203405
L2C TIMELY PREFETCHES:        415 LATE PREFETCHES: 0 DROPPED PREFETCHES: 0
L2C PREFETCHES SAME FILL-ORIGIN LEVEL: 124162 DIFFERENT FILL-ORIGIN LEVEL: 0
L2C AVERAGE MISS LATENCY: 146.171 cycles
L2C RQ	ACCESS:     602401	FORWARD:          0	MERGED:          0	TO_CACHE:     602401
L2C WQ	ACCESS:      53169	FORWARD:          0	MERGED:          0	TO_CACHE:      53169
L2C PQ	ACCESS:    7317085	FORWARD:          0	MERGED:        989	TO_CACHE:    7316096

L2C Instructions Evicting Data 0
L2C Translations Evicting Data 520
L2C Data Evicting Data 259308
L2C Instructions Evicting Instructions 0
L2C Translations Evicting Instructions 0
L2C Data Evicting Instructions 0
L2C Instructions Evicting Translations 0
L2C Translations Evicting Translations 0
L2C Data Evicting Translations 482
L2C Dense regions hint from L2: 0
PSCL5 TOTAL     ACCESS:     546628  HIT:     546628  MISS:          0  HIT %:        100  MISS %:          0   MPKI: 0
PSCL5 LOAD TRANSLATION ACCESS:       4059  HIT:       4059  MISS:          0  HIT %:        100  MISS %:          0   MPKI: 0
PSCL5 TRANSLATION FROM L1D PREFETCHER ACCESS:     542569  HIT:     542569  MISS:          0  HIT %:        100  MISS %:          0   MPKI: 0
PSCL5 PREFETCH  REQUESTED:          0  ISSUED:          0  USEFUL:          0  USELESS:          0
PSCL5 USEFUL LOAD PREFETCHES:          0 PREFETCH ISSUED TO LOWER LEVEL:          0  ACCURACY: -nan
PSCL5 TIMELY PREFETCHES:          0 LATE PREFETCHES: 0 DROPPED PREFETCHES: 0
PSCL5 PREFETCHES SAME FILL-ORIGIN LEVEL: 0 DIFFERENT FILL-ORIGIN LEVEL: 0

PSCL4 TOTAL     ACCESS:     546628  HIT:     546628  MISS:          0  HIT %:        100  MISS %:          0   MPKI: 0
PSCL4 LOAD TRANSLATION ACCESS:       4059  HIT:       4059  MISS:          0  HIT %:        100  MISS %:          0   MPKI: 0
PSCL4 TRANSLATION FROM L1D PREFETCHER ACCESS:     542569  HIT:     542569  MISS:          0  HIT %:        100  MISS %:          0   MPKI: 0
PSCL4 PREFETCH  REQUESTED:          0  ISSUED:          0  USEFUL:          0  USELESS:          0
PSCL4 USEFUL LOAD PREFETCHES:          0 PREFETCH ISSUED TO LOWER LEVEL:          0  ACCURACY: -nan
PSCL4 TIMELY PREFETCHES:          0 LATE PREFETCHES: 0 DROPPED PREFETCHES: 0
PSCL4 PREFETCHES SAME FILL-ORIGIN LEVEL: 0 DIFFERENT FILL-ORIGIN LEVEL: 0

PSCL3 TOTAL     ACCESS:     546628  HIT:     546628  MISS:          0  HIT %:        100  MISS %:          0   MPKI: 0
PSCL3 LOAD TRANSLATION ACCESS:       4059  HIT:       4059  MISS:          0  HIT %:        100  MISS %:          0   MPKI: 0
PSCL3 TRANSLATION FROM L1D PREFETCHER ACCESS:     542569  HIT:     542569  MISS:          0  HIT %:        100  MISS %:          0   MPKI: 0
PSCL3 PREFETCH  REQUESTED:          0  ISSUED:          0  USEFUL:          0  USELESS:          0
PSCL3 USEFUL LOAD PREFETCHES:          0 PREFETCH ISSUED TO LOWER LEVEL:          0  ACCURACY: -nan
PSCL3 TIMELY PREFETCHES:          0 LATE PREFETCHES: 0 DROPPED PREFETCHES: 0
PSCL3 PREFETCHES SAME FILL-ORIGIN LEVEL: 0 DIFFERENT FILL-ORIGIN LEVEL: 0

PSCL2 TOTAL     ACCESS:     545540  HIT:     545532  MISS:          8  HIT %:    99.9985  MISS %: 0.00146644   MPKI: 4e-05
PSCL2 LOAD TRANSLATION ACCESS:       4059  HIT:       4051  MISS:          8  HIT %:    99.8029  MISS %:   0.197093   MPKI: 4e-05
PSCL2 TRANSLATION FROM L1D PREFETCHER ACCESS:     541481  HIT:     541481  MISS:          0  HIT %:        100  MISS %:          0   MPKI: 0
PSCL2 PREFETCH  REQUESTED:          0  ISSUED:          0  USEFUL:          0  USELESS:          0
PSCL2 USEFUL LOAD PREFETCHES:          0 PREFETCH ISSUED TO LOWER LEVEL:          0  ACCURACY: -nan
PSCL2 TIMELY PREFETCHES:          0 LATE PREFETCHES: 0 DROPPED PREFETCHES: 0
PSCL2 PREFETCHES SAME FILL-ORIGIN LEVEL: 0 DIFFERENT FILL-ORIGIN LEVEL: 0

LLC TOTAL     ACCESS:     314406  HIT:      49831  MISS:     264575  HIT %:    15.8493  MISS %:    84.1507   MPKI: 1.32287
LLC LOAD      ACCESS:       2575  HIT:          0  MISS:       2575  HIT %:          0  MISS %:        100   MPKI: 0.012875
LLC RFO       ACCESS:      53186  HIT:          0  MISS:      53186  HIT %:          0  MISS %:        100   MPKI: 0.26593
LLC PREFETCH  ACCESS:     203995  HIT:          0  MISS:     203995  HIT %:          0  MISS %:        100   MPKI: 1.01997
LLC WRITEBACK ACCESS:      54132  HIT:      49831  MISS:       4301  HIT %:    92.0546  MISS %:    7.94539   MPKI: 0.021505
LLC LOAD TRANSLATION ACCESS:        107  HIT:          0  MISS:        107  HIT %:          0  MISS %:        100   MPKI: 0.000535
LLC TRANSLATION FROM L1D PREFETCHER ACCESS:        411  HIT:          0  MISS:        411  HIT %:          0  MISS %:        100   MPKI: 0.002055
LLC PREFETCH  REQUESTED:          0  ISSUED:          0  USEFUL:          0  USELESS:     815662
LLC USEFUL LOAD PREFETCHES:          0 PREFETCH ISSUED TO LOWER LEVEL:     816083  ACCURACY: 0
LLC TIMELY PREFETCHES:          0 LATE PREFETCHES: 0 DROPPED PREFETCHES: 0
LLC PREFETCHES SAME FILL-ORIGIN LEVEL: 0 DIFFERENT FILL-ORIGIN LEVEL: 0
LLC AVERAGE MISS LATENCY: 471.925 cycles
LLC RQ	ACCESS:     225115	FORWARD:          0	MERGED:          0	TO_CACHE:     225115
LLC WQ	ACCESS:     216615	FORWARD:          0	MERGED:          0	TO_CACHE:     216615
LLC PQ	ACCESS:     816083	FORWARD:          0	MERGED:          0	TO_CACHE:     816083

LLC Dense regions hint to LLC: 0

RAW hits: 2666577
Loads Generated: 28142592
Loads sent to L1D: 25476015
Stores Generated: 10211665
Stores sent to L1D: 10211666
Major fault: 0 Minor fault: 5112
Allocated PAGES: 20448

CPU 2 cumulative IPC: 0.838786 instructions: 200000003 cycles: 238439810
ITLB TOTAL     ACCESS:   35903749  HIT:   35903749  MISS:          0  HIT %:        100  MISS %:          0   MPKI: 0
ITLB LOAD TRANSLATION ACCESS:   35903749  HIT:   35903749  MISS:          0  HIT %:        100  MISS %:          0   MPKI: 0
ITLB PREFETCH  REQUESTED:          0  ISSUED:          0  USEFUL:          0  USELESS:          0
ITLB USEFUL LOAD PREFETCHES:          0 PREFETCH ISSUED TO LOWER LEVEL:          0  ACCURACY: -nan
ITLB TIMELY PREFETCHES:          0 LATE PREFETCHES: 0 DROPPED PREFETCHES: 0
ITLB PREFETCHES SAME FILL-ORIGIN LEVEL: 0 DIFFERENT FILL-ORIGIN LEVEL: 0
ITLB AVERAGE MISS LATENCY: -nan cycles
ITLB RQ	ACCESS:   38404573	FORWARD:          0	MERGED:    2499562	TO_CACHE:   35905011

DTLB TOTAL     ACCESS:   26206209  HIT:   26202150  MISS:       4059  HIT %:    99.9845  MISS %:  0.0154887   MPKI: 0.020295
DTLB LOAD TRANSLATION ACCESS:   26206209  HIT:   26202150  MISS:       4059  HIT %:    99.9845  MISS %:  0.0154887   MPKI: 0.020295
DTLB PREFETCH  REQUESTED:          0  ISSUED:          0  USEFUL:          0  USELESS:          0
DTLB USEFUL LOAD PREFETCHES:          0 PREFETCH ISSUED TO LOWER LEVEL:          0  ACCURACY: -nan
DTLB TIMELY PREFETCHES:          0 LATE PREFETCHES: 0 DROPPED PREFETCHES: 0
DTLB PREFETCHES SAME FILL-ORIGIN LEVEL: 0 DIFFERENT FILL-ORIGIN LEVEL: 0
DTLB AVERAGE MISS LATENCY: 124.937 cycles
DTLB RQ	ACCESS:   29540633	FORWARD:          0	MERGED:    3333526	TO_CACHE:   26207107

STLB TOTAL     ACCESS:    5115504  HIT:    5111445  MISS:       4059  HIT %:    99.9207  MISS %:   0.079347   MPKI: 0.020295
STLB LOAD TRANSLATION ACCESS:       4059  HIT:          0  MISS:       4059  HIT %:          0  MISS %:        100   MPKI: 0.020295
STLB TRANSLATION FROM L1D PREFETCHER ACCESS:    5111445  HIT:    5111445  MISS:          0  HIT %:        100  MISS %:          0   MPKI: 0
STLB PREFETCH  REQUESTED:          0  ISSUED:          0  USEFUL:          1  USELESS:          0
STLB USEFUL LOAD PREFETCHES:          1 PREFETCH ISSUED TO LOWER LEVEL:          0  ACCURACY: inf
STLB TIMELY PREFETCHES:          1 LATE PREFETCHES: 472 DROPPED PREFETCHES: 550523
STLB PREFETCHES SAME FILL-ORIGIN LEVEL: 0 DIFFERENT FILL-ORIGIN LEVEL: 0
STLB AVERAGE MISS LATENCY: 116.96 cycles
STLB RQ	ACCESS:   38099097	FORWARD:          0	MERGED:   32427321	TO_CACHE:    5671776

STLB Hit, L1D data hit: 0
STLB Hit, L2C data hit: 0
STLB Hit, LLC data hit: 0
STLB Hit, LLC data miss: 0
STLB STLB hints to L2: 0
L1D TOTAL     ACCESS:   58199139  HIT:   57939388  MISS:     259751  HIT %:    99.5537  MISS %:   0.446314   MPKI: 1.29875
L1D LOAD      ACCESS:   19325823  HIT:   19322590  MISS:       3233  HIT %:    99.9833  MISS %:  0.0167289   MPKI: 0.016165
L1D RFO       ACCESS:   10209169  HIT:   10155983  MISS:      53186  HIT %:     99.479  MISS %:   0.520963   MPKI: 0.26593
L1D PREFETCH  ACCESS:   28664147  HIT:   28460815  MISS:     203332  HIT %:    99.2906  MISS %:    0.70936   MPKI: 1.01666
L1D PREFETCH  REQUESTED:  106442006  ISSUED:  106310524  USEFUL:     203342  USELESS:          0
L1D USEFUL LOAD PREFETCHES:     203342 PREFETCH ISSUED TO LOWER LEVEL:    7331754  ACCURACY: 2.77344
L1D TIMELY PREFETCHES:     203342 LATE PREFETCHES: 659 DROPPED PREFETCHES: 2236075
L1D PREFETCHES SAME FILL-ORIGIN LEVEL: 204007 DIFFERENT FILL-ORIGIN LEVEL: 7127747
L1D AVERAGE MISS LATENCY: 87.0459 cycles
L1D RQ	ACCESS:   25476898	FORWARD:          0	MERGED:    6134286	TO_CACHE:   19328597
L1D WQ	ACCESS:   10212037	FORWARD:      14015	MERGED:          1	TO_CACHE:   10212036
L1D PQ	ACCESS:   68215489	FORWARD:          0	MERGED:   30120454	TO_CACHE:   38095035

L1D UNIQUE REGIONS ACCESSED: 0
L1D REGIONS CONFLICTS: 0
L1D Cross Page Prefetch Requests: 6318144
L1D Same Page Prefetch Requests: 85896952
L1D ROI Sum of L1D PQ occupancy: 545072529
L1D PREFETCHES PUSHED FROM L2C: 0
L1I TOTAL     ACCESS:   38403226  HIT:   38403226  MISS:          0  HIT %:        100  MISS %:          0   MPKI: 0
L1I LOAD      ACCESS:   38403226  HIT:   38403226  MISS:          0  HIT %:        100  MISS %:          0   MPKI: 0
L1I PREFETCH  REQUESTED:          0  ISSUED:          0  USEFUL:          0  USELESS:          0
L1I USEFUL LOAD PREFETCHES:          0 PREFETCH ISSUED TO LOWER LEVEL:          0  ACCURACY: -nan
L1I TIMELY PREFETCHES:          0 LATE PREFETCHES: 0 DROPPED PREFETCHES: 0
L1I PREFETCHES SAME FILL-ORIGIN LEVEL: 0 DIFFERENT FILL-ORIGIN LEVEL: 0
L1I AVERAGE MISS LATENCY: -nan cycles
L1I RQ	ACCESS:   55009232	FORWARD:          0	MERGED:   16604659	TO_CACHE:   38404573

BTB TOTAL     ACCESS:   33640251  HIT:   33640236  MISS:         15  HIT %:        100  MISS %: 4.45894e-05   MPKI: 7.5e-05
BTB BRANCH_DIRECT_JUMP	ACCESS:    8114492  HIT:    8114488  MISS:          4
BTB BRANCH_INDIRECT	ACCESS:          0  HIT:          0  MISS:          0
BTB BRANCH_CONDITIONAL	ACCESS:   23823815  HIT:   23823806  MISS:          9
BTB BRANCH_DIRECT_CALL	ACCESS:     850972  HIT:     850971  MISS:          1
BTB BRANCH_INDIRECT_CALL	ACCESS:          0  HIT:          0  MISS:          0
BTB BRANCH_RETURN	ACCESS:     850972  HIT:     850971  MISS:          1
BTB BRANCH_OTHER ACCESS:          0  HIT:          0  MISS:          0

L2C TOTAL     ACCESS:    7903313  HIT:    7631410  MISS:     271903  HIT %:    96.5596  MISS %:    3.44037   MPKI: 1.35951
L2C LOAD      ACCESS:       2574  HIT:          4  MISS:       2570  HIT %:     0.1554  MISS %:    99.8446   MPKI: 0.01285
L2C DATA LOAD MPKI: 0.01285
L2C INSTRUCTION LOAD MPKI: 0
L2C RFO       ACCESS:      53186  HIT:          0  MISS:      53186  HIT %:          0  MISS %:        100   MPKI: 0.26593
L2C PREFETCH  ACCESS:    7239336  HIT:    7035337  MISS:     203999  HIT %:    97.1821  MISS %:    2.81792   MPKI: 1.01999
L2C DATA PREFETCH MPKI: 1.01999
L2C INSTRUCTION PREFETCH MPKI: 0
L2C WRITEBACK ACCESS:      53163  HIT:      41535  MISS:      11628  HIT %:    78.1276  MISS %:    21.8724   MPKI: 0.05814
L2C LOAD TRANSLATION ACCESS:       4059  HIT:       3949  MISS:        110  HIT %:      97.29  MISS %:    2.71003   MPKI: 0.00055
L2C TRANSLATION FROM L1D PREFETCHER ACCESS:     550995  HIT:     550585  MISS:        410  HIT %:    99.9256  MISS %:  0.0744108   MPKI: 0.00205
L2C PREFETCH  REQUESTED:          0  ISSUED:          0  USEFUL:        414  USELESS:     203123
L2C USEFUL LOAD PREFETCHES:        414 PREFETCH ISSUED TO LOWER LEVEL:     204018  ACCURACY: 0.202923
L2C TIMELY PREFETCHES:        414 LATE PREFETCHES: 0 DROPPED PREFETCHES: 0
L2C PREFETCHES SAME FILL-ORIGIN LEVEL: 124360 DIFFERENT FILL-ORIGIN LEVEL: 0
L2C AVERAGE MISS LATENCY: 136.017 cycles
L2C RQ	ACCESS:     610821	FORWARD:          0	MERGED:          0	TO_CACHE:     610821
L2C WQ	ACCESS:      53165	FORWARD:          0	MERGED:          0	TO_CACHE:      53165
L2C PQ	ACCESS:    7331754	FORWARD:          0	MERGED:        998	TO_CACHE:    7330756

L2C Instructions Evicting Data 0
L2C Translations Evicting Data 523
L2C Data Evicting Data 259284
L2C Instructions Evicting Instructions 0
L2C Translations Evicting Instructions 0
L2C Data Evicting Instructions 0
L2C Instructions Evicting Translations 0
L2C Translations Evicting Translations 0
L2C Data Evicting Translations 494
L2C Dense regions hint from L2: 0
PSCL5 TOTAL     ACCESS:     555055  HIT:     555055  MISS:          0  HIT %:        100  MISS %:          0   MPKI: 0
PSCL5 LOAD TRANSLATION ACCESS:       4059  HIT:       4059  MISS:          0  HIT %:        100  MISS %:          0   MPKI: 0
PSCL5 TRANSLATION FROM L1D PREFETCHER ACCESS:     550996  HIT:     550996  MISS:          0  HIT %:        100  MISS %:          0   MPKI: 0
PSCL5 PREFETCH  REQUESTED:          0  ISSUED:          0  USEFUL:          0  USELESS:          0
PSCL5 USEFUL LOAD PREFETCHES:          0 PREFETCH ISSUED TO LOWER LEVEL:          0  ACCURACY: -nan
PSCL5 TIMELY PREFETCHES:          0 LATE PREFETCHES: 0 DROPPED PREFETCHES: 0
PSCL5 PREFETCHES SAME FILL-ORIGIN LEVEL: 0 DIFFERENT FILL-ORIGIN LEVEL: 0

PSCL4 TOTAL     ACCESS:     555055  HIT:     555055  MISS:          0  HIT %:        100  MISS %:          0   MPKI: 0
PSCL4 LOAD TRANSLATION ACCESS:       4059  HIT:       4059  MISS:          0  HIT %:        100  MISS %:          0   MPKI: 0
PSCL4 TRANSLATION FROM L1D PREFETCHER ACCESS:     550996  HIT:     550996  MISS:          0  HIT %:        100  MISS %:          0   MPKI: 0
PSCL4 PREFETCH  REQUESTED:          0  ISSUED:          0  USEFUL:          0  USELESS:          0
PSCL4 USEFUL LOAD PREFETCHES:          0 PREFETCH ISSUED TO LOWER LEVEL:          0  ACCURACY: -nan
PSCL4 TIMELY PREFETCHES:          0 LATE PREFETCHES: 0 DROPPED PREFETCHES: 0
PSCL4 PREFETCHES SAME FILL-ORIGIN LEVEL: 0 DIFFERENT FILL-ORIGIN LEVEL: 0

PSCL3 TOTAL     ACCESS:     555055  HIT:     555055  MISS:          0  HIT %:        100  MISS %:          0   MPKI: 0
PSCL3 LOAD TRANSLATION ACCESS:       4059  HIT:       4059  MISS:          0  HIT %:        100  MISS %:          0   MPKI: 0
PSCL3 TRANSLATION FROM L1D PREFETCHER ACCESS:     550996  HIT:     550996  MISS:          0  HIT %:        100  MISS %:          0   MPKI: 0
PSCL3 PREFETCH  REQUESTED:          0  ISSUED:          0  USEFUL:          0  USELESS:          0
PSCL3 USEFUL LOAD PREFETCHES:          0 PREFETCH ISSUED TO LOWER LEVEL:          0  ACCURACY: -nan
PSCL3 TIMELY PREFETCHES:          0 LATE PREFETCHES: 0 DROPPED PREFETCHES: 0
PSCL3 PREFETCHES SAME FILL-ORIGIN LEVEL: 0 DIFFERENT FILL-ORIGIN LEVEL: 0

PSCL2 TOTAL     ACCESS:     554128  HIT:     554120  MISS:          8  HIT %:    99.9986  MISS %: 0.00144371   MPKI: 4e-05
PSCL2 LOAD TRANSLATION ACCESS:       4059  HIT:       4051  MISS:          8  HIT %:    99.8029  MISS %:   0.197093   MPKI: 4e-05
PSCL2 TRANSLATION FROM L1D PREFETCHER ACCESS:     550069  HIT:     550069  MISS:          0  HIT %:        100  MISS %:          0   MPKI: 0
PSCL2 PREFETCH  REQUESTED:          0  ISSUED:          0  USEFUL:          0  USELESS:          0
PSCL2 USEFUL LOAD PREFETCHES:          0 PREFETCH ISSUED TO LOWER LEVEL:          0  ACCURACY: -nan
PSCL2 TIMELY PREFETCHES:          0 LATE PREFETCHES: 0 DROPPED PREFETCHES: 0
PSCL2 PREFETCHES SAME FILL-ORIGIN LEVEL: 0 DIFFERENT FILL-ORIGIN LEVEL: 0

LLC TOTAL     ACCESS:     314362  HIT:      49868  MISS:     264494  HIT %:    15.8632  MISS %:    84.1368   MPKI: 1.32247
LLC LOAD      ACCESS:       2570  HIT:          0  MISS:       2570  HIT %:          0  MISS %:        100   MPKI: 0.01285
LLC RFO       ACCESS:      53186  HIT:          0  MISS:      53186  HIT %:          0  MISS %:        100   MPKI: 0.26593
LLC PREFETCH  ACCESS:     204000  HIT:          0  MISS:     204000  HIT %:          0  MISS %:        100   MPKI: 1.02
LLC WRITEBACK ACCESS:      54085  HIT:      49865  MISS:       4220  HIT %:    92.1975  MISS %:    7.80253   MPKI: 0.0211
LLC LOAD TRANSLATION ACCESS:        110  HIT:          3  MISS:        107  HIT %:    2.72727  MISS %:    97.2727   MPKI: 0.000535
LLC TRANSLATION FROM L1D PREFETCHER ACCESS:        411  HIT:          0  MISS:        411  HIT %:          0  MISS %:        100   MPKI: 0.002055
LLC PREFETCH  REQUESTED:          0  ISSUED:          0  USEFUL:          0  USELESS:     815662
LLC USEFUL LOAD PREFETCHES:          0 PREFETCH ISSUED TO LOWER LEVEL:     816083  ACCURACY: 0
LLC TIMELY PREFETCHES:          0 LATE PREFETCHES: 0 DROPPED PREFETCHES: 0
LLC PREFETCHES SAME FILL-ORIGIN LEVEL: 0 DIFFERENT FILL-ORIGIN LEVEL: 0
LLC AVERAGE MISS LATENCY: 472.069 cycles
LLC RQ	ACCESS:     225115	FORWARD:          0	MERGED:          0	TO_CACHE:     225115
LLC WQ	ACCESS:     216615	FORWARD:          0	MERGED:          0	TO_CACHE:     216615
LLC PQ	ACCESS:     816083	FORWARD:          0	MERGED:          0	TO_CACHE:     816083

LLC Dense regions hint to LLC: 0

RAW hits: 2666581
Loads Generated: 28142592
Loads sent to L1D: 25476011
Stores Generated: 10211665
Stores sent to L1D: 10211677
Major fault: 0 Minor fault: 5112
Allocated PAGES: 20448

CPU 3 cumulative IPC: 0.838757 instructions: 200000003 cycles: 238447989
ITLB TOTAL     ACCESS:   35903669  HIT:   35903669  MISS:          0  HIT %:        100  MISS %:          0   MPKI: 0
ITLB LOAD TRANSLATION ACCESS:   35903669  HIT:   35903669  MISS:          0  HIT %:        100  MISS %:          0   MPKI: 0
ITLB PREFETCH  REQUESTED:          0  ISSUED:          0  USEFUL:          0  USELESS:          0
ITLB USEFUL LOAD PREFETCHES:          0 PREFETCH ISSUED TO LOWER LEVEL:          0  ACCURACY: -nan
ITLB TIMELY PREFETCHES:          0 LATE PREFETCHES: 0 DROPPED PREFETCHES: 0
ITLB PREFETCHES SAME FILL-ORIGIN LEVEL: 0 DIFFERENT FILL-ORIGIN LEVEL: 0
ITLB AVERAGE MISS LATENCY: -nan cycles
ITLB RQ	ACCESS:   38403137	FORWARD:          0	MERGED:    2499468	TO_CACHE:   35903669

DTLB TOTAL     ACCESS:   26206180  HIT:   26202122  MISS:       4058  HIT %:    99.9845  MISS %:  0.0154849   MPKI: 0.02029
DTLB LOAD TRANSLATION ACCESS:   26206180  HIT:   26202122  MISS:       4058  HIT %:    99.9845  MISS %:  0.0154849   MPKI: 0.02029
DTLB PREFETCH  REQUESTED:          0  ISSUED:          0  USEFUL:          0  USELESS:          0
DTLB USEFUL LOAD PREFETCHES:          0 PREFETCH ISSUED TO LOWER LEVEL:          0  ACCURACY: -nan
DTLB TIMELY PREFETCHES:          0 LATE PREFETCHES: 0 DROPPED PREFETCHES: 0
DTLB PREFETCHES SAME FILL-ORIGIN LEVEL: 0 DIFFERENT FILL-ORIGIN LEVEL: 0
DTLB AVERAGE MISS LATENCY: 125.739 cycles
DTLB RQ	ACCESS:   29539599	FORWARD:          0	MERGED:    3333404	TO_CACHE:   26206195

STLB TOTAL     ACCESS:    5123182  HIT:    5119124  MISS:       4058  HIT %:    99.9208  MISS %:  0.0792086   MPKI: 0.02029
STLB LOAD TRANSLATION ACCESS:       4058  HIT:          0  MISS:       4058  HIT %:          0  MISS %:        100   MPKI: 0.02029
STLB TRANSLATION FROM L1D PREFETCHER ACCESS:    5119124  HIT:    5119124  MISS:          0  HIT %:        100  MISS %:          0   MPKI: 0
STLB PREFETCH  REQUESTED:          0  ISSUED:          0  USEFUL:          0  USELESS:          0
STLB USEFUL LOAD PREFETCHES:          0 PREFETCH ISSUED TO LOWER LEVEL:          0  ACCURACY: -nan
STLB TIMELY PREFETCHES:          0 LATE PREFETCHES: 472 DROPPED PREFETCHES: 531811
STLB PREFETCHES SAME FILL-ORIGIN LEVEL: 0 DIFFERENT FILL-ORIGIN LEVEL: 0
STLB AVERAGE MISS LATENCY: 117.714 cycles
STLB RQ	ACCESS:   38177819	FORWARD:          0	MERGED:   32517290	TO_CACHE:    5660529

STLB Hit, L1D data hit: 0
STLB Hit, L2C data hit: 0
STLB Hit, LLC data hit: 0
STLB Hit, LLC data miss: 0
STLB STLB hints to L2: 0
L1D TOTAL     ACCESS:   58194482  HIT:   57934732  MISS:     259750  HIT %:    99.5537  MISS %:   0.446348   MPKI: 1.29875
L1D LOAD      ACCESS:   19325805  HIT:   19322576  MISS:       3229  HIT %:    99.9833  MISS %:  0.0167082   MPKI: 0.016145
L1D RFO       ACCESS:   10207969  HIT:   10154783  MISS:      53186  HIT %:     99.479  MISS %:   0.521024   MPKI: 0.26593
L1D PREFETCH  ACCESS:   28660708  HIT:   28457373  MISS:     203335  HIT %:    99.2905  MISS %:   0.709456   MPKI: 1.01667
L1D PREFETCH  REQUESTED:  106506609  ISSUED:  106378098  USEFUL:     203339  USELESS:          0
L1D USEFUL LOAD PREFETCHES:     203339 PREFETCH ISSUED TO LOWER LEVEL:    7430138  ACCURACY: 2.73668
L1D TIMELY PREFETCHES:     203339 LATE PREFETCHES: 675 DROPPED PREFETCHES: 2214811
L1D PREFETCHES SAME FILL-ORIGIN LEVEL: 204010 DIFFERENT FILL-ORIGIN LEVEL: 7226128
L1D AVERAGE MISS LATENCY: 92.9871 cycles
L1D RQ	ACCESS:   25475998	FORWARD:          0	MERGED:    6134059	TO_CACHE:   19327923
L1D WQ	ACCESS:   10211677	FORWARD:      14016	MERGED:          1	TO_CACHE:   10211676
L1D PQ	ACCESS:   68204337	FORWARD:          0	MERGED:   30030576	TO_CACHE:   38173761

L1D UNIQUE REGIONS ACCESSED: 0
L1D REGIONS CONFLICTS: 0
L1D Cross Page Prefetch Requests: 6292907
L1D Same Page Prefetch Requests: 85898267
L1D ROI Sum of L1D PQ occupancy: 543321689
L1D PREFETCHES PUSHED FROM L2C: 0
L1I TOTAL     ACCESS:   38403136  HIT:   38403136  MISS:          0  HIT %:        100  MISS %:          0   MPKI: 0
L1I LOAD      ACCESS:   38403136  HIT:   38403136  MISS:          0  HIT %:        100  MISS %:          0   MPKI: 0
L1I PREFETCH  REQUESTED:          0  ISSUED:          0  USEFUL:          0  USELESS:          0
L1I USEFUL LOAD PREFETCHES:          0 PREFETCH ISSUED TO LOWER LEVEL:          0  ACCURACY: -nan
L1I TIMELY PREFETCHES:          0 LATE PREFETCHES: 0 DROPPED PREFETCHES: 0
L1I PREFETCHES SAME FILL-ORIGIN LEVEL: 0 DIFFERENT FILL-ORIGIN LEVEL: 0
L1I AVERAGE MISS LATENCY: -nan cycles
L1I RQ	ACCESS:   55007196	FORWARD:          0	MERGED:   16604059	TO_CACHE:   38403137

BTB TOTAL     ACCESS:   33640186  HIT:   33640170  MISS:         16  HIT %:        100  MISS %: 4.75622e-05   MPKI: 8e-05
BTB BRANCH_DIRECT_JUMP	ACCESS:    8114477  HIT:    8114473  MISS:          4
BTB BRANCH_INDIRECT	ACCESS:          0  HIT:          0  MISS:          0
BTB BRANCH_CONDITIONAL	ACCESS:   23823767  HIT:   23823757  MISS:         10
BTB BRANCH_DIRECT_CALL	ACCESS:     850971  HIT:     850970  MISS:          1
BTB BRANCH_INDIRECT_CALL	ACCESS:          0  HIT:          0  MISS:          0
BTB BRANCH_RETURN	ACCESS:     850971  HIT:     850970  MISS:          1
BTB BRANCH_OTHER ACCESS:          0  HIT:          0  MISS:          0

L2C TOTAL     ACCESS:    7976323  HIT:    7704137  MISS:     272186  HIT %:    96.5876  MISS %:    3.41242   MPKI: 1.36093
L2C LOAD      ACCESS:       2554  HIT:          2  MISS:       2552  HIT %:  0.0783085  MISS %:    99.9217   MPKI: 0.01276
L2C DATA LOAD MPKI: 0.01276
L2C INSTRUCTION LOAD MPKI: 0
L2C RFO       ACCESS:      53186  HIT:          0  MISS:      53186  HIT %:          0  MISS %:        100   MPKI: 0.26593
L2C PREFETCH  ACCESS:    7331079  HIT:    7127090  MISS:     203989  HIT %:    97.2175  MISS %:    2.78252   MPKI: 1.01994
L2C DATA PREFETCH MPKI: 1.01994
L2C INSTRUCTION PREFETCH MPKI: 0
L2C WRITEBACK ACCESS:      53163  HIT:      41222  MISS:      11941  HIT %:    77.5389  MISS %:    22.4611   MPKI: 0.059705
L2C LOAD TRANSLATION ACCESS:       4058  HIT:       3950  MISS:        108  HIT %:    97.3386  MISS %:    2.66141   MPKI: 0.00054
L2C TRANSLATION FROM L1D PREFETCHER ACCESS:     532283  HIT:     531873  MISS:        410  HIT %:     99.923  MISS %:  0.0770267   MPKI: 0.00205
L2C PREFETCH  REQUESTED:          0  ISSUED:          0  USEFUL:        412  USELESS:     202919
L2C USEFUL LOAD PREFETCHES:        412 PREFETCH ISSUED TO LOWER LEVEL:     203989  ACCURACY: 0.201972
L2C TIMELY PREFETCHES:        412 LATE PREFETCHES: 0 DROPPED PREFETCHES: 0
L2C PREFETCHES SAME FILL-ORIGIN LEVEL: 125192 DIFFERENT FILL-ORIGIN LEVEL: 0
L2C AVERAGE MISS LATENCY: 146.176 cycles
L2C RQ	ACCESS:     592081	FORWARD:          0	MERGED:          0	TO_CACHE:     592081
L2C WQ	ACCESS:      53163	FORWARD:          0	MERGED:          0	TO_CACHE:      53163
L2C PQ	ACCESS:    7430138	FORWARD:          0	MERGED:       1050	TO_CACHE:    7429088

L2C Instructions Evicting Data 0
L2C Translations Evicting Data 518
L2C Data Evicting Data 259219
L2C Instructions Evicting Instructions 0
L2C Translations Evicting Instructions 0
L2C Data Evicting Instructions 0
L2C Instructions Evicting Translations 0
L2C Translations Evicting Translations 0
L2C Data Evicting Translations 508
L2C Dense regions hint from L2: 0
PSCL5 TOTAL     ACCESS:     536341  HIT:     536341  MISS:          0  HIT %:        100  MISS %:          0   MPKI: 0
PSCL5 LOAD TRANSLATION ACCESS:       4058  HIT:       4058  MISS:          0  HIT %:        100  MISS %:          0   MPKI: 0
PSCL5 TRANSLATION FROM L1D PREFETCHER ACCESS:     532283  HIT:     532283  MISS:          0  HIT %:        100  MISS %:          0   MPKI: 0
PSCL5 PREFETCH  REQUESTED:          0  ISSUED:          0  USEFUL:          0  USELESS:          0
PSCL5 USEFUL LOAD PREFETCHES:          0 PREFETCH ISSUED TO LOWER LEVEL:          0  ACCURACY: -nan
PSCL5 TIMELY PREFETCHES:          0 LATE PREFETCHES: 0 DROPPED PREFETCHES: 0
PSCL5 PREFETCHES SAME FILL-ORIGIN LEVEL: 0 DIFFERENT FILL-ORIGIN LEVEL: 0

PSCL4 TOTAL     ACCESS:     536341  HIT:     536341  MISS:          0  HIT %:        100  MISS %:          0   MPKI: 0
PSCL4 LOAD TRANSLATION ACCESS:       4058  HIT:       4058  MISS:          0  HIT %:        100  MISS %:          0   MPKI: 0
PSCL4 TRANSLATION FROM L1D PREFETCHER ACCESS:     532283  HIT:     532283  MISS:          0  HIT %:        100  MISS %:          0   MPKI: 0
PSCL4 PREFETCH  REQUESTED:          0  ISSUED:          0  USEFUL:          0  USELESS:          0
PSCL4 USEFUL LOAD PREFETCHES:          0 PREFETCH ISSUED TO LOWER LEVEL:          0  ACCURACY: -nan
PSCL4 TIMELY PREFETCHES:          0 LATE PREFETCHES: 0 DROPPED PREFETCHES: 0
PSCL4 PREFETCHES SAME FILL-ORIGIN LEVEL: 0 DIFFERENT FILL-ORIGIN LEVEL: 0

PSCL3 TOTAL     ACCESS:     536341  HIT:     536341  MISS:          0  HIT %:        100  MISS %:          0   MPKI: 0
PSCL3 LOAD TRANSLATION ACCESS:       4058  HIT:       4058  MISS:          0  HIT %:        100  MISS %:          0   MPKI: 0
PSCL3 TRANSLATION FROM L1D PREFETCHER ACCESS:     532283  HIT:     532283  MISS:          0  HIT %:        100  MISS %:          0   MPKI: 0
PSCL3 PREFETCH  REQUESTED:          0  ISSUED:          0  USEFUL:          0  USELESS:          0
PSCL3 USEFUL LOAD PREFETCHES:          0 PREFETCH ISSUED TO LOWER LEVEL:          0  ACCURACY: -nan
PSCL3 TIMELY PREFETCHES:          0 LATE PREFETCHES: 0 DROPPED PREFETCHES: 0
PSCL3 PREFETCHES SAME FILL-ORIGIN LEVEL: 0 DIFFERENT FILL-ORIGIN LEVEL: 0

PSCL2 TOTAL     ACCESS:     535414  HIT:     535406  MISS:          8  HIT %:    99.9985  MISS %: 0.00149417   MPKI: 4e-05
PSCL2 LOAD TRANSLATION ACCESS:       4058  HIT:       4050  MISS:          8  HIT %:    99.8029  MISS %:   0.197141   MPKI: 4e-05
PSCL2 TRANSLATION FROM L1D PREFETCHER ACCESS:     531356  HIT:     531356  MISS:          0  HIT %:        100  MISS %:          0   MPKI: 0
PSCL2 PREFETCH  REQUESTED:          0  ISSUED:          0  USEFUL:          0  USELESS:          0
PSCL2 USEFUL LOAD PREFETCHES:          0 PREFETCH ISSUED TO LOWER LEVEL:          0  ACCURACY: -nan
PSCL2 TIMELY PREFETCHES:          0 LATE PREFETCHES: 0 DROPPED PREFETCHES: 0
PSCL2 PREFETCHES SAME FILL-ORIGIN LEVEL: 0 DIFFERENT FILL-ORIGIN LEVEL: 0

LLC TOTAL     ACCESS:     314505  HIT:      50140  MISS:     264365  HIT %:    15.9425  MISS %:    84.0575   MPKI: 1.32182
LLC LOAD      ACCESS:       2552  HIT:          0  MISS:       2552  HIT %:          0  MISS %:        100   MPKI: 0.01276
LLC RFO       ACCESS:      53186  HIT:          0  MISS:      53186  HIT %:          0  MISS %:        100   MPKI: 0.26593
LLC PREFETCH  ACCESS:     203989  HIT:          0  MISS:     203989  HIT %:          0  MISS %:        100   MPKI: 1.01994
LLC WRITEBACK ACCESS:      54260  HIT:      50138  MISS:       4122  HIT %:    92.4032  MISS %:    7.59676   MPKI: 0.02061
LLC LOAD TRANSLATION ACCESS:        108  HIT:          2  MISS:        106  HIT %:    1.85185  MISS %:    98.1481   MPKI: 0.00053
LLC TRANSLATION FROM L1D PREFETCHER ACCESS:        410  HIT:          0  MISS:        410  HIT %:          0  MISS %:        100   MPKI: 0.00205
LLC PREFETCH  REQUESTED:          0  ISSUED:          0  USEFUL:          0  USELESS:     815662
LLC USEFUL LOAD PREFETCHES:          0 PREFETCH ISSUED TO LOWER LEVEL:     816083  ACCURACY: 0
LLC TIMELY PREFETCHES:          0 LATE PREFETCHES: 0 DROPPED PREFETCHES: 0
LLC PREFETCHES SAME FILL-ORIGIN LEVEL: 0 DIFFERENT FILL-ORIGIN LEVEL: 0
LLC AVERAGE MISS LATENCY: 472.3 cycles
LLC RQ	ACCESS:     225115	FORWARD:          0	MERGED:          0	TO_CACHE:     225115
LLC WQ	ACCESS:     216615	FORWARD:          0	MERGED:          0	TO_CACHE:     216615
LLC PQ	ACCESS:     816083	FORWARD:          0	MERGED:          0	TO_CACHE:     816083

LLC Dense regions hint to LLC: 0

RAW hits: 2666585
Loads Generated: 28142583
Loads sent to L1D: 25475998
Stores Generated: 10211665
Stores sent to L1D: 10211677
Major fault: 0 Minor fault: 5112
Allocated PAGES: 20448

DRAM Statistics
 CHANNEL 0
 RQ ROW_BUFFER_HIT:     592894  ROW_BUFFER_MISS:     448297
 DBUS_CONGESTED:       2142
 WQ ROW_BUFFER_HIT:      34397  ROW_BUFFER_MISS:     179794  FULL:          0

 AVG_CONGESTED_CYCLE: 4
 All warmup complete: 5
Channel 0 Bank busy for read cycles: 0
Channel 0 Bank busy for write cycles: 0
Channel 0
Rank 0
0banks busy for read cycles: 132975345
0banks busy for write cycles: 150622
1banks busy for read cycles: 63827732
1banks busy for write cycles: 22797718
2banks busy for read cycles: 10358988
2banks busy for write cycles: 4379689
3banks busy for read cycles: 1089030
3banks busy for write cycles: 879790
4banks busy for read cycles: 240425
4banks busy for write cycles: 267582
5banks busy for read cycles: 172191
5banks busy for write cycles: 138239
6banks busy for read cycles: 148255
6banks busy for write cycles: 92842
7banks busy for read cycles: 176932
7banks busy for write cycles: 60229
8banks busy for read cycles: 642504
8banks busy for write cycles: 49877

CPU 0 Branch Prediction Accuracy: 97.5732% MPKI: 7.34541 Average ROB Occupancy at Mispredict: 78.6733
Branch types
NOT_BRANCH: 139480202 69.7316%
BRANCH_DIRECT_JUMP: 8115470 4.05724%
BRANCH_INDIRECT: 0 0%
BRANCH_CONDITIONAL: 50726337 25.3601%
BRANCH_DIRECT_CALL: 851075 0.425486%
BRANCH_INDIRECT_CALL: 0 0%
BRANCH_RETURN: 851075 0.425486%
BRANCH_OTHER: 0 0%


CPU 1 Branch Prediction Accuracy: 97.5733% MPKI: 7.34531 Average ROB Occupancy at Mispredict: 78.6747
Branch types
NOT_BRANCH: 139471228 69.7316%
BRANCH_DIRECT_JUMP: 8114946 4.05724%
BRANCH_INDIRECT: 0 0%
BRANCH_CONDITIONAL: 50723069 25.3601%
BRANCH_DIRECT_CALL: 851021 0.425486%
BRANCH_INDIRECT_CALL: 0 0%
BRANCH_RETURN: 851021 0.425486%
BRANCH_OTHER: 0 0%


CPU 2 Branch Prediction Accuracy: 97.5733% MPKI: 7.3453 Average ROB Occupancy at Mispredict: 78.6746
Branch types
NOT_BRANCH: 139468139 69.7316%
BRANCH_DIRECT_JUMP: 8114768 4.05724%
BRANCH_INDIRECT: 0 0%
BRANCH_CONDITIONAL: 50721949 25.3601%
BRANCH_DIRECT_CALL: 851002 0.425486%
BRANCH_INDIRECT_CALL: 0 0%
BRANCH_RETURN: 851002 0.425486%
BRANCH_OTHER: 0 0%


CPU 3 Branch Prediction Accuracy: 97.5732% MPKI: 7.34538 Average ROB Occupancy at Mispredict: 78.6735
Branch types
NOT_BRANCH: 139463123 69.7316%
BRANCH_DIRECT_JUMP: 8114477 4.05724%
BRANCH_INDIRECT: 0 0%
BRANCH_CONDITIONAL: 50720113 25.3601%
BRANCH_DIRECT_CALL: 850971 0.425485%
BRANCH_INDIRECT_CALL: 0 0%
BRANCH_RETURN: 850971 0.425485%
BRANCH_OTHER: 0 0%

DRAM PAGES: 1048576
Allocated PAGES: 20448
