
*** ChampSim Multicore Out-of-Order Simulator ***

Warmup Instructions: 50000000
Simulation Instructions: 200000000
Number of CPUs: 4
LLC sets: 8192
LLC ways: 16
Off-chip DRAM Size: 4096 MB Channels: 1 Width: 64-bit Data Rate: 6400 MT/s
CPU 0 runs ./traces/ligra/ligra_PageRankDelta.com-lj.ungraph.gcc_6.3.0_O3.drop_11750M.length_250M.champsimtrace.xz
.xz
CPU 1 runs ./traces/ligra/ligra_PageRankDelta.com-lj.ungraph.gcc_6.3.0_O3.drop_11750M.length_250M.champsimtrace.xz
.xz
CPU 2 runs ./traces/ligra/ligra_PageRankDelta.com-lj.ungraph.gcc_6.3.0_O3.drop_11750M.length_250M.champsimtrace.xz
.xz
CPU 3 runs ./traces/ligra/ligra_PageRankDelta.com-lj.ungraph.gcc_6.3.0_O3.drop_11750M.length_250M.champsimtrace.xz
.xz
BTB has LRU replacement policy
ITLB has LRU replacement policy
DTLB has LRU replacement policy
STLB has LRU replacement policy
L1I has LRU replacement policy
History Sets: 8
History Ways: 16
BERTI Size: 16
BERTI Stride Size: 8
L1D has LRU replacement policy
Initialize SRRIP state for L2C
Initialize DRRIP state for LLC
BTB has LRU replacement policy
ITLB has LRU replacement policy
DTLB has LRU replacement policy
STLB has LRU replacement policy
L1I has LRU replacement policy
History Sets: 8
History Ways: 16
BERTI Size: 16
BERTI Stride Size: 8
L1D has LRU replacement policy
Initialize SRRIP state for L2C
Initialize DRRIP state for LLC
BTB has LRU replacement policy
ITLB has LRU replacement policy
DTLB has LRU replacement policy
STLB has LRU replacement policy
L1I has LRU replacement policy
History Sets: 8
History Ways: 16
BERTI Size: 16
BERTI Stride Size: 8
L1D has LRU replacement policy
Initialize SRRIP state for L2C
Initialize DRRIP state for LLC
BTB has LRU replacement policy
ITLB has LRU replacement policy
DTLB has LRU replacement policy
STLB has LRU replacement policy
L1I has LRU replacement policy
History Sets: 8
History Ways: 16
BERTI Size: 16
BERTI Stride Size: 8
L1D has LRU replacement policy
Initialize SRRIP state for L2C
Initialize DRRIP state for LLC
Heartbeat CPU 0 instructions: 10000001 cycles: 2929359 heartbeat IPC: 3.41372 cumulative IPC: 3.41372 (Simulation time: 0 hr 2 min 40 sec) 
Heartbeat CPU 2 instructions: 10000001 cycles: 2929361 heartbeat IPC: 3.41371 cumulative IPC: 3.41371 (Simulation time: 0 hr 2 min 40 sec) 
Heartbeat CPU 3 instructions: 10000001 cycles: 2929382 heartbeat IPC: 3.41369 cumulative IPC: 3.41369 (Simulation time: 0 hr 2 min 40 sec) 
Heartbeat CPU 1 instructions: 10000001 cycles: 2929390 heartbeat IPC: 3.41368 cumulative IPC: 3.41368 (Simulation time: 0 hr 2 min 40 sec) 
Heartbeat CPU 0 instructions: 20000001 cycles: 5858280 heartbeat IPC: 3.41423 cumulative IPC: 3.41397 (Simulation time: 0 hr 5 min 29 sec) 
Heartbeat CPU 2 instructions: 20000001 cycles: 5858282 heartbeat IPC: 3.41423 cumulative IPC: 3.41397 (Simulation time: 0 hr 5 min 29 sec) 
Heartbeat CPU 3 instructions: 20000001 cycles: 5858299 heartbeat IPC: 3.41423 cumulative IPC: 3.41396 (Simulation time: 0 hr 5 min 29 sec) 
Heartbeat CPU 1 instructions: 20000001 cycles: 5858311 heartbeat IPC: 3.41423 cumulative IPC: 3.41395 (Simulation time: 0 hr 5 min 29 sec) 
Heartbeat CPU 0 instructions: 30000002 cycles: 8787006 heartbeat IPC: 3.41445 cumulative IPC: 3.41413 (Simulation time: 0 hr 8 min 15 sec) 
Heartbeat CPU 2 instructions: 30000002 cycles: 8787015 heartbeat IPC: 3.41445 cumulative IPC: 3.41413 (Simulation time: 0 hr 8 min 15 sec) 
Heartbeat CPU 3 instructions: 30000002 cycles: 8787039 heartbeat IPC: 3.41444 cumulative IPC: 3.41412 (Simulation time: 0 hr 8 min 15 sec) 
Heartbeat CPU 1 instructions: 30000002 cycles: 8787045 heartbeat IPC: 3.41444 cumulative IPC: 3.41412 (Simulation time: 0 hr 8 min 15 sec) 
Heartbeat CPU 0 instructions: 40000003 cycles: 11713314 heartbeat IPC: 3.41728 cumulative IPC: 3.41492 (Simulation time: 0 hr 11 min 7 sec) 
Heartbeat CPU 2 instructions: 40000003 cycles: 11713323 heartbeat IPC: 3.41728 cumulative IPC: 3.41492 (Simulation time: 0 hr 11 min 7 sec) 
Heartbeat CPU 3 instructions: 40000003 cycles: 11713347 heartbeat IPC: 3.41728 cumulative IPC: 3.41491 (Simulation time: 0 hr 11 min 7 sec) 
Heartbeat CPU 1 instructions: 40000003 cycles: 11713353 heartbeat IPC: 3.41728 cumulative IPC: 3.41491 (Simulation time: 0 hr 11 min 7 sec) 
Heartbeat CPU 0 instructions: 50000003 cycles: 14643004 heartbeat IPC: 3.41333 cumulative IPC: 3.4146 (Simulation time: 0 hr 13 min 48 sec) 
Heartbeat CPU 2 instructions: 50000003 cycles: 14643014 heartbeat IPC: 3.41333 cumulative IPC: 3.4146 (Simulation time: 0 hr 13 min 48 sec) 
Heartbeat CPU 3 instructions: 50000003 cycles: 14643032 heartbeat IPC: 3.41334 cumulative IPC: 3.41459 (Simulation time: 0 hr 13 min 48 sec) 
Heartbeat CPU 1 instructions: 50000003 cycles: 14643044 heartbeat IPC: 3.41333 cumulative IPC: 3.41459 (Simulation time: 0 hr 13 min 48 sec) 

Warmup complete CPU 0 instructions: 50000163 cycles: 14643044 (Simulation time: 0 hr 13 min 48 sec) 
Warmup complete CPU 1 instructions: 50000003 cycles: 14643044 (Simulation time: 0 hr 13 min 48 sec) 
Warmup complete CPU 2 instructions: 50000119 cycles: 14643043 (Simulation time: 0 hr 13 min 48 sec) 
Warmup complete CPU 3 instructions: 50000047 cycles: 14643043 (Simulation time: 0 hr 13 min 48 sec) 

Heartbeat CPU 0 instructions: 60000003 cycles: 26561516 heartbeat IPC: 0.839031 cumulative IPC: 0.83902 (Simulation time: 0 hr 17 min 14 sec) 
Heartbeat CPU 2 instructions: 60000003 cycles: 26561898 heartbeat IPC: 0.839005 cumulative IPC: 0.838997 (Simulation time: 0 hr 17 min 14 sec) 
Heartbeat CPU 3 instructions: 60000003 cycles: 26562223 heartbeat IPC: 0.838983 cumulative IPC: 0.83898 (Simulation time: 0 hr 17 min 14 sec) 
Heartbeat CPU 1 instructions: 60000003 cycles: 26564794 heartbeat IPC: 0.838803 cumulative IPC: 0.838803 (Simulation time: 0 hr 17 min 14 sec) 
Heartbeat CPU 0 instructions: 70000001 cycles: 38530973 heartbeat IPC: 0.83546 cumulative IPC: 0.837236 (Simulation time: 0 hr 20 min 43 sec) 
Heartbeat CPU 2 instructions: 70000001 cycles: 38534714 heartbeat IPC: 0.835225 cumulative IPC: 0.837107 (Simulation time: 0 hr 20 min 43 sec) 
Heartbeat CPU 3 instructions: 70000001 cycles: 38534816 heartbeat IPC: 0.835241 cumulative IPC: 0.837106 (Simulation time: 0 hr 20 min 43 sec) 
Heartbeat CPU 1 instructions: 70000001 cycles: 38537987 heartbeat IPC: 0.835199 cumulative IPC: 0.836997 (Simulation time: 0 hr 20 min 43 sec) 
Heartbeat CPU 0 instructions: 80000001 cycles: 50483221 heartbeat IPC: 0.836663 cumulative IPC: 0.837045 (Simulation time: 0 hr 24 min 17 sec) 
Heartbeat CPU 2 instructions: 80000001 cycles: 50490493 heartbeat IPC: 0.836416 cumulative IPC: 0.836876 (Simulation time: 0 hr 24 min 17 sec) 
Heartbeat CPU 3 instructions: 80000001 cycles: 50490595 heartbeat IPC: 0.836416 cumulative IPC: 0.836876 (Simulation time: 0 hr 24 min 17 sec) 
Heartbeat CPU 1 instructions: 80000001 cycles: 50494941 heartbeat IPC: 0.836333 cumulative IPC: 0.836776 (Simulation time: 0 hr 24 min 17 sec) 
Heartbeat CPU 0 instructions: 90000001 cycles: 62249412 heartbeat IPC: 0.849893 cumulative IPC: 0.84022 (Simulation time: 0 hr 27 min 34 sec) 
Heartbeat CPU 2 instructions: 90000001 cycles: 62258688 heartbeat IPC: 0.849748 cumulative IPC: 0.840058 (Simulation time: 0 hr 27 min 34 sec) 
Heartbeat CPU 3 instructions: 90000001 cycles: 62258876 heartbeat IPC: 0.849742 cumulative IPC: 0.840056 (Simulation time: 0 hr 27 min 34 sec) 
Heartbeat CPU 1 instructions: 90000001 cycles: 62264405 heartbeat IPC: 0.849656 cumulative IPC: 0.839959 (Simulation time: 0 hr 27 min 35 sec) 
Heartbeat CPU 0 instructions: 100000000 cycles: 74118386 heartbeat IPC: 0.842533 cumulative IPC: 0.840682 (Simulation time: 0 hr 31 min 7 sec) 
Heartbeat CPU 2 instructions: 100000000 cycles: 74128305 heartbeat IPC: 0.842487 cumulative IPC: 0.840542 (Simulation time: 0 hr 31 min 7 sec) 
Heartbeat CPU 3 instructions: 100000000 cycles: 74128690 heartbeat IPC: 0.842473 cumulative IPC: 0.840538 (Simulation time: 0 hr 31 min 7 sec) 
Heartbeat CPU 1 instructions: 100000000 cycles: 74134846 heartbeat IPC: 0.842429 cumulative IPC: 0.840452 (Simulation time: 0 hr 31 min 7 sec) 
Heartbeat CPU 0 instructions: 110000000 cycles: 85687681 heartbeat IPC: 0.864357 cumulative IPC: 0.844537 (Simulation time: 0 hr 34 min 54 sec) 
Heartbeat CPU 2 instructions: 110000000 cycles: 85697352 heartbeat IPC: 0.864375 cumulative IPC: 0.844423 (Simulation time: 0 hr 34 min 54 sec) 
Heartbeat CPU 3 instructions: 110000000 cycles: 85697454 heartbeat IPC: 0.864397 cumulative IPC: 0.844423 (Simulation time: 0 hr 34 min 54 sec) 
Heartbeat CPU 1 instructions: 110000000 cycles: 85705068 heartbeat IPC: 0.864288 cumulative IPC: 0.844333 (Simulation time: 0 hr 34 min 55 sec) 
Heartbeat CPU 0 instructions: 120000001 cycles: 97210733 heartbeat IPC: 0.867826 cumulative IPC: 0.847787 (Simulation time: 0 hr 38 min 42 sec) 
Heartbeat CPU 2 instructions: 120000001 cycles: 97220581 heartbeat IPC: 0.867812 cumulative IPC: 0.847687 (Simulation time: 0 hr 38 min 42 sec) 
Heartbeat CPU 3 instructions: 120000001 cycles: 97220683 heartbeat IPC: 0.867812 cumulative IPC: 0.847687 (Simulation time: 0 hr 38 min 42 sec) 
Heartbeat CPU 1 instructions: 120000001 cycles: 97229264 heartbeat IPC: 0.86774 cumulative IPC: 0.847599 (Simulation time: 0 hr 38 min 42 sec) 
Heartbeat CPU 0 instructions: 130000000 cycles: 109239823 heartbeat IPC: 0.831318 cumulative IPC: 0.845693 (Simulation time: 0 hr 42 min 11 sec) 
Heartbeat CPU 2 instructions: 130000000 cycles: 109249549 heartbeat IPC: 0.831326 cumulative IPC: 0.845607 (Simulation time: 0 hr 42 min 11 sec) 
Heartbeat CPU 3 instructions: 130000000 cycles: 109249651 heartbeat IPC: 0.831326 cumulative IPC: 0.845606 (Simulation time: 0 hr 42 min 11 sec) 
Heartbeat CPU 1 instructions: 130000000 cycles: 109259417 heartbeat IPC: 0.831245 cumulative IPC: 0.84552 (Simulation time: 0 hr 42 min 11 sec) 
Heartbeat CPU 0 instructions: 140000002 cycles: 121197558 heartbeat IPC: 0.836279 cumulative IPC: 0.844637 (Simulation time: 0 hr 45 min 41 sec) 
Heartbeat CPU 2 instructions: 140000002 cycles: 121207256 heartbeat IPC: 0.836281 cumulative IPC: 0.84456 (Simulation time: 0 hr 45 min 42 sec) 
Heartbeat CPU 3 instructions: 140000002 cycles: 121207358 heartbeat IPC: 0.836281 cumulative IPC: 0.84456 (Simulation time: 0 hr 45 min 42 sec) 
Heartbeat CPU 1 instructions: 140000002 cycles: 121215940 heartbeat IPC: 0.836364 cumulative IPC: 0.844492 (Simulation time: 0 hr 45 min 42 sec) 
Heartbeat CPU 0 instructions: 150000000 cycles: 133102084 heartbeat IPC: 0.840016 cumulative IPC: 0.844172 (Simulation time: 0 hr 49 min 36 sec) 
Heartbeat CPU 2 instructions: 150000000 cycles: 133112755 heartbeat IPC: 0.839948 cumulative IPC: 0.844097 (Simulation time: 0 hr 49 min 36 sec) 
Heartbeat CPU 3 instructions: 150000000 cycles: 133112857 heartbeat IPC: 0.839948 cumulative IPC: 0.844096 (Simulation time: 0 hr 49 min 36 sec) 
Heartbeat CPU 1 instructions: 150000000 cycles: 133121389 heartbeat IPC: 0.839951 cumulative IPC: 0.844036 (Simulation time: 0 hr 49 min 36 sec) 
Heartbeat CPU 0 instructions: 160000002 cycles: 144870013 heartbeat IPC: 0.849767 cumulative IPC: 0.844678 (Simulation time: 0 hr 53 min 33 sec) 
Heartbeat CPU 2 instructions: 160000002 cycles: 144880477 heartbeat IPC: 0.849782 cumulative IPC: 0.84461 (Simulation time: 0 hr 53 min 34 sec) 
Heartbeat CPU 3 instructions: 160000002 cycles: 144880679 heartbeat IPC: 0.849775 cumulative IPC: 0.84461 (Simulation time: 0 hr 53 min 34 sec) 
Heartbeat CPU 1 instructions: 160000002 cycles: 144889517 heartbeat IPC: 0.849753 cumulative IPC: 0.844553 (Simulation time: 0 hr 53 min 34 sec) 
Heartbeat CPU 0 instructions: 170000000 cycles: 156608170 heartbeat IPC: 0.851922 cumulative IPC: 0.845277 (Simulation time: 0 hr 57 min 20 sec) 
Heartbeat CPU 2 instructions: 170000000 cycles: 156618217 heartbeat IPC: 0.851953 cumulative IPC: 0.845217 (Simulation time: 0 hr 57 min 21 sec) 
Heartbeat CPU 3 instructions: 170000000 cycles: 156618319 heartbeat IPC: 0.85196 cumulative IPC: 0.845217 (Simulation time: 0 hr 57 min 21 sec) 
Heartbeat CPU 1 instructions: 170000000 cycles: 156626053 heartbeat IPC: 0.85204 cumulative IPC: 0.845172 (Simulation time: 0 hr 57 min 21 sec) 
Heartbeat CPU 0 instructions: 180000000 cycles: 168529438 heartbeat IPC: 0.838837 cumulative IPC: 0.844778 (Simulation time: 1 hr 0 min 57 sec) 
Heartbeat CPU 2 instructions: 180000000 cycles: 168541435 heartbeat IPC: 0.8387 cumulative IPC: 0.844712 (Simulation time: 1 hr 0 min 57 sec) 
Heartbeat CPU 3 instructions: 180000000 cycles: 168541537 heartbeat IPC: 0.8387 cumulative IPC: 0.844712 (Simulation time: 1 hr 0 min 57 sec) 
Heartbeat CPU 1 instructions: 180000000 cycles: 168548110 heartbeat IPC: 0.838781 cumulative IPC: 0.844677 (Simulation time: 1 hr 0 min 57 sec) 
Heartbeat CPU 0 instructions: 190000000 cycles: 180423161 heartbeat IPC: 0.84078 cumulative IPC: 0.844491 (Simulation time: 1 hr 4 min 28 sec) 
Heartbeat CPU 2 instructions: 190000000 cycles: 180434447 heartbeat IPC: 0.84083 cumulative IPC: 0.844434 (Simulation time: 1 hr 4 min 29 sec) 
Heartbeat CPU 3 instructions: 190000000 cycles: 180434549 heartbeat IPC: 0.84083 cumulative IPC: 0.844434 (Simulation time: 1 hr 4 min 29 sec) 
Heartbeat CPU 1 instructions: 190000000 cycles: 180441212 heartbeat IPC: 0.840824 cumulative IPC: 0.8444 (Simulation time: 1 hr 4 min 29 sec) 
Heartbeat CPU 0 instructions: 200000002 cycles: 192058185 heartbeat IPC: 0.859474 cumulative IPC: 0.845474 (Simulation time: 1 hr 8 min 9 sec) 
Heartbeat CPU 2 instructions: 200000002 cycles: 192068279 heartbeat IPC: 0.859562 cumulative IPC: 0.845426 (Simulation time: 1 hr 8 min 9 sec) 
Heartbeat CPU 3 instructions: 200000002 cycles: 192068929 heartbeat IPC: 0.859522 cumulative IPC: 0.845423 (Simulation time: 1 hr 8 min 9 sec) 
Heartbeat CPU 1 instructions: 200000002 cycles: 192075557 heartbeat IPC: 0.859524 cumulative IPC: 0.845392 (Simulation time: 1 hr 8 min 9 sec) 
Heartbeat CPU 0 instructions: 210000001 cycles: 203954418 heartbeat IPC: 0.840602 cumulative IPC: 0.845168 (Simulation time: 1 hr 11 min 53 sec) 
Heartbeat CPU 2 instructions: 210000001 cycles: 203964476 heartbeat IPC: 0.840605 cumulative IPC: 0.845123 (Simulation time: 1 hr 11 min 53 sec) 
Heartbeat CPU 3 instructions: 210000001 cycles: 203964536 heartbeat IPC: 0.840646 cumulative IPC: 0.845123 (Simulation time: 1 hr 11 min 53 sec) 
Heartbeat CPU 1 instructions: 210000001 cycles: 203972905 heartbeat IPC: 0.840523 cumulative IPC: 0.845086 (Simulation time: 1 hr 11 min 53 sec) 
Heartbeat CPU 0 instructions: 220000000 cycles: 215838251 heartbeat IPC: 0.841479 cumulative IPC: 0.84495 (Simulation time: 1 hr 15 min 35 sec) 
Heartbeat CPU 2 instructions: 220000000 cycles: 215848188 heartbeat IPC: 0.841488 cumulative IPC: 0.844908 (Simulation time: 1 hr 15 min 35 sec) 
Heartbeat CPU 3 instructions: 220000000 cycles: 215848290 heartbeat IPC: 0.841485 cumulative IPC: 0.844908 (Simulation time: 1 hr 15 min 35 sec) 
Heartbeat CPU 1 instructions: 220000000 cycles: 215856740 heartbeat IPC: 0.841479 cumulative IPC: 0.844873 (Simulation time: 1 hr 15 min 35 sec) 
Heartbeat CPU 0 instructions: 230000002 cycles: 227809095 heartbeat IPC: 0.835363 cumulative IPC: 0.844411 (Simulation time: 1 hr 19 min 15 sec) 
Heartbeat CPU 2 instructions: 230000002 cycles: 227820974 heartbeat IPC: 0.835228 cumulative IPC: 0.844365 (Simulation time: 1 hr 19 min 15 sec) 
Heartbeat CPU 3 instructions: 230000002 cycles: 227821176 heartbeat IPC: 0.835221 cumulative IPC: 0.844364 (Simulation time: 1 hr 19 min 15 sec) 
Heartbeat CPU 1 instructions: 230000002 cycles: 227829026 heartbeat IPC: 0.835263 cumulative IPC: 0.844333 (Simulation time: 1 hr 19 min 15 sec) 
Heartbeat CPU 0 instructions: 240000000 cycles: 239666565 heartbeat IPC: 0.84335 cumulative IPC: 0.844355 (Simulation time: 1 hr 22 min 59 sec) 
Heartbeat CPU 2 instructions: 240000000 cycles: 239679019 heartbeat IPC: 0.843309 cumulative IPC: 0.844309 (Simulation time: 1 hr 23 min 0 sec) 
Heartbeat CPU 3 instructions: 240000000 cycles: 239679982 heartbeat IPC: 0.843255 cumulative IPC: 0.844306 (Simulation time: 1 hr 23 min 0 sec) 
Heartbeat CPU 1 instructions: 240000000 cycles: 239686013 heartbeat IPC: 0.843384 cumulative IPC: 0.844283 (Simulation time: 1 hr 23 min 0 sec) 
*** Reached end of trace for Core: 0 Repeating trace: ./traces/ligra/ligra_PageRankDelta.com-lj.ungraph.gcc_6.3.0_O3.drop_11750M.length_250M.champsimtrace.xz
Heartbeat CPU 0 instructions: 250000000 cycles: 251533202 heartbeat IPC: 0.842699 cumulative IPC: 0.844272 (Simulation time: 1 hr 26 min 43 sec) 
Finished CPU 0 instructions: 200000003 cycles: 236890890 cumulative IPC: 0.844271 (Simulation time: 1 hr 26 min 43 sec) 
*** Reached end of trace for Core: 2 Repeating trace: ./traces/ligra/ligra_PageRankDelta.com-lj.ungraph.gcc_6.3.0_O3.drop_11750M.length_250M.champsimtrace.xz
Heartbeat CPU 2 instructions: 250000000 cycles: 251545317 heartbeat IPC: 0.842723 cumulative IPC: 0.844229 (Simulation time: 1 hr 26 min 43 sec) 
*** Reached end of trace for Core: 3 Repeating trace: ./traces/ligra/ligra_PageRankDelta.com-lj.ungraph.gcc_6.3.0_O3.drop_11750M.length_250M.champsimtrace.xz
Heartbeat CPU 3 instructions: 250000000 cycles: 251545419 heartbeat IPC: 0.842784 cumulative IPC: 0.844229 (Simulation time: 1 hr 26 min 43 sec) 
Finished CPU 3 instructions: 200000000 cycles: 236902788 cumulative IPC: 0.844228 (Simulation time: 1 hr 26 min 43 sec) 
Finished CPU 2 instructions: 200000003 cycles: 236902995 cumulative IPC: 0.844227 (Simulation time: 1 hr 26 min 43 sec) 
*** Reached end of trace for Core: 1 Repeating trace: ./traces/ligra/ligra_PageRankDelta.com-lj.ungraph.gcc_6.3.0_O3.drop_11750M.length_250M.champsimtrace.xz
Heartbeat CPU 1 instructions: 250000000 cycles: 251551378 heartbeat IPC: 0.842789 cumulative IPC: 0.844208 (Simulation time: 1 hr 26 min 43 sec) 
Finished CPU 1 instructions: 200000001 cycles: 236908345 cumulative IPC: 0.844208 (Simulation time: 1 hr 26 min 43 sec) 

ChampSim completed all CPUs

Total Simulation Statistics (not including warmup)

CPU 0 cumulative IPC: 0.844268 instructions: 200014232 cycles: 236908345
ITLB TOTAL     ACCESS:   35904025  HIT:   35904025  MISS:          0  HIT %:        100  MISS %:          0   MPKI: 0
ITLB LOAD      ACCESS:          0  HIT:          0  MISS:          0  HIT %:       -nan  MISS %:       -nan   MPKI: 0
ITLB RFO       ACCESS:          0  HIT:          0  MISS:          0  HIT %:       -nan  MISS %:       -nan   MPKI: 0
ITLB PREFETCH  ACCESS:          0  HIT:          0  MISS:          0  HIT %:       -nan  MISS %:       -nan   MPKI: 0
ITLB WRITEBACK ACCESS:          0  HIT:          0  MISS:          0  HIT %:       -nan  MISS %:       -nan   MPKI: 0
DTLB TOTAL     ACCESS:   26162773  HIT:   26156864  MISS:       5909  HIT %:    99.9774  MISS %:  0.0225855   MPKI: 0.0295429
DTLB LOAD      ACCESS:          0  HIT:          0  MISS:          0  HIT %:       -nan  MISS %:       -nan   MPKI: 0
DTLB RFO       ACCESS:          0  HIT:          0  MISS:          0  HIT %:       -nan  MISS %:       -nan   MPKI: 0
DTLB PREFETCH  ACCESS:          0  HIT:          0  MISS:          0  HIT %:       -nan  MISS %:       -nan   MPKI: 0
DTLB WRITEBACK ACCESS:          0  HIT:          0  MISS:          0  HIT %:       -nan  MISS %:       -nan   MPKI: 0
STLB TOTAL     ACCESS:    6350157  HIT:    6346094  MISS:       4063  HIT %:     99.936  MISS %:  0.0639827   MPKI: 0.0203136
STLB LOAD      ACCESS:          0  HIT:          0  MISS:          0  HIT %:       -nan  MISS %:       -nan   MPKI: 0
STLB RFO       ACCESS:          0  HIT:          0  MISS:          0  HIT %:       -nan  MISS %:       -nan   MPKI: 0
STLB PREFETCH  ACCESS:          0  HIT:          0  MISS:          0  HIT %:       -nan  MISS %:       -nan   MPKI: 0
STLB WRITEBACK ACCESS:          0  HIT:          0  MISS:          0  HIT %:       -nan  MISS %:       -nan   MPKI: 0
L1D TOTAL     ACCESS:   66261456  HIT:   66001782  MISS:     259674  HIT %:    99.6081  MISS %:   0.391893   MPKI: 1.29828
L1D LOAD      ACCESS:   19276729  HIT:   19273498  MISS:       3231  HIT %:    99.9832  MISS %:  0.0167611   MPKI: 0.0161539
L1D RFO       ACCESS:   10215654  HIT:   10162422  MISS:      53232  HIT %:    99.4789  MISS %:   0.521083   MPKI: 0.266141
L1D PREFETCH  ACCESS:   36769073  HIT:   36565862  MISS:     203211  HIT %:    99.4473  MISS %:   0.552668   MPKI: 1.01598
L1D WRITEBACK ACCESS:          0  HIT:          0  MISS:          0  HIT %:       -nan  MISS %:       -nan   MPKI: 0
L1I TOTAL     ACCESS:   38431349  HIT:   38431349  MISS:          0  HIT %:        100  MISS %:          0   MPKI: 0
L1I LOAD      ACCESS:   38431349  HIT:   38431349  MISS:          0  HIT %:        100  MISS %:          0   MPKI: 0
L1I RFO       ACCESS:          0  HIT:          0  MISS:          0  HIT %:       -nan  MISS %:       -nan   MPKI: 0
L1I PREFETCH  ACCESS:          0  HIT:          0  MISS:          0  HIT %:       -nan  MISS %:       -nan   MPKI: 0
L1I WRITEBACK ACCESS:          0  HIT:          0  MISS:          0  HIT %:       -nan  MISS %:       -nan   MPKI: 0
L2C TOTAL     ACCESS:    7835344  HIT:    7563324  MISS:     272020  HIT %:    96.5283  MISS %:     3.4717   MPKI: 1.36
L2C LOAD      ACCESS:       2584  HIT:          2  MISS:       2582  HIT %:  0.0773994  MISS %:    99.9226   MPKI: 0.0129091
L2C RFO       ACCESS:      53232  HIT:          0  MISS:      53232  HIT %:          0  MISS %:        100   MPKI: 0.266141
L2C PREFETCH  ACCESS:    7170431  HIT:    6966582  MISS:     203849  HIT %:    97.1571  MISS %:    2.84291   MPKI: 1.01917
L2C WRITEBACK ACCESS:      53231  HIT:      41394  MISS:      11837  HIT %:     77.763  MISS %:     22.237   MPKI: 0.0591808
PSCL5 TOTAL     ACCESS:     555866  HIT:     555866  MISS:          0  HIT %:        100  MISS %:          0   MPKI: 0
PSCL5 LOAD      ACCESS:          0  HIT:          0  MISS:          0  HIT %:       -nan  MISS %:       -nan   MPKI: 0
PSCL5 RFO       ACCESS:          0  HIT:          0  MISS:          0  HIT %:       -nan  MISS %:       -nan   MPKI: 0
PSCL5 PREFETCH  ACCESS:          0  HIT:          0  MISS:          0  HIT %:       -nan  MISS %:       -nan   MPKI: 0
PSCL5 WRITEBACK ACCESS:          0  HIT:          0  MISS:          0  HIT %:       -nan  MISS %:       -nan   MPKI: 0
PSCL4 TOTAL     ACCESS:     555866  HIT:     555866  MISS:          0  HIT %:        100  MISS %:          0   MPKI: 0
PSCL4 LOAD      ACCESS:          0  HIT:          0  MISS:          0  HIT %:       -nan  MISS %:       -nan   MPKI: 0
PSCL4 RFO       ACCESS:          0  HIT:          0  MISS:          0  HIT %:       -nan  MISS %:       -nan   MPKI: 0
PSCL4 PREFETCH  ACCESS:          0  HIT:          0  MISS:          0  HIT %:       -nan  MISS %:       -nan   MPKI: 0
PSCL4 WRITEBACK ACCESS:          0  HIT:          0  MISS:          0  HIT %:       -nan  MISS %:       -nan   MPKI: 0
PSCL3 TOTAL     ACCESS:     555866  HIT:     555866  MISS:          0  HIT %:        100  MISS %:          0   MPKI: 0
PSCL3 LOAD      ACCESS:          0  HIT:          0  MISS:          0  HIT %:       -nan  MISS %:       -nan   MPKI: 0
PSCL3 RFO       ACCESS:          0  HIT:          0  MISS:          0  HIT %:       -nan  MISS %:       -nan   MPKI: 0
PSCL3 PREFETCH  ACCESS:          0  HIT:          0  MISS:          0  HIT %:       -nan  MISS %:       -nan   MPKI: 0
PSCL3 WRITEBACK ACCESS:          0  HIT:          0  MISS:          0  HIT %:       -nan  MISS %:       -nan   MPKI: 0
PSCL2 TOTAL     ACCESS:     554964  HIT:     554956  MISS:          8  HIT %:    99.9986  MISS %: 0.00144153   MPKI: 3.99972e-05
PSCL2 LOAD      ACCESS:          0  HIT:          0  MISS:          0  HIT %:       -nan  MISS %:       -nan   MPKI: 0
PSCL2 RFO       ACCESS:          0  HIT:          0  MISS:          0  HIT %:       -nan  MISS %:       -nan   MPKI: 0
PSCL2 PREFETCH  ACCESS:          0  HIT:          0  MISS:          0  HIT %:       -nan  MISS %:       -nan   MPKI: 0
PSCL2 WRITEBACK ACCESS:          0  HIT:          0  MISS:          0  HIT %:       -nan  MISS %:       -nan   MPKI: 0
LLC TOTAL     ACCESS:     314139  HIT:      49767  MISS:     264372  HIT %:    15.8424  MISS %:    84.1576   MPKI: 1.32177
LLC LOAD      ACCESS:       2582  HIT:          0  MISS:       2582  HIT %:          0  MISS %:        100   MPKI: 0.0129091
LLC RFO       ACCESS:      53232  HIT:          0  MISS:      53232  HIT %:          0  MISS %:        100   MPKI: 0.266141
LLC PREFETCH  ACCESS:     203849  HIT:          0  MISS:     203849  HIT %:          0  MISS %:        100   MPKI: 1.01917
LLC WRITEBACK ACCESS:      53956  HIT:      49767  MISS:       4189  HIT %:    92.2363  MISS %:    7.76373   MPKI: 0.0209435

RAW hits: 2675151
Loads Generated: 28125796
Loads sent to L1D: 25450644
Stores Generated: 10220162
Stores sent to L1D: 10220169

CPU 1 cumulative IPC: 0.844208 instructions: 200000001 cycles: 236908345
ITLB TOTAL     ACCESS:   35901465  HIT:   35901465  MISS:          0  HIT %:        100  MISS %:          0   MPKI: 0
ITLB LOAD      ACCESS:          0  HIT:          0  MISS:          0  HIT %:       -nan  MISS %:       -nan   MPKI: 0
ITLB RFO       ACCESS:          0  HIT:          0  MISS:          0  HIT %:       -nan  MISS %:       -nan   MPKI: 0
ITLB PREFETCH  ACCESS:          0  HIT:          0  MISS:          0  HIT %:       -nan  MISS %:       -nan   MPKI: 0
ITLB WRITEBACK ACCESS:          0  HIT:          0  MISS:          0  HIT %:       -nan  MISS %:       -nan   MPKI: 0
DTLB TOTAL     ACCESS:   26160931  HIT:   26155026  MISS:       5905  HIT %:    99.9774  MISS %:  0.0225718   MPKI: 0.029525
DTLB LOAD      ACCESS:          0  HIT:          0  MISS:          0  HIT %:       -nan  MISS %:       -nan   MPKI: 0
DTLB RFO       ACCESS:          0  HIT:          0  MISS:          0  HIT %:       -nan  MISS %:       -nan   MPKI: 0
DTLB PREFETCH  ACCESS:          0  HIT:          0  MISS:          0  HIT %:       -nan  MISS %:       -nan   MPKI: 0
DTLB WRITEBACK ACCESS:          0  HIT:          0  MISS:          0  HIT %:       -nan  MISS %:       -nan   MPKI: 0
STLB TOTAL     ACCESS:    6361253  HIT:    6357194  MISS:       4059  HIT %:    99.9362  MISS %:  0.0638082   MPKI: 0.020295
STLB LOAD      ACCESS:          0  HIT:          0  MISS:          0  HIT %:       -nan  MISS %:       -nan   MPKI: 0
STLB RFO       ACCESS:          0  HIT:          0  MISS:          0  HIT %:       -nan  MISS %:       -nan   MPKI: 0
STLB PREFETCH  ACCESS:          0  HIT:          0  MISS:          0  HIT %:       -nan  MISS %:       -nan   MPKI: 0
STLB WRITEBACK ACCESS:          0  HIT:          0  MISS:          0  HIT %:       -nan  MISS %:       -nan   MPKI: 0
L1D TOTAL     ACCESS:   66292954  HIT:   66033311  MISS:     259643  HIT %:    99.6083  MISS %:    0.39166   MPKI: 1.29821
L1D LOAD      ACCESS:   19275387  HIT:   19272159  MISS:       3228  HIT %:    99.9833  MISS %:  0.0167467   MPKI: 0.01614
L1D RFO       ACCESS:   10215395  HIT:   10162168  MISS:      53227  HIT %:     99.479  MISS %:   0.521047   MPKI: 0.266135
L1D PREFETCH  ACCESS:   36802172  HIT:   36598984  MISS:     203188  HIT %:    99.4479  MISS %:   0.552109   MPKI: 1.01594
L1D WRITEBACK ACCESS:          0  HIT:          0  MISS:          0  HIT %:       -nan  MISS %:       -nan   MPKI: 0
L1I TOTAL     ACCESS:   38428624  HIT:   38428624  MISS:          0  HIT %:        100  MISS %:          0   MPKI: 0
L1I LOAD      ACCESS:   38428624  HIT:   38428624  MISS:          0  HIT %:        100  MISS %:          0   MPKI: 0
L1I RFO       ACCESS:          0  HIT:          0  MISS:          0  HIT %:       -nan  MISS %:       -nan   MPKI: 0
L1I PREFETCH  ACCESS:          0  HIT:          0  MISS:          0  HIT %:       -nan  MISS %:       -nan   MPKI: 0
L1I WRITEBACK ACCESS:          0  HIT:          0  MISS:          0  HIT %:       -nan  MISS %:       -nan   MPKI: 0
L2C TOTAL     ACCESS:    7887784  HIT:    7614914  MISS:     272870  HIT %:    96.5406  MISS %:     3.4594   MPKI: 1.36435
L2C LOAD      ACCESS:       2582  HIT:          1  MISS:       2581  HIT %:  0.0387297  MISS %:    99.9613   MPKI: 0.012905
L2C RFO       ACCESS:      53227  HIT:          0  MISS:      53227  HIT %:          0  MISS %:        100   MPKI: 0.266135
L2C PREFETCH  ACCESS:    7236238  HIT:    7032416  MISS:     203822  HIT %:    97.1833  MISS %:    2.81668   MPKI: 1.01911
L2C WRITEBACK ACCESS:      53229  HIT:      40506  MISS:      12723  HIT %:    76.0976  MISS %:    23.9024   MPKI: 0.063615
PSCL5 TOTAL     ACCESS:     542508  HIT:     542508  MISS:          0  HIT %:        100  MISS %:          0   MPKI: 0
PSCL5 LOAD      ACCESS:          0  HIT:          0  MISS:          0  HIT %:       -nan  MISS %:       -nan   MPKI: 0
PSCL5 RFO       ACCESS:          0  HIT:          0  MISS:          0  HIT %:       -nan  MISS %:       -nan   MPKI: 0
PSCL5 PREFETCH  ACCESS:          0  HIT:          0  MISS:          0  HIT %:       -nan  MISS %:       -nan   MPKI: 0
PSCL5 WRITEBACK ACCESS:          0  HIT:          0  MISS:          0  HIT %:       -nan  MISS %:       -nan   MPKI: 0
PSCL4 TOTAL     ACCESS:     542508  HIT:     542508  MISS:          0  HIT %:        100  MISS %:          0   MPKI: 0
PSCL4 LOAD      ACCESS:          0  HIT:          0  MISS:          0  HIT %:       -nan  MISS %:       -nan   MPKI: 0
PSCL4 RFO       ACCESS:          0  HIT:          0  MISS:          0  HIT %:       -nan  MISS %:       -nan   MPKI: 0
PSCL4 PREFETCH  ACCESS:          0  HIT:          0  MISS:          0  HIT %:       -nan  MISS %:       -nan   MPKI: 0
PSCL4 WRITEBACK ACCESS:          0  HIT:          0  MISS:          0  HIT %:       -nan  MISS %:       -nan   MPKI: 0
PSCL3 TOTAL     ACCESS:     542508  HIT:     542508  MISS:          0  HIT %:        100  MISS %:          0   MPKI: 0
PSCL3 LOAD      ACCESS:          0  HIT:          0  MISS:          0  HIT %:       -nan  MISS %:       -nan   MPKI: 0
PSCL3 RFO       ACCESS:          0  HIT:          0  MISS:          0  HIT %:       -nan  MISS %:       -nan   MPKI: 0
PSCL3 PREFETCH  ACCESS:          0  HIT:          0  MISS:          0  HIT %:       -nan  MISS %:       -nan   MPKI: 0
PSCL3 WRITEBACK ACCESS:          0  HIT:          0  MISS:          0  HIT %:       -nan  MISS %:       -nan   MPKI: 0
PSCL2 TOTAL     ACCESS:     541607  HIT:     541599  MISS:          8  HIT %:    99.9985  MISS %: 0.00147709   MPKI: 4e-05
PSCL2 LOAD      ACCESS:          0  HIT:          0  MISS:          0  HIT %:       -nan  MISS %:       -nan   MPKI: 0
PSCL2 RFO       ACCESS:          0  HIT:          0  MISS:          0  HIT %:       -nan  MISS %:       -nan   MPKI: 0
PSCL2 PREFETCH  ACCESS:          0  HIT:          0  MISS:          0  HIT %:       -nan  MISS %:       -nan   MPKI: 0
PSCL2 WRITEBACK ACCESS:          0  HIT:          0  MISS:          0  HIT %:       -nan  MISS %:       -nan   MPKI: 0
LLC TOTAL     ACCESS:     313945  HIT:      49532  MISS:     264413  HIT %:    15.7773  MISS %:    84.2227   MPKI: 1.32206
LLC LOAD      ACCESS:       2581  HIT:          0  MISS:       2581  HIT %:          0  MISS %:        100   MPKI: 0.012905
LLC RFO       ACCESS:      53227  HIT:          0  MISS:      53227  HIT %:          0  MISS %:        100   MPKI: 0.266135
LLC PREFETCH  ACCESS:     203822  HIT:          0  MISS:     203822  HIT %:          0  MISS %:        100   MPKI: 1.01911
LLC WRITEBACK ACCESS:      53798  HIT:      49532  MISS:       4266  HIT %:    92.0703  MISS %:    7.92966   MPKI: 0.02133

RAW hits: 2674960
Loads Generated: 28123793
Loads sent to L1D: 25448833
Stores Generated: 10219452
Stores sent to L1D: 10219452

CPU 2 cumulative IPC: 0.844228 instructions: 200004572 cycles: 236908346
ITLB TOTAL     ACCESS:   35902287  HIT:   35902287  MISS:          0  HIT %:        100  MISS %:          0   MPKI: 0
ITLB LOAD      ACCESS:          0  HIT:          0  MISS:          0  HIT %:       -nan  MISS %:       -nan   MPKI: 0
ITLB RFO       ACCESS:          0  HIT:          0  MISS:          0  HIT %:       -nan  MISS %:       -nan   MPKI: 0
ITLB PREFETCH  ACCESS:          0  HIT:          0  MISS:          0  HIT %:       -nan  MISS %:       -nan   MPKI: 0
ITLB WRITEBACK ACCESS:          0  HIT:          0  MISS:          0  HIT %:       -nan  MISS %:       -nan   MPKI: 0
DTLB TOTAL     ACCESS:   26161514  HIT:   26155606  MISS:       5908  HIT %:    99.9774  MISS %:  0.0225828   MPKI: 0.0295393
DTLB LOAD      ACCESS:          0  HIT:          0  MISS:          0  HIT %:       -nan  MISS %:       -nan   MPKI: 0
DTLB RFO       ACCESS:          0  HIT:          0  MISS:          0  HIT %:       -nan  MISS %:       -nan   MPKI: 0
DTLB PREFETCH  ACCESS:          0  HIT:          0  MISS:          0  HIT %:       -nan  MISS %:       -nan   MPKI: 0
DTLB WRITEBACK ACCESS:          0  HIT:          0  MISS:          0  HIT %:       -nan  MISS %:       -nan   MPKI: 0
STLB TOTAL     ACCESS:    6355326  HIT:    6351263  MISS:       4063  HIT %:    99.9361  MISS %:  0.0639306   MPKI: 0.0203145
STLB LOAD      ACCESS:          0  HIT:          0  MISS:          0  HIT %:       -nan  MISS %:       -nan   MPKI: 0
STLB RFO       ACCESS:          0  HIT:          0  MISS:          0  HIT %:       -nan  MISS %:       -nan   MPKI: 0
STLB PREFETCH  ACCESS:          0  HIT:          0  MISS:          0  HIT %:       -nan  MISS %:       -nan   MPKI: 0
STLB WRITEBACK ACCESS:          0  HIT:          0  MISS:          0  HIT %:       -nan  MISS %:       -nan   MPKI: 0
L1D TOTAL     ACCESS:   66243211  HIT:   65983553  MISS:     259658  HIT %:     99.608  MISS %:   0.391977   MPKI: 1.29826
L1D LOAD      ACCESS:   19275788  HIT:   19272539  MISS:       3249  HIT %:    99.9831  MISS %:  0.0168553   MPKI: 0.0162446
L1D RFO       ACCESS:   10215507  HIT:   10162278  MISS:      53229  HIT %:    99.4789  MISS %:   0.521061   MPKI: 0.266139
L1D PREFETCH  ACCESS:   36751916  HIT:   36548736  MISS:     203180  HIT %:    99.4472  MISS %:   0.552842   MPKI: 1.01588
L1D WRITEBACK ACCESS:          0  HIT:          0  MISS:          0  HIT %:       -nan  MISS %:       -nan   MPKI: 0
L1I TOTAL     ACCESS:   38429505  HIT:   38429505  MISS:          0  HIT %:        100  MISS %:          0   MPKI: 0
L1I LOAD      ACCESS:   38429505  HIT:   38429505  MISS:          0  HIT %:        100  MISS %:          0   MPKI: 0
L1I RFO       ACCESS:          0  HIT:          0  MISS:          0  HIT %:       -nan  MISS %:       -nan   MPKI: 0
L1I PREFETCH  ACCESS:          0  HIT:          0  MISS:          0  HIT %:       -nan  MISS %:       -nan   MPKI: 0
L1I WRITEBACK ACCESS:          0  HIT:          0  MISS:          0  HIT %:       -nan  MISS %:       -nan   MPKI: 0
L2C TOTAL     ACCESS:    7880665  HIT:    7608103  MISS:     272562  HIT %:    96.5414  MISS %:    3.45862   MPKI: 1.36278
L2C LOAD      ACCESS:       2603  HIT:         18  MISS:       2585  HIT %:    0.69151  MISS %:    99.3085   MPKI: 0.0129247
L2C RFO       ACCESS:      53229  HIT:          0  MISS:      53229  HIT %:          0  MISS %:        100   MPKI: 0.266139
L2C PREFETCH  ACCESS:    7222928  HIT:    7019091  MISS:     203837  HIT %:    97.1779  MISS %:    2.82208   MPKI: 1.01916
L2C WRITEBACK ACCESS:      53230  HIT:      40841  MISS:      12389  HIT %:    76.7255  MISS %:    23.2745   MPKI: 0.0619436
PSCL5 TOTAL     ACCESS:     548675  HIT:     548675  MISS:          0  HIT %:        100  MISS %:          0   MPKI: 0
PSCL5 LOAD      ACCESS:          0  HIT:          0  MISS:          0  HIT %:       -nan  MISS %:       -nan   MPKI: 0
PSCL5 RFO       ACCESS:          0  HIT:          0  MISS:          0  HIT %:       -nan  MISS %:       -nan   MPKI: 0
PSCL5 PREFETCH  ACCESS:          0  HIT:          0  MISS:          0  HIT %:       -nan  MISS %:       -nan   MPKI: 0
PSCL5 WRITEBACK ACCESS:          0  HIT:          0  MISS:          0  HIT %:       -nan  MISS %:       -nan   MPKI: 0
PSCL4 TOTAL     ACCESS:     548675  HIT:     548675  MISS:          0  HIT %:        100  MISS %:          0   MPKI: 0
PSCL4 LOAD      ACCESS:          0  HIT:          0  MISS:          0  HIT %:       -nan  MISS %:       -nan   MPKI: 0
PSCL4 RFO       ACCESS:          0  HIT:          0  MISS:          0  HIT %:       -nan  MISS %:       -nan   MPKI: 0
PSCL4 PREFETCH  ACCESS:          0  HIT:          0  MISS:          0  HIT %:       -nan  MISS %:       -nan   MPKI: 0
PSCL4 WRITEBACK ACCESS:          0  HIT:          0  MISS:          0  HIT %:       -nan  MISS %:       -nan   MPKI: 0
PSCL3 TOTAL     ACCESS:     548675  HIT:     548675  MISS:          0  HIT %:        100  MISS %:          0   MPKI: 0
PSCL3 LOAD      ACCESS:          0  HIT:          0  MISS:          0  HIT %:       -nan  MISS %:       -nan   MPKI: 0
PSCL3 RFO       ACCESS:          0  HIT:          0  MISS:          0  HIT %:       -nan  MISS %:       -nan   MPKI: 0
PSCL3 PREFETCH  ACCESS:          0  HIT:          0  MISS:          0  HIT %:       -nan  MISS %:       -nan   MPKI: 0
PSCL3 WRITEBACK ACCESS:          0  HIT:          0  MISS:          0  HIT %:       -nan  MISS %:       -nan   MPKI: 0
PSCL2 TOTAL     ACCESS:     547760  HIT:     547752  MISS:          8  HIT %:    99.9985  MISS %: 0.00146049   MPKI: 3.99991e-05
PSCL2 LOAD      ACCESS:          0  HIT:          0  MISS:          0  HIT %:       -nan  MISS %:       -nan   MPKI: 0
PSCL2 RFO       ACCESS:          0  HIT:          0  MISS:          0  HIT %:       -nan  MISS %:       -nan   MPKI: 0
PSCL2 PREFETCH  ACCESS:          0  HIT:          0  MISS:          0  HIT %:       -nan  MISS %:       -nan   MPKI: 0
PSCL2 WRITEBACK ACCESS:          0  HIT:          0  MISS:          0  HIT %:       -nan  MISS %:       -nan   MPKI: 0
LLC TOTAL     ACCESS:     314085  HIT:      49555  MISS:     264530  HIT %:    15.7776  MISS %:    84.2224   MPKI: 1.32262
LLC LOAD      ACCESS:       2585  HIT:          0  MISS:       2585  HIT %:          0  MISS %:        100   MPKI: 0.0129247
LLC RFO       ACCESS:      53229  HIT:          0  MISS:      53229  HIT %:          0  MISS %:        100   MPKI: 0.266139
LLC PREFETCH  ACCESS:     203837  HIT:          1  MISS:     203836  HIT %: 0.000490588  MISS %:    99.9995   MPKI: 1.01916
LLC WRITEBACK ACCESS:      53912  HIT:      49552  MISS:       4360  HIT %:    91.9127  MISS %:    8.08725   MPKI: 0.0217995

RAW hits: 2675014
Loads Generated: 28124432
Loads sent to L1D: 25449418
Stores Generated: 10219671
Stores sent to L1D: 10219680

CPU 3 cumulative IPC: 0.844227 instructions: 200004467 cycles: 236908346
ITLB TOTAL     ACCESS:   35902281  HIT:   35902281  MISS:          0  HIT %:        100  MISS %:          0   MPKI: 0
ITLB LOAD      ACCESS:          0  HIT:          0  MISS:          0  HIT %:       -nan  MISS %:       -nan   MPKI: 0
ITLB RFO       ACCESS:          0  HIT:          0  MISS:          0  HIT %:       -nan  MISS %:       -nan   MPKI: 0
ITLB PREFETCH  ACCESS:          0  HIT:          0  MISS:          0  HIT %:       -nan  MISS %:       -nan   MPKI: 0
ITLB WRITEBACK ACCESS:          0  HIT:          0  MISS:          0  HIT %:       -nan  MISS %:       -nan   MPKI: 0
DTLB TOTAL     ACCESS:   26161512  HIT:   26155604  MISS:       5908  HIT %:    99.9774  MISS %:  0.0225828   MPKI: 0.0295393
DTLB LOAD      ACCESS:          0  HIT:          0  MISS:          0  HIT %:       -nan  MISS %:       -nan   MPKI: 0
DTLB RFO       ACCESS:          0  HIT:          0  MISS:          0  HIT %:       -nan  MISS %:       -nan   MPKI: 0
DTLB PREFETCH  ACCESS:          0  HIT:          0  MISS:          0  HIT %:       -nan  MISS %:       -nan   MPKI: 0
DTLB WRITEBACK ACCESS:          0  HIT:          0  MISS:          0  HIT %:       -nan  MISS %:       -nan   MPKI: 0
STLB TOTAL     ACCESS:    6350666  HIT:    6346603  MISS:       4063  HIT %:     99.936  MISS %:  0.0639775   MPKI: 0.0203145
STLB LOAD      ACCESS:          0  HIT:          0  MISS:          0  HIT %:       -nan  MISS %:       -nan   MPKI: 0
STLB RFO       ACCESS:          0  HIT:          0  MISS:          0  HIT %:       -nan  MISS %:       -nan   MPKI: 0
STLB PREFETCH  ACCESS:          0  HIT:          0  MISS:          0  HIT %:       -nan  MISS %:       -nan   MPKI: 0
STLB WRITEBACK ACCESS:          0  HIT:          0  MISS:          0  HIT %:       -nan  MISS %:       -nan   MPKI: 0
L1D TOTAL     ACCESS:   66289978  HIT:   66030313  MISS:     259665  HIT %:    99.6083  MISS %:   0.391711   MPKI: 1.2983
L1D LOAD      ACCESS:   19275785  HIT:   19272545  MISS:       3240  HIT %:    99.9832  MISS %:  0.0168087   MPKI: 0.0161996
L1D RFO       ACCESS:   10217398  HIT:   10164169  MISS:      53229  HIT %:     99.479  MISS %:   0.520964   MPKI: 0.266139
L1D PREFETCH  ACCESS:   36796795  HIT:   36593599  MISS:     203196  HIT %:    99.4478  MISS %:   0.552211   MPKI: 1.01596
L1D WRITEBACK ACCESS:          0  HIT:          0  MISS:          0  HIT %:       -nan  MISS %:       -nan   MPKI: 0
L1I TOTAL     ACCESS:   38429500  HIT:   38429500  MISS:          0  HIT %:        100  MISS %:          0   MPKI: 0
L1I LOAD      ACCESS:   38429500  HIT:   38429500  MISS:          0  HIT %:        100  MISS %:          0   MPKI: 0
L1I RFO       ACCESS:          0  HIT:          0  MISS:          0  HIT %:       -nan  MISS %:       -nan   MPKI: 0
L1I PREFETCH  ACCESS:          0  HIT:          0  MISS:          0  HIT %:       -nan  MISS %:       -nan   MPKI: 0
L1I WRITEBACK ACCESS:          0  HIT:          0  MISS:          0  HIT %:       -nan  MISS %:       -nan   MPKI: 0
L2C TOTAL     ACCESS:    7867201  HIT:    7594373  MISS:     272828  HIT %:    96.5321  MISS %:    3.46792   MPKI: 1.36411
L2C LOAD      ACCESS:       2606  HIT:         10  MISS:       2596  HIT %:    0.38373  MISS %:    99.6163   MPKI: 0.0129797
L2C RFO       ACCESS:      53229  HIT:          0  MISS:      53229  HIT %:          0  MISS %:        100   MPKI: 0.266139
L2C PREFETCH  ACCESS:    7213863  HIT:    7010026  MISS:     203837  HIT %:    97.1744  MISS %:    2.82563   MPKI: 1.01916
L2C WRITEBACK ACCESS:      53231  HIT:      40587  MISS:      12644  HIT %:    76.2469  MISS %:    23.7531   MPKI: 0.0632186
PSCL5 TOTAL     ACCESS:     544272  HIT:     544272  MISS:          0  HIT %:        100  MISS %:          0   MPKI: 0
PSCL5 LOAD      ACCESS:          0  HIT:          0  MISS:          0  HIT %:       -nan  MISS %:       -nan   MPKI: 0
PSCL5 RFO       ACCESS:          0  HIT:          0  MISS:          0  HIT %:       -nan  MISS %:       -nan   MPKI: 0
PSCL5 PREFETCH  ACCESS:          0  HIT:          0  MISS:          0  HIT %:       -nan  MISS %:       -nan   MPKI: 0
PSCL5 WRITEBACK ACCESS:          0  HIT:          0  MISS:          0  HIT %:       -nan  MISS %:       -nan   MPKI: 0
PSCL4 TOTAL     ACCESS:     544272  HIT:     544272  MISS:          0  HIT %:        100  MISS %:          0   MPKI: 0
PSCL4 LOAD      ACCESS:          0  HIT:          0  MISS:          0  HIT %:       -nan  MISS %:       -nan   MPKI: 0
PSCL4 RFO       ACCESS:          0  HIT:          0  MISS:          0  HIT %:       -nan  MISS %:       -nan   MPKI: 0
PSCL4 PREFETCH  ACCESS:          0  HIT:          0  MISS:          0  HIT %:       -nan  MISS %:       -nan   MPKI: 0
PSCL4 WRITEBACK ACCESS:          0  HIT:          0  MISS:          0  HIT %:       -nan  MISS %:       -nan   MPKI: 0
PSCL3 TOTAL     ACCESS:     544272  HIT:     544272  MISS:          0  HIT %:        100  MISS %:          0   MPKI: 0
PSCL3 LOAD      ACCESS:          0  HIT:          0  MISS:          0  HIT %:       -nan  MISS %:       -nan   MPKI: 0
PSCL3 RFO       ACCESS:          0  HIT:          0  MISS:          0  HIT %:       -nan  MISS %:       -nan   MPKI: 0
PSCL3 PREFETCH  ACCESS:          0  HIT:          0  MISS:          0  HIT %:       -nan  MISS %:       -nan   MPKI: 0
PSCL3 WRITEBACK ACCESS:          0  HIT:          0  MISS:          0  HIT %:       -nan  MISS %:       -nan   MPKI: 0
PSCL2 TOTAL     ACCESS:     543177  HIT:     543169  MISS:          8  HIT %:    99.9985  MISS %: 0.00147282   MPKI: 3.99991e-05
PSCL2 LOAD      ACCESS:          0  HIT:          0  MISS:          0  HIT %:       -nan  MISS %:       -nan   MPKI: 0
PSCL2 RFO       ACCESS:          0  HIT:          0  MISS:          0  HIT %:       -nan  MISS %:       -nan   MPKI: 0
PSCL2 PREFETCH  ACCESS:          0  HIT:          0  MISS:          0  HIT %:       -nan  MISS %:       -nan   MPKI: 0
PSCL2 WRITEBACK ACCESS:          0  HIT:          0  MISS:          0  HIT %:       -nan  MISS %:       -nan   MPKI: 0
LLC TOTAL     ACCESS:     314171  HIT:      49673  MISS:     264498  HIT %:    15.8108  MISS %:    84.1892   MPKI: 1.32246
LLC LOAD      ACCESS:       2596  HIT:          0  MISS:       2596  HIT %:          0  MISS %:        100   MPKI: 0.0129797
LLC RFO       ACCESS:      53229  HIT:          0  MISS:      53229  HIT %:          0  MISS %:        100   MPKI: 0.266139
LLC PREFETCH  ACCESS:     203837  HIT:          0  MISS:     203837  HIT %:          0  MISS %:        100   MPKI: 1.01916
LLC WRITEBACK ACCESS:      53987  HIT:      49671  MISS:       4316  HIT %:    92.0055  MISS %:    7.99452   MPKI: 0.0215795

RAW hits: 2675015
Loads Generated: 28124425
Loads sent to L1D: 25449408
Stores Generated: 10219677
Stores sent to L1D: 10219679

Region of Interest Statistics

CPU 0 cumulative IPC: 0.844271 instructions: 200000003 cycles: 236890890
ITLB TOTAL     ACCESS:   35901480  HIT:   35901480  MISS:          0  HIT %:        100  MISS %:          0   MPKI: 0
ITLB LOAD TRANSLATION ACCESS:   35901480  HIT:   35901480  MISS:          0  HIT %:        100  MISS %:          0   MPKI: 0
ITLB PREFETCH  REQUESTED:          0  ISSUED:          0  USEFUL:          0  USELESS:          0
ITLB USEFUL LOAD PREFETCHES:          0 PREFETCH ISSUED TO LOWER LEVEL:          0  ACCURACY: -nan
ITLB TIMELY PREFETCHES:          0 LATE PREFETCHES: 0 DROPPED PREFETCHES: 0
ITLB PREFETCHES SAME FILL-ORIGIN LEVEL: 0 DIFFERENT FILL-ORIGIN LEVEL: 0
ITLB AVERAGE MISS LATENCY: -nan cycles
ITLB RQ	ACCESS:   38431349	FORWARD:          0	MERGED:    2527324	TO_CACHE:   35904025

DTLB TOTAL     ACCESS:   26160930  HIT:   26155022  MISS:       5908  HIT %:    99.9774  MISS %:  0.0225833   MPKI: 0.02954
DTLB LOAD TRANSLATION ACCESS:   26160930  HIT:   26155022  MISS:       5908  HIT %:    99.9774  MISS %:  0.0225833   MPKI: 0.02954
DTLB PREFETCH  REQUESTED:          0  ISSUED:          0  USEFUL:          0  USELESS:          0
DTLB USEFUL LOAD PREFETCHES:          0 PREFETCH ISSUED TO LOWER LEVEL:          0  ACCURACY: -nan
DTLB TIMELY PREFETCHES:          0 LATE PREFETCHES: 0 DROPPED PREFETCHES: 0
DTLB PREFETCHES SAME FILL-ORIGIN LEVEL: 0 DIFFERENT FILL-ORIGIN LEVEL: 0
DTLB AVERAGE MISS LATENCY: 89.3377 cycles
DTLB RQ	ACCESS:   29499106	FORWARD:          0	MERGED:    3336319	TO_CACHE:   26162787

STLB TOTAL     ACCESS:    6349749  HIT:    6345686  MISS:       4063  HIT %:     99.936  MISS %:  0.0639868   MPKI: 0.020315
STLB LOAD TRANSLATION ACCESS:       5908  HIT:       1847  MISS:       4061  HIT %:    31.2627  MISS %:    68.7373   MPKI: 0.020305
STLB TRANSLATION FROM L1D PREFETCHER ACCESS:    6343841  HIT:    6343839  MISS:          2  HIT %:        100  MISS %: 3.15266e-05   MPKI: 1e-05
STLB PREFETCH  REQUESTED:          0  ISSUED:          0  USEFUL:          2  USELESS:          0
STLB USEFUL LOAD PREFETCHES:          2 PREFETCH ISSUED TO LOWER LEVEL:          0  ACCURACY: inf
STLB TIMELY PREFETCHES:          2 LATE PREFETCHES: 476 DROPPED PREFETCHES: 551327
STLB PREFETCHES SAME FILL-ORIGIN LEVEL: 0 DIFFERENT FILL-ORIGIN LEVEL: 0
STLB AVERAGE MISS LATENCY: 117.482 cycles
STLB RQ	ACCESS:   46136362	FORWARD:          0	MERGED:   39222629	TO_CACHE:    6913733

STLB Hit, L1D data hit: 0
STLB Hit, L2C data hit: 0
STLB Hit, LLC data hit: 0
STLB Hit, LLC data miss: 0
STLB STLB hints to L2: 0
L1D TOTAL     ACCESS:   66258561  HIT:   65998910  MISS:     259651  HIT %:    99.6081  MISS %:   0.391875   MPKI: 1.29825
L1D LOAD      ACCESS:   19275361  HIT:   19272130  MISS:       3231  HIT %:    99.9832  MISS %:  0.0167623   MPKI: 0.016155
L1D RFO       ACCESS:   10214946  HIT:   10161719  MISS:      53227  HIT %:    99.4789  MISS %:    0.52107   MPKI: 0.266135
L1D PREFETCH  ACCESS:   36768254  HIT:   36565061  MISS:     203193  HIT %:    99.4474  MISS %:   0.552632   MPKI: 1.01596
L1D PREFETCH  REQUESTED:  124998814  ISSUED:  123711288  USEFUL:     203195  USELESS:          8
L1D USEFUL LOAD PREFETCHES:     203195 PREFETCH ISSUED TO LOWER LEVEL:    7265893  ACCURACY: 2.79656
L1D TIMELY PREFETCHES:     203195 LATE PREFETCHES: 647 DROPPED PREFETCHES: 2228660
L1D PREFETCHES SAME FILL-ORIGIN LEVEL: 203858 DIFFERENT FILL-ORIGIN LEVEL: 7062035
L1D AVERAGE MISS LATENCY: 95.1668 cycles
L1D RQ	ACCESS:   25450644	FORWARD:          0	MERGED:    6157603	TO_CACHE:   19278937
L1D WQ	ACCESS:   10220169	FORWARD:      14104	MERGED:          0	TO_CACHE:   10220169
L1D PQ	ACCESS:   77580835	FORWARD:          0	MERGED:   31450382	TO_CACHE:   46130453

L1D UNIQUE REGIONS ACCESSED: 0
L1D REGIONS CONFLICTS: 0
L1D Cross Page Prefetch Requests: 6201589
L1D Same Page Prefetch Requests: 95356586
L1D ROI Sum of L1D PQ occupancy: 655539322
L1D PREFETCHES PUSHED FROM L2C: 0
L1I TOTAL     ACCESS:   38428636  HIT:   38428636  MISS:          0  HIT %:        100  MISS %:          0   MPKI: 0
L1I LOAD      ACCESS:   38428636  HIT:   38428636  MISS:          0  HIT %:        100  MISS %:          0   MPKI: 0
L1I PREFETCH  REQUESTED:          0  ISSUED:          0  USEFUL:          0  USELESS:          0
L1I USEFUL LOAD PREFETCHES:          0 PREFETCH ISSUED TO LOWER LEVEL:          0  ACCURACY: -nan
L1I TIMELY PREFETCHES:          0 LATE PREFETCHES: 0 DROPPED PREFETCHES: 0
L1I PREFETCHES SAME FILL-ORIGIN LEVEL: 0 DIFFERENT FILL-ORIGIN LEVEL: 0
L1I AVERAGE MISS LATENCY: -nan cycles
L1I RQ	ACCESS:   54988415	FORWARD:          0	MERGED:   16557066	TO_CACHE:   38431349

BTB TOTAL     ACCESS:   33720414  HIT:   33720404  MISS:         10  HIT %:        100  MISS %: 2.96556e-05   MPKI: 5e-05
BTB BRANCH_DIRECT_JUMP	ACCESS:    8100544  HIT:    8100543  MISS:          1
BTB BRANCH_INDIRECT	ACCESS:          0  HIT:          0  MISS:          0
BTB BRANCH_CONDITIONAL	ACCESS:   23916630  HIT:   23916623  MISS:          7
BTB BRANCH_DIRECT_CALL	ACCESS:     851620  HIT:     851619  MISS:          1
BTB BRANCH_INDIRECT_CALL	ACCESS:          0  HIT:          0  MISS:          0
BTB BRANCH_RETURN	ACCESS:     851620  HIT:     851619  MISS:          1
BTB BRANCH_OTHER ACCESS:          0  HIT:          0  MISS:          0

L2C TOTAL     ACCESS:    7834598  HIT:    7562602  MISS:     271996  HIT %:    96.5283  MISS %:    3.47173   MPKI: 1.35998
L2C LOAD      ACCESS:       2584  HIT:          2  MISS:       2582  HIT %:  0.0773994  MISS %:    99.9226   MPKI: 0.01291
L2C DATA LOAD MPKI: 0.01291
L2C INSTRUCTION LOAD MPKI: 0
L2C RFO       ACCESS:      53227  HIT:          0  MISS:      53227  HIT %:          0  MISS %:        100   MPKI: 0.266135
L2C PREFETCH  ACCESS:    7169691  HIT:    6965861  MISS:     203830  HIT %:    97.1571  MISS %:    2.84294   MPKI: 1.01915
L2C DATA PREFETCH MPKI: 1.01915
L2C INSTRUCTION PREFETCH MPKI: 0
L2C WRITEBACK ACCESS:      53230  HIT:      41393  MISS:      11837  HIT %:    77.7625  MISS %:    22.2375   MPKI: 0.059185
L2C LOAD TRANSLATION ACCESS:       4061  HIT:       3951  MISS:        110  HIT %:    97.2913  MISS %:    2.70869   MPKI: 0.00055
L2C TRANSLATION FROM L1D PREFETCHER ACCESS:     551805  HIT:     551395  MISS:        410  HIT %:    99.9257  MISS %:  0.0743016   MPKI: 0.00205
L2C PREFETCH  REQUESTED:          0  ISSUED:          0  USEFUL:        411  USELESS:     203133
L2C USEFUL LOAD PREFETCHES:        411 PREFETCH ISSUED TO LOWER LEVEL:     203849  ACCURACY: 0.20162
L2C TIMELY PREFETCHES:        411 LATE PREFETCHES: 0 DROPPED PREFETCHES: 0
L2C PREFETCHES SAME FILL-ORIGIN LEVEL: 124388 DIFFERENT FILL-ORIGIN LEVEL: 0
L2C AVERAGE MISS LATENCY: 147.651 cycles
L2C RQ	ACCESS:     611682	FORWARD:          0	MERGED:          0	TO_CACHE:     611682
L2C WQ	ACCESS:      53231	FORWARD:          0	MERGED:          0	TO_CACHE:      53231
L2C PQ	ACCESS:    7265893	FORWARD:          0	MERGED:        765	TO_CACHE:    7265128

L2C Instructions Evicting Data 0
L2C Translations Evicting Data 520
L2C Data Evicting Data 259168
L2C Instructions Evicting Instructions 0
L2C Translations Evicting Instructions 0
L2C Data Evicting Instructions 0
L2C Instructions Evicting Translations 0
L2C Translations Evicting Translations 0
L2C Data Evicting Translations 495
L2C Dense regions hint from L2: 0
PSCL5 TOTAL     ACCESS:     555866  HIT:     555866  MISS:          0  HIT %:        100  MISS %:          0   MPKI: 0
PSCL5 LOAD TRANSLATION ACCESS:       4061  HIT:       4061  MISS:          0  HIT %:        100  MISS %:          0   MPKI: 0
PSCL5 TRANSLATION FROM L1D PREFETCHER ACCESS:     551805  HIT:     551805  MISS:          0  HIT %:        100  MISS %:          0   MPKI: 0
PSCL5 PREFETCH  REQUESTED:          0  ISSUED:          0  USEFUL:          0  USELESS:          0
PSCL5 USEFUL LOAD PREFETCHES:          0 PREFETCH ISSUED TO LOWER LEVEL:          0  ACCURACY: -nan
PSCL5 TIMELY PREFETCHES:          0 LATE PREFETCHES: 0 DROPPED PREFETCHES: 0
PSCL5 PREFETCHES SAME FILL-ORIGIN LEVEL: 0 DIFFERENT FILL-ORIGIN LEVEL: 0

PSCL4 TOTAL     ACCESS:     555866  HIT:     555866  MISS:          0  HIT %:        100  MISS %:          0   MPKI: 0
PSCL4 LOAD TRANSLATION ACCESS:       4061  HIT:       4061  MISS:          0  HIT %:        100  MISS %:          0   MPKI: 0
PSCL4 TRANSLATION FROM L1D PREFETCHER ACCESS:     551805  HIT:     551805  MISS:          0  HIT %:        100  MISS %:          0   MPKI: 0
PSCL4 PREFETCH  REQUESTED:          0  ISSUED:          0  USEFUL:          0  USELESS:          0
PSCL4 USEFUL LOAD PREFETCHES:          0 PREFETCH ISSUED TO LOWER LEVEL:          0  ACCURACY: -nan
PSCL4 TIMELY PREFETCHES:          0 LATE PREFETCHES: 0 DROPPED PREFETCHES: 0
PSCL4 PREFETCHES SAME FILL-ORIGIN LEVEL: 0 DIFFERENT FILL-ORIGIN LEVEL: 0

PSCL3 TOTAL     ACCESS:     555866  HIT:     555866  MISS:          0  HIT %:        100  MISS %:          0   MPKI: 0
PSCL3 LOAD TRANSLATION ACCESS:       4061  HIT:       4061  MISS:          0  HIT %:        100  MISS %:          0   MPKI: 0
PSCL3 TRANSLATION FROM L1D PREFETCHER ACCESS:     551805  HIT:     551805  MISS:          0  HIT %:        100  MISS %:          0   MPKI: 0
PSCL3 PREFETCH  REQUESTED:          0  ISSUED:          0  USEFUL:          0  USELESS:          0
PSCL3 USEFUL LOAD PREFETCHES:          0 PREFETCH ISSUED TO LOWER LEVEL:          0  ACCURACY: -nan
PSCL3 TIMELY PREFETCHES:          0 LATE PREFETCHES: 0 DROPPED PREFETCHES: 0
PSCL3 PREFETCHES SAME FILL-ORIGIN LEVEL: 0 DIFFERENT FILL-ORIGIN LEVEL: 0

PSCL2 TOTAL     ACCESS:     554964  HIT:     554956  MISS:          8  HIT %:    99.9986  MISS %: 0.00144153   MPKI: 4e-05
PSCL2 LOAD TRANSLATION ACCESS:       4061  HIT:       4053  MISS:          8  HIT %:     99.803  MISS %:   0.196996   MPKI: 4e-05
PSCL2 TRANSLATION FROM L1D PREFETCHER ACCESS:     550903  HIT:     550903  MISS:          0  HIT %:        100  MISS %:          0   MPKI: 0
PSCL2 PREFETCH  REQUESTED:          0  ISSUED:          0  USEFUL:          0  USELESS:          0
PSCL2 USEFUL LOAD PREFETCHES:          0 PREFETCH ISSUED TO LOWER LEVEL:          0  ACCURACY: -nan
PSCL2 TIMELY PREFETCHES:          0 LATE PREFETCHES: 0 DROPPED PREFETCHES: 0
PSCL2 PREFETCHES SAME FILL-ORIGIN LEVEL: 0 DIFFERENT FILL-ORIGIN LEVEL: 0

LLC TOTAL     ACCESS:     314108  HIT:      49760  MISS:     264348  HIT %:    15.8417  MISS %:    84.1583   MPKI: 1.32174
LLC LOAD      ACCESS:       2582  HIT:          0  MISS:       2582  HIT %:          0  MISS %:        100   MPKI: 0.01291
LLC RFO       ACCESS:      53227  HIT:          0  MISS:      53227  HIT %:          0  MISS %:        100   MPKI: 0.266135
LLC PREFETCH  ACCESS:     203830  HIT:          0  MISS:     203830  HIT %:          0  MISS %:        100   MPKI: 1.01915
LLC WRITEBACK ACCESS:      53949  HIT:      49760  MISS:       4189  HIT %:    92.2353  MISS %:    7.76474   MPKI: 0.020945
LLC LOAD TRANSLATION ACCESS:        110  HIT:          0  MISS:        110  HIT %:          0  MISS %:        100   MPKI: 0.00055
LLC TRANSLATION FROM L1D PREFETCHER ACCESS:        410  HIT:          0  MISS:        410  HIT %:          0  MISS %:        100   MPKI: 0.00205
LLC PREFETCH  REQUESTED:          0  ISSUED:          0  USEFUL:          0  USELESS:     815000
LLC USEFUL LOAD PREFETCHES:          0 PREFETCH ISSUED TO LOWER LEVEL:     815345  ACCURACY: 0
LLC TIMELY PREFETCHES:          0 LATE PREFETCHES: 0 DROPPED PREFETCHES: 0
LLC PREFETCHES SAME FILL-ORIGIN LEVEL: 0 DIFFERENT FILL-ORIGIN LEVEL: 0
LLC AVERAGE MISS LATENCY: 472.636 cycles
LLC RQ	ACCESS:     225342	FORWARD:          0	MERGED:          0	TO_CACHE:     225342
LLC WQ	ACCESS:     215653	FORWARD:          0	MERGED:          0	TO_CACHE:     215653
LLC PQ	ACCESS:     815346	FORWARD:          0	MERGED:          0	TO_CACHE:     815346

LLC Dense regions hint to LLC: 0

RAW hits: 2674962
Loads Generated: 28123802
Loads sent to L1D: 25448840
Stores Generated: 10219454
Stores sent to L1D: 10219461
Major fault: 0 Minor fault: 5113
Allocated PAGES: 20452

CPU 1 cumulative IPC: 0.844208 instructions: 200000001 cycles: 236908345
ITLB TOTAL     ACCESS:   35901465  HIT:   35901465  MISS:          0  HIT %:        100  MISS %:          0   MPKI: 0
ITLB LOAD TRANSLATION ACCESS:   35901465  HIT:   35901465  MISS:          0  HIT %:        100  MISS %:          0   MPKI: 0
ITLB PREFETCH  REQUESTED:          0  ISSUED:          0  USEFUL:          0  USELESS:          0
ITLB USEFUL LOAD PREFETCHES:          0 PREFETCH ISSUED TO LOWER LEVEL:          0  ACCURACY: -nan
ITLB TIMELY PREFETCHES:          0 LATE PREFETCHES: 0 DROPPED PREFETCHES: 0
ITLB PREFETCHES SAME FILL-ORIGIN LEVEL: 0 DIFFERENT FILL-ORIGIN LEVEL: 0
ITLB AVERAGE MISS LATENCY: -nan cycles
ITLB RQ	ACCESS:   38428623	FORWARD:          0	MERGED:    2527159	TO_CACHE:   35901464

DTLB TOTAL     ACCESS:   26160931  HIT:   26155026  MISS:       5905  HIT %:    99.9774  MISS %:  0.0225718   MPKI: 0.029525
DTLB LOAD TRANSLATION ACCESS:   26160931  HIT:   26155026  MISS:       5905  HIT %:    99.9774  MISS %:  0.0225718   MPKI: 0.029525
DTLB PREFETCH  REQUESTED:          0  ISSUED:          0  USEFUL:          0  USELESS:          0
DTLB USEFUL LOAD PREFETCHES:          0 PREFETCH ISSUED TO LOWER LEVEL:          0  ACCURACY: -nan
DTLB TIMELY PREFETCHES:          0 LATE PREFETCHES: 0 DROPPED PREFETCHES: 0
DTLB PREFETCHES SAME FILL-ORIGIN LEVEL: 0 DIFFERENT FILL-ORIGIN LEVEL: 0
DTLB AVERAGE MISS LATENCY: 89.2496 cycles
DTLB RQ	ACCESS:   29497026	FORWARD:          0	MERGED:    3336079	TO_CACHE:   26160947

STLB TOTAL     ACCESS:    6361253  HIT:    6357194  MISS:       4059  HIT %:    99.9362  MISS %:  0.0638082   MPKI: 0.020295
STLB LOAD TRANSLATION ACCESS:       5905  HIT:       1847  MISS:       4058  HIT %:    31.2786  MISS %:    68.7214   MPKI: 0.02029
STLB TRANSLATION FROM L1D PREFETCHER ACCESS:    6355348  HIT:    6355347  MISS:          1  HIT %:        100  MISS %: 1.57348e-05   MPKI: 5e-06
STLB PREFETCH  REQUESTED:          0  ISSUED:          0  USEFUL:          1  USELESS:          0
STLB USEFUL LOAD PREFETCHES:          1 PREFETCH ISSUED TO LOWER LEVEL:          0  ACCURACY: inf
STLB TIMELY PREFETCHES:          1 LATE PREFETCHES: 476 DROPPED PREFETCHES: 537973
STLB PREFETCHES SAME FILL-ORIGIN LEVEL: 0 DIFFERENT FILL-ORIGIN LEVEL: 0
STLB AVERAGE MISS LATENCY: 117.36 cycles
STLB RQ	ACCESS:   46222556	FORWARD:          0	MERGED:   39310850	TO_CACHE:    6911706

STLB Hit, L1D data hit: 0
STLB Hit, L2C data hit: 0
STLB Hit, LLC data hit: 0
STLB Hit, LLC data miss: 0
STLB STLB hints to L2: 0
L1D TOTAL     ACCESS:   66292954  HIT:   66033311  MISS:     259643  HIT %:    99.6083  MISS %:    0.39166   MPKI: 1.29821
L1D LOAD      ACCESS:   19275387  HIT:   19272159  MISS:       3228  HIT %:    99.9833  MISS %:  0.0167467   MPKI: 0.01614
L1D RFO       ACCESS:   10215395  HIT:   10162168  MISS:      53227  HIT %:     99.479  MISS %:   0.521047   MPKI: 0.266135
L1D PREFETCH  ACCESS:   36802172  HIT:   36598984  MISS:     203188  HIT %:    99.4479  MISS %:   0.552109   MPKI: 1.01594
L1D PREFETCH  REQUESTED:  125077142  ISSUED:  123780177  USEFUL:     203182  USELESS:          8
L1D USEFUL LOAD PREFETCHES:     203182 PREFETCH ISSUED TO LOWER LEVEL:    7333041  ACCURACY: 2.77077
L1D TIMELY PREFETCHES:     203182 LATE PREFETCHES: 646 DROPPED PREFETCHES: 2214536
L1D PREFETCHES SAME FILL-ORIGIN LEVEL: 203834 DIFFERENT FILL-ORIGIN LEVEL: 7129207
L1D AVERAGE MISS LATENCY: 93.3452 cycles
L1D RQ	ACCESS:   25448833	FORWARD:          0	MERGED:    6157157	TO_CACHE:   19277574
L1D WQ	ACCESS:   10219452	FORWARD:      14102	MERGED:          0	TO_CACHE:   10219452
L1D PQ	ACCESS:   77563527	FORWARD:          0	MERGED:   31346877	TO_CACHE:   46216650

L1D UNIQUE REGIONS ACCESSED: 0
L1D REGIONS CONFLICTS: 0
L1D Cross Page Prefetch Requests: 6192289
L1D Same Page Prefetch Requests: 95348242
L1D ROI Sum of L1D PQ occupancy: 654217587
L1D PREFETCHES PUSHED FROM L2C: 0
L1I TOTAL     ACCESS:   38428624  HIT:   38428624  MISS:          0  HIT %:        100  MISS %:          0   MPKI: 0
L1I LOAD      ACCESS:   38428624  HIT:   38428624  MISS:          0  HIT %:        100  MISS %:          0   MPKI: 0
L1I PREFETCH  REQUESTED:          0  ISSUED:          0  USEFUL:          0  USELESS:          0
L1I USEFUL LOAD PREFETCHES:          0 PREFETCH ISSUED TO LOWER LEVEL:          0  ACCURACY: -nan
L1I TIMELY PREFETCHES:          0 LATE PREFETCHES: 0 DROPPED PREFETCHES: 0
L1I PREFETCHES SAME FILL-ORIGIN LEVEL: 0 DIFFERENT FILL-ORIGIN LEVEL: 0
L1I AVERAGE MISS LATENCY: -nan cycles
L1I RQ	ACCESS:   54984473	FORWARD:          0	MERGED:   16555850	TO_CACHE:   38428623

BTB TOTAL     ACCESS:   33720395  HIT:   33720379  MISS:         16  HIT %:        100  MISS %: 4.7449e-05   MPKI: 8e-05
BTB BRANCH_DIRECT_JUMP	ACCESS:    8100541  HIT:    8100537  MISS:          4
BTB BRANCH_INDIRECT	ACCESS:          0  HIT:          0  MISS:          0
BTB BRANCH_CONDITIONAL	ACCESS:   23916616  HIT:   23916606  MISS:         10
BTB BRANCH_DIRECT_CALL	ACCESS:     851619  HIT:     851618  MISS:          1
BTB BRANCH_INDIRECT_CALL	ACCESS:          0  HIT:          0  MISS:          0
BTB BRANCH_RETURN	ACCESS:     851619  HIT:     851618  MISS:          1
BTB BRANCH_OTHER ACCESS:          0  HIT:          0  MISS:          0

L2C TOTAL     ACCESS:    7887784  HIT:    7614914  MISS:     272870  HIT %:    96.5406  MISS %:     3.4594   MPKI: 1.36435
L2C LOAD      ACCESS:       2582  HIT:          1  MISS:       2581  HIT %:  0.0387297  MISS %:    99.9613   MPKI: 0.012905
L2C DATA LOAD MPKI: 0.012905
L2C INSTRUCTION LOAD MPKI: 0
L2C RFO       ACCESS:      53227  HIT:          0  MISS:      53227  HIT %:          0  MISS %:        100   MPKI: 0.266135
L2C PREFETCH  ACCESS:    7236238  HIT:    7032416  MISS:     203822  HIT %:    97.1833  MISS %:    2.81668   MPKI: 1.01911
L2C DATA PREFETCH MPKI: 1.01911
L2C INSTRUCTION PREFETCH MPKI: 0
L2C WRITEBACK ACCESS:      53229  HIT:      40506  MISS:      12723  HIT %:    76.0976  MISS %:    23.9024   MPKI: 0.063615
L2C LOAD TRANSLATION ACCESS:       4058  HIT:       3951  MISS:        107  HIT %:    97.3632  MISS %:    2.63677   MPKI: 0.000535
L2C TRANSLATION FROM L1D PREFETCHER ACCESS:     538450  HIT:     538040  MISS:        410  HIT %:    99.9239  MISS %:  0.0761445   MPKI: 0.00205
L2C PREFETCH  REQUESTED:          0  ISSUED:          0  USEFUL:        410  USELESS:     203247
L2C USEFUL LOAD PREFETCHES:        410 PREFETCH ISSUED TO LOWER LEVEL:     203822  ACCURACY: 0.201156
L2C TIMELY PREFETCHES:        410 LATE PREFETCHES: 0 DROPPED PREFETCHES: 0
L2C PREFETCHES SAME FILL-ORIGIN LEVEL: 124995 DIFFERENT FILL-ORIGIN LEVEL: 0
L2C AVERAGE MISS LATENCY: 145.975 cycles
L2C RQ	ACCESS:     598317	FORWARD:          0	MERGED:          0	TO_CACHE:     598317
L2C WQ	ACCESS:      53229	FORWARD:          0	MERGED:          0	TO_CACHE:      53229
L2C PQ	ACCESS:    7333041	FORWARD:          0	MERGED:        855	TO_CACHE:    7332186

L2C Instructions Evicting Data 0
L2C Translations Evicting Data 517
L2C Data Evicting Data 259133
L2C Instructions Evicting Instructions 0
L2C Translations Evicting Instructions 0
L2C Data Evicting Instructions 0
L2C Instructions Evicting Translations 0
L2C Translations Evicting Translations 0
L2C Data Evicting Translations 497
L2C Dense regions hint from L2: 0
PSCL5 TOTAL     ACCESS:     542508  HIT:     542508  MISS:          0  HIT %:        100  MISS %:          0   MPKI: 0
PSCL5 LOAD TRANSLATION ACCESS:       4058  HIT:       4058  MISS:          0  HIT %:        100  MISS %:          0   MPKI: 0
PSCL5 TRANSLATION FROM L1D PREFETCHER ACCESS:     538450  HIT:     538450  MISS:          0  HIT %:        100  MISS %:          0   MPKI: 0
PSCL5 PREFETCH  REQUESTED:          0  ISSUED:          0  USEFUL:          0  USELESS:          0
PSCL5 USEFUL LOAD PREFETCHES:          0 PREFETCH ISSUED TO LOWER LEVEL:          0  ACCURACY: -nan
PSCL5 TIMELY PREFETCHES:          0 LATE PREFETCHES: 0 DROPPED PREFETCHES: 0
PSCL5 PREFETCHES SAME FILL-ORIGIN LEVEL: 0 DIFFERENT FILL-ORIGIN LEVEL: 0

PSCL4 TOTAL     ACCESS:     542508  HIT:     542508  MISS:          0  HIT %:        100  MISS %:          0   MPKI: 0
PSCL4 LOAD TRANSLATION ACCESS:       4058  HIT:       4058  MISS:          0  HIT %:        100  MISS %:          0   MPKI: 0
PSCL4 TRANSLATION FROM L1D PREFETCHER ACCESS:     538450  HIT:     538450  MISS:          0  HIT %:        100  MISS %:          0   MPKI: 0
PSCL4 PREFETCH  REQUESTED:          0  ISSUED:          0  USEFUL:          0  USELESS:          0
PSCL4 USEFUL LOAD PREFETCHES:          0 PREFETCH ISSUED TO LOWER LEVEL:          0  ACCURACY: -nan
PSCL4 TIMELY PREFETCHES:          0 LATE PREFETCHES: 0 DROPPED PREFETCHES: 0
PSCL4 PREFETCHES SAME FILL-ORIGIN LEVEL: 0 DIFFERENT FILL-ORIGIN LEVEL: 0

PSCL3 TOTAL     ACCESS:     542508  HIT:     542508  MISS:          0  HIT %:        100  MISS %:          0   MPKI: 0
PSCL3 LOAD TRANSLATION ACCESS:       4058  HIT:       4058  MISS:          0  HIT %:        100  MISS %:          0   MPKI: 0
PSCL3 TRANSLATION FROM L1D PREFETCHER ACCESS:     538450  HIT:     538450  MISS:          0  HIT %:        100  MISS %:          0   MPKI: 0
PSCL3 PREFETCH  REQUESTED:          0  ISSUED:          0  USEFUL:          0  USELESS:          0
PSCL3 USEFUL LOAD PREFETCHES:          0 PREFETCH ISSUED TO LOWER LEVEL:          0  ACCURACY: -nan
PSCL3 TIMELY PREFETCHES:          0 LATE PREFETCHES: 0 DROPPED PREFETCHES: 0
PSCL3 PREFETCHES SAME FILL-ORIGIN LEVEL: 0 DIFFERENT FILL-ORIGIN LEVEL: 0

PSCL2 TOTAL     ACCESS:     541607  HIT:     541599  MISS:          8  HIT %:    99.9985  MISS %: 0.00147709   MPKI: 4e-05
PSCL2 LOAD TRANSLATION ACCESS:       4058  HIT:       4050  MISS:          8  HIT %:    99.8029  MISS %:   0.197141   MPKI: 4e-05
PSCL2 TRANSLATION FROM L1D PREFETCHER ACCESS:     537549  HIT:     537549  MISS:          0  HIT %:        100  MISS %:          0   MPKI: 0
PSCL2 PREFETCH  REQUESTED:          0  ISSUED:          0  USEFUL:          0  USELESS:          0
PSCL2 USEFUL LOAD PREFETCHES:          0 PREFETCH ISSUED TO LOWER LEVEL:          0  ACCURACY: -nan
PSCL2 TIMELY PREFETCHES:          0 LATE PREFETCHES: 0 DROPPED PREFETCHES: 0
PSCL2 PREFETCHES SAME FILL-ORIGIN LEVEL: 0 DIFFERENT FILL-ORIGIN LEVEL: 0

LLC TOTAL     ACCESS:     313945  HIT:      49532  MISS:     264413  HIT %:    15.7773  MISS %:    84.2227   MPKI: 1.32206
LLC LOAD      ACCESS:       2581  HIT:          0  MISS:       2581  HIT %:          0  MISS %:        100   MPKI: 0.012905
LLC RFO       ACCESS:      53227  HIT:          0  MISS:      53227  HIT %:          0  MISS %:        100   MPKI: 0.266135
LLC PREFETCH  ACCESS:     203822  HIT:          0  MISS:     203822  HIT %:          0  MISS %:        100   MPKI: 1.01911
LLC WRITEBACK ACCESS:      53798  HIT:      49532  MISS:       4266  HIT %:    92.0703  MISS %:    7.92966   MPKI: 0.02133
LLC LOAD TRANSLATION ACCESS:        107  HIT:          0  MISS:        107  HIT %:          0  MISS %:        100   MPKI: 0.000535
LLC TRANSLATION FROM L1D PREFETCHER ACCESS:        410  HIT:          0  MISS:        410  HIT %:          0  MISS %:        100   MPKI: 0.00205
LLC PREFETCH  REQUESTED:          0  ISSUED:          0  USEFUL:          0  USELESS:     815000
LLC USEFUL LOAD PREFETCHES:          0 PREFETCH ISSUED TO LOWER LEVEL:     815345  ACCURACY: 0
LLC TIMELY PREFETCHES:          0 LATE PREFETCHES: 0 DROPPED PREFETCHES: 0
LLC PREFETCHES SAME FILL-ORIGIN LEVEL: 0 DIFFERENT FILL-ORIGIN LEVEL: 0
LLC AVERAGE MISS LATENCY: 472.519 cycles
LLC RQ	ACCESS:     225342	FORWARD:          0	MERGED:          0	TO_CACHE:     225342
LLC WQ	ACCESS:     215653	FORWARD:          0	MERGED:          0	TO_CACHE:     215653
LLC PQ	ACCESS:     815346	FORWARD:          0	MERGED:          0	TO_CACHE:     815346

LLC Dense regions hint to LLC: 0

RAW hits: 2674960
Loads Generated: 28123793
Loads sent to L1D: 25448833
Stores Generated: 10219452
Stores sent to L1D: 10219452
Major fault: 0 Minor fault: 5113
Allocated PAGES: 20452

CPU 2 cumulative IPC: 0.844227 instructions: 200000003 cycles: 236902995
ITLB TOTAL     ACCESS:   35901466  HIT:   35901466  MISS:          0  HIT %:        100  MISS %:          0   MPKI: 0
ITLB LOAD TRANSLATION ACCESS:   35901466  HIT:   35901466  MISS:          0  HIT %:        100  MISS %:          0   MPKI: 0
ITLB PREFETCH  REQUESTED:          0  ISSUED:          0  USEFUL:          0  USELESS:          0
ITLB USEFUL LOAD PREFETCHES:          0 PREFETCH ISSUED TO LOWER LEVEL:          0  ACCURACY: -nan
ITLB TIMELY PREFETCHES:          0 LATE PREFETCHES: 0 DROPPED PREFETCHES: 0
ITLB PREFETCHES SAME FILL-ORIGIN LEVEL: 0 DIFFERENT FILL-ORIGIN LEVEL: 0
ITLB AVERAGE MISS LATENCY: -nan cycles
ITLB RQ	ACCESS:   38429505	FORWARD:          0	MERGED:    2527218	TO_CACHE:   35902287

DTLB TOTAL     ACCESS:   26160935  HIT:   26155028  MISS:       5907  HIT %:    99.9774  MISS %:  0.0225795   MPKI: 0.029535
DTLB LOAD TRANSLATION ACCESS:   26160935  HIT:   26155028  MISS:       5907  HIT %:    99.9774  MISS %:  0.0225795   MPKI: 0.029535
DTLB PREFETCH  REQUESTED:          0  ISSUED:          0  USEFUL:          0  USELESS:          0
DTLB USEFUL LOAD PREFETCHES:          0 PREFETCH ISSUED TO LOWER LEVEL:          0  ACCURACY: -nan
DTLB TIMELY PREFETCHES:          0 LATE PREFETCHES: 0 DROPPED PREFETCHES: 0
DTLB PREFETCHES SAME FILL-ORIGIN LEVEL: 0 DIFFERENT FILL-ORIGIN LEVEL: 0
DTLB AVERAGE MISS LATENCY: 89.3249 cycles
DTLB RQ	ACCESS:   29497691	FORWARD:          0	MERGED:    3336164	TO_CACHE:   26161527

STLB TOTAL     ACCESS:    6355166  HIT:    6351104  MISS:       4062  HIT %:    99.9361  MISS %:  0.0639165   MPKI: 0.02031
STLB LOAD TRANSLATION ACCESS:       5907  HIT:       1847  MISS:       4060  HIT %:     31.268  MISS %:     68.732   MPKI: 0.0203
STLB TRANSLATION FROM L1D PREFETCHER ACCESS:    6349259  HIT:    6349257  MISS:          2  HIT %:        100  MISS %: 3.14997e-05   MPKI: 1e-05
STLB PREFETCH  REQUESTED:          0  ISSUED:          0  USEFUL:          2  USELESS:          0
STLB USEFUL LOAD PREFETCHES:          2 PREFETCH ISSUED TO LOWER LEVEL:          0  ACCURACY: inf
STLB TIMELY PREFETCHES:          2 LATE PREFETCHES: 476 DROPPED PREFETCHES: 544136
STLB PREFETCHES SAME FILL-ORIGIN LEVEL: 0 DIFFERENT FILL-ORIGIN LEVEL: 0
STLB AVERAGE MISS LATENCY: 117.472 cycles
STLB RQ	ACCESS:   46168517	FORWARD:          0	MERGED:   39256894	TO_CACHE:    6911623

STLB Hit, L1D data hit: 0
STLB Hit, L2C data hit: 0
STLB Hit, LLC data hit: 0
STLB Hit, LLC data miss: 0
STLB STLB hints to L2: 0
L1D TOTAL     ACCESS:   66242292  HIT:   65982642  MISS:     259650  HIT %:     99.608  MISS %:    0.39197   MPKI: 1.29825
L1D LOAD      ACCESS:   19275358  HIT:   19272109  MISS:       3249  HIT %:    99.9831  MISS %:  0.0168557   MPKI: 0.016245
L1D RFO       ACCESS:   10215289  HIT:   10162062  MISS:      53227  HIT %:    99.4789  MISS %:   0.521052   MPKI: 0.266135
L1D PREFETCH  ACCESS:   36751645  HIT:   36548471  MISS:     203174  HIT %:    99.4472  MISS %:    0.55283   MPKI: 1.01587
L1D PREFETCH  REQUESTED:  125050418  ISSUED:  123763639  USEFUL:     203168  USELESS:          8
L1D USEFUL LOAD PREFETCHES:     203168 PREFETCH ISSUED TO LOWER LEVEL:    7320747  ACCURACY: 2.77524
L1D TIMELY PREFETCHES:     203168 LATE PREFETCHES: 646 DROPPED PREFETCHES: 2221396
L1D PREFETCHES SAME FILL-ORIGIN LEVEL: 203826 DIFFERENT FILL-ORIGIN LEVEL: 7116921
L1D AVERAGE MISS LATENCY: 94.4904 cycles
L1D RQ	ACCESS:   25449418	FORWARD:          0	MERGED:    6157300	TO_CACHE:   19278011
L1D WQ	ACCESS:   10219680	FORWARD:      14107	MERGED:          0	TO_CACHE:   10219680
L1D PQ	ACCESS:   77601030	FORWARD:          0	MERGED:   31438421	TO_CACHE:   46162609

L1D UNIQUE REGIONS ACCESSED: 0
L1D REGIONS CONFLICTS: 0
L1D Cross Page Prefetch Requests: 6200649
L1D Same Page Prefetch Requests: 95376931
L1D ROI Sum of L1D PQ occupancy: 654627981
L1D PREFETCHES PUSHED FROM L2C: 0
L1I TOTAL     ACCESS:   38428627  HIT:   38428627  MISS:          0  HIT %:        100  MISS %:          0   MPKI: 0
L1I LOAD      ACCESS:   38428627  HIT:   38428627  MISS:          0  HIT %:        100  MISS %:          0   MPKI: 0
L1I PREFETCH  REQUESTED:          0  ISSUED:          0  USEFUL:          0  USELESS:          0
L1I USEFUL LOAD PREFETCHES:          0 PREFETCH ISSUED TO LOWER LEVEL:          0  ACCURACY: -nan
L1I TIMELY PREFETCHES:          0 LATE PREFETCHES: 0 DROPPED PREFETCHES: 0
L1I PREFETCHES SAME FILL-ORIGIN LEVEL: 0 DIFFERENT FILL-ORIGIN LEVEL: 0
L1I AVERAGE MISS LATENCY: -nan cycles
L1I RQ	ACCESS:   54985735	FORWARD:          0	MERGED:   16556230	TO_CACHE:   38429505

BTB TOTAL     ACCESS:   33720411  HIT:   33720399  MISS:         12  HIT %:        100  MISS %: 3.55868e-05   MPKI: 6e-05
BTB BRANCH_DIRECT_JUMP	ACCESS:    8100544  HIT:    8100542  MISS:          2
BTB BRANCH_INDIRECT	ACCESS:          0  HIT:          0  MISS:          0
BTB BRANCH_CONDITIONAL	ACCESS:   23916627  HIT:   23916619  MISS:          8
BTB BRANCH_DIRECT_CALL	ACCESS:     851620  HIT:     851619  MISS:          1
BTB BRANCH_INDIRECT_CALL	ACCESS:          0  HIT:          0  MISS:          0
BTB BRANCH_RETURN	ACCESS:     851620  HIT:     851619  MISS:          1
BTB BRANCH_OTHER ACCESS:          0  HIT:          0  MISS:          0

L2C TOTAL     ACCESS:    7880455  HIT:    7607903  MISS:     272552  HIT %:    96.5414  MISS %:    3.45858   MPKI: 1.36276
L2C LOAD      ACCESS:       2603  HIT:         18  MISS:       2585  HIT %:    0.69151  MISS %:    99.3085   MPKI: 0.012925
L2C DATA LOAD MPKI: 0.012925
L2C INSTRUCTION LOAD MPKI: 0
L2C RFO       ACCESS:      53227  HIT:          0  MISS:      53227  HIT %:          0  MISS %:        100   MPKI: 0.266135
L2C PREFETCH  ACCESS:    7222721  HIT:    7018891  MISS:     203830  HIT %:    97.1779  MISS %:    2.82207   MPKI: 1.01915
L2C DATA PREFETCH MPKI: 1.01915
L2C INSTRUCTION PREFETCH MPKI: 0
L2C WRITEBACK ACCESS:      53230  HIT:      40841  MISS:      12389  HIT %:    76.7255  MISS %:    23.2745   MPKI: 0.061945
L2C LOAD TRANSLATION ACCESS:       4060  HIT:       3949  MISS:        111  HIT %:     97.266  MISS %:    2.73399   MPKI: 0.000555
L2C TRANSLATION FROM L1D PREFETCHER ACCESS:     544614  HIT:     544204  MISS:        410  HIT %:    99.9247  MISS %:  0.0752827   MPKI: 0.00205
L2C PREFETCH  REQUESTED:          0  ISSUED:          0  USEFUL:        427  USELESS:     203127
L2C USEFUL LOAD PREFETCHES:        427 PREFETCH ISSUED TO LOWER LEVEL:     203838  ACCURACY: 0.20948
L2C TIMELY PREFETCHES:        427 LATE PREFETCHES: 0 DROPPED PREFETCHES: 0
L2C PREFETCHES SAME FILL-ORIGIN LEVEL: 124357 DIFFERENT FILL-ORIGIN LEVEL: 0
L2C AVERAGE MISS LATENCY: 146.958 cycles
L2C RQ	ACCESS:     604507	FORWARD:          0	MERGED:          0	TO_CACHE:     604507
L2C WQ	ACCESS:      53230	FORWARD:          0	MERGED:          0	TO_CACHE:      53230
L2C PQ	ACCESS:    7320747	FORWARD:          0	MERGED:        825	TO_CACHE:    7319922

L2C Instructions Evicting Data 0
L2C Translations Evicting Data 522
L2C Data Evicting Data 259142
L2C Instructions Evicting Instructions 0
L2C Translations Evicting Instructions 0
L2C Data Evicting Instructions 0
L2C Instructions Evicting Translations 0
L2C Translations Evicting Translations 0
L2C Data Evicting Translations 508
L2C Dense regions hint from L2: 0
PSCL5 TOTAL     ACCESS:     548675  HIT:     548675  MISS:          0  HIT %:        100  MISS %:          0   MPKI: 0
PSCL5 LOAD TRANSLATION ACCESS:       4061  HIT:       4061  MISS:          0  HIT %:        100  MISS %:          0   MPKI: 0
PSCL5 TRANSLATION FROM L1D PREFETCHER ACCESS:     544614  HIT:     544614  MISS:          0  HIT %:        100  MISS %:          0   MPKI: 0
PSCL5 PREFETCH  REQUESTED:          0  ISSUED:          0  USEFUL:          0  USELESS:          0
PSCL5 USEFUL LOAD PREFETCHES:          0 PREFETCH ISSUED TO LOWER LEVEL:          0  ACCURACY: -nan
PSCL5 TIMELY PREFETCHES:          0 LATE PREFETCHES: 0 DROPPED PREFETCHES: 0
PSCL5 PREFETCHES SAME FILL-ORIGIN LEVEL: 0 DIFFERENT FILL-ORIGIN LEVEL: 0

PSCL4 TOTAL     ACCESS:     548675  HIT:     548675  MISS:          0  HIT %:        100  MISS %:          0   MPKI: 0
PSCL4 LOAD TRANSLATION ACCESS:       4061  HIT:       4061  MISS:          0  HIT %:        100  MISS %:          0   MPKI: 0
PSCL4 TRANSLATION FROM L1D PREFETCHER ACCESS:     544614  HIT:     544614  MISS:          0  HIT %:        100  MISS %:          0   MPKI: 0
PSCL4 PREFETCH  REQUESTED:          0  ISSUED:          0  USEFUL:          0  USELESS:          0
PSCL4 USEFUL LOAD PREFETCHES:          0 PREFETCH ISSUED TO LOWER LEVEL:          0  ACCURACY: -nan
PSCL4 TIMELY PREFETCHES:          0 LATE PREFETCHES: 0 DROPPED PREFETCHES: 0
PSCL4 PREFETCHES SAME FILL-ORIGIN LEVEL: 0 DIFFERENT FILL-ORIGIN LEVEL: 0

PSCL3 TOTAL     ACCESS:     548675  HIT:     548675  MISS:          0  HIT %:        100  MISS %:          0   MPKI: 0
PSCL3 LOAD TRANSLATION ACCESS:       4061  HIT:       4061  MISS:          0  HIT %:        100  MISS %:          0   MPKI: 0
PSCL3 TRANSLATION FROM L1D PREFETCHER ACCESS:     544614  HIT:     544614  MISS:          0  HIT %:        100  MISS %:          0   MPKI: 0
PSCL3 PREFETCH  REQUESTED:          0  ISSUED:          0  USEFUL:          0  USELESS:          0
PSCL3 USEFUL LOAD PREFETCHES:          0 PREFETCH ISSUED TO LOWER LEVEL:          0  ACCURACY: -nan
PSCL3 TIMELY PREFETCHES:          0 LATE PREFETCHES: 0 DROPPED PREFETCHES: 0
PSCL3 PREFETCHES SAME FILL-ORIGIN LEVEL: 0 DIFFERENT FILL-ORIGIN LEVEL: 0

PSCL2 TOTAL     ACCESS:     547760  HIT:     547752  MISS:          8  HIT %:    99.9985  MISS %: 0.00146049   MPKI: 4e-05
PSCL2 LOAD TRANSLATION ACCESS:       4061  HIT:       4053  MISS:          8  HIT %:     99.803  MISS %:   0.196996   MPKI: 4e-05
PSCL2 TRANSLATION FROM L1D PREFETCHER ACCESS:     543699  HIT:     543699  MISS:          0  HIT %:        100  MISS %:          0   MPKI: 0
PSCL2 PREFETCH  REQUESTED:          0  ISSUED:          0  USEFUL:          0  USELESS:          0
PSCL2 USEFUL LOAD PREFETCHES:          0 PREFETCH ISSUED TO LOWER LEVEL:          0  ACCURACY: -nan
PSCL2 TIMELY PREFETCHES:          0 LATE PREFETCHES: 0 DROPPED PREFETCHES: 0
PSCL2 PREFETCHES SAME FILL-ORIGIN LEVEL: 0 DIFFERENT FILL-ORIGIN LEVEL: 0

LLC TOTAL     ACCESS:     314072  HIT:      49553  MISS:     264519  HIT %:    15.7776  MISS %:    84.2224   MPKI: 1.32259
LLC LOAD      ACCESS:       2585  HIT:          0  MISS:       2585  HIT %:          0  MISS %:        100   MPKI: 0.012925
LLC RFO       ACCESS:      53227  HIT:          0  MISS:      53227  HIT %:          0  MISS %:        100   MPKI: 0.266135
LLC PREFETCH  ACCESS:     203830  HIT:          1  MISS:     203829  HIT %: 0.000490605  MISS %:    99.9995   MPKI: 1.01914
LLC WRITEBACK ACCESS:      53909  HIT:      49550  MISS:       4359  HIT %:    91.9142  MISS %:    8.08585   MPKI: 0.021795
LLC LOAD TRANSLATION ACCESS:        111  HIT:          2  MISS:        109  HIT %:     1.8018  MISS %:    98.1982   MPKI: 0.000545
LLC TRANSLATION FROM L1D PREFETCHER ACCESS:        410  HIT:          0  MISS:        410  HIT %:          0  MISS %:        100   MPKI: 0.00205
LLC PREFETCH  REQUESTED:          0  ISSUED:          0  USEFUL:          0  USELESS:     815000
LLC USEFUL LOAD PREFETCHES:          0 PREFETCH ISSUED TO LOWER LEVEL:     815345  ACCURACY: 0
LLC TIMELY PREFETCHES:          0 LATE PREFETCHES: 0 DROPPED PREFETCHES: 0
LLC PREFETCHES SAME FILL-ORIGIN LEVEL: 0 DIFFERENT FILL-ORIGIN LEVEL: 0
LLC AVERAGE MISS LATENCY: 472.33 cycles
LLC RQ	ACCESS:     225342	FORWARD:          0	MERGED:          0	TO_CACHE:     225342
LLC WQ	ACCESS:     215653	FORWARD:          0	MERGED:          0	TO_CACHE:     215653
LLC PQ	ACCESS:     815346	FORWARD:          0	MERGED:          0	TO_CACHE:     815346

LLC Dense regions hint to LLC: 0

RAW hits: 2674959
Loads Generated: 28123802
Loads sent to L1D: 25448843
Stores Generated: 10219454
Stores sent to L1D: 10219464
Major fault: 0 Minor fault: 5113
Allocated PAGES: 20452

CPU 3 cumulative IPC: 0.844228 instructions: 200000000 cycles: 236902788
ITLB TOTAL     ACCESS:   35901490  HIT:   35901490  MISS:          0  HIT %:        100  MISS %:          0   MPKI: 0
ITLB LOAD TRANSLATION ACCESS:   35901490  HIT:   35901490  MISS:          0  HIT %:        100  MISS %:          0   MPKI: 0
ITLB PREFETCH  REQUESTED:          0  ISSUED:          0  USEFUL:          0  USELESS:          0
ITLB USEFUL LOAD PREFETCHES:          0 PREFETCH ISSUED TO LOWER LEVEL:          0  ACCURACY: -nan
ITLB TIMELY PREFETCHES:          0 LATE PREFETCHES: 0 DROPPED PREFETCHES: 0
ITLB PREFETCHES SAME FILL-ORIGIN LEVEL: 0 DIFFERENT FILL-ORIGIN LEVEL: 0
ITLB AVERAGE MISS LATENCY: -nan cycles
ITLB RQ	ACCESS:   38429500	FORWARD:          0	MERGED:    2527219	TO_CACHE:   35902281

DTLB TOTAL     ACCESS:   26160936  HIT:   26155029  MISS:       5907  HIT %:    99.9774  MISS %:  0.0225795   MPKI: 0.029535
DTLB LOAD TRANSLATION ACCESS:   26160936  HIT:   26155029  MISS:       5907  HIT %:    99.9774  MISS %:  0.0225795   MPKI: 0.029535
DTLB PREFETCH  REQUESTED:          0  ISSUED:          0  USEFUL:          0  USELESS:          0
DTLB USEFUL LOAD PREFETCHES:          0 PREFETCH ISSUED TO LOWER LEVEL:          0  ACCURACY: -nan
DTLB TIMELY PREFETCHES:          0 LATE PREFETCHES: 0 DROPPED PREFETCHES: 0
DTLB PREFETCHES SAME FILL-ORIGIN LEVEL: 0 DIFFERENT FILL-ORIGIN LEVEL: 0
DTLB AVERAGE MISS LATENCY: 88.4327 cycles
DTLB RQ	ACCESS:   29497667	FORWARD:          0	MERGED:    3336149	TO_CACHE:   26161518

STLB TOTAL     ACCESS:    6350529  HIT:    6346467  MISS:       4062  HIT %:     99.936  MISS %:  0.0639632   MPKI: 0.02031
STLB LOAD TRANSLATION ACCESS:       5907  HIT:       1847  MISS:       4060  HIT %:     31.268  MISS %:     68.732   MPKI: 0.0203
STLB TRANSLATION FROM L1D PREFETCHER ACCESS:    6344622  HIT:    6344620  MISS:          2  HIT %:        100  MISS %: 3.15228e-05   MPKI: 1e-05
STLB PREFETCH  REQUESTED:          0  ISSUED:          0  USEFUL:          2  USELESS:          0
STLB USEFUL LOAD PREFETCHES:          2 PREFETCH ISSUED TO LOWER LEVEL:          0  ACCURACY: inf
STLB TIMELY PREFETCHES:          2 LATE PREFETCHES: 476 DROPPED PREFETCHES: 539733
STLB PREFETCHES SAME FILL-ORIGIN LEVEL: 0 DIFFERENT FILL-ORIGIN LEVEL: 0
STLB AVERAGE MISS LATENCY: 116.175 cycles
STLB RQ	ACCESS:   46178299	FORWARD:          0	MERGED:   39275722	TO_CACHE:    6902577

STLB Hit, L1D data hit: 0
STLB Hit, L2C data hit: 0
STLB Hit, LLC data hit: 0
STLB Hit, LLC data miss: 0
STLB STLB hints to L2: 0
L1D TOTAL     ACCESS:   66288915  HIT:   66029269  MISS:     259646  HIT %:    99.6083  MISS %:   0.391688   MPKI: 1.29823
L1D LOAD      ACCESS:   19275362  HIT:   19272123  MISS:       3239  HIT %:    99.9832  MISS %:  0.0168038   MPKI: 0.016195
L1D RFO       ACCESS:   10217171  HIT:   10163944  MISS:      53227  HIT %:     99.479  MISS %:   0.520956   MPKI: 0.266135
L1D PREFETCH  ACCESS:   36796382  HIT:   36593202  MISS:     203180  HIT %:    99.4478  MISS %:   0.552174   MPKI: 1.0159
L1D PREFETCH  REQUESTED:  124974835  ISSUED:  123694158  USEFUL:     203177  USELESS:          8
L1D USEFUL LOAD PREFETCHES:     203177 PREFETCH ISSUED TO LOWER LEVEL:    7301183  ACCURACY: 2.7828
L1D TIMELY PREFETCHES:     203177 LATE PREFETCHES: 634 DROPPED PREFETCHES: 2212942
L1D PREFETCHES SAME FILL-ORIGIN LEVEL: 203830 DIFFERENT FILL-ORIGIN LEVEL: 7097353
L1D AVERAGE MISS LATENCY: 85.2793 cycles
L1D RQ	ACCESS:   25449408	FORWARD:          0	MERGED:    6157314	TO_CACHE:   19277988
L1D WQ	ACCESS:   10219679	FORWARD:      14106	MERGED:          0	TO_CACHE:   10219679
L1D PQ	ACCESS:   77521767	FORWARD:          0	MERGED:   31349376	TO_CACHE:   46172391

L1D UNIQUE REGIONS ACCESSED: 0
L1D REGIONS CONFLICTS: 0
L1D Cross Page Prefetch Requests: 6187014
L1D Same Page Prefetch Requests: 95302139
L1D ROI Sum of L1D PQ occupancy: 654058510
L1D PREFETCHES PUSHED FROM L2C: 0
L1I TOTAL     ACCESS:   38428655  HIT:   38428655  MISS:          0  HIT %:        100  MISS %:          0   MPKI: 0
L1I LOAD      ACCESS:   38428655  HIT:   38428655  MISS:          0  HIT %:        100  MISS %:          0   MPKI: 0
L1I PREFETCH  REQUESTED:          0  ISSUED:          0  USEFUL:          0  USELESS:          0
L1I USEFUL LOAD PREFETCHES:          0 PREFETCH ISSUED TO LOWER LEVEL:          0  ACCURACY: -nan
L1I TIMELY PREFETCHES:          0 LATE PREFETCHES: 0 DROPPED PREFETCHES: 0
L1I PREFETCHES SAME FILL-ORIGIN LEVEL: 0 DIFFERENT FILL-ORIGIN LEVEL: 0
L1I AVERAGE MISS LATENCY: -nan cycles
L1I RQ	ACCESS:   54985736	FORWARD:          0	MERGED:   16556236	TO_CACHE:   38429500

BTB TOTAL     ACCESS:   33720413  HIT:   33720399  MISS:         14  HIT %:        100  MISS %: 4.15179e-05   MPKI: 7e-05
BTB BRANCH_DIRECT_JUMP	ACCESS:    8100544  HIT:    8100542  MISS:          2
BTB BRANCH_INDIRECT	ACCESS:          0  HIT:          0  MISS:          0
BTB BRANCH_CONDITIONAL	ACCESS:   23916629  HIT:   23916619  MISS:         10
BTB BRANCH_DIRECT_CALL	ACCESS:     851620  HIT:     851619  MISS:          1
BTB BRANCH_INDIRECT_CALL	ACCESS:          0  HIT:          0  MISS:          0
BTB BRANCH_RETURN	ACCESS:     851620  HIT:     851619  MISS:          1
BTB BRANCH_OTHER ACCESS:          0  HIT:          0  MISS:          0

L2C TOTAL     ACCESS:    7867152  HIT:    7594344  MISS:     272808  HIT %:    96.5323  MISS %:    3.46768   MPKI: 1.36404
L2C LOAD      ACCESS:       2605  HIT:         10  MISS:       2595  HIT %:   0.383877  MISS %:    99.6161   MPKI: 0.012975
L2C DATA LOAD MPKI: 0.012975
L2C INSTRUCTION LOAD MPKI: 0
L2C RFO       ACCESS:      53227  HIT:          0  MISS:      53227  HIT %:          0  MISS %:        100   MPKI: 0.266135
L2C PREFETCH  ACCESS:    7213819  HIT:    7009998  MISS:     203821  HIT %:    97.1746  MISS %:    2.82542   MPKI: 1.0191
L2C DATA PREFETCH MPKI: 1.0191
L2C INSTRUCTION PREFETCH MPKI: 0
L2C WRITEBACK ACCESS:      53230  HIT:      40586  MISS:      12644  HIT %:    76.2465  MISS %:    23.7535   MPKI: 0.06322
L2C LOAD TRANSLATION ACCESS:       4060  HIT:       3949  MISS:        111  HIT %:     97.266  MISS %:    2.73399   MPKI: 0.000555
L2C TRANSLATION FROM L1D PREFETCHER ACCESS:     540211  HIT:     539801  MISS:        410  HIT %:    99.9241  MISS %:  0.0758963   MPKI: 0.00205
L2C PREFETCH  REQUESTED:          0  ISSUED:          0  USEFUL:        419  USELESS:     203083
L2C USEFUL LOAD PREFETCHES:        419 PREFETCH ISSUED TO LOWER LEVEL:     203837  ACCURACY: 0.205556
L2C TIMELY PREFETCHES:        419 LATE PREFETCHES: 0 DROPPED PREFETCHES: 0
L2C PREFETCHES SAME FILL-ORIGIN LEVEL: 124405 DIFFERENT FILL-ORIGIN LEVEL: 0
L2C AVERAGE MISS LATENCY: 132.545 cycles
L2C RQ	ACCESS:     600107	FORWARD:          0	MERGED:          0	TO_CACHE:     600107
L2C WQ	ACCESS:      53231	FORWARD:          0	MERGED:          0	TO_CACHE:      53231
L2C PQ	ACCESS:    7301183	FORWARD:          0	MERGED:        764	TO_CACHE:    7300419

L2C Instructions Evicting Data 0
L2C Translations Evicting Data 522
L2C Data Evicting Data 259180
L2C Instructions Evicting Instructions 0
L2C Translations Evicting Instructions 0
L2C Data Evicting Instructions 0
L2C Instructions Evicting Translations 0
L2C Translations Evicting Translations 0
L2C Data Evicting Translations 481
L2C Dense regions hint from L2: 0
PSCL5 TOTAL     ACCESS:     544271  HIT:     544271  MISS:          0  HIT %:        100  MISS %:          0   MPKI: 0
PSCL5 LOAD TRANSLATION ACCESS:       4060  HIT:       4060  MISS:          0  HIT %:        100  MISS %:          0   MPKI: 0
PSCL5 TRANSLATION FROM L1D PREFETCHER ACCESS:     540211  HIT:     540211  MISS:          0  HIT %:        100  MISS %:          0   MPKI: 0
PSCL5 PREFETCH  REQUESTED:          0  ISSUED:          0  USEFUL:          0  USELESS:          0
PSCL5 USEFUL LOAD PREFETCHES:          0 PREFETCH ISSUED TO LOWER LEVEL:          0  ACCURACY: -nan
PSCL5 TIMELY PREFETCHES:          0 LATE PREFETCHES: 0 DROPPED PREFETCHES: 0
PSCL5 PREFETCHES SAME FILL-ORIGIN LEVEL: 0 DIFFERENT FILL-ORIGIN LEVEL: 0

PSCL4 TOTAL     ACCESS:     544271  HIT:     544271  MISS:          0  HIT %:        100  MISS %:          0   MPKI: 0
PSCL4 LOAD TRANSLATION ACCESS:       4060  HIT:       4060  MISS:          0  HIT %:        100  MISS %:          0   MPKI: 0
PSCL4 TRANSLATION FROM L1D PREFETCHER ACCESS:     540211  HIT:     540211  MISS:          0  HIT %:        100  MISS %:          0   MPKI: 0
PSCL4 PREFETCH  REQUESTED:          0  ISSUED:          0  USEFUL:          0  USELESS:          0
PSCL4 USEFUL LOAD PREFETCHES:          0 PREFETCH ISSUED TO LOWER LEVEL:          0  ACCURACY: -nan
PSCL4 TIMELY PREFETCHES:          0 LATE PREFETCHES: 0 DROPPED PREFETCHES: 0
PSCL4 PREFETCHES SAME FILL-ORIGIN LEVEL: 0 DIFFERENT FILL-ORIGIN LEVEL: 0

PSCL3 TOTAL     ACCESS:     544271  HIT:     544271  MISS:          0  HIT %:        100  MISS %:          0   MPKI: 0
PSCL3 LOAD TRANSLATION ACCESS:       4060  HIT:       4060  MISS:          0  HIT %:        100  MISS %:          0   MPKI: 0
PSCL3 TRANSLATION FROM L1D PREFETCHER ACCESS:     540211  HIT:     540211  MISS:          0  HIT %:        100  MISS %:          0   MPKI: 0
PSCL3 PREFETCH  REQUESTED:          0  ISSUED:          0  USEFUL:          0  USELESS:          0
PSCL3 USEFUL LOAD PREFETCHES:          0 PREFETCH ISSUED TO LOWER LEVEL:          0  ACCURACY: -nan
PSCL3 TIMELY PREFETCHES:          0 LATE PREFETCHES: 0 DROPPED PREFETCHES: 0
PSCL3 PREFETCHES SAME FILL-ORIGIN LEVEL: 0 DIFFERENT FILL-ORIGIN LEVEL: 0

PSCL2 TOTAL     ACCESS:     543176  HIT:     543168  MISS:          8  HIT %:    99.9985  MISS %: 0.00147282   MPKI: 4e-05
PSCL2 LOAD TRANSLATION ACCESS:       4060  HIT:       4052  MISS:          8  HIT %:     99.803  MISS %:   0.197044   MPKI: 4e-05
PSCL2 TRANSLATION FROM L1D PREFETCHER ACCESS:     539116  HIT:     539116  MISS:          0  HIT %:        100  MISS %:          0   MPKI: 0
PSCL2 PREFETCH  REQUESTED:          0  ISSUED:          0  USEFUL:          0  USELESS:          0
PSCL2 USEFUL LOAD PREFETCHES:          0 PREFETCH ISSUED TO LOWER LEVEL:          0  ACCURACY: -nan
PSCL2 TIMELY PREFETCHES:          0 LATE PREFETCHES: 0 DROPPED PREFETCHES: 0
PSCL2 PREFETCHES SAME FILL-ORIGIN LEVEL: 0 DIFFERENT FILL-ORIGIN LEVEL: 0

LLC TOTAL     ACCESS:     314150  HIT:      49672  MISS:     264478  HIT %:    15.8116  MISS %:    84.1884   MPKI: 1.32239
LLC LOAD      ACCESS:       2595  HIT:          0  MISS:       2595  HIT %:          0  MISS %:        100   MPKI: 0.012975
LLC RFO       ACCESS:      53227  HIT:          0  MISS:      53227  HIT %:          0  MISS %:        100   MPKI: 0.266135
LLC PREFETCH  ACCESS:     203821  HIT:          0  MISS:     203821  HIT %:          0  MISS %:        100   MPKI: 1.0191
LLC WRITEBACK ACCESS:      53986  HIT:      49670  MISS:       4316  HIT %:    92.0053  MISS %:    7.99467   MPKI: 0.02158
LLC LOAD TRANSLATION ACCESS:        111  HIT:          2  MISS:        109  HIT %:     1.8018  MISS %:    98.1982   MPKI: 0.000545
LLC TRANSLATION FROM L1D PREFETCHER ACCESS:        410  HIT:          0  MISS:        410  HIT %:          0  MISS %:        100   MPKI: 0.00205
LLC PREFETCH  REQUESTED:          0  ISSUED:          0  USEFUL:          0  USELESS:     815000
LLC USEFUL LOAD PREFETCHES:          0 PREFETCH ISSUED TO LOWER LEVEL:     815345  ACCURACY: 0
LLC TIMELY PREFETCHES:          0 LATE PREFETCHES: 0 DROPPED PREFETCHES: 0
LLC PREFETCHES SAME FILL-ORIGIN LEVEL: 0 DIFFERENT FILL-ORIGIN LEVEL: 0
LLC AVERAGE MISS LATENCY: 472.403 cycles
LLC RQ	ACCESS:     225342	FORWARD:          0	MERGED:          0	TO_CACHE:     225342
LLC WQ	ACCESS:     215653	FORWARD:          0	MERGED:          0	TO_CACHE:     215653
LLC PQ	ACCESS:     815346	FORWARD:          0	MERGED:          0	TO_CACHE:     815346

LLC Dense regions hint to LLC: 0

RAW hits: 2674960
Loads Generated: 28123800
Loads sent to L1D: 25448840
Stores Generated: 10219460
Stores sent to L1D: 10219453
Major fault: 0 Minor fault: 5113
Allocated PAGES: 20452

DRAM Statistics
 CHANNEL 0
 RQ ROW_BUFFER_HIT:     603034  ROW_BUFFER_MISS:     437648
 DBUS_CONGESTED:       2482
 WQ ROW_BUFFER_HIT:      34599  ROW_BUFFER_MISS:     179500  FULL:          0

 AVG_CONGESTED_CYCLE: 5
 All warmup complete: 5
Channel 0 Bank busy for read cycles: 0
Channel 0 Bank busy for write cycles: 0
Channel 0
Rank 0
0banks busy for read cycles: 132038228
0banks busy for write cycles: 149523
1banks busy for read cycles: 63706718
1banks busy for write cycles: 22638802
2banks busy for read cycles: 10074719
2banks busy for write cycles: 4426456
3banks busy for read cycles: 1035361
3banks busy for write cycles: 879215
4banks busy for read cycles: 229429
4banks busy for write cycles: 271939
5banks busy for read cycles: 157892
5banks busy for write cycles: 143628
6banks busy for read cycles: 140467
6banks busy for write cycles: 92990
7banks busy for read cycles: 170732
7banks busy for write cycles: 68178
8banks busy for read cycles: 638740
8banks busy for write cycles: 45329

CPU 0 Branch Prediction Accuracy: 97.6651% MPKI: 7.07217 Average ROB Occupancy at Mispredict: 80.8583
Branch types
NOT_BRANCH: 139432803 69.7114%
BRANCH_DIRECT_JUMP: 8101127 4.05028%
BRANCH_INDIRECT: 0 0%
BRANCH_CONDITIONAL: 50776746 25.3866%
BRANCH_DIRECT_CALL: 851680 0.42581%
BRANCH_INDIRECT_CALL: 0 0%
BRANCH_RETURN: 851680 0.42581%
BRANCH_OTHER: 0 0%


CPU 1 Branch Prediction Accuracy: 97.6651% MPKI: 7.07204 Average ROB Occupancy at Mispredict: 80.859
Branch types
NOT_BRANCH: 139422773 69.7114%
BRANCH_DIRECT_JUMP: 8100541 4.05027%
BRANCH_INDIRECT: 0 0%
BRANCH_CONDITIONAL: 50773098 25.3865%
BRANCH_DIRECT_CALL: 851619 0.425809%
BRANCH_INDIRECT_CALL: 0 0%
BRANCH_RETURN: 851619 0.425809%
BRANCH_OTHER: 0 0%


CPU 2 Branch Prediction Accuracy: 97.6651% MPKI: 7.07205 Average ROB Occupancy at Mispredict: 80.8585
Branch types
NOT_BRANCH: 139426072 69.7114%
BRANCH_DIRECT_JUMP: 8100734 4.05027%
BRANCH_INDIRECT: 0 0%
BRANCH_CONDITIONAL: 50774305 25.3866%
BRANCH_DIRECT_CALL: 851639 0.42581%
BRANCH_INDIRECT_CALL: 0 0%
BRANCH_RETURN: 851639 0.42581%
BRANCH_OTHER: 0 0%


CPU 3 Branch Prediction Accuracy: 97.6651% MPKI: 7.07206 Average ROB Occupancy at Mispredict: 80.8581
Branch types
NOT_BRANCH: 139425981 69.7114%
BRANCH_DIRECT_JUMP: 8100727 4.05027%
BRANCH_INDIRECT: 0 0%
BRANCH_CONDITIONAL: 50774273 25.3866%
BRANCH_DIRECT_CALL: 851638 0.425809%
BRANCH_INDIRECT_CALL: 0 0%
BRANCH_RETURN: 851638 0.425809%
BRANCH_OTHER: 0 0%

DRAM PAGES: 1048576
Allocated PAGES: 20452
