
*** ChampSim Multicore Out-of-Order Simulator ***

Warmup Instructions: 50000000
Simulation Instructions: 200000000
Number of CPUs: 4
LLC sets: 8192
LLC ways: 16
Off-chip DRAM Size: 4096 MB Channels: 1 Width: 64-bit Data Rate: 6400 MT/s
CPU 0 runs ./traces/ligra/ligra_BellmanFord.com-lj.ungraph.gcc_6.3.0_O3.drop_33750M.length_250M.champsimtrace.xz
.xz
CPU 1 runs ./traces/ligra/ligra_BellmanFord.com-lj.ungraph.gcc_6.3.0_O3.drop_33750M.length_250M.champsimtrace.xz
.xz
CPU 2 runs ./traces/ligra/ligra_BellmanFord.com-lj.ungraph.gcc_6.3.0_O3.drop_33750M.length_250M.champsimtrace.xz
.xz
CPU 3 runs ./traces/ligra/ligra_BellmanFord.com-lj.ungraph.gcc_6.3.0_O3.drop_33750M.length_250M.champsimtrace.xz
.xz
BTB has LRU replacement policy
ITLB has LRU replacement policy
DTLB has LRU replacement policy
STLB has LRU replacement policy
L1I has LRU replacement policy
History Sets: 8
History Ways: 16
BERTI Size: 16
BERTI Stride Size: 8
L1D has LRU replacement policy
Initialize SRRIP state for L2C
Initialize DRRIP state for LLC
BTB has LRU replacement policy
ITLB has LRU replacement policy
DTLB has LRU replacement policy
STLB has LRU replacement policy
L1I has LRU replacement policy
History Sets: 8
History Ways: 16
BERTI Size: 16
BERTI Stride Size: 8
L1D has LRU replacement policy
Initialize SRRIP state for L2C
Initialize DRRIP state for LLC
BTB has LRU replacement policy
ITLB has LRU replacement policy
DTLB has LRU replacement policy
STLB has LRU replacement policy
L1I has LRU replacement policy
History Sets: 8
History Ways: 16
BERTI Size: 16
BERTI Stride Size: 8
L1D has LRU replacement policy
Initialize SRRIP state for L2C
Initialize DRRIP state for LLC
BTB has LRU replacement policy
ITLB has LRU replacement policy
DTLB has LRU replacement policy
STLB has LRU replacement policy
L1I has LRU replacement policy
History Sets: 8
History Ways: 16
BERTI Size: 16
BERTI Stride Size: 8
L1D has LRU replacement policy
Initialize SRRIP state for L2C
Initialize DRRIP state for LLC
Heartbeat CPU 1 instructions: 10000001 cycles: 3264989 heartbeat IPC: 3.0628 cumulative IPC: 3.0628 (Simulation time: 0 hr 2 min 59 sec) 
Heartbeat CPU 0 instructions: 10000001 cycles: 3265046 heartbeat IPC: 3.06274 cumulative IPC: 3.06274 (Simulation time: 0 hr 2 min 59 sec) 
Heartbeat CPU 2 instructions: 10000001 cycles: 3265097 heartbeat IPC: 3.0627 cumulative IPC: 3.0627 (Simulation time: 0 hr 2 min 59 sec) 
Heartbeat CPU 3 instructions: 10000001 cycles: 3265135 heartbeat IPC: 3.06266 cumulative IPC: 3.06266 (Simulation time: 0 hr 2 min 59 sec) 
Heartbeat CPU 1 instructions: 20000001 cycles: 6522293 heartbeat IPC: 3.07002 cumulative IPC: 3.06641 (Simulation time: 0 hr 5 min 56 sec) 
Heartbeat CPU 0 instructions: 20000001 cycles: 6522313 heartbeat IPC: 3.07006 cumulative IPC: 3.0664 (Simulation time: 0 hr 5 min 56 sec) 
Heartbeat CPU 2 instructions: 20000001 cycles: 6522362 heartbeat IPC: 3.07006 cumulative IPC: 3.06637 (Simulation time: 0 hr 5 min 56 sec) 
Heartbeat CPU 3 instructions: 20000001 cycles: 6522397 heartbeat IPC: 3.07006 cumulative IPC: 3.06636 (Simulation time: 0 hr 5 min 56 sec) 
Heartbeat CPU 0 instructions: 30000000 cycles: 9766394 heartbeat IPC: 3.08254 cumulative IPC: 3.07176 (Simulation time: 0 hr 8 min 59 sec) 
Heartbeat CPU 1 instructions: 30000000 cycles: 9766428 heartbeat IPC: 3.08249 cumulative IPC: 3.07175 (Simulation time: 0 hr 8 min 59 sec) 
Heartbeat CPU 2 instructions: 30000000 cycles: 9766541 heartbeat IPC: 3.08244 cumulative IPC: 3.07171 (Simulation time: 0 hr 8 min 59 sec) 
Heartbeat CPU 3 instructions: 30000000 cycles: 9766545 heartbeat IPC: 3.08247 cumulative IPC: 3.07171 (Simulation time: 0 hr 8 min 59 sec) 
Heartbeat CPU 0 instructions: 40000000 cycles: 12995244 heartbeat IPC: 3.09708 cumulative IPC: 3.07805 (Simulation time: 0 hr 11 min 47 sec) 
Heartbeat CPU 1 instructions: 40000000 cycles: 12995275 heartbeat IPC: 3.09708 cumulative IPC: 3.07804 (Simulation time: 0 hr 11 min 47 sec) 
Heartbeat CPU 3 instructions: 40000000 cycles: 12995440 heartbeat IPC: 3.09703 cumulative IPC: 3.078 (Simulation time: 0 hr 11 min 47 sec) 
Heartbeat CPU 2 instructions: 40000000 cycles: 12995446 heartbeat IPC: 3.09703 cumulative IPC: 3.078 (Simulation time: 0 hr 11 min 47 sec) 
Heartbeat CPU 0 instructions: 50000000 cycles: 16212081 heartbeat IPC: 3.10864 cumulative IPC: 3.08412 (Simulation time: 0 hr 14 min 50 sec) 
Heartbeat CPU 1 instructions: 50000000 cycles: 16212171 heartbeat IPC: 3.10859 cumulative IPC: 3.0841 (Simulation time: 0 hr 14 min 50 sec) 
Heartbeat CPU 2 instructions: 50000000 cycles: 16212254 heartbeat IPC: 3.10867 cumulative IPC: 3.08409 (Simulation time: 0 hr 14 min 50 sec) 
Heartbeat CPU 3 instructions: 50000000 cycles: 16212269 heartbeat IPC: 3.10865 cumulative IPC: 3.08408 (Simulation time: 0 hr 14 min 50 sec) 

Warmup complete CPU 0 instructions: 50000555 cycles: 16212270 (Simulation time: 0 hr 14 min 50 sec) 
Warmup complete CPU 1 instructions: 50000288 cycles: 16212270 (Simulation time: 0 hr 14 min 50 sec) 
Warmup complete CPU 2 instructions: 50000043 cycles: 16212270 (Simulation time: 0 hr 14 min 50 sec) 
Warmup complete CPU 3 instructions: 50000004 cycles: 16212270 (Simulation time: 0 hr 14 min 50 sec) 

Heartbeat CPU 1 instructions: 60000000 cycles: 58942510 heartbeat IPC: 0.234026 cumulative IPC: 0.23402 (Simulation time: 0 hr 20 min 35 sec) 
Heartbeat CPU 0 instructions: 60000000 cycles: 58957205 heartbeat IPC: 0.233945 cumulative IPC: 0.233933 (Simulation time: 0 hr 20 min 35 sec) 
Heartbeat CPU 3 instructions: 60000000 cycles: 59032620 heartbeat IPC: 0.233534 cumulative IPC: 0.233534 (Simulation time: 0 hr 20 min 36 sec) 
Heartbeat CPU 2 instructions: 60000000 cycles: 59086034 heartbeat IPC: 0.233243 cumulative IPC: 0.233242 (Simulation time: 0 hr 20 min 36 sec) 
Heartbeat CPU 0 instructions: 70000000 cycles: 95264718 heartbeat IPC: 0.275425 cumulative IPC: 0.25299 (Simulation time: 0 hr 26 min 9 sec) 
Heartbeat CPU 1 instructions: 70000000 cycles: 95389919 heartbeat IPC: 0.274368 cumulative IPC: 0.252593 (Simulation time: 0 hr 26 min 10 sec) 
Heartbeat CPU 3 instructions: 70000000 cycles: 95433720 heartbeat IPC: 0.274717 cumulative IPC: 0.252457 (Simulation time: 0 hr 26 min 11 sec) 
Heartbeat CPU 2 instructions: 70000000 cycles: 95494771 heartbeat IPC: 0.274659 cumulative IPC: 0.252262 (Simulation time: 0 hr 26 min 11 sec) 
Heartbeat CPU 0 instructions: 80000001 cycles: 136099841 heartbeat IPC: 0.244887 cumulative IPC: 0.25023 (Simulation time: 0 hr 31 min 46 sec) 
Heartbeat CPU 1 instructions: 80000001 cycles: 136222956 heartbeat IPC: 0.2449 cumulative IPC: 0.249975 (Simulation time: 0 hr 31 min 47 sec) 
Heartbeat CPU 3 instructions: 80000001 cycles: 136361872 heartbeat IPC: 0.244331 cumulative IPC: 0.249689 (Simulation time: 0 hr 31 min 48 sec) 
Heartbeat CPU 2 instructions: 80000001 cycles: 136384909 heartbeat IPC: 0.244558 cumulative IPC: 0.249641 (Simulation time: 0 hr 31 min 48 sec) 
Heartbeat CPU 0 instructions: 90000003 cycles: 178852614 heartbeat IPC: 0.233903 cumulative IPC: 0.245938 (Simulation time: 0 hr 37 min 5 sec) 
Heartbeat CPU 1 instructions: 90000003 cycles: 178931766 heartbeat IPC: 0.234144 cumulative IPC: 0.24582 (Simulation time: 0 hr 37 min 6 sec) 
Heartbeat CPU 3 instructions: 90000003 cycles: 179098379 heartbeat IPC: 0.233992 cumulative IPC: 0.24557 (Simulation time: 0 hr 37 min 8 sec) 
Heartbeat CPU 2 instructions: 90000003 cycles: 179232432 heartbeat IPC: 0.233386 cumulative IPC: 0.245368 (Simulation time: 0 hr 37 min 9 sec) 
Heartbeat CPU 0 instructions: 100000001 cycles: 223414726 heartbeat IPC: 0.224406 cumulative IPC: 0.241307 (Simulation time: 0 hr 42 min 33 sec) 
Heartbeat CPU 1 instructions: 100000001 cycles: 223472595 heartbeat IPC: 0.224513 cumulative IPC: 0.241241 (Simulation time: 0 hr 42 min 34 sec) 
Heartbeat CPU 3 instructions: 100000001 cycles: 223570373 heartbeat IPC: 0.224861 cumulative IPC: 0.241129 (Simulation time: 0 hr 42 min 35 sec) 
Heartbeat CPU 2 instructions: 100000001 cycles: 223679883 heartbeat IPC: 0.224985 cumulative IPC: 0.241001 (Simulation time: 0 hr 42 min 36 sec) 
Heartbeat CPU 0 instructions: 110000000 cycles: 268921878 heartbeat IPC: 0.219746 cumulative IPC: 0.237424 (Simulation time: 0 hr 47 min 51 sec) 
Heartbeat CPU 1 instructions: 110000000 cycles: 268992168 heartbeat IPC: 0.219686 cumulative IPC: 0.23736 (Simulation time: 0 hr 47 min 52 sec) 
Heartbeat CPU 3 instructions: 110000000 cycles: 269047007 heartbeat IPC: 0.219893 cumulative IPC: 0.237309 (Simulation time: 0 hr 47 min 52 sec) 
Heartbeat CPU 2 instructions: 110000000 cycles: 269223688 heartbeat IPC: 0.219569 cumulative IPC: 0.237143 (Simulation time: 0 hr 47 min 53 sec) 
Heartbeat CPU 0 instructions: 120000001 cycles: 312644824 heartbeat IPC: 0.228713 cumulative IPC: 0.23614 (Simulation time: 0 hr 52 min 55 sec) 
Heartbeat CPU 3 instructions: 120000001 cycles: 312767347 heartbeat IPC: 0.228727 cumulative IPC: 0.236044 (Simulation time: 0 hr 52 min 56 sec) 
Heartbeat CPU 1 instructions: 120000001 cycles: 312782336 heartbeat IPC: 0.228362 cumulative IPC: 0.236031 (Simulation time: 0 hr 52 min 56 sec) 
Heartbeat CPU 2 instructions: 120000001 cycles: 313016586 heartbeat IPC: 0.228348 cumulative IPC: 0.235845 (Simulation time: 0 hr 52 min 59 sec) 
Heartbeat CPU 0 instructions: 130000003 cycles: 352689947 heartbeat IPC: 0.249718 cumulative IPC: 0.237756 (Simulation time: 0 hr 57 min 57 sec) 
Heartbeat CPU 1 instructions: 130000003 cycles: 352782616 heartbeat IPC: 0.249998 cumulative IPC: 0.237691 (Simulation time: 0 hr 57 min 58 sec) 
Heartbeat CPU 3 instructions: 130000003 cycles: 352858341 heartbeat IPC: 0.249433 cumulative IPC: 0.237638 (Simulation time: 0 hr 57 min 58 sec) 
Heartbeat CPU 2 instructions: 130000003 cycles: 353114821 heartbeat IPC: 0.249388 cumulative IPC: 0.237457 (Simulation time: 0 hr 58 min 0 sec) 
Heartbeat CPU 0 instructions: 140000001 cycles: 400839644 heartbeat IPC: 0.207686 cumulative IPC: 0.233991 (Simulation time: 1 hr 2 min 58 sec) 
Heartbeat CPU 3 instructions: 140000001 cycles: 401012405 heartbeat IPC: 0.207667 cumulative IPC: 0.233888 (Simulation time: 1 hr 2 min 58 sec) 
Heartbeat CPU 1 instructions: 140000001 cycles: 401023721 heartbeat IPC: 0.207292 cumulative IPC: 0.23388 (Simulation time: 1 hr 2 min 58 sec) 
Heartbeat CPU 2 instructions: 140000001 cycles: 401407056 heartbeat IPC: 0.207073 cumulative IPC: 0.233648 (Simulation time: 1 hr 3 min 1 sec) 
Heartbeat CPU 0 instructions: 150000000 cycles: 443155823 heartbeat IPC: 0.236316 cumulative IPC: 0.234222 (Simulation time: 1 hr 7 min 50 sec) 
Heartbeat CPU 1 instructions: 150000000 cycles: 443257367 heartbeat IPC: 0.236778 cumulative IPC: 0.234167 (Simulation time: 1 hr 7 min 50 sec) 
Heartbeat CPU 3 instructions: 150000000 cycles: 443281575 heartbeat IPC: 0.236579 cumulative IPC: 0.234154 (Simulation time: 1 hr 7 min 51 sec) 
Heartbeat CPU 2 instructions: 150000000 cycles: 443682049 heartbeat IPC: 0.236546 cumulative IPC: 0.233935 (Simulation time: 1 hr 7 min 53 sec) 
Heartbeat CPU 0 instructions: 160000000 cycles: 484345020 heartbeat IPC: 0.242782 cumulative IPC: 0.234975 (Simulation time: 1 hr 12 min 32 sec) 
Heartbeat CPU 1 instructions: 160000000 cycles: 484500403 heartbeat IPC: 0.242465 cumulative IPC: 0.234897 (Simulation time: 1 hr 12 min 33 sec) 
Heartbeat CPU 3 instructions: 160000000 cycles: 484509839 heartbeat IPC: 0.242552 cumulative IPC: 0.234893 (Simulation time: 1 hr 12 min 33 sec) 
Heartbeat CPU 2 instructions: 160000000 cycles: 484969851 heartbeat IPC: 0.242202 cumulative IPC: 0.234663 (Simulation time: 1 hr 12 min 36 sec) 
Heartbeat CPU 0 instructions: 170000003 cycles: 529211530 heartbeat IPC: 0.222883 cumulative IPC: 0.233917 (Simulation time: 1 hr 17 min 17 sec) 
Heartbeat CPU 3 instructions: 170000003 cycles: 529429248 heartbeat IPC: 0.222621 cumulative IPC: 0.233819 (Simulation time: 1 hr 17 min 19 sec) 
Heartbeat CPU 1 instructions: 170000003 cycles: 529438432 heartbeat IPC: 0.222529 cumulative IPC: 0.233814 (Simulation time: 1 hr 17 min 19 sec) 
Heartbeat CPU 2 instructions: 170000003 cycles: 529890848 heartbeat IPC: 0.222613 cumulative IPC: 0.233609 (Simulation time: 1 hr 17 min 21 sec) 
Heartbeat CPU 0 instructions: 180000000 cycles: 567936819 heartbeat IPC: 0.258229 cumulative IPC: 0.235624 (Simulation time: 1 hr 21 min 48 sec) 
Heartbeat CPU 1 instructions: 180000000 cycles: 568241126 heartbeat IPC: 0.257714 cumulative IPC: 0.235494 (Simulation time: 1 hr 21 min 51 sec) 
Heartbeat CPU 3 instructions: 180000000 cycles: 568245947 heartbeat IPC: 0.257621 cumulative IPC: 0.235493 (Simulation time: 1 hr 21 min 51 sec) 
Heartbeat CPU 2 instructions: 180000000 cycles: 568710582 heartbeat IPC: 0.257601 cumulative IPC: 0.235295 (Simulation time: 1 hr 21 min 56 sec) 
Heartbeat CPU 0 instructions: 190000001 cycles: 597441708 heartbeat IPC: 0.338927 cumulative IPC: 0.240868 (Simulation time: 1 hr 26 min 8 sec) 
Heartbeat CPU 1 instructions: 190000001 cycles: 597791953 heartbeat IPC: 0.3384 cumulative IPC: 0.240723 (Simulation time: 1 hr 26 min 12 sec) 
Heartbeat CPU 3 instructions: 190000001 cycles: 597831688 heartbeat IPC: 0.338001 cumulative IPC: 0.240707 (Simulation time: 1 hr 26 min 13 sec) 
Heartbeat CPU 2 instructions: 190000001 cycles: 598305313 heartbeat IPC: 0.337898 cumulative IPC: 0.240511 (Simulation time: 1 hr 26 min 18 sec) 
Heartbeat CPU 0 instructions: 200000000 cycles: 614789201 heartbeat IPC: 0.576452 cumulative IPC: 0.250593 (Simulation time: 1 hr 29 min 34 sec) 
Heartbeat CPU 1 instructions: 200000000 cycles: 615073553 heartbeat IPC: 0.57865 cumulative IPC: 0.250475 (Simulation time: 1 hr 29 min 39 sec) 
Heartbeat CPU 3 instructions: 200000000 cycles: 615096591 heartbeat IPC: 0.57921 cumulative IPC: 0.250466 (Simulation time: 1 hr 29 min 39 sec) 
Heartbeat CPU 2 instructions: 200000000 cycles: 615491473 heartbeat IPC: 0.581863 cumulative IPC: 0.250301 (Simulation time: 1 hr 29 min 48 sec) 
Heartbeat CPU 0 instructions: 210000002 cycles: 623131338 heartbeat IPC: 1.19873 cumulative IPC: 0.263626 (Simulation time: 1 hr 32 min 8 sec) 
Heartbeat CPU 1 instructions: 210000002 cycles: 623415690 heartbeat IPC: 1.19873 cumulative IPC: 0.263503 (Simulation time: 1 hr 32 min 13 sec) 
Heartbeat CPU 3 instructions: 210000002 cycles: 623438728 heartbeat IPC: 1.19873 cumulative IPC: 0.263493 (Simulation time: 1 hr 32 min 14 sec) 
Heartbeat CPU 2 instructions: 210000002 cycles: 623833610 heartbeat IPC: 1.19873 cumulative IPC: 0.263322 (Simulation time: 1 hr 32 min 20 sec) 
Heartbeat CPU 0 instructions: 220000000 cycles: 632106122 heartbeat IPC: 1.11423 cumulative IPC: 0.276021 (Simulation time: 1 hr 34 min 45 sec) 
Heartbeat CPU 1 instructions: 220000000 cycles: 632390494 heartbeat IPC: 1.11423 cumulative IPC: 0.275894 (Simulation time: 1 hr 34 min 50 sec) 
Heartbeat CPU 3 instructions: 220000000 cycles: 632412966 heartbeat IPC: 1.1143 cumulative IPC: 0.275884 (Simulation time: 1 hr 34 min 50 sec) 
Heartbeat CPU 2 instructions: 220000000 cycles: 632807842 heartbeat IPC: 1.1143 cumulative IPC: 0.275707 (Simulation time: 1 hr 34 min 57 sec) 
Heartbeat CPU 0 instructions: 230000000 cycles: 643194094 heartbeat IPC: 0.901878 cumulative IPC: 0.287089 (Simulation time: 1 hr 37 min 50 sec) 
Heartbeat CPU 1 instructions: 230000000 cycles: 643498735 heartbeat IPC: 0.900233 cumulative IPC: 0.28695 (Simulation time: 1 hr 37 min 54 sec) 
Heartbeat CPU 3 instructions: 230000000 cycles: 643517936 heartbeat IPC: 0.900498 cumulative IPC: 0.286941 (Simulation time: 1 hr 37 min 54 sec) 
Heartbeat CPU 2 instructions: 230000000 cycles: 643964564 heartbeat IPC: 0.896321 cumulative IPC: 0.286737 (Simulation time: 1 hr 38 min 0 sec) 
Heartbeat CPU 0 instructions: 240000002 cycles: 659019679 heartbeat IPC: 0.631888 cumulative IPC: 0.295578 (Simulation time: 1 hr 41 min 15 sec) 
Heartbeat CPU 1 instructions: 240000002 cycles: 659282458 heartbeat IPC: 0.633564 cumulative IPC: 0.295457 (Simulation time: 1 hr 41 min 17 sec) 
Heartbeat CPU 3 instructions: 240000002 cycles: 659326383 heartbeat IPC: 0.632573 cumulative IPC: 0.295437 (Simulation time: 1 hr 41 min 18 sec) 
Heartbeat CPU 2 instructions: 240000002 cycles: 659850633 heartbeat IPC: 0.629482 cumulative IPC: 0.295197 (Simulation time: 1 hr 41 min 25 sec) 
*** Reached end of trace for Core: 0 Repeating trace: ./traces/ligra/ligra_BellmanFord.com-lj.ungraph.gcc_6.3.0_O3.drop_33750M.length_250M.champsimtrace.xz
Heartbeat CPU 0 instructions: 250000001 cycles: 667771642 heartbeat IPC: 1.1426 cumulative IPC: 0.306955 (Simulation time: 1 hr 43 min 46 sec) 
Finished CPU 0 instructions: 200000001 cycles: 651571217 cumulative IPC: 0.30695 (Simulation time: 1 hr 43 min 46 sec) 
*** Reached end of trace for Core: 1 Repeating trace: ./traces/ligra/ligra_BellmanFord.com-lj.ungraph.gcc_6.3.0_O3.drop_33750M.length_250M.champsimtrace.xz
Heartbeat CPU 1 instructions: 250000001 cycles: 667965468 heartbeat IPC: 1.15167 cumulative IPC: 0.306864 (Simulation time: 1 hr 43 min 48 sec) 
Finished CPU 1 instructions: 200000000 cycles: 651764008 cumulative IPC: 0.30686 (Simulation time: 1 hr 43 min 48 sec) 
*** Reached end of trace for Core: 3 Repeating trace: ./traces/ligra/ligra_BellmanFord.com-lj.ungraph.gcc_6.3.0_O3.drop_33750M.length_250M.champsimtrace.xz
Heartbeat CPU 3 instructions: 250000001 cycles: 668001459 heartbeat IPC: 1.15273 cumulative IPC: 0.306848 (Simulation time: 1 hr 43 min 49 sec) 
Finished CPU 3 instructions: 200000000 cycles: 651792934 cumulative IPC: 0.306846 (Simulation time: 1 hr 43 min 49 sec) 
*** Reached end of trace for Core: 2 Repeating trace: ./traces/ligra/ligra_BellmanFord.com-lj.ungraph.gcc_6.3.0_O3.drop_33750M.length_250M.champsimtrace.xz
Heartbeat CPU 2 instructions: 250000001 cycles: 668475223 heartbeat IPC: 1.15948 cumulative IPC: 0.306625 (Simulation time: 1 hr 43 min 53 sec) 
Finished CPU 2 instructions: 200000000 cycles: 652267938 cumulative IPC: 0.306622 (Simulation time: 1 hr 43 min 53 sec) 

ChampSim completed all CPUs

Total Simulation Statistics (not including warmup)

CPU 0 cumulative IPC: 0.306801 instructions: 200116623 cycles: 652267938
ITLB TOTAL     ACCESS:   34852570  HIT:   34852561  MISS:          9  HIT %:        100  MISS %: 2.58231e-05   MPKI: 4.49738e-05
ITLB LOAD      ACCESS:          0  HIT:          0  MISS:          0  HIT %:       -nan  MISS %:       -nan   MPKI: 0
ITLB RFO       ACCESS:          0  HIT:          0  MISS:          0  HIT %:       -nan  MISS %:       -nan   MPKI: 0
ITLB PREFETCH  ACCESS:          0  HIT:          0  MISS:          0  HIT %:       -nan  MISS %:       -nan   MPKI: 0
ITLB WRITEBACK ACCESS:          0  HIT:          0  MISS:          0  HIT %:       -nan  MISS %:       -nan   MPKI: 0
DTLB TOTAL     ACCESS:   40118233  HIT:   38213424  MISS:    1904809  HIT %:     95.252  MISS %:    4.74799   MPKI: 9.51849
DTLB LOAD      ACCESS:          0  HIT:          0  MISS:          0  HIT %:       -nan  MISS %:       -nan   MPKI: 0
DTLB RFO       ACCESS:          0  HIT:          0  MISS:          0  HIT %:       -nan  MISS %:       -nan   MPKI: 0
DTLB PREFETCH  ACCESS:          0  HIT:          0  MISS:          0  HIT %:       -nan  MISS %:       -nan   MPKI: 0
DTLB WRITEBACK ACCESS:          0  HIT:          0  MISS:          0  HIT %:       -nan  MISS %:       -nan   MPKI: 0
STLB TOTAL     ACCESS:   23251868  HIT:   22539203  MISS:     712665  HIT %:     96.935  MISS %:    3.06498   MPKI: 3.56125
STLB LOAD      ACCESS:          0  HIT:          0  MISS:          0  HIT %:       -nan  MISS %:       -nan   MPKI: 0
STLB RFO       ACCESS:          0  HIT:          0  MISS:          0  HIT %:       -nan  MISS %:       -nan   MPKI: 0
STLB PREFETCH  ACCESS:          0  HIT:          0  MISS:          0  HIT %:       -nan  MISS %:       -nan   MPKI: 0
STLB WRITEBACK ACCESS:          0  HIT:          0  MISS:          0  HIT %:       -nan  MISS %:       -nan   MPKI: 0
L1D TOTAL     ACCESS:  117294766  HIT:  112218259  MISS:    5076507  HIT %:     95.672  MISS %:    4.32799   MPKI: 25.3677
L1D LOAD      ACCESS:   39417549  HIT:   36837571  MISS:    2579978  HIT %:    93.4547  MISS %:    6.54525   MPKI: 12.8924
L1D RFO       ACCESS:    1388973  HIT:    1068941  MISS:     320032  HIT %:    76.9591  MISS %:    23.0409   MPKI: 1.59923
L1D PREFETCH  ACCESS:   76488244  HIT:   74311747  MISS:    2176497  HIT %:    97.1545  MISS %:    2.84553   MPKI: 10.8761
L1D WRITEBACK ACCESS:          0  HIT:          0  MISS:          0  HIT %:       -nan  MISS %:       -nan   MPKI: 0
L1I TOTAL     ACCESS:   35729887  HIT:   35729791  MISS:         96  HIT %:    99.9997  MISS %: 0.000268683   MPKI: 0.00047972
L1I LOAD      ACCESS:   35729887  HIT:   35729791  MISS:         96  HIT %:    99.9997  MISS %: 0.000268683   MPKI: 0.00047972
L1I RFO       ACCESS:          0  HIT:          0  MISS:          0  HIT %:       -nan  MISS %:       -nan   MPKI: 0
L1I PREFETCH  ACCESS:          0  HIT:          0  MISS:          0  HIT %:       -nan  MISS %:       -nan   MPKI: 0
L1I WRITEBACK ACCESS:          0  HIT:          0  MISS:          0  HIT %:       -nan  MISS %:       -nan   MPKI: 0
L2C TOTAL     ACCESS:   32858423  HIT:   27314851  MISS:    5543572  HIT %:    83.1289  MISS %:    16.8711   MPKI: 27.7017
L2C LOAD      ACCESS:    2552659  HIT:     505075  MISS:    2047584  HIT %:    19.7862  MISS %:    80.2138   MPKI: 10.232
L2C RFO       ACCESS:     320029  HIT:       7450  MISS:     312579  HIT %:    2.32791  MISS %:    97.6721   MPKI: 1.56198
L2C PREFETCH  ACCESS:   27164161  HIT:   24203175  MISS:    2960986  HIT %:    89.0997  MISS %:    10.9003   MPKI: 14.7963
L2C WRITEBACK ACCESS:     808471  HIT:     751521  MISS:      56950  HIT %:    92.9558  MISS %:    7.04416   MPKI: 0.284584
PSCL5 TOTAL     ACCESS:    2012620  HIT:    2012620  MISS:          0  HIT %:        100  MISS %:          0   MPKI: 0
PSCL5 LOAD      ACCESS:          0  HIT:          0  MISS:          0  HIT %:       -nan  MISS %:       -nan   MPKI: 0
PSCL5 RFO       ACCESS:          0  HIT:          0  MISS:          0  HIT %:       -nan  MISS %:       -nan   MPKI: 0
PSCL5 PREFETCH  ACCESS:          0  HIT:          0  MISS:          0  HIT %:       -nan  MISS %:       -nan   MPKI: 0
PSCL5 WRITEBACK ACCESS:          0  HIT:          0  MISS:          0  HIT %:       -nan  MISS %:       -nan   MPKI: 0
PSCL4 TOTAL     ACCESS:    2012620  HIT:    2012620  MISS:          0  HIT %:        100  MISS %:          0   MPKI: 0
PSCL4 LOAD      ACCESS:          0  HIT:          0  MISS:          0  HIT %:       -nan  MISS %:       -nan   MPKI: 0
PSCL4 RFO       ACCESS:          0  HIT:          0  MISS:          0  HIT %:       -nan  MISS %:       -nan   MPKI: 0
PSCL4 PREFETCH  ACCESS:          0  HIT:          0  MISS:          0  HIT %:       -nan  MISS %:       -nan   MPKI: 0
PSCL4 WRITEBACK ACCESS:          0  HIT:          0  MISS:          0  HIT %:       -nan  MISS %:       -nan   MPKI: 0
PSCL3 TOTAL     ACCESS:    2012620  HIT:    2012619  MISS:          1  HIT %:        100  MISS %: 4.96865e-05   MPKI: 4.99709e-06
PSCL3 LOAD      ACCESS:          0  HIT:          0  MISS:          0  HIT %:       -nan  MISS %:       -nan   MPKI: 0
PSCL3 RFO       ACCESS:          0  HIT:          0  MISS:          0  HIT %:       -nan  MISS %:       -nan   MPKI: 0
PSCL3 PREFETCH  ACCESS:          0  HIT:          0  MISS:          0  HIT %:       -nan  MISS %:       -nan   MPKI: 0
PSCL3 WRITEBACK ACCESS:          0  HIT:          0  MISS:          0  HIT %:       -nan  MISS %:       -nan   MPKI: 0
PSCL2 TOTAL     ACCESS:    2009746  HIT:    2009595  MISS:        151  HIT %:    99.9925  MISS %: 0.00751339   MPKI: 0.00075456
PSCL2 LOAD      ACCESS:          0  HIT:          0  MISS:          0  HIT %:       -nan  MISS %:       -nan   MPKI: 0
PSCL2 RFO       ACCESS:          0  HIT:          0  MISS:          0  HIT %:       -nan  MISS %:       -nan   MPKI: 0
PSCL2 PREFETCH  ACCESS:          0  HIT:          0  MISS:          0  HIT %:       -nan  MISS %:       -nan   MPKI: 0
PSCL2 WRITEBACK ACCESS:          0  HIT:          0  MISS:          0  HIT %:       -nan  MISS %:       -nan   MPKI: 0
LLC TOTAL     ACCESS:    6277916  HIT:    1285143  MISS:    4992773  HIT %:    20.4709  MISS %:    79.5291   MPKI: 24.9493
LLC LOAD      ACCESS:    2029690  HIT:     297477  MISS:    1732213  HIT %:    14.6563  MISS %:    85.3437   MPKI: 8.65602
LLC RFO       ACCESS:     312579  HIT:       9183  MISS:     303396  HIT %:    2.93782  MISS %:    97.0622   MPKI: 1.5161
LLC PREFETCH  ACCESS:    2978880  HIT:      62485  MISS:    2916395  HIT %:     2.0976  MISS %:    97.9024   MPKI: 14.5735
LLC WRITEBACK ACCESS:     791294  HIT:     759804  MISS:      31490  HIT %:    96.0204  MISS %:    3.97956   MPKI: 0.157358

RAW hits: 86
Loads Generated: 56722535
Loads sent to L1D: 56722449
Stores Generated: 1808521
Stores sent to L1D: 1808519

CPU 1 cumulative IPC: 0.306716 instructions: 200060858 cycles: 652267938
ITLB TOTAL     ACCESS:   34843154  HIT:   34843145  MISS:          9  HIT %:        100  MISS %:  2.583e-05   MPKI: 4.49863e-05
ITLB LOAD      ACCESS:          0  HIT:          0  MISS:          0  HIT %:       -nan  MISS %:       -nan   MPKI: 0
ITLB RFO       ACCESS:          0  HIT:          0  MISS:          0  HIT %:       -nan  MISS %:       -nan   MPKI: 0
ITLB PREFETCH  ACCESS:          0  HIT:          0  MISS:          0  HIT %:       -nan  MISS %:       -nan   MPKI: 0
ITLB WRITEBACK ACCESS:          0  HIT:          0  MISS:          0  HIT %:       -nan  MISS %:       -nan   MPKI: 0
DTLB TOTAL     ACCESS:   40109989  HIT:   38206446  MISS:    1903543  HIT %:    95.2542  MISS %:    4.74581   MPKI: 9.51482
DTLB LOAD      ACCESS:          0  HIT:          0  MISS:          0  HIT %:       -nan  MISS %:       -nan   MPKI: 0
DTLB RFO       ACCESS:          0  HIT:          0  MISS:          0  HIT %:       -nan  MISS %:       -nan   MPKI: 0
DTLB PREFETCH  ACCESS:          0  HIT:          0  MISS:          0  HIT %:       -nan  MISS %:       -nan   MPKI: 0
DTLB WRITEBACK ACCESS:          0  HIT:          0  MISS:          0  HIT %:       -nan  MISS %:       -nan   MPKI: 0
STLB TOTAL     ACCESS:   23205302  HIT:   22493064  MISS:     712238  HIT %:    96.9307  MISS %:    3.06929   MPKI: 3.56011
STLB LOAD      ACCESS:          0  HIT:          0  MISS:          0  HIT %:       -nan  MISS %:       -nan   MPKI: 0
STLB RFO       ACCESS:          0  HIT:          0  MISS:          0  HIT %:       -nan  MISS %:       -nan   MPKI: 0
STLB PREFETCH  ACCESS:          0  HIT:          0  MISS:          0  HIT %:       -nan  MISS %:       -nan   MPKI: 0
STLB WRITEBACK ACCESS:          0  HIT:          0  MISS:          0  HIT %:       -nan  MISS %:       -nan   MPKI: 0
L1D TOTAL     ACCESS:  116975253  HIT:  111903159  MISS:    5072094  HIT %:     95.664  MISS %:    4.33604   MPKI: 25.3528
L1D LOAD      ACCESS:   39411356  HIT:   36832439  MISS:    2578917  HIT %:    93.4564  MISS %:    6.54359   MPKI: 12.8907
L1D RFO       ACCESS:    1389140  HIT:    1069128  MISS:     320012  HIT %:    76.9633  MISS %:    23.0367   MPKI: 1.59957
L1D PREFETCH  ACCESS:   76174757  HIT:   74001592  MISS:    2173165  HIT %:    97.1471  MISS %:    2.85287   MPKI: 10.8625
L1D WRITEBACK ACCESS:          0  HIT:          0  MISS:          0  HIT %:       -nan  MISS %:       -nan   MPKI: 0
L1I TOTAL     ACCESS:   35720433  HIT:   35720337  MISS:         96  HIT %:    99.9997  MISS %: 0.000268754   MPKI: 0.000479854
L1I LOAD      ACCESS:   35720433  HIT:   35720337  MISS:         96  HIT %:    99.9997  MISS %: 0.000268754   MPKI: 0.000479854
L1I RFO       ACCESS:          0  HIT:          0  MISS:          0  HIT %:       -nan  MISS %:       -nan   MPKI: 0
L1I PREFETCH  ACCESS:          0  HIT:          0  MISS:          0  HIT %:       -nan  MISS %:       -nan   MPKI: 0
L1I WRITEBACK ACCESS:          0  HIT:          0  MISS:          0  HIT %:       -nan  MISS %:       -nan   MPKI: 0
L2C TOTAL     ACCESS:   32875361  HIT:   27338980  MISS:    5536381  HIT %:    83.1595  MISS %:    16.8405   MPKI: 27.6735
L2C LOAD      ACCESS:    2551658  HIT:     505375  MISS:    2046283  HIT %:    19.8057  MISS %:    80.1943   MPKI: 10.2283
L2C RFO       ACCESS:     320009  HIT:       7372  MISS:     312637  HIT %:    2.30369  MISS %:    97.6963   MPKI: 1.56271
L2C PREFETCH  ACCESS:   27145603  HIT:   24186316  MISS:    2959287  HIT %:    89.0985  MISS %:    10.9015   MPKI: 14.7919
L2C WRITEBACK ACCESS:     808444  HIT:     750372  MISS:      58072  HIT %:    92.8168  MISS %:    7.18318   MPKI: 0.290272
PSCL5 TOTAL     ACCESS:    2049186  HIT:    2049186  MISS:          0  HIT %:        100  MISS %:          0   MPKI: 0
PSCL5 LOAD      ACCESS:          0  HIT:          0  MISS:          0  HIT %:       -nan  MISS %:       -nan   MPKI: 0
PSCL5 RFO       ACCESS:          0  HIT:          0  MISS:          0  HIT %:       -nan  MISS %:       -nan   MPKI: 0
PSCL5 PREFETCH  ACCESS:          0  HIT:          0  MISS:          0  HIT %:       -nan  MISS %:       -nan   MPKI: 0
PSCL5 WRITEBACK ACCESS:          0  HIT:          0  MISS:          0  HIT %:       -nan  MISS %:       -nan   MPKI: 0
PSCL4 TOTAL     ACCESS:    2049186  HIT:    2049186  MISS:          0  HIT %:        100  MISS %:          0   MPKI: 0
PSCL4 LOAD      ACCESS:          0  HIT:          0  MISS:          0  HIT %:       -nan  MISS %:       -nan   MPKI: 0
PSCL4 RFO       ACCESS:          0  HIT:          0  MISS:          0  HIT %:       -nan  MISS %:       -nan   MPKI: 0
PSCL4 PREFETCH  ACCESS:          0  HIT:          0  MISS:          0  HIT %:       -nan  MISS %:       -nan   MPKI: 0
PSCL4 WRITEBACK ACCESS:          0  HIT:          0  MISS:          0  HIT %:       -nan  MISS %:       -nan   MPKI: 0
PSCL3 TOTAL     ACCESS:    2049186  HIT:    2049185  MISS:          1  HIT %:        100  MISS %: 4.87999e-05   MPKI: 4.99848e-06
PSCL3 LOAD      ACCESS:          0  HIT:          0  MISS:          0  HIT %:       -nan  MISS %:       -nan   MPKI: 0
PSCL3 RFO       ACCESS:          0  HIT:          0  MISS:          0  HIT %:       -nan  MISS %:       -nan   MPKI: 0
PSCL3 PREFETCH  ACCESS:          0  HIT:          0  MISS:          0  HIT %:       -nan  MISS %:       -nan   MPKI: 0
PSCL3 WRITEBACK ACCESS:          0  HIT:          0  MISS:          0  HIT %:       -nan  MISS %:       -nan   MPKI: 0
PSCL2 TOTAL     ACCESS:    2046289  HIT:    2046138  MISS:        151  HIT %:    99.9926  MISS %: 0.00737921   MPKI: 0.00075477
PSCL2 LOAD      ACCESS:          0  HIT:          0  MISS:          0  HIT %:       -nan  MISS %:       -nan   MPKI: 0
PSCL2 RFO       ACCESS:          0  HIT:          0  MISS:          0  HIT %:       -nan  MISS %:       -nan   MPKI: 0
PSCL2 PREFETCH  ACCESS:          0  HIT:          0  MISS:          0  HIT %:       -nan  MISS %:       -nan   MPKI: 0
PSCL2 WRITEBACK ACCESS:          0  HIT:          0  MISS:          0  HIT %:       -nan  MISS %:       -nan   MPKI: 0
LLC TOTAL     ACCESS:    6269609  HIT:    1279741  MISS:    4989868  HIT %:    20.4118  MISS %:    79.5882   MPKI: 24.9418
LLC LOAD      ACCESS:    2028592  HIT:     296865  MISS:    1731727  HIT %:     14.634  MISS %:     85.366   MPKI: 8.656
LLC RFO       ACCESS:     312637  HIT:       9316  MISS:     303321  HIT %:    2.97981  MISS %:    97.0202   MPKI: 1.51614
LLC PREFETCH  ACCESS:    2976978  HIT:      62626  MISS:    2914352  HIT %:    2.10368  MISS %:    97.8963   MPKI: 14.5673
LLC WRITEBACK ACCESS:     791300  HIT:     760132  MISS:      31168  HIT %:    96.0612  MISS %:    3.93883   MPKI: 0.155793

RAW hits: 86
Loads Generated: 56701949
Loads sent to L1D: 56701863
Stores Generated: 1808425
Stores sent to L1D: 1808425

CPU 2 cumulative IPC: 0.306622 instructions: 200000000 cycles: 652267938
ITLB TOTAL     ACCESS:   34833270  HIT:   34833261  MISS:          9  HIT %:        100  MISS %: 2.58374e-05   MPKI: 4.5e-05
ITLB LOAD      ACCESS:          0  HIT:          0  MISS:          0  HIT %:       -nan  MISS %:       -nan   MPKI: 0
ITLB RFO       ACCESS:          0  HIT:          0  MISS:          0  HIT %:       -nan  MISS %:       -nan   MPKI: 0
ITLB PREFETCH  ACCESS:          0  HIT:          0  MISS:          0  HIT %:       -nan  MISS %:       -nan   MPKI: 0
ITLB WRITEBACK ACCESS:          0  HIT:          0  MISS:          0  HIT %:       -nan  MISS %:       -nan   MPKI: 0
DTLB TOTAL     ACCESS:   40092739  HIT:   38190637  MISS:    1902102  HIT %:    95.2557  MISS %:    4.74426   MPKI: 9.51051
DTLB LOAD      ACCESS:          0  HIT:          0  MISS:          0  HIT %:       -nan  MISS %:       -nan   MPKI: 0
DTLB RFO       ACCESS:          0  HIT:          0  MISS:          0  HIT %:       -nan  MISS %:       -nan   MPKI: 0
DTLB PREFETCH  ACCESS:          0  HIT:          0  MISS:          0  HIT %:       -nan  MISS %:       -nan   MPKI: 0
DTLB WRITEBACK ACCESS:          0  HIT:          0  MISS:          0  HIT %:       -nan  MISS %:       -nan   MPKI: 0
STLB TOTAL     ACCESS:   23151677  HIT:   22440317  MISS:     711360  HIT %:    96.9274  MISS %:    3.07261   MPKI: 3.5568
STLB LOAD      ACCESS:          0  HIT:          0  MISS:          0  HIT %:       -nan  MISS %:       -nan   MPKI: 0
STLB RFO       ACCESS:          0  HIT:          0  MISS:          0  HIT %:       -nan  MISS %:       -nan   MPKI: 0
STLB PREFETCH  ACCESS:          0  HIT:          0  MISS:          0  HIT %:       -nan  MISS %:       -nan   MPKI: 0
STLB WRITEBACK ACCESS:          0  HIT:          0  MISS:          0  HIT %:       -nan  MISS %:       -nan   MPKI: 0
L1D TOTAL     ACCESS:  116643520  HIT:  111572794  MISS:    5070726  HIT %:    95.6528  MISS %:     4.3472   MPKI: 25.3536
L1D LOAD      ACCESS:   39391737  HIT:   36815726  MISS:    2576011  HIT %:    93.4605  MISS %:    6.53947   MPKI: 12.8801
L1D RFO       ACCESS:    1388326  HIT:    1068362  MISS:     319964  HIT %:    76.9533  MISS %:    23.0467   MPKI: 1.59982
L1D PREFETCH  ACCESS:   75863457  HIT:   73688706  MISS:    2174751  HIT %:    97.1333  MISS %:    2.86666   MPKI: 10.8738
L1D WRITEBACK ACCESS:          0  HIT:          0  MISS:          0  HIT %:       -nan  MISS %:       -nan   MPKI: 0
L1I TOTAL     ACCESS:   35710387  HIT:   35710291  MISS:         96  HIT %:    99.9997  MISS %: 0.000268829   MPKI: 0.00048
L1I LOAD      ACCESS:   35710387  HIT:   35710291  MISS:         96  HIT %:    99.9997  MISS %: 0.000268829   MPKI: 0.00048
L1I RFO       ACCESS:          0  HIT:          0  MISS:          0  HIT %:       -nan  MISS %:       -nan   MPKI: 0
L1I PREFETCH  ACCESS:          0  HIT:          0  MISS:          0  HIT %:       -nan  MISS %:       -nan   MPKI: 0
L1I WRITEBACK ACCESS:          0  HIT:          0  MISS:          0  HIT %:       -nan  MISS %:       -nan   MPKI: 0
L2C TOTAL     ACCESS:   33109466  HIT:   27573722  MISS:    5535744  HIT %:    83.2805  MISS %:    16.7195   MPKI: 27.6787
L2C LOAD      ACCESS:    2548947  HIT:     504722  MISS:    2044225  HIT %:    19.8012  MISS %:    80.1988   MPKI: 10.2211
L2C RFO       ACCESS:     319962  HIT:       7389  MISS:     312573  HIT %:    2.30934  MISS %:    97.6907   MPKI: 1.56286
L2C PREFETCH  ACCESS:   27372006  HIT:   24415358  MISS:    2956648  HIT %:    89.1983  MISS %:    10.8017   MPKI: 14.7832
L2C WRITEBACK ACCESS:     808275  HIT:     750082  MISS:      58193  HIT %:    92.8003  MISS %:    7.19965   MPKI: 0.290965
PSCL5 TOTAL     ACCESS:    2059821  HIT:    2059821  MISS:          0  HIT %:        100  MISS %:          0   MPKI: 0
PSCL5 LOAD      ACCESS:          0  HIT:          0  MISS:          0  HIT %:       -nan  MISS %:       -nan   MPKI: 0
PSCL5 RFO       ACCESS:          0  HIT:          0  MISS:          0  HIT %:       -nan  MISS %:       -nan   MPKI: 0
PSCL5 PREFETCH  ACCESS:          0  HIT:          0  MISS:          0  HIT %:       -nan  MISS %:       -nan   MPKI: 0
PSCL5 WRITEBACK ACCESS:          0  HIT:          0  MISS:          0  HIT %:       -nan  MISS %:       -nan   MPKI: 0
PSCL4 TOTAL     ACCESS:    2059821  HIT:    2059821  MISS:          0  HIT %:        100  MISS %:          0   MPKI: 0
PSCL4 LOAD      ACCESS:          0  HIT:          0  MISS:          0  HIT %:       -nan  MISS %:       -nan   MPKI: 0
PSCL4 RFO       ACCESS:          0  HIT:          0  MISS:          0  HIT %:       -nan  MISS %:       -nan   MPKI: 0
PSCL4 PREFETCH  ACCESS:          0  HIT:          0  MISS:          0  HIT %:       -nan  MISS %:       -nan   MPKI: 0
PSCL4 WRITEBACK ACCESS:          0  HIT:          0  MISS:          0  HIT %:       -nan  MISS %:       -nan   MPKI: 0
PSCL3 TOTAL     ACCESS:    2059821  HIT:    2059820  MISS:          1  HIT %:        100  MISS %: 4.85479e-05   MPKI: 5e-06
PSCL3 LOAD      ACCESS:          0  HIT:          0  MISS:          0  HIT %:       -nan  MISS %:       -nan   MPKI: 0
PSCL3 RFO       ACCESS:          0  HIT:          0  MISS:          0  HIT %:       -nan  MISS %:       -nan   MPKI: 0
PSCL3 PREFETCH  ACCESS:          0  HIT:          0  MISS:          0  HIT %:       -nan  MISS %:       -nan   MPKI: 0
PSCL3 WRITEBACK ACCESS:          0  HIT:          0  MISS:          0  HIT %:       -nan  MISS %:       -nan   MPKI: 0
PSCL2 TOTAL     ACCESS:    2057122  HIT:    2056977  MISS:        145  HIT %:     99.993  MISS %: 0.00704868   MPKI: 0.000725
PSCL2 LOAD      ACCESS:          0  HIT:          0  MISS:          0  HIT %:       -nan  MISS %:       -nan   MPKI: 0
PSCL2 RFO       ACCESS:          0  HIT:          0  MISS:          0  HIT %:       -nan  MISS %:       -nan   MPKI: 0
PSCL2 PREFETCH  ACCESS:          0  HIT:          0  MISS:          0  HIT %:       -nan  MISS %:       -nan   MPKI: 0
PSCL2 WRITEBACK ACCESS:          0  HIT:          0  MISS:          0  HIT %:       -nan  MISS %:       -nan   MPKI: 0
LLC TOTAL     ACCESS:    6268806  HIT:    1283051  MISS:    4985755  HIT %:    20.4672  MISS %:    79.5328   MPKI: 24.9288
LLC LOAD      ACCESS:    2026756  HIT:     296333  MISS:    1730423  HIT %:     14.621  MISS %:     85.379   MPKI: 8.65212
LLC RFO       ACCESS:     312573  HIT:       9304  MISS:     303269  HIT %:    2.97658  MISS %:    97.0234   MPKI: 1.51635
LLC PREFETCH  ACCESS:    2974117  HIT:      62066  MISS:    2912051  HIT %:    2.08687  MISS %:    97.9131   MPKI: 14.5603
LLC WRITEBACK ACCESS:     791255  HIT:     760071  MISS:      31184  HIT %:    96.0589  MISS %:    3.94108   MPKI: 0.15592

RAW hits: 85
Loads Generated: 56680186
Loads sent to L1D: 56680101
Stores Generated: 1807930
Stores sent to L1D: 1807930

CPU 3 cumulative IPC: 0.306708 instructions: 200055522 cycles: 652267938
ITLB TOTAL     ACCESS:   34841989  HIT:   34841980  MISS:          9  HIT %:        100  MISS %: 2.58309e-05   MPKI: 4.49875e-05
ITLB LOAD      ACCESS:          0  HIT:          0  MISS:          0  HIT %:       -nan  MISS %:       -nan   MPKI: 0
ITLB RFO       ACCESS:          0  HIT:          0  MISS:          0  HIT %:       -nan  MISS %:       -nan   MPKI: 0
ITLB PREFETCH  ACCESS:          0  HIT:          0  MISS:          0  HIT %:       -nan  MISS %:       -nan   MPKI: 0
ITLB WRITEBACK ACCESS:          0  HIT:          0  MISS:          0  HIT %:       -nan  MISS %:       -nan   MPKI: 0
DTLB TOTAL     ACCESS:   40112376  HIT:   38208962  MISS:    1903414  HIT %:    95.2548  MISS %:     4.7452   MPKI: 9.51443
DTLB LOAD      ACCESS:          0  HIT:          0  MISS:          0  HIT %:       -nan  MISS %:       -nan   MPKI: 0
DTLB RFO       ACCESS:          0  HIT:          0  MISS:          0  HIT %:       -nan  MISS %:       -nan   MPKI: 0
DTLB PREFETCH  ACCESS:          0  HIT:          0  MISS:          0  HIT %:       -nan  MISS %:       -nan   MPKI: 0
DTLB WRITEBACK ACCESS:          0  HIT:          0  MISS:          0  HIT %:       -nan  MISS %:       -nan   MPKI: 0
STLB TOTAL     ACCESS:   23181685  HIT:   22469603  MISS:     712082  HIT %:    96.9283  MISS %:    3.07174   MPKI: 3.55942
STLB LOAD      ACCESS:          0  HIT:          0  MISS:          0  HIT %:       -nan  MISS %:       -nan   MPKI: 0
STLB RFO       ACCESS:          0  HIT:          0  MISS:          0  HIT %:       -nan  MISS %:       -nan   MPKI: 0
STLB PREFETCH  ACCESS:          0  HIT:          0  MISS:          0  HIT %:       -nan  MISS %:       -nan   MPKI: 0
STLB WRITEBACK ACCESS:          0  HIT:          0  MISS:          0  HIT %:       -nan  MISS %:       -nan   MPKI: 0
L1D TOTAL     ACCESS:  116845934  HIT:  111773616  MISS:    5072318  HIT %:     95.659  MISS %:    4.34103   MPKI: 25.3546
L1D LOAD      ACCESS:   39415095  HIT:   36837969  MISS:    2577126  HIT %:    93.4616  MISS %:    6.53842   MPKI: 12.8821
L1D RFO       ACCESS:    1389109  HIT:    1069102  MISS:     320007  HIT %:    76.9631  MISS %:    23.0369   MPKI: 1.59959
L1D PREFETCH  ACCESS:   76041730  HIT:   73866545  MISS:    2175185  HIT %:    97.1395  MISS %:    2.86051   MPKI: 10.8729
L1D WRITEBACK ACCESS:          0  HIT:          0  MISS:          0  HIT %:       -nan  MISS %:       -nan   MPKI: 0
L1I TOTAL     ACCESS:   35719277  HIT:   35719181  MISS:         96  HIT %:    99.9997  MISS %: 0.000268762   MPKI: 0.000479867
L1I LOAD      ACCESS:   35719277  HIT:   35719181  MISS:         96  HIT %:    99.9997  MISS %: 0.000268762   MPKI: 0.000479867
L1I RFO       ACCESS:          0  HIT:          0  MISS:          0  HIT %:       -nan  MISS %:       -nan   MPKI: 0
L1I PREFETCH  ACCESS:          0  HIT:          0  MISS:          0  HIT %:       -nan  MISS %:       -nan   MPKI: 0
L1I WRITEBACK ACCESS:          0  HIT:          0  MISS:          0  HIT %:       -nan  MISS %:       -nan   MPKI: 0
L2C TOTAL     ACCESS:   33084931  HIT:   27542447  MISS:    5542484  HIT %:    83.2477  MISS %:    16.7523   MPKI: 27.7047
L2C LOAD      ACCESS:    2550129  HIT:     504144  MISS:    2045985  HIT %:    19.7694  MISS %:    80.2306   MPKI: 10.2271
L2C RFO       ACCESS:     320005  HIT:       7446  MISS:     312559  HIT %:    2.32684  MISS %:    97.6732   MPKI: 1.56236
L2C PREFETCH  ACCESS:   27356415  HIT:   24399383  MISS:    2957032  HIT %:    89.1907  MISS %:    10.8093   MPKI: 14.7811
L2C WRITEBACK ACCESS:     808431  HIT:     749764  MISS:      58667  HIT %:    92.7431  MISS %:     7.2569   MPKI: 0.293254
PSCL5 TOTAL     ACCESS:    2049492  HIT:    2049492  MISS:          0  HIT %:        100  MISS %:          0   MPKI: 0
PSCL5 LOAD      ACCESS:          0  HIT:          0  MISS:          0  HIT %:       -nan  MISS %:       -nan   MPKI: 0
PSCL5 RFO       ACCESS:          0  HIT:          0  MISS:          0  HIT %:       -nan  MISS %:       -nan   MPKI: 0
PSCL5 PREFETCH  ACCESS:          0  HIT:          0  MISS:          0  HIT %:       -nan  MISS %:       -nan   MPKI: 0
PSCL5 WRITEBACK ACCESS:          0  HIT:          0  MISS:          0  HIT %:       -nan  MISS %:       -nan   MPKI: 0
PSCL4 TOTAL     ACCESS:    2049492  HIT:    2049492  MISS:          0  HIT %:        100  MISS %:          0   MPKI: 0
PSCL4 LOAD      ACCESS:          0  HIT:          0  MISS:          0  HIT %:       -nan  MISS %:       -nan   MPKI: 0
PSCL4 RFO       ACCESS:          0  HIT:          0  MISS:          0  HIT %:       -nan  MISS %:       -nan   MPKI: 0
PSCL4 PREFETCH  ACCESS:          0  HIT:          0  MISS:          0  HIT %:       -nan  MISS %:       -nan   MPKI: 0
PSCL4 WRITEBACK ACCESS:          0  HIT:          0  MISS:          0  HIT %:       -nan  MISS %:       -nan   MPKI: 0
PSCL3 TOTAL     ACCESS:    2049492  HIT:    2049491  MISS:          1  HIT %:        100  MISS %: 4.87926e-05   MPKI: 4.99861e-06
PSCL3 LOAD      ACCESS:          0  HIT:          0  MISS:          0  HIT %:       -nan  MISS %:       -nan   MPKI: 0
PSCL3 RFO       ACCESS:          0  HIT:          0  MISS:          0  HIT %:       -nan  MISS %:       -nan   MPKI: 0
PSCL3 PREFETCH  ACCESS:          0  HIT:          0  MISS:          0  HIT %:       -nan  MISS %:       -nan   MPKI: 0
PSCL3 WRITEBACK ACCESS:          0  HIT:          0  MISS:          0  HIT %:       -nan  MISS %:       -nan   MPKI: 0
PSCL2 TOTAL     ACCESS:    2046557  HIT:    2046407  MISS:        150  HIT %:    99.9927  MISS %: 0.00732938   MPKI: 0.000749792
PSCL2 LOAD      ACCESS:          0  HIT:          0  MISS:          0  HIT %:       -nan  MISS %:       -nan   MPKI: 0
PSCL2 RFO       ACCESS:          0  HIT:          0  MISS:          0  HIT %:       -nan  MISS %:       -nan   MPKI: 0
PSCL2 PREFETCH  ACCESS:          0  HIT:          0  MISS:          0  HIT %:       -nan  MISS %:       -nan   MPKI: 0
PSCL2 WRITEBACK ACCESS:          0  HIT:          0  MISS:          0  HIT %:       -nan  MISS %:       -nan   MPKI: 0
LLC TOTAL     ACCESS:    6275055  HIT:    1286880  MISS:    4988175  HIT %:    20.5079  MISS %:    79.4921   MPKI: 24.934
LLC LOAD      ACCESS:    2028226  HIT:     296847  MISS:    1731379  HIT %:    14.6358  MISS %:    85.3642   MPKI: 8.65449
LLC RFO       ACCESS:     312559  HIT:       9105  MISS:     303454  HIT %:    2.91305  MISS %:    97.0869   MPKI: 1.51685
LLC PREFETCH  ACCESS:    2974790  HIT:      61701  MISS:    2913089  HIT %:    2.07413  MISS %:    97.9259   MPKI: 14.5614
LLC WRITEBACK ACCESS:     791239  HIT:     759696  MISS:      31543  HIT %:    96.0135  MISS %:    3.98653   MPKI: 0.157671

RAW hits: 85
Loads Generated: 56700028
Loads sent to L1D: 56699943
Stores Generated: 1808425
Stores sent to L1D: 1808425

Region of Interest Statistics

CPU 0 cumulative IPC: 0.30695 instructions: 200000001 cycles: 651571217
ITLB TOTAL     ACCESS:   34832699  HIT:   34832690  MISS:          9  HIT %:        100  MISS %: 2.58378e-05   MPKI: 4.5e-05
ITLB LOAD TRANSLATION ACCESS:   34832699  HIT:   34832690  MISS:          9  HIT %:        100  MISS %: 2.58378e-05   MPKI: 4.5e-05
ITLB PREFETCH  REQUESTED:          0  ISSUED:          0  USEFUL:          0  USELESS:          0
ITLB USEFUL LOAD PREFETCHES:          0 PREFETCH ISSUED TO LOWER LEVEL:          0  ACCURACY: -nan
ITLB TIMELY PREFETCHES:          0 LATE PREFETCHES: 0 DROPPED PREFETCHES: 0
ITLB PREFETCHES SAME FILL-ORIGIN LEVEL: 0 DIFFERENT FILL-ORIGIN LEVEL: 0
ITLB AVERAGE MISS LATENCY: 642.111 cycles
ITLB RQ	ACCESS:   35729898	FORWARD:          0	MERGED:     877325	TO_CACHE:   34852573

DTLB TOTAL     ACCESS:   40093259  HIT:   38191115  MISS:    1902144  HIT %:    95.2557  MISS %:     4.7443   MPKI: 9.51072
DTLB LOAD TRANSLATION ACCESS:   40093259  HIT:   38191115  MISS:    1902144  HIT %:    95.2557  MISS %:     4.7443   MPKI: 9.51072
DTLB PREFETCH  REQUESTED:          0  ISSUED:          0  USEFUL:          0  USELESS:          0
DTLB USEFUL LOAD PREFETCHES:          0 PREFETCH ISSUED TO LOWER LEVEL:          0  ACCURACY: -nan
DTLB TIMELY PREFETCHES:          0 LATE PREFETCHES: 0 DROPPED PREFETCHES: 0
DTLB PREFETCHES SAME FILL-ORIGIN LEVEL: 0 DIFFERENT FILL-ORIGIN LEVEL: 0
DTLB AVERAGE MISS LATENCY: 23.6235 cycles
DTLB RQ	ACCESS:   41716313	FORWARD:          0	MERGED:    1543035	TO_CACHE:   40173278

STLB TOTAL     ACCESS:   23235975  HIT:   22524539  MISS:     711436  HIT %:    96.9382  MISS %:    3.06179   MPKI: 3.55718
STLB LOAD TRANSLATION ACCESS:    1902153  HIT:    1195345  MISS:     706808  HIT %:    62.8417  MISS %:    37.1583   MPKI: 3.53404
STLB TRANSLATION FROM L1D PREFETCHER ACCESS:   21333822  HIT:   21329194  MISS:       4628  HIT %:    99.9783  MISS %:  0.0216933   MPKI: 0.02314
STLB PREFETCH  REQUESTED:          0  ISSUED:          0  USEFUL:       4209  USELESS:        455
STLB USEFUL LOAD PREFETCHES:       4209 PREFETCH ISSUED TO LOWER LEVEL:          0  ACCURACY: inf
STLB TIMELY PREFETCHES:       4209 LATE PREFETCHES: 4369 DROPPED PREFETCHES: 1295593
STLB PREFETCHES SAME FILL-ORIGIN LEVEL: 0 DIFFERENT FILL-ORIGIN LEVEL: 0
STLB AVERAGE MISS LATENCY: 38.4999 cycles
STLB RQ	ACCESS:  117915573	FORWARD:          0	MERGED:   93224760	TO_CACHE:   24690813

STLB Hit, L1D data hit: 0
STLB Hit, L2C data hit: 0
STLB Hit, LLC data hit: 0
STLB Hit, LLC data miss: 0
STLB STLB hints to L2: 0
L1D TOTAL     ACCESS:  117239688  HIT:  112168069  MISS:    5071619  HIT %:    95.6741  MISS %:    4.32586   MPKI: 25.3581
L1D LOAD      ACCESS:   39392445  HIT:   36816034  MISS:    2576411  HIT %:    93.4596  MISS %:    6.54037   MPKI: 12.8821
L1D RFO       ACCESS:    1388419  HIT:    1068457  MISS:     319962  HIT %:    76.9549  MISS %:    23.0451   MPKI: 1.59981
L1D PREFETCH  ACCESS:   76458824  HIT:   74283578  MISS:    2175246  HIT %:     97.155  MISS %:    2.84499   MPKI: 10.8762
L1D PREFETCH  REQUESTED:  410683733  ISSUED:  334538545  USEFUL:    1831268  USELESS:     345171
L1D USEFUL LOAD PREFETCHES:    1831268 PREFETCH ISSUED TO LOWER LEVEL:   30289257  ACCURACY: 6.04593
L1D TIMELY PREFETCHES:    1831268 LATE PREFETCHES: 27414 DROPPED PREFETCHES: 4412301
L1D PREFETCHES SAME FILL-ORIGIN LEVEL: 2203920 DIFFERENT FILL-ORIGIN LEVEL: 28085337
L1D AVERAGE MISS LATENCY: 279.574 cycles
L1D RQ	ACCESS:   56722449	FORWARD:          0	MERGED:   16814645	TO_CACHE:   39907794
L1D WQ	ACCESS:    1808519	FORWARD:         86	MERGED:          0	TO_CACHE:    1808519
L1D PQ	ACCESS:  218527791	FORWARD:          0	MERGED:  102516961	TO_CACHE:  116010754

L1D UNIQUE REGIONS ACCESSED: 0
L1D REGIONS CONFLICTS: 0
L1D Cross Page Prefetch Requests: 18135259
L1D Same Page Prefetch Requests: 245552347
L1D ROI Sum of L1D PQ occupancy: 1765270944
L1D PREFETCHES PUSHED FROM L2C: 0
L1I TOTAL     ACCESS:   35709814  HIT:   35709718  MISS:         96  HIT %:    99.9997  MISS %: 0.000268834   MPKI: 0.00048
L1I LOAD      ACCESS:   35709814  HIT:   35709718  MISS:         96  HIT %:    99.9997  MISS %: 0.000268834   MPKI: 0.00048
L1I PREFETCH  REQUESTED:          0  ISSUED:          0  USEFUL:          0  USELESS:          0
L1I USEFUL LOAD PREFETCHES:          0 PREFETCH ISSUED TO LOWER LEVEL:          0  ACCURACY: -nan
L1I TIMELY PREFETCHES:          0 LATE PREFETCHES: 0 DROPPED PREFETCHES: 0
L1I PREFETCHES SAME FILL-ORIGIN LEVEL: 0 DIFFERENT FILL-ORIGIN LEVEL: 0
L1I AVERAGE MISS LATENCY: 421.5 cycles
L1I RQ	ACCESS:   51358597	FORWARD:          0	MERGED:   15628699	TO_CACHE:   35729898

BTB TOTAL     ACCESS:   33115738  HIT:   33115612  MISS:        126  HIT %:    99.9996  MISS %: 0.000380484   MPKI: 0.00063
BTB BRANCH_DIRECT_JUMP	ACCESS:    1271126  HIT:    1271106  MISS:         20
BTB BRANCH_INDIRECT	ACCESS:          0  HIT:          0  MISS:          0
BTB BRANCH_CONDITIONAL	ACCESS:   31844575  HIT:   31844498  MISS:         77
BTB BRANCH_DIRECT_CALL	ACCESS:         19  HIT:          5  MISS:         14
BTB BRANCH_INDIRECT_CALL	ACCESS:          0  HIT:          0  MISS:          0
BTB BRANCH_RETURN	ACCESS:         18  HIT:          3  MISS:         15
BTB BRANCH_OTHER ACCESS:          0  HIT:          0  MISS:          0

L2C TOTAL     ACCESS:   32827047  HIT:   27289385  MISS:    5537662  HIT %:    83.1308  MISS %:    16.8692   MPKI: 27.6883
L2C LOAD      ACCESS:    2549128  HIT:     504697  MISS:    2044431  HIT %:    19.7988  MISS %:    80.2012   MPKI: 10.2222
L2C DATA LOAD MPKI: 10.2217
L2C INSTRUCTION LOAD MPKI: 0.00048
L2C RFO       ACCESS:     319959  HIT:       7440  MISS:     312519  HIT %:     2.3253  MISS %:    97.6747   MPKI: 1.56259
L2C PREFETCH  ACCESS:   27137987  HIT:   24179296  MISS:    2958691  HIT %:    89.0976  MISS %:    10.9024   MPKI: 14.7935
L2C DATA PREFETCH MPKI: 14.7935
L2C INSTRUCTION PREFETCH MPKI: 0
L2C WRITEBACK ACCESS:     808261  HIT:     751314  MISS:      56947  HIT %:    92.9544  MISS %:    7.04562   MPKI: 0.284735
L2C LOAD TRANSLATION ACCESS:     706864  HIT:     547615  MISS:     159249  HIT %:    77.4711  MISS %:    22.5289   MPKI: 0.796245
L2C TRANSLATION FROM L1D PREFETCHER ACCESS:    1304848  HIT:    1299023  MISS:       5825  HIT %:    99.5536  MISS %:   0.446412   MPKI: 0.029125
L2C PREFETCH  REQUESTED:          0  ISSUED:          0  USEFUL:     362605  USELESS:    2602461
L2C USEFUL LOAD PREFETCHES:     362605 PREFETCH ISSUED TO LOWER LEVEL:    2978882  ACCURACY: 12.1725
L2C TIMELY PREFETCHES:     362605 LATE PREFETCHES: 17894 DROPPED PREFETCHES: 0
L2C PREFETCHES SAME FILL-ORIGIN LEVEL: 1643484 DIFFERENT FILL-ORIGIN LEVEL: 0
L2C AVERAGE MISS LATENCY: 343.045 cycles
L2C RQ	ACCESS:    4885796	FORWARD:          0	MERGED:          0	TO_CACHE:    4885792
L2C WQ	ACCESS:     808471	FORWARD:          4	MERGED:          0	TO_CACHE:     808471
L2C PQ	ACCESS:   30286599	FORWARD:          0	MERGED:      77264	TO_CACHE:   30209335

L2C Instructions Evicting Data 96
L2C Translations Evicting Data 160463
L2C Data Evicting Data 5162165
L2C Instructions Evicting Instructions 0
L2C Translations Evicting Instructions 1
L2C Data Evicting Instructions 94
L2C Instructions Evicting Translations 0
L2C Translations Evicting Translations 5009
L2C Data Evicting Translations 158794
L2C Dense regions hint from L2: 0
PSCL5 TOTAL     ACCESS:    2011256  HIT:    2011256  MISS:          0  HIT %:        100  MISS %:          0   MPKI: 0
PSCL5 LOAD TRANSLATION ACCESS:     706802  HIT:     706802  MISS:          0  HIT %:        100  MISS %:          0   MPKI: 0
PSCL5 TRANSLATION FROM L1D PREFETCHER ACCESS:    1304454  HIT:    1304454  MISS:          0  HIT %:        100  MISS %:          0   MPKI: 0
PSCL5 PREFETCH  REQUESTED:          0  ISSUED:          0  USEFUL:          0  USELESS:          0
PSCL5 USEFUL LOAD PREFETCHES:          0 PREFETCH ISSUED TO LOWER LEVEL:          0  ACCURACY: -nan
PSCL5 TIMELY PREFETCHES:          0 LATE PREFETCHES: 0 DROPPED PREFETCHES: 0
PSCL5 PREFETCHES SAME FILL-ORIGIN LEVEL: 0 DIFFERENT FILL-ORIGIN LEVEL: 0

PSCL4 TOTAL     ACCESS:    2011256  HIT:    2011256  MISS:          0  HIT %:        100  MISS %:          0   MPKI: 0
PSCL4 LOAD TRANSLATION ACCESS:     706802  HIT:     706802  MISS:          0  HIT %:        100  MISS %:          0   MPKI: 0
PSCL4 TRANSLATION FROM L1D PREFETCHER ACCESS:    1304454  HIT:    1304454  MISS:          0  HIT %:        100  MISS %:          0   MPKI: 0
PSCL4 PREFETCH  REQUESTED:          0  ISSUED:          0  USEFUL:          0  USELESS:          0
PSCL4 USEFUL LOAD PREFETCHES:          0 PREFETCH ISSUED TO LOWER LEVEL:          0  ACCURACY: -nan
PSCL4 TIMELY PREFETCHES:          0 LATE PREFETCHES: 0 DROPPED PREFETCHES: 0
PSCL4 PREFETCHES SAME FILL-ORIGIN LEVEL: 0 DIFFERENT FILL-ORIGIN LEVEL: 0

PSCL3 TOTAL     ACCESS:    2011256  HIT:    2011255  MISS:          1  HIT %:        100  MISS %: 4.97202e-05   MPKI: 5e-06
PSCL3 LOAD TRANSLATION ACCESS:     706802  HIT:     706801  MISS:          1  HIT %:    99.9999  MISS %: 0.000141482   MPKI: 5e-06
PSCL3 TRANSLATION FROM L1D PREFETCHER ACCESS:    1304454  HIT:    1304454  MISS:          0  HIT %:        100  MISS %:          0   MPKI: 0
PSCL3 PREFETCH  REQUESTED:          0  ISSUED:          0  USEFUL:          0  USELESS:          0
PSCL3 USEFUL LOAD PREFETCHES:          0 PREFETCH ISSUED TO LOWER LEVEL:          0  ACCURACY: -nan
PSCL3 TIMELY PREFETCHES:          0 LATE PREFETCHES: 0 DROPPED PREFETCHES: 0
PSCL3 PREFETCHES SAME FILL-ORIGIN LEVEL: 0 DIFFERENT FILL-ORIGIN LEVEL: 0

PSCL2 TOTAL     ACCESS:    2008405  HIT:    2008258  MISS:        147  HIT %:    99.9927  MISS %: 0.00731924   MPKI: 0.000735
PSCL2 LOAD TRANSLATION ACCESS:     706803  HIT:     706656  MISS:        147  HIT %:    99.9792  MISS %:  0.0207979   MPKI: 0.000735
PSCL2 TRANSLATION FROM L1D PREFETCHER ACCESS:    1301602  HIT:    1301602  MISS:          0  HIT %:        100  MISS %:          0   MPKI: 0
PSCL2 PREFETCH  REQUESTED:          0  ISSUED:          0  USEFUL:          0  USELESS:          0
PSCL2 USEFUL LOAD PREFETCHES:          0 PREFETCH ISSUED TO LOWER LEVEL:          0  ACCURACY: -nan
PSCL2 TIMELY PREFETCHES:          0 LATE PREFETCHES: 0 DROPPED PREFETCHES: 0
PSCL2 PREFETCHES SAME FILL-ORIGIN LEVEL: 0 DIFFERENT FILL-ORIGIN LEVEL: 0

LLC TOTAL     ACCESS:    6271938  HIT:    1285031  MISS:    4986907  HIT %:    20.4886  MISS %:    79.5114   MPKI: 24.9345
LLC LOAD      ACCESS:    2026565  HIT:     297452  MISS:    1729113  HIT %:    14.6776  MISS %:    85.3224   MPKI: 8.64556
LLC RFO       ACCESS:     312519  HIT:       9162  MISS:     303357  HIT %:    2.93166  MISS %:    97.0683   MPKI: 1.51678
LLC PREFETCH  ACCESS:    2976557  HIT:      62477  MISS:    2914080  HIT %:    2.09897  MISS %:     97.901   MPKI: 14.5704
LLC WRITEBACK ACCESS:     791223  HIT:     759771  MISS:      31452  HIT %:    96.0249  MISS %:    3.97511   MPKI: 0.15726
LLC LOAD TRANSLATION ACCESS:     159249  HIT:     155537  MISS:       3712  HIT %:    97.6691  MISS %:    2.33094   MPKI: 0.01856
LLC TRANSLATION FROM L1D PREFETCHER ACCESS:       5825  HIT:        632  MISS:       5193  HIT %:    10.8498  MISS %:    89.1502   MPKI: 0.025965
LLC PREFETCH  REQUESTED:          0  ISSUED:          0  USEFUL:      45804  USELESS:   11577903
LLC USEFUL LOAD PREFETCHES:      45804 PREFETCH ISSUED TO LOWER LEVEL:   13275024  ACCURACY: 0.345039
LLC TIMELY PREFETCHES:      45804 LATE PREFETCHES: 0 DROPPED PREFETCHES: 0
LLC PREFETCHES SAME FILL-ORIGIN LEVEL: 0 DIFFERENT FILL-ORIGIN LEVEL: 0
LLC AVERAGE MISS LATENCY: 1395.85 cycles
LLC RQ	ACCESS:   10021540	FORWARD:          0	MERGED:          0	TO_CACHE:   10021539
LLC WQ	ACCESS:    3165088	FORWARD:          1	MERGED:          0	TO_CACHE:    3165088
LLC PQ	ACCESS:   11904769	FORWARD:          0	MERGED:          0	TO_CACHE:   11904769

LLC Dense regions hint to LLC: 0

RAW hits: 86
Loads Generated: 56680182
Loads sent to L1D: 56680096
Stores Generated: 1807930
Stores sent to L1D: 1807930
Major fault: 0 Minor fault: 66733
Allocated PAGES: 266932

CPU 1 cumulative IPC: 0.30686 instructions: 200000000 cycles: 651764008
ITLB TOTAL     ACCESS:   34832993  HIT:   34832984  MISS:          9  HIT %:        100  MISS %: 2.58376e-05   MPKI: 4.5e-05
ITLB LOAD TRANSLATION ACCESS:   34832993  HIT:   34832984  MISS:          9  HIT %:        100  MISS %: 2.58376e-05   MPKI: 4.5e-05
ITLB PREFETCH  REQUESTED:          0  ISSUED:          0  USEFUL:          0  USELESS:          0
ITLB USEFUL LOAD PREFETCHES:          0 PREFETCH ISSUED TO LOWER LEVEL:          0  ACCURACY: -nan
ITLB TIMELY PREFETCHES:          0 LATE PREFETCHES: 0 DROPPED PREFETCHES: 0
ITLB PREFETCHES SAME FILL-ORIGIN LEVEL: 0 DIFFERENT FILL-ORIGIN LEVEL: 0
ITLB AVERAGE MISS LATENCY: 542.444 cycles
ITLB RQ	ACCESS:   35720445	FORWARD:          0	MERGED:     877288	TO_CACHE:   34843157

DTLB TOTAL     ACCESS:   40096235  HIT:   38194118  MISS:    1902117  HIT %:    95.2561  MISS %:    4.74388   MPKI: 9.51059
DTLB LOAD TRANSLATION ACCESS:   40096235  HIT:   38194118  MISS:    1902117  HIT %:    95.2561  MISS %:    4.74388   MPKI: 9.51059
DTLB PREFETCH  REQUESTED:          0  ISSUED:          0  USEFUL:          0  USELESS:          0
DTLB USEFUL LOAD PREFETCHES:          0 PREFETCH ISSUED TO LOWER LEVEL:          0  ACCURACY: -nan
DTLB TIMELY PREFETCHES:          0 LATE PREFETCHES: 0 DROPPED PREFETCHES: 0
DTLB PREFETCHES SAME FILL-ORIGIN LEVEL: 0 DIFFERENT FILL-ORIGIN LEVEL: 0
DTLB AVERAGE MISS LATENCY: 23.5668 cycles
DTLB RQ	ACCESS:   41709269	FORWARD:          0	MERGED:    1544478	TO_CACHE:   40164791

STLB TOTAL     ACCESS:   23196763  HIT:   22485423  MISS:     711340  HIT %:    96.9335  MISS %:    3.06655   MPKI: 3.5567
STLB LOAD TRANSLATION ACCESS:    1902126  HIT:    1195372  MISS:     706754  HIT %:     62.844  MISS %:     37.156   MPKI: 3.53377
STLB TRANSLATION FROM L1D PREFETCHER ACCESS:   21294637  HIT:   21290051  MISS:       4586  HIT %:    99.9785  MISS %:  0.0215359   MPKI: 0.02293
STLB PREFETCH  REQUESTED:          0  ISSUED:          0  USEFUL:       4180  USELESS:        424
STLB USEFUL LOAD PREFETCHES:       4180 PREFETCH ISSUED TO LOWER LEVEL:          0  ACCURACY: inf
STLB TIMELY PREFETCHES:       4180 LATE PREFETCHES: 4332 DROPPED PREFETCHES: 1332623
STLB PREFETCHES SAME FILL-ORIGIN LEVEL: 0 DIFFERENT FILL-ORIGIN LEVEL: 0
STLB AVERAGE MISS LATENCY: 38.373 cycles
STLB RQ	ACCESS:  117714335	FORWARD:          0	MERGED:   93032325	TO_CACHE:   24682010

STLB Hit, L1D data hit: 0
STLB Hit, L2C data hit: 0
STLB Hit, LLC data hit: 0
STLB Hit, LLC data miss: 0
STLB STLB hints to L2: 0
L1D TOTAL     ACCESS:  116942697  HIT:  111873289  MISS:    5069408  HIT %:     95.665  MISS %:    4.33495   MPKI: 25.347
L1D LOAD      ACCESS:   39397651  HIT:   36820625  MISS:    2577026  HIT %:    93.4589  MISS %:    6.54107   MPKI: 12.8851
L1D RFO       ACCESS:    1388676  HIT:    1068719  MISS:     319957  HIT %:    76.9596  MISS %:    23.0404   MPKI: 1.59979
L1D PREFETCH  ACCESS:   76156370  HIT:   73983945  MISS:    2172425  HIT %:    97.1474  MISS %:    2.85258   MPKI: 10.8621
L1D PREFETCH  REQUESTED:  409796958  ISSUED:  334002239  USEFUL:    1830143  USELESS:     342964
L1D USEFUL LOAD PREFETCHES:    1830143 PREFETCH ISSUED TO LOWER LEVEL:   30295351  ACCURACY: 6.041
L1D TIMELY PREFETCHES:    1830143 LATE PREFETCHES: 27354 DROPPED PREFETCHES: 4451275
L1D PREFETCHES SAME FILL-ORIGIN LEVEL: 2200687 DIFFERENT FILL-ORIGIN LEVEL: 28094664
L1D AVERAGE MISS LATENCY: 280.073 cycles
L1D RQ	ACCESS:   56701863	FORWARD:          0	MERGED:   16801009	TO_CACHE:   39900844
L1D WQ	ACCESS:    1808425	FORWARD:         90	MERGED:          0	TO_CACHE:    1808425
L1D PQ	ACCESS:  218191456	FORWARD:          0	MERGED:  102380593	TO_CACHE:  115810783

L1D UNIQUE REGIONS ACCESSED: 0
L1D REGIONS CONFLICTS: 0
L1D Cross Page Prefetch Requests: 18173073
L1D Same Page Prefetch Requests: 245211552
L1D ROI Sum of L1D PQ occupancy: 1766964934
L1D PREFETCHES PUSHED FROM L2C: 0
L1I TOTAL     ACCESS:   35710102  HIT:   35710006  MISS:         96  HIT %:    99.9997  MISS %: 0.000268831   MPKI: 0.00048
L1I LOAD      ACCESS:   35710102  HIT:   35710006  MISS:         96  HIT %:    99.9997  MISS %: 0.000268831   MPKI: 0.00048
L1I PREFETCH  REQUESTED:          0  ISSUED:          0  USEFUL:          0  USELESS:          0
L1I USEFUL LOAD PREFETCHES:          0 PREFETCH ISSUED TO LOWER LEVEL:          0  ACCURACY: -nan
L1I TIMELY PREFETCHES:          0 LATE PREFETCHES: 0 DROPPED PREFETCHES: 0
L1I PREFETCHES SAME FILL-ORIGIN LEVEL: 0 DIFFERENT FILL-ORIGIN LEVEL: 0
L1I AVERAGE MISS LATENCY: 333.625 cycles
L1I RQ	ACCESS:   51349060	FORWARD:          0	MERGED:   15628615	TO_CACHE:   35720445

BTB TOTAL     ACCESS:   33115738  HIT:   33115612  MISS:        126  HIT %:    99.9996  MISS %: 0.000380484   MPKI: 0.00063
BTB BRANCH_DIRECT_JUMP	ACCESS:    1271126  HIT:    1271106  MISS:         20
BTB BRANCH_INDIRECT	ACCESS:          0  HIT:          0  MISS:          0
BTB BRANCH_CONDITIONAL	ACCESS:   31844575  HIT:   31844498  MISS:         77
BTB BRANCH_DIRECT_CALL	ACCESS:         19  HIT:          5  MISS:         14
BTB BRANCH_INDIRECT_CALL	ACCESS:          0  HIT:          0  MISS:          0
BTB BRANCH_RETURN	ACCESS:         18  HIT:          3  MISS:         15
BTB BRANCH_OTHER ACCESS:          0  HIT:          0  MISS:          0

L2C TOTAL     ACCESS:   32857327  HIT:   27324291  MISS:    5533036  HIT %:    83.1604  MISS %:    16.8396   MPKI: 27.6652
L2C LOAD      ACCESS:    2549797  HIT:     505232  MISS:    2044565  HIT %:    19.8146  MISS %:    80.1854   MPKI: 10.2228
L2C DATA LOAD MPKI: 10.2223
L2C INSTRUCTION LOAD MPKI: 0.00048
L2C RFO       ACCESS:     319954  HIT:       7367  MISS:     312587  HIT %:    2.30252  MISS %:    97.6975   MPKI: 1.56293
L2C PREFETCH  ACCESS:   27130578  HIT:   24172515  MISS:    2958063  HIT %:    89.0969  MISS %:    10.9031   MPKI: 14.7903
L2C DATA PREFETCH MPKI: 14.7903
L2C INSTRUCTION PREFETCH MPKI: 0
L2C WRITEBACK ACCESS:     808253  HIT:     750197  MISS:      58056  HIT %:    92.8171  MISS %:     7.1829   MPKI: 0.29028
L2C LOAD TRANSLATION ACCESS:     706810  HIT:     552902  MISS:     153908  HIT %:     78.225  MISS %:     21.775   MPKI: 0.76954
L2C TRANSLATION FROM L1D PREFETCHER ACCESS:    1341935  HIT:    1336078  MISS:       5857  HIT %:    99.5635  MISS %:   0.436459   MPKI: 0.029285
L2C PREFETCH  REQUESTED:          0  ISSUED:          0  USEFUL:     363625  USELESS:    2598975
L2C USEFUL LOAD PREFETCHES:     363625 PREFETCH ISSUED TO LOWER LEVEL:    2976978  ACCURACY: 12.2146
L2C TIMELY PREFETCHES:     363625 LATE PREFETCHES: 17691 DROPPED PREFETCHES: 0
L2C PREFETCHES SAME FILL-ORIGIN LEVEL: 1647518 DIFFERENT FILL-ORIGIN LEVEL: 0
L2C AVERAGE MISS LATENCY: 344.136 cycles
L2C RQ	ACCESS:    4921318	FORWARD:          0	MERGED:          0	TO_CACHE:    4921314
L2C WQ	ACCESS:     808444	FORWARD:          5	MERGED:          0	TO_CACHE:     808444
L2C PQ	ACCESS:   30290884	FORWARD:          0	MERGED:      78347	TO_CACHE:   30212536

L2C Instructions Evicting Data 96
L2C Translations Evicting Data 157042
L2C Data Evicting Data 5162534
L2C Instructions Evicting Instructions 0
L2C Translations Evicting Instructions 0
L2C Data Evicting Instructions 95
L2C Instructions Evicting Translations 0
L2C Translations Evicting Translations 3060
L2C Data Evicting Translations 155482
L2C Dense regions hint from L2: 0
PSCL5 TOTAL     ACCESS:    2048289  HIT:    2048289  MISS:          0  HIT %:        100  MISS %:          0   MPKI: 0
PSCL5 LOAD TRANSLATION ACCESS:     706748  HIT:     706748  MISS:          0  HIT %:        100  MISS %:          0   MPKI: 0
PSCL5 TRANSLATION FROM L1D PREFETCHER ACCESS:    1341541  HIT:    1341541  MISS:          0  HIT %:        100  MISS %:          0   MPKI: 0
PSCL5 PREFETCH  REQUESTED:          0  ISSUED:          0  USEFUL:          0  USELESS:          0
PSCL5 USEFUL LOAD PREFETCHES:          0 PREFETCH ISSUED TO LOWER LEVEL:          0  ACCURACY: -nan
PSCL5 TIMELY PREFETCHES:          0 LATE PREFETCHES: 0 DROPPED PREFETCHES: 0
PSCL5 PREFETCHES SAME FILL-ORIGIN LEVEL: 0 DIFFERENT FILL-ORIGIN LEVEL: 0

PSCL4 TOTAL     ACCESS:    2048289  HIT:    2048289  MISS:          0  HIT %:        100  MISS %:          0   MPKI: 0
PSCL4 LOAD TRANSLATION ACCESS:     706748  HIT:     706748  MISS:          0  HIT %:        100  MISS %:          0   MPKI: 0
PSCL4 TRANSLATION FROM L1D PREFETCHER ACCESS:    1341541  HIT:    1341541  MISS:          0  HIT %:        100  MISS %:          0   MPKI: 0
PSCL4 PREFETCH  REQUESTED:          0  ISSUED:          0  USEFUL:          0  USELESS:          0
PSCL4 USEFUL LOAD PREFETCHES:          0 PREFETCH ISSUED TO LOWER LEVEL:          0  ACCURACY: -nan
PSCL4 TIMELY PREFETCHES:          0 LATE PREFETCHES: 0 DROPPED PREFETCHES: 0
PSCL4 PREFETCHES SAME FILL-ORIGIN LEVEL: 0 DIFFERENT FILL-ORIGIN LEVEL: 0

PSCL3 TOTAL     ACCESS:    2048289  HIT:    2048288  MISS:          1  HIT %:        100  MISS %: 4.88212e-05   MPKI: 5e-06
PSCL3 LOAD TRANSLATION ACCESS:     706748  HIT:     706747  MISS:          1  HIT %:    99.9999  MISS %: 0.000141493   MPKI: 5e-06
PSCL3 TRANSLATION FROM L1D PREFETCHER ACCESS:    1341541  HIT:    1341541  MISS:          0  HIT %:        100  MISS %:          0   MPKI: 0
PSCL3 PREFETCH  REQUESTED:          0  ISSUED:          0  USEFUL:          0  USELESS:          0
PSCL3 USEFUL LOAD PREFETCHES:          0 PREFETCH ISSUED TO LOWER LEVEL:          0  ACCURACY: -nan
PSCL3 TIMELY PREFETCHES:          0 LATE PREFETCHES: 0 DROPPED PREFETCHES: 0
PSCL3 PREFETCHES SAME FILL-ORIGIN LEVEL: 0 DIFFERENT FILL-ORIGIN LEVEL: 0

PSCL2 TOTAL     ACCESS:    2045392  HIT:    2045245  MISS:        147  HIT %:    99.9928  MISS %: 0.00718689   MPKI: 0.000735
PSCL2 LOAD TRANSLATION ACCESS:     706749  HIT:     706602  MISS:        147  HIT %:    99.9792  MISS %:  0.0207995   MPKI: 0.000735
PSCL2 TRANSLATION FROM L1D PREFETCHER ACCESS:    1338643  HIT:    1338643  MISS:          0  HIT %:        100  MISS %:          0   MPKI: 0
PSCL2 PREFETCH  REQUESTED:          0  ISSUED:          0  USEFUL:          0  USELESS:          0
PSCL2 USEFUL LOAD PREFETCHES:          0 PREFETCH ISSUED TO LOWER LEVEL:          0  ACCURACY: -nan
PSCL2 TIMELY PREFETCHES:          0 LATE PREFETCHES: 0 DROPPED PREFETCHES: 0
PSCL2 PREFETCHES SAME FILL-ORIGIN LEVEL: 0 DIFFERENT FILL-ORIGIN LEVEL: 0

LLC TOTAL     ACCESS:    6266218  HIT:    1279697  MISS:    4986521  HIT %:    20.4222  MISS %:    79.5778   MPKI: 24.9326
LLC LOAD      ACCESS:    2026892  HIT:     296856  MISS:    1730036  HIT %:    14.6459  MISS %:    85.3541   MPKI: 8.65018
LLC RFO       ACCESS:     312587  HIT:       9299  MISS:     303288  HIT %:    2.97485  MISS %:    97.0251   MPKI: 1.51644
LLC PREFETCH  ACCESS:    2975736  HIT:      62623  MISS:    2913113  HIT %:    2.10445  MISS %:    97.8955   MPKI: 14.5656
LLC WRITEBACK ACCESS:     791238  HIT:     760124  MISS:      31114  HIT %:    96.0677  MISS %:    3.93232   MPKI: 0.15557
LLC LOAD TRANSLATION ACCESS:     153908  HIT:     150131  MISS:       3777  HIT %:    97.5459  MISS %:    2.45406   MPKI: 0.018885
LLC TRANSLATION FROM L1D PREFETCHER ACCESS:       5857  HIT:        664  MISS:       5193  HIT %:    11.3369  MISS %:    88.6631   MPKI: 0.025965
LLC PREFETCH  REQUESTED:          0  ISSUED:          0  USEFUL:      45804  USELESS:   11577903
LLC USEFUL LOAD PREFETCHES:      45804 PREFETCH ISSUED TO LOWER LEVEL:   13275024  ACCURACY: 0.345039
LLC TIMELY PREFETCHES:      45804 LATE PREFETCHES: 0 DROPPED PREFETCHES: 0
LLC PREFETCHES SAME FILL-ORIGIN LEVEL: 0 DIFFERENT FILL-ORIGIN LEVEL: 0
LLC AVERAGE MISS LATENCY: 1395.96 cycles
LLC RQ	ACCESS:   10021540	FORWARD:          0	MERGED:          0	TO_CACHE:   10021539
LLC WQ	ACCESS:    3165088	FORWARD:          1	MERGED:          0	TO_CACHE:    3165088
LLC PQ	ACCESS:   11904769	FORWARD:          0	MERGED:          0	TO_CACHE:   11904769

LLC Dense regions hint to LLC: 0

RAW hits: 86
Loads Generated: 56680205
Loads sent to L1D: 56680119
Stores Generated: 1807930
Stores sent to L1D: 1807930
Major fault: 0 Minor fault: 66733
Allocated PAGES: 266932

CPU 2 cumulative IPC: 0.306622 instructions: 200000000 cycles: 652267938
ITLB TOTAL     ACCESS:   34833270  HIT:   34833261  MISS:          9  HIT %:        100  MISS %: 2.58374e-05   MPKI: 4.5e-05
ITLB LOAD TRANSLATION ACCESS:   34833270  HIT:   34833261  MISS:          9  HIT %:        100  MISS %: 2.58374e-05   MPKI: 4.5e-05
ITLB PREFETCH  REQUESTED:          0  ISSUED:          0  USEFUL:          0  USELESS:          0
ITLB USEFUL LOAD PREFETCHES:          0 PREFETCH ISSUED TO LOWER LEVEL:          0  ACCURACY: -nan
ITLB TIMELY PREFETCHES:          0 LATE PREFETCHES: 0 DROPPED PREFETCHES: 0
ITLB PREFETCHES SAME FILL-ORIGIN LEVEL: 0 DIFFERENT FILL-ORIGIN LEVEL: 0
ITLB AVERAGE MISS LATENCY: 436.111 cycles
ITLB RQ	ACCESS:   35710397	FORWARD:          0	MERGED:     877125	TO_CACHE:   34833272

DTLB TOTAL     ACCESS:   40092739  HIT:   38190637  MISS:    1902102  HIT %:    95.2557  MISS %:    4.74426   MPKI: 9.51051
DTLB LOAD TRANSLATION ACCESS:   40092739  HIT:   38190637  MISS:    1902102  HIT %:    95.2557  MISS %:    4.74426   MPKI: 9.51051
DTLB PREFETCH  REQUESTED:          0  ISSUED:          0  USEFUL:          0  USELESS:          0
DTLB USEFUL LOAD PREFETCHES:          0 PREFETCH ISSUED TO LOWER LEVEL:          0  ACCURACY: -nan
DTLB TIMELY PREFETCHES:          0 LATE PREFETCHES: 0 DROPPED PREFETCHES: 0
DTLB PREFETCHES SAME FILL-ORIGIN LEVEL: 0 DIFFERENT FILL-ORIGIN LEVEL: 0
DTLB AVERAGE MISS LATENCY: 23.3652 cycles
DTLB RQ	ACCESS:   41688953	FORWARD:          0	MERGED:    1541805	TO_CACHE:   40147148

STLB TOTAL     ACCESS:   23151677  HIT:   22440317  MISS:     711360  HIT %:    96.9274  MISS %:    3.07261   MPKI: 3.5568
STLB LOAD TRANSLATION ACCESS:    1902111  HIT:    1195349  MISS:     706762  HIT %:    62.8433  MISS %:    37.1567   MPKI: 3.53381
STLB TRANSLATION FROM L1D PREFETCHER ACCESS:   21249566  HIT:   21244968  MISS:       4598  HIT %:    99.9784  MISS %:  0.0216381   MPKI: 0.02299
STLB PREFETCH  REQUESTED:          0  ISSUED:          0  USEFUL:       4167  USELESS:        433
STLB USEFUL LOAD PREFETCHES:       4167 PREFETCH ISSUED TO LOWER LEVEL:          0  ACCURACY: inf
STLB TIMELY PREFETCHES:       4167 LATE PREFETCHES: 4317 DROPPED PREFETCHES: 1344152
STLB PREFETCHES SAME FILL-ORIGIN LEVEL: 0 DIFFERENT FILL-ORIGIN LEVEL: 0
STLB AVERAGE MISS LATENCY: 37.8569 cycles
STLB RQ	ACCESS:  117706789	FORWARD:          0	MERGED:   93065362	TO_CACHE:   24641427

STLB Hit, L1D data hit: 0
STLB Hit, L2C data hit: 0
STLB Hit, LLC data hit: 0
STLB Hit, LLC data miss: 0
STLB STLB hints to L2: 0
L1D TOTAL     ACCESS:  116643520  HIT:  111572794  MISS:    5070726  HIT %:    95.6528  MISS %:     4.3472   MPKI: 25.3536
L1D LOAD      ACCESS:   39391737  HIT:   36815726  MISS:    2576011  HIT %:    93.4605  MISS %:    6.53947   MPKI: 12.8801
L1D RFO       ACCESS:    1388326  HIT:    1068362  MISS:     319964  HIT %:    76.9533  MISS %:    23.0467   MPKI: 1.59982
L1D PREFETCH  ACCESS:   75863457  HIT:   73688706  MISS:    2174751  HIT %:    97.1333  MISS %:    2.86666   MPKI: 10.8738
L1D PREFETCH  REQUESTED:  410808591  ISSUED:  333365150  USEFUL:    1830713  USELESS:     344042
L1D USEFUL LOAD PREFETCHES:    1830713 PREFETCH ISSUED TO LOWER LEVEL:   30540662  ACCURACY: 5.99435
L1D TIMELY PREFETCHES:    1830713 LATE PREFETCHES: 27160 DROPPED PREFETCHES: 4471442
L1D PREFETCHES SAME FILL-ORIGIN LEVEL: 2201931 DIFFERENT FILL-ORIGIN LEVEL: 28338731
L1D AVERAGE MISS LATENCY: 279.7 cycles
L1D RQ	ACCESS:   56680101	FORWARD:          0	MERGED:   16799068	TO_CACHE:   39881023
L1D WQ	ACCESS:    1807930	FORWARD:         81	MERGED:          0	TO_CACHE:    1807930
L1D PQ	ACCESS:  217560475	FORWARD:          0	MERGED:  101755729	TO_CACHE:  115804675

L1D UNIQUE REGIONS ACCESSED: 0
L1D REGIONS CONFLICTS: 0
L1D Cross Page Prefetch Requests: 18089496
L1D Same Page Prefetch Requests: 244700165
L1D ROI Sum of L1D PQ occupancy: 1769463947
L1D PREFETCHES PUSHED FROM L2C: 0
L1I TOTAL     ACCESS:   35710387  HIT:   35710291  MISS:         96  HIT %:    99.9997  MISS %: 0.000268829   MPKI: 0.00048
L1I LOAD      ACCESS:   35710387  HIT:   35710291  MISS:         96  HIT %:    99.9997  MISS %: 0.000268829   MPKI: 0.00048
L1I PREFETCH  REQUESTED:          0  ISSUED:          0  USEFUL:          0  USELESS:          0
L1I USEFUL LOAD PREFETCHES:          0 PREFETCH ISSUED TO LOWER LEVEL:          0  ACCURACY: -nan
L1I TIMELY PREFETCHES:          0 LATE PREFETCHES: 0 DROPPED PREFETCHES: 0
L1I PREFETCHES SAME FILL-ORIGIN LEVEL: 0 DIFFERENT FILL-ORIGIN LEVEL: 0
L1I AVERAGE MISS LATENCY: 240.865 cycles
L1I RQ	ACCESS:   51333187	FORWARD:          0	MERGED:   15622790	TO_CACHE:   35710397

BTB TOTAL     ACCESS:   33115684  HIT:   33115558  MISS:        126  HIT %:    99.9996  MISS %: 0.000380484   MPKI: 0.00063
BTB BRANCH_DIRECT_JUMP	ACCESS:    1271126  HIT:    1271106  MISS:         20
BTB BRANCH_INDIRECT	ACCESS:          0  HIT:          0  MISS:          0
BTB BRANCH_CONDITIONAL	ACCESS:   31844521  HIT:   31844444  MISS:         77
BTB BRANCH_DIRECT_CALL	ACCESS:         19  HIT:          5  MISS:         14
BTB BRANCH_INDIRECT_CALL	ACCESS:          0  HIT:          0  MISS:          0
BTB BRANCH_RETURN	ACCESS:         18  HIT:          3  MISS:         15
BTB BRANCH_OTHER ACCESS:          0  HIT:          0  MISS:          0

L2C TOTAL     ACCESS:   33109466  HIT:   27573722  MISS:    5535744  HIT %:    83.2805  MISS %:    16.7195   MPKI: 27.6787
L2C LOAD      ACCESS:    2548947  HIT:     504722  MISS:    2044225  HIT %:    19.8012  MISS %:    80.1988   MPKI: 10.2211
L2C DATA LOAD MPKI: 10.2206
L2C INSTRUCTION LOAD MPKI: 0.00048
L2C RFO       ACCESS:     319962  HIT:       7389  MISS:     312573  HIT %:    2.30934  MISS %:    97.6907   MPKI: 1.56286
L2C PREFETCH  ACCESS:   27372006  HIT:   24415358  MISS:    2956648  HIT %:    89.1983  MISS %:    10.8017   MPKI: 14.7832
L2C DATA PREFETCH MPKI: 14.7832
L2C INSTRUCTION PREFETCH MPKI: 0
L2C WRITEBACK ACCESS:     808275  HIT:     750082  MISS:      58193  HIT %:    92.8003  MISS %:    7.19965   MPKI: 0.290965
L2C LOAD TRANSLATION ACCESS:     706815  HIT:     548576  MISS:     158239  HIT %:    77.6124  MISS %:    22.3876   MPKI: 0.791195
L2C TRANSLATION FROM L1D PREFETCHER ACCESS:    1353461  HIT:    1347595  MISS:       5866  HIT %:    99.5666  MISS %:   0.433407   MPKI: 0.02933
L2C PREFETCH  REQUESTED:          0  ISSUED:          0  USEFUL:     362301  USELESS:    2595696
L2C USEFUL LOAD PREFETCHES:     362301 PREFETCH ISSUED TO LOWER LEVEL:    2974117  ACCURACY: 12.1818
L2C TIMELY PREFETCHES:     362301 LATE PREFETCHES: 17469 DROPPED PREFETCHES: 0
L2C PREFETCHES SAME FILL-ORIGIN LEVEL: 1650803 DIFFERENT FILL-ORIGIN LEVEL: 0
L2C AVERAGE MISS LATENCY: 343.46 cycles
L2C RQ	ACCESS:    4929188	FORWARD:          0	MERGED:          0	TO_CACHE:    4929186
L2C WQ	ACCESS:     808275	FORWARD:          3	MERGED:          0	TO_CACHE:     808275
L2C PQ	ACCESS:   30537539	FORWARD:          0	MERGED:      78486	TO_CACHE:   30459052

L2C Instructions Evicting Data 96
L2C Translations Evicting Data 158383
L2C Data Evicting Data 5156228
L2C Instructions Evicting Instructions 0
L2C Translations Evicting Instructions 0
L2C Data Evicting Instructions 94
L2C Instructions Evicting Translations 0
L2C Translations Evicting Translations 5722
L2C Data Evicting Translations 157028
L2C Dense regions hint from L2: 0
PSCL5 TOTAL     ACCESS:    2059821  HIT:    2059821  MISS:          0  HIT %:        100  MISS %:          0   MPKI: 0
PSCL5 LOAD TRANSLATION ACCESS:     706754  HIT:     706754  MISS:          0  HIT %:        100  MISS %:          0   MPKI: 0
PSCL5 TRANSLATION FROM L1D PREFETCHER ACCESS:    1353067  HIT:    1353067  MISS:          0  HIT %:        100  MISS %:          0   MPKI: 0
PSCL5 PREFETCH  REQUESTED:          0  ISSUED:          0  USEFUL:          0  USELESS:          0
PSCL5 USEFUL LOAD PREFETCHES:          0 PREFETCH ISSUED TO LOWER LEVEL:          0  ACCURACY: -nan
PSCL5 TIMELY PREFETCHES:          0 LATE PREFETCHES: 0 DROPPED PREFETCHES: 0
PSCL5 PREFETCHES SAME FILL-ORIGIN LEVEL: 0 DIFFERENT FILL-ORIGIN LEVEL: 0

PSCL4 TOTAL     ACCESS:    2059821  HIT:    2059821  MISS:          0  HIT %:        100  MISS %:          0   MPKI: 0
PSCL4 LOAD TRANSLATION ACCESS:     706754  HIT:     706754  MISS:          0  HIT %:        100  MISS %:          0   MPKI: 0
PSCL4 TRANSLATION FROM L1D PREFETCHER ACCESS:    1353067  HIT:    1353067  MISS:          0  HIT %:        100  MISS %:          0   MPKI: 0
PSCL4 PREFETCH  REQUESTED:          0  ISSUED:          0  USEFUL:          0  USELESS:          0
PSCL4 USEFUL LOAD PREFETCHES:          0 PREFETCH ISSUED TO LOWER LEVEL:          0  ACCURACY: -nan
PSCL4 TIMELY PREFETCHES:          0 LATE PREFETCHES: 0 DROPPED PREFETCHES: 0
PSCL4 PREFETCHES SAME FILL-ORIGIN LEVEL: 0 DIFFERENT FILL-ORIGIN LEVEL: 0

PSCL3 TOTAL     ACCESS:    2059821  HIT:    2059820  MISS:          1  HIT %:        100  MISS %: 4.85479e-05   MPKI: 5e-06
PSCL3 LOAD TRANSLATION ACCESS:     706754  HIT:     706753  MISS:          1  HIT %:    99.9999  MISS %: 0.000141492   MPKI: 5e-06
PSCL3 TRANSLATION FROM L1D PREFETCHER ACCESS:    1353067  HIT:    1353067  MISS:          0  HIT %:        100  MISS %:          0   MPKI: 0
PSCL3 PREFETCH  REQUESTED:          0  ISSUED:          0  USEFUL:          0  USELESS:          0
PSCL3 USEFUL LOAD PREFETCHES:          0 PREFETCH ISSUED TO LOWER LEVEL:          0  ACCURACY: -nan
PSCL3 TIMELY PREFETCHES:          0 LATE PREFETCHES: 0 DROPPED PREFETCHES: 0
PSCL3 PREFETCHES SAME FILL-ORIGIN LEVEL: 0 DIFFERENT FILL-ORIGIN LEVEL: 0

PSCL2 TOTAL     ACCESS:    2057122  HIT:    2056977  MISS:        145  HIT %:     99.993  MISS %: 0.00704868   MPKI: 0.000725
PSCL2 LOAD TRANSLATION ACCESS:     706754  HIT:     706609  MISS:        145  HIT %:    99.9795  MISS %:  0.0205163   MPKI: 0.000725
PSCL2 TRANSLATION FROM L1D PREFETCHER ACCESS:    1350368  HIT:    1350368  MISS:          0  HIT %:        100  MISS %:          0   MPKI: 0
PSCL2 PREFETCH  REQUESTED:          0  ISSUED:          0  USEFUL:          0  USELESS:          0
PSCL2 USEFUL LOAD PREFETCHES:          0 PREFETCH ISSUED TO LOWER LEVEL:          0  ACCURACY: -nan
PSCL2 TIMELY PREFETCHES:          0 LATE PREFETCHES: 0 DROPPED PREFETCHES: 0
PSCL2 PREFETCHES SAME FILL-ORIGIN LEVEL: 0 DIFFERENT FILL-ORIGIN LEVEL: 0

LLC TOTAL     ACCESS:    6268806  HIT:    1283051  MISS:    4985755  HIT %:    20.4672  MISS %:    79.5328   MPKI: 24.9288
LLC LOAD      ACCESS:    2026756  HIT:     296333  MISS:    1730423  HIT %:     14.621  MISS %:     85.379   MPKI: 8.65212
LLC RFO       ACCESS:     312573  HIT:       9304  MISS:     303269  HIT %:    2.97658  MISS %:    97.0234   MPKI: 1.51635
LLC PREFETCH  ACCESS:    2974117  HIT:      62066  MISS:    2912051  HIT %:    2.08687  MISS %:    97.9131   MPKI: 14.5603
LLC WRITEBACK ACCESS:     791255  HIT:     760071  MISS:      31184  HIT %:    96.0589  MISS %:    3.94108   MPKI: 0.15592
LLC LOAD TRANSLATION ACCESS:     158239  HIT:     154611  MISS:       3628  HIT %:    97.7073  MISS %:    2.29273   MPKI: 0.01814
LLC TRANSLATION FROM L1D PREFETCHER ACCESS:       5866  HIT:        666  MISS:       5200  HIT %:    11.3536  MISS %:    88.6464   MPKI: 0.026
LLC PREFETCH  REQUESTED:          0  ISSUED:          0  USEFUL:      45804  USELESS:   11577903
LLC USEFUL LOAD PREFETCHES:      45804 PREFETCH ISSUED TO LOWER LEVEL:   13275024  ACCURACY: 0.345039
LLC TIMELY PREFETCHES:      45804 LATE PREFETCHES: 0 DROPPED PREFETCHES: 0
LLC PREFETCHES SAME FILL-ORIGIN LEVEL: 0 DIFFERENT FILL-ORIGIN LEVEL: 0
LLC AVERAGE MISS LATENCY: 1396.18 cycles
LLC RQ	ACCESS:   10021540	FORWARD:          0	MERGED:          0	TO_CACHE:   10021539
LLC WQ	ACCESS:    3165088	FORWARD:          1	MERGED:          0	TO_CACHE:    3165088
LLC PQ	ACCESS:   11904769	FORWARD:          0	MERGED:          0	TO_CACHE:   11904769

LLC Dense regions hint to LLC: 0

RAW hits: 85
Loads Generated: 56680186
Loads sent to L1D: 56680101
Stores Generated: 1807930
Stores sent to L1D: 1807930
Major fault: 0 Minor fault: 66733
Allocated PAGES: 266932

CPU 3 cumulative IPC: 0.306846 instructions: 200000000 cycles: 651792934
ITLB TOTAL     ACCESS:   34832754  HIT:   34832745  MISS:          9  HIT %:        100  MISS %: 2.58378e-05   MPKI: 4.5e-05
ITLB LOAD TRANSLATION ACCESS:   34832754  HIT:   34832745  MISS:          9  HIT %:        100  MISS %: 2.58378e-05   MPKI: 4.5e-05
ITLB PREFETCH  REQUESTED:          0  ISSUED:          0  USEFUL:          0  USELESS:          0
ITLB USEFUL LOAD PREFETCHES:          0 PREFETCH ISSUED TO LOWER LEVEL:          0  ACCURACY: -nan
ITLB TIMELY PREFETCHES:          0 LATE PREFETCHES: 0 DROPPED PREFETCHES: 0
ITLB PREFETCHES SAME FILL-ORIGIN LEVEL: 0 DIFFERENT FILL-ORIGIN LEVEL: 0
ITLB AVERAGE MISS LATENCY: 498.222 cycles
ITLB RQ	ACCESS:   35719290	FORWARD:          0	MERGED:     877298	TO_CACHE:   34841992

DTLB TOTAL     ACCESS:   40099591  HIT:   38197472  MISS:    1902119  HIT %:    95.2565  MISS %:    4.74349   MPKI: 9.5106
DTLB LOAD TRANSLATION ACCESS:   40099591  HIT:   38197472  MISS:    1902119  HIT %:    95.2565  MISS %:    4.74349   MPKI: 9.5106
DTLB PREFETCH  REQUESTED:          0  ISSUED:          0  USEFUL:          0  USELESS:          0
DTLB USEFUL LOAD PREFETCHES:          0 PREFETCH ISSUED TO LOWER LEVEL:          0  ACCURACY: -nan
DTLB TIMELY PREFETCHES:          0 LATE PREFETCHES: 0 DROPPED PREFETCHES: 0
DTLB PREFETCHES SAME FILL-ORIGIN LEVEL: 0 DIFFERENT FILL-ORIGIN LEVEL: 0
DTLB AVERAGE MISS LATENCY: 23.5367 cycles
DTLB RQ	ACCESS:   41712196	FORWARD:          0	MERGED:    1545335	TO_CACHE:   40166861

STLB TOTAL     ACCESS:   23173904  HIT:   22462673  MISS:     711231  HIT %:    96.9309  MISS %:     3.0691   MPKI: 3.55615
STLB LOAD TRANSLATION ACCESS:    1902128  HIT:    1195413  MISS:     706715  HIT %:    62.8461  MISS %:    37.1539   MPKI: 3.53357
STLB TRANSLATION FROM L1D PREFETCHER ACCESS:   21271776  HIT:   21267260  MISS:       4516  HIT %:    99.9788  MISS %:    0.02123   MPKI: 0.02258
STLB PREFETCH  REQUESTED:          0  ISSUED:          0  USEFUL:       4140  USELESS:        390
STLB USEFUL LOAD PREFETCHES:       4140 PREFETCH ISSUED TO LOWER LEVEL:          0  ACCURACY: inf
STLB TIMELY PREFETCHES:       4140 LATE PREFETCHES: 4349 DROPPED PREFETCHES: 1333070
STLB PREFETCHES SAME FILL-ORIGIN LEVEL: 0 DIFFERENT FILL-ORIGIN LEVEL: 0
STLB AVERAGE MISS LATENCY: 38.3057 cycles
STLB RQ	ACCESS:  117712744	FORWARD:          0	MERGED:   93054193	TO_CACHE:   24658551

STLB Hit, L1D data hit: 0
STLB Hit, L2C data hit: 0
STLB Hit, LLC data hit: 0
STLB Hit, LLC data miss: 0
STLB STLB hints to L2: 0
L1D TOTAL     ACCESS:  116816835  HIT:  111746918  MISS:    5069917  HIT %:    95.6599  MISS %:    4.34006   MPKI: 25.3496
L1D LOAD      ACCESS:   39402467  HIT:   36827052  MISS:    2575415  HIT %:    93.4638  MISS %:    6.53618   MPKI: 12.8771
L1D RFO       ACCESS:    1388645  HIT:    1068693  MISS:     319952  HIT %:    76.9594  MISS %:    23.0406   MPKI: 1.59976
L1D PREFETCH  ACCESS:   76025723  HIT:   73851173  MISS:    2174550  HIT %:    97.1397  MISS %:    2.86028   MPKI: 10.8727
L1D PREFETCH  REQUESTED:  410462895  ISSUED:  333662243  USEFUL:    1831721  USELESS:     343392
L1D USEFUL LOAD PREFETCHES:    1831721 PREFETCH ISSUED TO LOWER LEVEL:   30492021  ACCURACY: 6.00721
L1D TIMELY PREFETCHES:    1831721 LATE PREFETCHES: 27091 DROPPED PREFETCHES: 4455737
L1D PREFETCHES SAME FILL-ORIGIN LEVEL: 2202320 DIFFERENT FILL-ORIGIN LEVEL: 28289701
L1D AVERAGE MISS LATENCY: 280.022 cycles
L1D RQ	ACCESS:   56699943	FORWARD:          0	MERGED:   16796162	TO_CACHE:   39903771
L1D WQ	ACCESS:    1808425	FORWARD:         86	MERGED:          0	TO_CACHE:    1808425
L1D PQ	ACCESS:  217852922	FORWARD:          0	MERGED:  102043525	TO_CACHE:  115809321

L1D UNIQUE REGIONS ACCESSED: 0
L1D REGIONS CONFLICTS: 0
L1D Cross Page Prefetch Requests: 18099102
L1D Same Page Prefetch Requests: 245197497
L1D ROI Sum of L1D PQ occupancy: 1767586966
L1D PREFETCHES PUSHED FROM L2C: 0
L1I TOTAL     ACCESS:   35709872  HIT:   35709776  MISS:         96  HIT %:    99.9997  MISS %: 0.000268833   MPKI: 0.00048
L1I LOAD      ACCESS:   35709872  HIT:   35709776  MISS:         96  HIT %:    99.9997  MISS %: 0.000268833   MPKI: 0.00048
L1I PREFETCH  REQUESTED:          0  ISSUED:          0  USEFUL:          0  USELESS:          0
L1I USEFUL LOAD PREFETCHES:          0 PREFETCH ISSUED TO LOWER LEVEL:          0  ACCURACY: -nan
L1I TIMELY PREFETCHES:          0 LATE PREFETCHES: 0 DROPPED PREFETCHES: 0
L1I PREFETCHES SAME FILL-ORIGIN LEVEL: 0 DIFFERENT FILL-ORIGIN LEVEL: 0
L1I AVERAGE MISS LATENCY: 278.938 cycles
L1I RQ	ACCESS:   51346310	FORWARD:          0	MERGED:   15627020	TO_CACHE:   35719290

BTB TOTAL     ACCESS:   33115686  HIT:   33115559  MISS:        127  HIT %:    99.9996  MISS %: 0.000383504   MPKI: 0.000635
BTB BRANCH_DIRECT_JUMP	ACCESS:    1271126  HIT:    1271106  MISS:         20
BTB BRANCH_INDIRECT	ACCESS:          0  HIT:          0  MISS:          0
BTB BRANCH_CONDITIONAL	ACCESS:   31844523  HIT:   31844445  MISS:         78
BTB BRANCH_DIRECT_CALL	ACCESS:         19  HIT:          5  MISS:         14
BTB BRANCH_INDIRECT_CALL	ACCESS:          0  HIT:          0  MISS:          0
BTB BRANCH_RETURN	ACCESS:         18  HIT:          3  MISS:         15
BTB BRANCH_OTHER ACCESS:          0  HIT:          0  MISS:          0

L2C TOTAL     ACCESS:   33067461  HIT:   27528047  MISS:    5539414  HIT %:    83.2481  MISS %:    16.7519   MPKI: 27.6971
L2C LOAD      ACCESS:    2548440  HIT:     503990  MISS:    2044450  HIT %:    19.7764  MISS %:    80.2236   MPKI: 10.2223
L2C DATA LOAD MPKI: 10.2218
L2C INSTRUCTION LOAD MPKI: 0.00048
L2C RFO       ACCESS:     319950  HIT:       7439  MISS:     312511  HIT %:    2.32505  MISS %:    97.6749   MPKI: 1.56255
L2C PREFETCH  ACCESS:   27341721  HIT:   24385822  MISS:    2955899  HIT %:    89.1891  MISS %:    10.8109   MPKI: 14.7795
L2C DATA PREFETCH MPKI: 14.7795
L2C INSTRUCTION PREFETCH MPKI: 0
L2C WRITEBACK ACCESS:     808255  HIT:     749599  MISS:      58656  HIT %:    92.7429  MISS %:    7.25712   MPKI: 0.29328
L2C LOAD TRANSLATION ACCESS:     706768  HIT:     544698  MISS:     162070  HIT %:    77.0689  MISS %:    22.9311   MPKI: 0.81035
L2C TRANSLATION FROM L1D PREFETCHER ACCESS:    1342327  HIT:    1336499  MISS:       5828  HIT %:    99.5658  MISS %:   0.434171   MPKI: 0.02914
L2C PREFETCH  REQUESTED:          0  ISSUED:          0  USEFUL:     361941  USELESS:    2598190
L2C USEFUL LOAD PREFETCHES:     361941 PREFETCH ISSUED TO LOWER LEVEL:    2974792  ACCURACY: 12.1669
L2C TIMELY PREFETCHES:     361941 LATE PREFETCHES: 17758 DROPPED PREFETCHES: 0
L2C PREFETCHES SAME FILL-ORIGIN LEVEL: 1644092 DIFFERENT FILL-ORIGIN LEVEL: 0
L2C AVERAGE MISS LATENCY: 343.486 cycles
L2C RQ	ACCESS:    4920093	FORWARD:          0	MERGED:          0	TO_CACHE:    4920089
L2C WQ	ACCESS:     808431	FORWARD:          4	MERGED:          0	TO_CACHE:     808431
L2C PQ	ACCESS:   30488637	FORWARD:          0	MERGED:      77761	TO_CACHE:   30410876

L2C Instructions Evicting Data 96
L2C Translations Evicting Data 161254
L2C Data Evicting Data 5155831
L2C Instructions Evicting Instructions 0
L2C Translations Evicting Instructions 0
L2C Data Evicting Instructions 95
L2C Instructions Evicting Translations 0
L2C Translations Evicting Translations 6987
L2C Data Evicting Translations 159554
L2C Dense regions hint from L2: 0
PSCL5 TOTAL     ACCESS:    2048642  HIT:    2048642  MISS:          0  HIT %:        100  MISS %:          0   MPKI: 0
PSCL5 LOAD TRANSLATION ACCESS:     706708  HIT:     706708  MISS:          0  HIT %:        100  MISS %:          0   MPKI: 0
PSCL5 TRANSLATION FROM L1D PREFETCHER ACCESS:    1341934  HIT:    1341934  MISS:          0  HIT %:        100  MISS %:          0   MPKI: 0
PSCL5 PREFETCH  REQUESTED:          0  ISSUED:          0  USEFUL:          0  USELESS:          0
PSCL5 USEFUL LOAD PREFETCHES:          0 PREFETCH ISSUED TO LOWER LEVEL:          0  ACCURACY: -nan
PSCL5 TIMELY PREFETCHES:          0 LATE PREFETCHES: 0 DROPPED PREFETCHES: 0
PSCL5 PREFETCHES SAME FILL-ORIGIN LEVEL: 0 DIFFERENT FILL-ORIGIN LEVEL: 0

PSCL4 TOTAL     ACCESS:    2048642  HIT:    2048642  MISS:          0  HIT %:        100  MISS %:          0   MPKI: 0
PSCL4 LOAD TRANSLATION ACCESS:     706708  HIT:     706708  MISS:          0  HIT %:        100  MISS %:          0   MPKI: 0
PSCL4 TRANSLATION FROM L1D PREFETCHER ACCESS:    1341934  HIT:    1341934  MISS:          0  HIT %:        100  MISS %:          0   MPKI: 0
PSCL4 PREFETCH  REQUESTED:          0  ISSUED:          0  USEFUL:          0  USELESS:          0
PSCL4 USEFUL LOAD PREFETCHES:          0 PREFETCH ISSUED TO LOWER LEVEL:          0  ACCURACY: -nan
PSCL4 TIMELY PREFETCHES:          0 LATE PREFETCHES: 0 DROPPED PREFETCHES: 0
PSCL4 PREFETCHES SAME FILL-ORIGIN LEVEL: 0 DIFFERENT FILL-ORIGIN LEVEL: 0

PSCL3 TOTAL     ACCESS:    2048642  HIT:    2048641  MISS:          1  HIT %:        100  MISS %: 4.88128e-05   MPKI: 5e-06
PSCL3 LOAD TRANSLATION ACCESS:     706708  HIT:     706707  MISS:          1  HIT %:    99.9999  MISS %: 0.000141501   MPKI: 5e-06
PSCL3 TRANSLATION FROM L1D PREFETCHER ACCESS:    1341934  HIT:    1341934  MISS:          0  HIT %:        100  MISS %:          0   MPKI: 0
PSCL3 PREFETCH  REQUESTED:          0  ISSUED:          0  USEFUL:          0  USELESS:          0
PSCL3 USEFUL LOAD PREFETCHES:          0 PREFETCH ISSUED TO LOWER LEVEL:          0  ACCURACY: -nan
PSCL3 TIMELY PREFETCHES:          0 LATE PREFETCHES: 0 DROPPED PREFETCHES: 0
PSCL3 PREFETCHES SAME FILL-ORIGIN LEVEL: 0 DIFFERENT FILL-ORIGIN LEVEL: 0

PSCL2 TOTAL     ACCESS:    2045706  HIT:    2045562  MISS:        144  HIT %:     99.993  MISS %: 0.00703913   MPKI: 0.00072
PSCL2 LOAD TRANSLATION ACCESS:     706708  HIT:     706564  MISS:        144  HIT %:    99.9796  MISS %:  0.0203762   MPKI: 0.00072
PSCL2 TRANSLATION FROM L1D PREFETCHER ACCESS:    1338998  HIT:    1338998  MISS:          0  HIT %:        100  MISS %:          0   MPKI: 0
PSCL2 PREFETCH  REQUESTED:          0  ISSUED:          0  USEFUL:          0  USELESS:          0
PSCL2 USEFUL LOAD PREFETCHES:          0 PREFETCH ISSUED TO LOWER LEVEL:          0  ACCURACY: -nan
PSCL2 TIMELY PREFETCHES:          0 LATE PREFETCHES: 0 DROPPED PREFETCHES: 0
PSCL2 PREFETCHES SAME FILL-ORIGIN LEVEL: 0 DIFFERENT FILL-ORIGIN LEVEL: 0

LLC TOTAL     ACCESS:    6271912  HIT:    1286826  MISS:    4985086  HIT %:    20.5173  MISS %:    79.4827   MPKI: 24.9254
LLC LOAD      ACCESS:    2026705  HIT:     296836  MISS:    1729869  HIT %:    14.6462  MISS %:    85.3538   MPKI: 8.64935
LLC RFO       ACCESS:     312511  HIT:       9087  MISS:     303424  HIT %:    2.90774  MISS %:    97.0923   MPKI: 1.51712
LLC PREFETCH  ACCESS:    2973643  HIT:      61700  MISS:    2911943  HIT %:     2.0749  MISS %:    97.9251   MPKI: 14.5597
LLC WRITEBACK ACCESS:     791155  HIT:     759680  MISS:      31475  HIT %:    96.0216  MISS %:    3.97836   MPKI: 0.157375
LLC LOAD TRANSLATION ACCESS:     162070  HIT:     158881  MISS:       3189  HIT %:    98.0323  MISS %:    1.96767   MPKI: 0.015945
LLC TRANSLATION FROM L1D PREFETCHER ACCESS:       5828  HIT:        642  MISS:       5186  HIT %:    11.0158  MISS %:    88.9842   MPKI: 0.02593
LLC PREFETCH  REQUESTED:          0  ISSUED:          0  USEFUL:      45804  USELESS:   11577903
LLC USEFUL LOAD PREFETCHES:      45804 PREFETCH ISSUED TO LOWER LEVEL:   13275024  ACCURACY: 0.345039
LLC TIMELY PREFETCHES:      45804 LATE PREFETCHES: 0 DROPPED PREFETCHES: 0
LLC PREFETCHES SAME FILL-ORIGIN LEVEL: 0 DIFFERENT FILL-ORIGIN LEVEL: 0
LLC AVERAGE MISS LATENCY: 1396.36 cycles
LLC RQ	ACCESS:   10021540	FORWARD:          0	MERGED:          0	TO_CACHE:   10021539
LLC WQ	ACCESS:    3165088	FORWARD:          1	MERGED:          0	TO_CACHE:    3165088
LLC PQ	ACCESS:   11904769	FORWARD:          0	MERGED:          0	TO_CACHE:   11904769

LLC Dense regions hint to LLC: 0

RAW hits: 85
Loads Generated: 56680200
Loads sent to L1D: 56680109
Stores Generated: 1807930
Stores sent to L1D: 1807930
Major fault: 0 Minor fault: 66733
Allocated PAGES: 266932

DRAM Statistics
 CHANNEL 0
 RQ ROW_BUFFER_HIT:    4249505  ROW_BUFFER_MISS:   15581202
 DBUS_CONGESTED:        138
 WQ ROW_BUFFER_HIT:     110007  ROW_BUFFER_MISS:    2964142  FULL:          0

 AVG_CONGESTED_CYCLE: 5
 All warmup complete: 5
Channel 0 Bank busy for read cycles: 0
Channel 0 Bank busy for write cycles: 0
Channel 0
Rank 0
0banks busy for read cycles: 116958
0banks busy for write cycles: 1
1banks busy for read cycles: 17313581
1banks busy for write cycles: 360389
2banks busy for read cycles: 59038336
2banks busy for write cycles: 360225
3banks busy for read cycles: 90134576
3banks busy for write cycles: 360392
4banks busy for read cycles: 100221339
4banks busy for write cycles: 360182
5banks busy for read cycles: 94770578
5banks busy for write cycles: 389089
6banks busy for read cycles: 77917488
6banks busy for write cycles: 1499748
7banks busy for read cycles: 60655573
7banks busy for write cycles: 15591710
8banks busy for read cycles: 58731136
8banks busy for write cycles: 74446638

CPU 0 Branch Prediction Accuracy: 91.684% MPKI: 16.0251 Average ROB Occupancy at Mispredict: 19.6968
Branch types
NOT_BRANCH: 161553864 80.7299%
BRANCH_DIRECT_JUMP: 1271341 0.6353%
BRANCH_INDIRECT: 0 0%
BRANCH_CONDITIONAL: 37291364 18.6348%
BRANCH_DIRECT_CALL: 19 9.49446e-06%
BRANCH_INDIRECT_CALL: 0 0%
BRANCH_RETURN: 18 8.99476e-06%
BRANCH_OTHER: 0 0%


CPU 1 Branch Prediction Accuracy: 91.6828% MPKI: 16.0288 Average ROB Occupancy at Mispredict: 19.687
Branch types
NOT_BRANCH: 161505668 80.7283%
BRANCH_DIRECT_JUMP: 1271309 0.635461%
BRANCH_INDIRECT: 0 0%
BRANCH_CONDITIONAL: 37284187 18.6364%
BRANCH_DIRECT_CALL: 19 9.49711e-06%
BRANCH_INDIRECT_CALL: 0 0%
BRANCH_RETURN: 18 8.99726e-06%
BRANCH_OTHER: 0 0%


CPU 2 Branch Prediction Accuracy: 91.6825% MPKI: 16.0307 Average ROB Occupancy at Mispredict: 19.6821
Branch types
NOT_BRANCH: 161453110 80.7266%
BRANCH_DIRECT_JUMP: 1271126 0.635563%
BRANCH_INDIRECT: 0 0%
BRANCH_CONDITIONAL: 37275753 18.6379%
BRANCH_DIRECT_CALL: 19 9.5e-06%
BRANCH_INDIRECT_CALL: 0 0%
BRANCH_RETURN: 18 9e-06%
BRANCH_OTHER: 0 0%


CPU 3 Branch Prediction Accuracy: 91.6827% MPKI: 16.0292 Average ROB Occupancy at Mispredict: 19.6873
Branch types
NOT_BRANCH: 161501031 80.7281%
BRANCH_DIRECT_JUMP: 1271309 0.635478%
BRANCH_INDIRECT: 0 0%
BRANCH_CONDITIONAL: 37283495 18.6366%
BRANCH_DIRECT_CALL: 19 9.49736e-06%
BRANCH_INDIRECT_CALL: 0 0%
BRANCH_RETURN: 18 8.9975e-06%
BRANCH_OTHER: 0 0%

DRAM PAGES: 1048576
Allocated PAGES: 266932
