
*** ChampSim Multicore Out-of-Order Simulator ***

Warmup Instructions: 50000000
Simulation Instructions: 200000000
Number of CPUs: 4
LLC sets: 8192
LLC ways: 16
Off-chip DRAM Size: 4096 MB Channels: 1 Width: 64-bit Data Rate: 6400 MT/s
CPU 0 runs ./traces/ligra/ligra_BFSCC.com-lj.ungraph.gcc_6.3.0_O3.drop_6750M.length_250M.champsimtrace.xz
.xz
CPU 1 runs ./traces/gap/sssp-5.trace.gz
.gz
CPU 2 runs ./traces/ligra/ligra_CF.com-lj.ungraph.gcc_6.3.0_O3.drop_154750M.length_250M.champsimtrace.xz
.xz
CPU 3 runs ./traces/ligra/ligra_Triangle.com-lj.ungraph.gcc_6.3.0_O3.drop_25000M.length_250M.champsimtrace.xz
.xz
BTB has LRU replacement policy
ITLB has LRU replacement policy
DTLB has LRU replacement policy
STLB has LRU replacement policy
L1I has LRU replacement policy
History Sets: 8
History Ways: 16
BERTI Size: 16
BERTI Stride Size: 8
L1D has LRU replacement policy
Initialize SRRIP state for L2C
Initialize DRRIP state for LLC
BTB has LRU replacement policy
ITLB has LRU replacement policy
DTLB has LRU replacement policy
STLB has LRU replacement policy
L1I has LRU replacement policy
History Sets: 8
History Ways: 16
BERTI Size: 16
BERTI Stride Size: 8
L1D has LRU replacement policy
Initialize SRRIP state for L2C
Initialize DRRIP state for LLC
BTB has LRU replacement policy
ITLB has LRU replacement policy
DTLB has LRU replacement policy
STLB has LRU replacement policy
L1I has LRU replacement policy
History Sets: 8
History Ways: 16
BERTI Size: 16
BERTI Stride Size: 8
L1D has LRU replacement policy
Initialize SRRIP state for L2C
Initialize DRRIP state for LLC
BTB has LRU replacement policy
ITLB has LRU replacement policy
DTLB has LRU replacement policy
STLB has LRU replacement policy
L1I has LRU replacement policy
History Sets: 8
History Ways: 16
BERTI Size: 16
BERTI Stride Size: 8
L1D has LRU replacement policy
Initialize SRRIP state for L2C
Initialize DRRIP state for LLC
Heartbeat CPU 0 instructions: 10000002 cycles: 2993806 heartbeat IPC: 3.34023 cumulative IPC: 3.34023 (Simulation time: 0 hr 3 min 5 sec) 
Heartbeat CPU 2 instructions: 10000001 cycles: 3075201 heartbeat IPC: 3.25182 cumulative IPC: 3.25182 (Simulation time: 0 hr 3 min 11 sec) 
Heartbeat CPU 1 instructions: 10000001 cycles: 3076101 heartbeat IPC: 3.25087 cumulative IPC: 3.25087 (Simulation time: 0 hr 3 min 11 sec) 
Heartbeat CPU 3 instructions: 10000003 cycles: 3178086 heartbeat IPC: 3.14655 cumulative IPC: 3.14655 (Simulation time: 0 hr 3 min 17 sec) 
Heartbeat CPU 0 instructions: 20000003 cycles: 5991155 heartbeat IPC: 3.33628 cumulative IPC: 3.33825 (Simulation time: 0 hr 6 min 8 sec) 
Heartbeat CPU 1 instructions: 20000000 cycles: 6130647 heartbeat IPC: 3.27381 cumulative IPC: 3.2623 (Simulation time: 0 hr 6 min 15 sec) 
Heartbeat CPU 2 instructions: 20000002 cycles: 6264811 heartbeat IPC: 3.13518 cumulative IPC: 3.19244 (Simulation time: 0 hr 6 min 22 sec) 
Heartbeat CPU 3 instructions: 20000000 cycles: 6354240 heartbeat IPC: 3.14846 cumulative IPC: 3.1475 (Simulation time: 0 hr 6 min 27 sec) 
Heartbeat CPU 0 instructions: 30000003 cycles: 8987325 heartbeat IPC: 3.33759 cumulative IPC: 3.33803 (Simulation time: 0 hr 9 min 14 sec) 
Heartbeat CPU 1 instructions: 30000003 cycles: 9203121 heartbeat IPC: 3.25471 cumulative IPC: 3.25976 (Simulation time: 0 hr 9 min 28 sec) 
Heartbeat CPU 2 instructions: 30000000 cycles: 9534042 heartbeat IPC: 3.05882 cumulative IPC: 3.14662 (Simulation time: 0 hr 9 min 48 sec) 
Heartbeat CPU 3 instructions: 30000002 cycles: 9538054 heartbeat IPC: 3.14089 cumulative IPC: 3.1453 (Simulation time: 0 hr 9 min 49 sec) 
Heartbeat CPU 0 instructions: 40000003 cycles: 11964333 heartbeat IPC: 3.35908 cumulative IPC: 3.34327 (Simulation time: 0 hr 12 min 21 sec) 
Heartbeat CPU 1 instructions: 40000002 cycles: 12289252 heartbeat IPC: 3.2403 cumulative IPC: 3.25488 (Simulation time: 0 hr 12 min 40 sec) 
Heartbeat CPU 3 instructions: 40000002 cycles: 12708068 heartbeat IPC: 3.15456 cumulative IPC: 3.14761 (Simulation time: 0 hr 13 min 6 sec) 
Heartbeat CPU 2 instructions: 40000001 cycles: 12803273 heartbeat IPC: 3.05882 cumulative IPC: 3.1242 (Simulation time: 0 hr 13 min 12 sec) 
Heartbeat CPU 0 instructions: 50000002 cycles: 14939984 heartbeat IPC: 3.36061 cumulative IPC: 3.34672 (Simulation time: 0 hr 15 min 12 sec) 
Heartbeat CPU 1 instructions: 50000003 cycles: 15379865 heartbeat IPC: 3.2356 cumulative IPC: 3.251 (Simulation time: 0 hr 15 min 39 sec) 
Heartbeat CPU 3 instructions: 50000003 cycles: 15858313 heartbeat IPC: 3.17436 cumulative IPC: 3.15292 (Simulation time: 0 hr 16 min 5 sec) 
Heartbeat CPU 2 instructions: 50000001 cycles: 16072504 heartbeat IPC: 3.05882 cumulative IPC: 3.1109 (Simulation time: 0 hr 16 min 15 sec) 

Warmup complete CPU 0 instructions: 53505308 cycles: 16072504 (Simulation time: 0 hr 16 min 15 sec) 
Warmup complete CPU 1 instructions: 51945033 cycles: 16072504 (Simulation time: 0 hr 16 min 15 sec) 
Warmup complete CPU 2 instructions: 50000001 cycles: 16072504 (Simulation time: 0 hr 16 min 15 sec) 
Warmup complete CPU 3 instructions: 50504243 cycles: 16072503 (Simulation time: 0 hr 16 min 15 sec) 

Heartbeat CPU 0 instructions: 60000001 cycles: 22137656 heartbeat IPC: 1.38934 cumulative IPC: 1.07082 (Simulation time: 0 hr 18 min 3 sec) 
Heartbeat CPU 2 instructions: 60000002 cycles: 26007972 heartbeat IPC: 1.0065 cumulative IPC: 1.0065 (Simulation time: 0 hr 19 min 7 sec) 
Heartbeat CPU 0 instructions: 70000000 cycles: 31507594 heartbeat IPC: 1.06724 cumulative IPC: 1.06865 (Simulation time: 0 hr 20 min 40 sec) 
Heartbeat CPU 2 instructions: 70000000 cycles: 36541006 heartbeat IPC: 0.949394 cumulative IPC: 0.977111 (Simulation time: 0 hr 22 min 8 sec) 
Heartbeat CPU 3 instructions: 60000002 cycles: 38710205 heartbeat IPC: 0.4376 cumulative IPC: 0.419467 (Simulation time: 0 hr 22 min 49 sec) 
Heartbeat CPU 0 instructions: 80000002 cycles: 40763203 heartbeat IPC: 1.08043 cumulative IPC: 1.07306 (Simulation time: 0 hr 23 min 27 sec) 
Heartbeat CPU 2 instructions: 80000001 cycles: 46663405 heartbeat IPC: 0.987908 cumulative IPC: 0.980684 (Simulation time: 0 hr 25 min 11 sec) 
Heartbeat CPU 0 instructions: 90000000 cycles: 50013969 heartbeat IPC: 1.08099 cumulative IPC: 1.07522 (Simulation time: 0 hr 26 min 10 sec) 
Heartbeat CPU 2 instructions: 90000002 cycles: 56827723 heartbeat IPC: 0.983834 cumulative IPC: 0.981469 (Simulation time: 0 hr 28 min 5 sec) 
Heartbeat CPU 3 instructions: 70000001 cycles: 58531823 heartbeat IPC: 0.5045 cumulative IPC: 0.459163 (Simulation time: 0 hr 28 min 34 sec) 
Heartbeat CPU 1 instructions: 60000002 cycles: 58856584 heartbeat IPC: 0.230008 cumulative IPC: 0.18827 (Simulation time: 0 hr 28 min 40 sec) 
Heartbeat CPU 0 instructions: 100000002 cycles: 59282689 heartbeat IPC: 1.0789 cumulative IPC: 1.07601 (Simulation time: 0 hr 28 min 47 sec) 
Heartbeat CPU 2 instructions: 100000001 cycles: 67139042 heartbeat IPC: 0.969808 cumulative IPC: 0.979115 (Simulation time: 0 hr 30 min 59 sec) 
Heartbeat CPU 0 instructions: 110000000 cycles: 68576564 heartbeat IPC: 1.07598 cumulative IPC: 1.07601 (Simulation time: 0 hr 31 min 22 sec) 
Heartbeat CPU 2 instructions: 110000000 cycles: 77011236 heartbeat IPC: 1.01295 cumulative IPC: 0.984595 (Simulation time: 0 hr 33 min 31 sec) 
Heartbeat CPU 0 instructions: 120000000 cycles: 77836719 heartbeat IPC: 1.0799 cumulative IPC: 1.07659 (Simulation time: 0 hr 33 min 47 sec) 
Heartbeat CPU 3 instructions: 80000002 cycles: 77948381 heartbeat IPC: 0.515024 cumulative IPC: 0.476692 (Simulation time: 0 hr 33 min 49 sec) 
Heartbeat CPU 0 instructions: 130000001 cycles: 87077368 heartbeat IPC: 1.08218 cumulative IPC: 1.07732 (Simulation time: 0 hr 36 min 26 sec) 
Heartbeat CPU 2 instructions: 120000003 cycles: 87630184 heartbeat IPC: 0.941713 cumulative IPC: 0.978232 (Simulation time: 0 hr 36 min 36 sec) 
Heartbeat CPU 0 instructions: 140000002 cycles: 96259570 heartbeat IPC: 1.08906 cumulative IPC: 1.07866 (Simulation time: 0 hr 39 min 7 sec) 
Heartbeat CPU 2 instructions: 130000003 cycles: 97727016 heartbeat IPC: 0.99041 cumulative IPC: 0.979738 (Simulation time: 0 hr 39 min 31 sec) 
Heartbeat CPU 3 instructions: 90000002 cycles: 100973275 heartbeat IPC: 0.434313 cumulative IPC: 0.465199 (Simulation time: 0 hr 40 min 24 sec) 
Heartbeat CPU 0 instructions: 150000000 cycles: 105420101 heartbeat IPC: 1.09164 cumulative IPC: 1.07999 (Simulation time: 0 hr 41 min 40 sec) 
Heartbeat CPU 2 instructions: 140000000 cycles: 108004065 heartbeat IPC: 0.973042 cumulative IPC: 0.978989 (Simulation time: 0 hr 42 min 21 sec) 
Heartbeat CPU 0 instructions: 160000001 cycles: 114542032 heartbeat IPC: 1.09626 cumulative IPC: 1.0815 (Simulation time: 0 hr 44 min 14 sec) 
Heartbeat CPU 2 instructions: 150000001 cycles: 117969393 heartbeat IPC: 1.00348 cumulative IPC: 0.981384 (Simulation time: 0 hr 45 min 12 sec) 
Heartbeat CPU 1 instructions: 70000001 cycles: 119540024 heartbeat IPC: 0.16479 cumulative IPC: 0.174499 (Simulation time: 0 hr 45 min 39 sec) 
Heartbeat CPU 0 instructions: 170000001 cycles: 123702381 heartbeat IPC: 1.09166 cumulative IPC: 1.08236 (Simulation time: 0 hr 46 min 49 sec) 
Heartbeat CPU 3 instructions: 100000000 cycles: 126095961 heartbeat IPC: 0.398047 cumulative IPC: 0.449865 (Simulation time: 0 hr 47 min 29 sec) 
Heartbeat CPU 2 instructions: 160000000 cycles: 127739961 heartbeat IPC: 1.02348 cumulative IPC: 0.985068 (Simulation time: 0 hr 47 min 57 sec) 
Heartbeat CPU 0 instructions: 180000002 cycles: 132903557 heartbeat IPC: 1.08682 cumulative IPC: 1.08271 (Simulation time: 0 hr 49 min 28 sec) 
Heartbeat CPU 2 instructions: 170000000 cycles: 137705079 heartbeat IPC: 1.0035 cumulative IPC: 0.986578 (Simulation time: 0 hr 50 min 55 sec) 
Heartbeat CPU 0 instructions: 190000001 cycles: 142079575 heartbeat IPC: 1.0898 cumulative IPC: 1.08323 (Simulation time: 0 hr 52 min 13 sec) 
Heartbeat CPU 2 instructions: 180000000 cycles: 147715003 heartbeat IPC: 0.999009 cumulative IPC: 0.987523 (Simulation time: 0 hr 53 min 52 sec) 
Heartbeat CPU 0 instructions: 200000000 cycles: 151187745 heartbeat IPC: 1.09792 cumulative IPC: 1.08422 (Simulation time: 0 hr 54 min 50 sec) 
Heartbeat CPU 3 instructions: 110000000 cycles: 152234040 heartbeat IPC: 0.382584 cumulative IPC: 0.43695 (Simulation time: 0 hr 55 min 5 sec) 
Heartbeat CPU 2 instructions: 190000003 cycles: 158788906 heartbeat IPC: 0.903024 cumulative IPC: 0.980966 (Simulation time: 0 hr 56 min 51 sec) 
Heartbeat CPU 0 instructions: 210000001 cycles: 160289636 heartbeat IPC: 1.09867 cumulative IPC: 1.08513 (Simulation time: 0 hr 57 min 15 sec) 
Heartbeat CPU 2 instructions: 200000000 cycles: 168960200 heartbeat IPC: 0.983159 cumulative IPC: 0.981112 (Simulation time: 0 hr 59 min 40 sec) 
Heartbeat CPU 0 instructions: 220000000 cycles: 169360637 heartbeat IPC: 1.10241 cumulative IPC: 1.08616 (Simulation time: 0 hr 59 min 47 sec) 
Heartbeat CPU 1 instructions: 80000000 cycles: 175975788 heartbeat IPC: 0.177193 cumulative IPC: 0.17545 (Simulation time: 1 hr 1 min 37 sec) 
Heartbeat CPU 0 instructions: 230000003 cycles: 178355649 heartbeat IPC: 1.11173 cumulative IPC: 1.08757 (Simulation time: 1 hr 2 min 19 sec) 
Heartbeat CPU 2 instructions: 210000000 cycles: 179019635 heartbeat IPC: 0.994092 cumulative IPC: 0.981914 (Simulation time: 1 hr 2 min 31 sec) 
Heartbeat CPU 0 instructions: 240000000 cycles: 187364833 heartbeat IPC: 1.10998 cumulative IPC: 1.08875 (Simulation time: 1 hr 4 min 48 sec) 
Heartbeat CPU 2 instructions: 220000000 cycles: 189278836 heartbeat IPC: 0.974735 cumulative IPC: 0.981488 (Simulation time: 1 hr 5 min 22 sec) 
Heartbeat CPU 3 instructions: 120000000 cycles: 193599529 heartbeat IPC: 0.241747 cumulative IPC: 0.391466 (Simulation time: 1 hr 6 min 33 sec) 
*** Reached end of trace for Core: 0 Repeating trace: ./traces/ligra/ligra_BFSCC.com-lj.ungraph.gcc_6.3.0_O3.drop_6750M.length_250M.champsimtrace.xz
Heartbeat CPU 0 instructions: 250000001 cycles: 196354036 heartbeat IPC: 1.11245 cumulative IPC: 1.08993 (Simulation time: 1 hr 7 min 17 sec) 
Heartbeat CPU 2 instructions: 230000001 cycles: 199349917 heartbeat IPC: 0.992942 cumulative IPC: 0.982118 (Simulation time: 1 hr 8 min 3 sec) 
Finished CPU 0 instructions: 200000001 cycles: 183565073 cumulative IPC: 1.08953 (Simulation time: 1 hr 8 min 7 sec) 
Heartbeat CPU 0 instructions: 260000003 cycles: 205658673 heartbeat IPC: 1.07473 cumulative IPC: 1.08919 (Simulation time: 1 hr 9 min 39 sec) 
Heartbeat CPU 2 instructions: 240000002 cycles: 209667180 heartbeat IPC: 0.969249 cumulative IPC: 0.981432 (Simulation time: 1 hr 10 min 37 sec) 
Heartbeat CPU 0 instructions: 270000001 cycles: 214849568 heartbeat IPC: 1.08803 cumulative IPC: 1.08913 (Simulation time: 1 hr 12 min 2 sec) 
*** Reached end of trace for Core: 2 Repeating trace: ./traces/ligra/ligra_CF.com-lj.ungraph.gcc_6.3.0_O3.drop_154750M.length_250M.champsimtrace.xz
Heartbeat CPU 2 instructions: 250000002 cycles: 219669122 heartbeat IPC: 0.999806 cumulative IPC: 0.982335 (Simulation time: 1 hr 13 min 19 sec) 
Finished CPU 2 instructions: 200000001 cycles: 203596618 cumulative IPC: 0.982335 (Simulation time: 1 hr 13 min 19 sec) 
Heartbeat CPU 0 instructions: 280000000 cycles: 223966557 heartbeat IPC: 1.09685 cumulative IPC: 1.08947 (Simulation time: 1 hr 14 min 15 sec) 
Heartbeat CPU 1 instructions: 90000001 cycles: 226994197 heartbeat IPC: 0.196008 cumulative IPC: 0.180422 (Simulation time: 1 hr 15 min 3 sec) 
Heartbeat CPU 3 instructions: 130000000 cycles: 231316725 heartbeat IPC: 0.265131 cumulative IPC: 0.369328 (Simulation time: 1 hr 16 min 12 sec) 
Heartbeat CPU 0 instructions: 290000000 cycles: 233263123 heartbeat IPC: 1.07567 cumulative IPC: 1.08888 (Simulation time: 1 hr 16 min 42 sec) 
Heartbeat CPU 2 instructions: 260000002 cycles: 239866262 heartbeat IPC: 0.49512 cumulative IPC: 0.938364 (Simulation time: 1 hr 18 min 27 sec) 
Heartbeat CPU 0 instructions: 300000001 cycles: 242488935 heartbeat IPC: 1.08392 cumulative IPC: 1.08868 (Simulation time: 1 hr 19 min 11 sec) 
Heartbeat CPU 1 instructions: 100000001 cycles: 251662446 heartbeat IPC: 0.405379 cumulative IPC: 0.203977 (Simulation time: 1 hr 21 min 46 sec) 
Heartbeat CPU 0 instructions: 310000002 cycles: 251743755 heartbeat IPC: 1.08052 cumulative IPC: 1.08836 (Simulation time: 1 hr 21 min 47 sec) 
Heartbeat CPU 2 instructions: 270000001 cycles: 251776132 heartbeat IPC: 0.83964 cumulative IPC: 0.933376 (Simulation time: 1 hr 21 min 48 sec) 
Heartbeat CPU 0 instructions: 320000001 cycles: 260951411 heartbeat IPC: 1.08605 cumulative IPC: 1.08827 (Simulation time: 1 hr 24 min 7 sec) 
Heartbeat CPU 2 instructions: 280000000 cycles: 262167300 heartbeat IPC: 0.962356 cumulative IPC: 0.934599 (Simulation time: 1 hr 24 min 25 sec) 
Heartbeat CPU 3 instructions: 140000000 cycles: 264046853 heartbeat IPC: 0.305529 cumulative IPC: 0.360907 (Simulation time: 1 hr 24 min 50 sec) 
Heartbeat CPU 0 instructions: 330000000 cycles: 270087036 heartbeat IPC: 1.09462 cumulative IPC: 1.0885 (Simulation time: 1 hr 26 min 14 sec) 
Heartbeat CPU 2 instructions: 290000002 cycles: 273024344 heartbeat IPC: 0.921061 cumulative IPC: 0.934027 (Simulation time: 1 hr 26 min 54 sec) 
Heartbeat CPU 0 instructions: 340000001 cycles: 279229068 heartbeat IPC: 1.09385 cumulative IPC: 1.08869 (Simulation time: 1 hr 28 min 31 sec) 
Heartbeat CPU 2 instructions: 300000001 cycles: 283325107 heartbeat IPC: 0.970802 cumulative IPC: 0.935445 (Simulation time: 1 hr 29 min 32 sec) 
Heartbeat CPU 0 instructions: 350000000 cycles: 288388492 heartbeat IPC: 1.09177 cumulative IPC: 1.08879 (Simulation time: 1 hr 30 min 48 sec) 
Heartbeat CPU 2 instructions: 310000003 cycles: 293860483 heartbeat IPC: 0.949183 cumulative IPC: 0.935966 (Simulation time: 1 hr 32 min 7 sec) 
Heartbeat CPU 0 instructions: 360000000 cycles: 297572566 heartbeat IPC: 1.08884 cumulative IPC: 1.08879 (Simulation time: 1 hr 33 min 3 sec) 
Heartbeat CPU 2 instructions: 320000000 cycles: 304069262 heartbeat IPC: 0.979549 cumulative IPC: 0.937511 (Simulation time: 1 hr 34 min 48 sec) 
Heartbeat CPU 0 instructions: 370000001 cycles: 306730610 heartbeat IPC: 1.09194 cumulative IPC: 1.08889 (Simulation time: 1 hr 35 min 27 sec) 
Heartbeat CPU 1 instructions: 110000000 cycles: 310467930 heartbeat IPC: 0.170052 cumulative IPC: 0.197201 (Simulation time: 1 hr 36 min 26 sec) 
Heartbeat CPU 2 instructions: 330000000 cycles: 314560874 heartbeat IPC: 0.953142 cumulative IPC: 0.93806 (Simulation time: 1 hr 37 min 28 sec) 
Heartbeat CPU 0 instructions: 380000000 cycles: 315867531 heartbeat IPC: 1.09446 cumulative IPC: 1.08906 (Simulation time: 1 hr 37 min 48 sec) 
Heartbeat CPU 2 instructions: 340000002 cycles: 324863328 heartbeat IPC: 0.970643 cumulative IPC: 0.939147 (Simulation time: 1 hr 40 min 8 sec) 
Heartbeat CPU 0 instructions: 390000003 cycles: 324937076 heartbeat IPC: 1.10259 cumulative IPC: 1.08946 (Simulation time: 1 hr 40 min 10 sec) 
Heartbeat CPU 3 instructions: 150000000 cycles: 327117396 heartbeat IPC: 0.158553 cumulative IPC: 0.319876 (Simulation time: 1 hr 40 min 44 sec) 
Heartbeat CPU 0 instructions: 400000001 cycles: 333992890 heartbeat IPC: 1.10426 cumulative IPC: 1.08988 (Simulation time: 1 hr 42 min 35 sec) 
Heartbeat CPU 2 instructions: 350000003 cycles: 334919966 heartbeat IPC: 0.994368 cumulative IPC: 0.940889 (Simulation time: 1 hr 42 min 51 sec) 
Heartbeat CPU 0 instructions: 410000002 cycles: 343008550 heartbeat IPC: 1.10918 cumulative IPC: 1.09041 (Simulation time: 1 hr 45 min 0 sec) 
Heartbeat CPU 2 instructions: 360000002 cycles: 344939620 heartbeat IPC: 0.998038 cumulative IPC: 0.94263 (Simulation time: 1 hr 45 min 30 sec) 
Heartbeat CPU 0 instructions: 420000002 cycles: 352064447 heartbeat IPC: 1.10425 cumulative IPC: 1.09078 (Simulation time: 1 hr 47 min 31 sec) 
Heartbeat CPU 2 instructions: 370000003 cycles: 355010539 heartbeat IPC: 0.992958 cumulative IPC: 0.944125 (Simulation time: 1 hr 48 min 17 sec) 
Heartbeat CPU 0 instructions: 430000003 cycles: 361159681 heartbeat IPC: 1.09948 cumulative IPC: 1.09101 (Simulation time: 1 hr 49 min 59 sec) 
Heartbeat CPU 2 instructions: 380000003 cycles: 364924649 heartbeat IPC: 1.00866 cumulative IPC: 0.94596 (Simulation time: 1 hr 51 min 0 sec) 
Heartbeat CPU 1 instructions: 120000000 cycles: 369837288 heartbeat IPC: 0.168437 cumulative IPC: 0.192373 (Simulation time: 1 hr 52 min 26 sec) 
Heartbeat CPU 0 instructions: 440000000 cycles: 370242002 heartbeat IPC: 1.10104 cumulative IPC: 1.09127 (Simulation time: 1 hr 52 min 32 sec) 
Heartbeat CPU 2 instructions: 390000001 cycles: 375269334 heartbeat IPC: 0.96668 cumulative IPC: 0.946556 (Simulation time: 1 hr 53 min 56 sec) 
Heartbeat CPU 0 instructions: 450000000 cycles: 379251234 heartbeat IPC: 1.10997 cumulative IPC: 1.09173 (Simulation time: 1 hr 55 min 0 sec) 
Heartbeat CPU 3 instructions: 160000000 cycles: 382517115 heartbeat IPC: 0.180506 cumulative IPC: 0.298806 (Simulation time: 1 hr 55 min 49 sec) 
Heartbeat CPU 2 instructions: 400000000 cycles: 385379288 heartbeat IPC: 0.989124 cumulative IPC: 0.947722 (Simulation time: 1 hr 56 min 34 sec) 
Heartbeat CPU 0 instructions: 460000002 cycles: 388244663 heartbeat IPC: 1.11192 cumulative IPC: 1.09222 (Simulation time: 1 hr 57 min 23 sec) 
Heartbeat CPU 2 instructions: 410000002 cycles: 395541781 heartbeat IPC: 0.984011 cumulative IPC: 0.948693 (Simulation time: 1 hr 59 min 25 sec) 
Heartbeat CPU 0 instructions: 470000000 cycles: 397220663 heartbeat IPC: 1.11408 cumulative IPC: 1.09274 (Simulation time: 1 hr 59 min 52 sec) 
Heartbeat CPU 2 instructions: 420000002 cycles: 405781202 heartbeat IPC: 0.976618 cumulative IPC: 0.949427 (Simulation time: 2 hr 2 min 10 sec) 
Heartbeat CPU 0 instructions: 480000000 cycles: 406120821 heartbeat IPC: 1.12358 cumulative IPC: 1.09344 (Simulation time: 2 hr 2 min 14 sec) 
Heartbeat CPU 0 instructions: 490000001 cycles: 415020163 heartbeat IPC: 1.12368 cumulative IPC: 1.09412 (Simulation time: 2 hr 4 min 39 sec) 
Heartbeat CPU 2 instructions: 430000001 cycles: 415978650 heartbeat IPC: 0.980637 cumulative IPC: 0.950223 (Simulation time: 2 hr 4 min 56 sec) 
*** Reached end of trace for Core: 0 Repeating trace: ./traces/ligra/ligra_BFSCC.com-lj.ungraph.gcc_6.3.0_O3.drop_6750M.length_250M.champsimtrace.xz
Heartbeat CPU 0 instructions: 500000000 cycles: 423915087 heartbeat IPC: 1.12424 cumulative IPC: 1.09477 (Simulation time: 2 hr 7 min 4 sec) 
Heartbeat CPU 1 instructions: 130000000 cycles: 425956824 heartbeat IPC: 0.178191 cumulative IPC: 0.190432 (Simulation time: 2 hr 7 min 39 sec) 
Heartbeat CPU 2 instructions: 440000000 cycles: 426525732 heartbeat IPC: 0.948129 cumulative IPC: 0.950169 (Simulation time: 2 hr 7 min 49 sec) 
Heartbeat CPU 0 instructions: 510000000 cycles: 433201414 heartbeat IPC: 1.07685 cumulative IPC: 1.09437 (Simulation time: 2 hr 9 min 29 sec) 
Heartbeat CPU 2 instructions: 450000000 cycles: 436700494 heartbeat IPC: 0.982824 cumulative IPC: 0.950959 (Simulation time: 2 hr 10 min 21 sec) 
Heartbeat CPU 0 instructions: 520000002 cycles: 442388256 heartbeat IPC: 1.08851 cumulative IPC: 1.09425 (Simulation time: 2 hr 11 min 48 sec) 
Heartbeat CPU 2 instructions: 460000001 cycles: 446891220 heartbeat IPC: 0.981284 cumulative IPC: 0.951676 (Simulation time: 2 hr 13 min 2 sec) 
Heartbeat CPU 0 instructions: 530000001 cycles: 451499988 heartbeat IPC: 1.09749 cumulative IPC: 1.09431 (Simulation time: 2 hr 14 min 16 sec) 
Heartbeat CPU 2 instructions: 470000002 cycles: 456740694 heartbeat IPC: 1.01528 cumulative IPC: 0.953098 (Simulation time: 2 hr 15 min 40 sec) 
Heartbeat CPU 3 instructions: 170000002 cycles: 457944893 heartbeat IPC: 0.132577 cumulative IPC: 0.27043 (Simulation time: 2 hr 15 min 57 sec) 
Heartbeat CPU 0 instructions: 540000000 cycles: 460789472 heartbeat IPC: 1.07649 cumulative IPC: 1.09394 (Simulation time: 2 hr 16 min 40 sec) 
Heartbeat CPU 2 instructions: 480000001 cycles: 466540299 heartbeat IPC: 1.02045 cumulative IPC: 0.954563 (Simulation time: 2 hr 18 min 6 sec) 
Heartbeat CPU 0 instructions: 550000000 cycles: 470012202 heartbeat IPC: 1.08428 cumulative IPC: 1.09375 (Simulation time: 2 hr 19 min 3 sec) 
Heartbeat CPU 2 instructions: 490000001 cycles: 476248071 heartbeat IPC: 1.0301 cumulative IPC: 0.956157 (Simulation time: 2 hr 20 min 43 sec) 
Heartbeat CPU 1 instructions: 140000000 cycles: 477825554 heartbeat IPC: 0.192794 cumulative IPC: 0.190697 (Simulation time: 2 hr 21 min 8 sec) 
Heartbeat CPU 0 instructions: 560000003 cycles: 479268132 heartbeat IPC: 1.08039 cumulative IPC: 1.09348 (Simulation time: 2 hr 21 min 31 sec) 
*** Reached end of trace for Core: 2 Repeating trace: ./traces/ligra/ligra_CF.com-lj.ungraph.gcc_6.3.0_O3.drop_154750M.length_250M.champsimtrace.xz
Heartbeat CPU 2 instructions: 500000001 cycles: 486385876 heartbeat IPC: 0.986407 cumulative IPC: 0.956809 (Simulation time: 2 hr 23 min 21 sec) 
Heartbeat CPU 0 instructions: 570000002 cycles: 488472703 heartbeat IPC: 1.08642 cumulative IPC: 1.09334 (Simulation time: 2 hr 23 min 51 sec) 
Heartbeat CPU 0 instructions: 580000000 cycles: 497605994 heartbeat IPC: 1.0949 cumulative IPC: 1.09337 (Simulation time: 2 hr 26 min 18 sec) 
Heartbeat CPU 2 instructions: 510000003 cycles: 506234960 heartbeat IPC: 0.503802 cumulative IPC: 0.938464 (Simulation time: 2 hr 28 min 36 sec) 
Heartbeat CPU 0 instructions: 590000002 cycles: 506744919 heartbeat IPC: 1.09422 cumulative IPC: 1.09339 (Simulation time: 2 hr 28 min 45 sec) 
Heartbeat CPU 1 instructions: 150000000 cycles: 508287974 heartbeat IPC: 0.328273 cumulative IPC: 0.199211 (Simulation time: 2 hr 29 min 11 sec) 
Heartbeat CPU 3 instructions: 180000000 cycles: 510370917 heartbeat IPC: 0.190745 cumulative IPC: 0.261979 (Simulation time: 2 hr 29 min 45 sec) 
Heartbeat CPU 0 instructions: 600000000 cycles: 515903505 heartbeat IPC: 1.09187 cumulative IPC: 1.09336 (Simulation time: 2 hr 31 min 24 sec) 
Heartbeat CPU 2 instructions: 520000001 cycles: 518013555 heartbeat IPC: 0.848998 cumulative IPC: 0.936365 (Simulation time: 2 hr 31 min 58 sec) 
Heartbeat CPU 0 instructions: 610000000 cycles: 525087402 heartbeat IPC: 1.08886 cumulative IPC: 1.09328 (Simulation time: 2 hr 33 min 51 sec) 
Heartbeat CPU 2 instructions: 530000003 cycles: 527988538 heartbeat IPC: 1.00251 cumulative IPC: 0.937654 (Simulation time: 2 hr 34 min 39 sec) 
Heartbeat CPU 0 instructions: 620000000 cycles: 534246770 heartbeat IPC: 1.09178 cumulative IPC: 1.09325 (Simulation time: 2 hr 36 min 17 sec) 
Heartbeat CPU 2 instructions: 540000000 cycles: 538707651 heartbeat IPC: 0.932913 cumulative IPC: 0.937557 (Simulation time: 2 hr 37 min 30 sec) 
Heartbeat CPU 0 instructions: 630000001 cycles: 543381245 heartbeat IPC: 1.09475 cumulative IPC: 1.09328 (Simulation time: 2 hr 38 min 43 sec) 
Heartbeat CPU 2 instructions: 550000000 cycles: 549247496 heartbeat IPC: 0.948781 cumulative IPC: 0.937778 (Simulation time: 2 hr 40 min 18 sec) 
Heartbeat CPU 1 instructions: 160000000 cycles: 552318422 heartbeat IPC: 0.227116 cumulative IPC: 0.201503 (Simulation time: 2 hr 41 min 4 sec) 
Heartbeat CPU 0 instructions: 640000000 cycles: 552449419 heartbeat IPC: 1.10276 cumulative IPC: 1.09344 (Simulation time: 2 hr 41 min 6 sec) 
Heartbeat CPU 2 instructions: 560000001 cycles: 559582223 heartbeat IPC: 0.967612 cumulative IPC: 0.938346 (Simulation time: 2 hr 43 min 1 sec) 
Heartbeat CPU 0 instructions: 650000000 cycles: 561504863 heartbeat IPC: 1.10431 cumulative IPC: 1.09362 (Simulation time: 2 hr 43 min 31 sec) 
Heartbeat CPU 2 instructions: 570000001 cycles: 569726166 heartbeat IPC: 0.98581 cumulative IPC: 0.939215 (Simulation time: 2 hr 45 min 46 sec) 
Heartbeat CPU 0 instructions: 660000000 cycles: 570518910 heartbeat IPC: 1.10938 cumulative IPC: 1.09387 (Simulation time: 2 hr 46 min 0 sec) 
Heartbeat CPU 0 instructions: 670000000 cycles: 579576186 heartbeat IPC: 1.10408 cumulative IPC: 1.09404 (Simulation time: 2 hr 48 min 26 sec) 
Heartbeat CPU 2 instructions: 580000003 cycles: 579718646 heartbeat IPC: 1.00075 cumulative IPC: 0.940306 (Simulation time: 2 hr 48 min 29 sec) 
Heartbeat CPU 3 instructions: 190000001 cycles: 585861689 heartbeat IPC: 0.132467 cumulative IPC: 0.24482 (Simulation time: 2 hr 50 min 7 sec) 
Heartbeat CPU 0 instructions: 680000000 cycles: 588670010 heartbeat IPC: 1.09965 cumulative IPC: 1.09413 (Simulation time: 2 hr 50 min 49 sec) 
Heartbeat CPU 2 instructions: 590000002 cycles: 589826650 heartbeat IPC: 0.989315 cumulative IPC: 0.94117 (Simulation time: 2 hr 51 min 8 sec) 
Heartbeat CPU 0 instructions: 690000001 cycles: 597749370 heartbeat IPC: 1.1014 cumulative IPC: 1.09424 (Simulation time: 2 hr 53 min 10 sec) 
Heartbeat CPU 2 instructions: 600000002 cycles: 600058972 heartbeat IPC: 0.977295 cumulative IPC: 0.941803 (Simulation time: 2 hr 53 min 48 sec) 
Heartbeat CPU 0 instructions: 700000002 cycles: 606760348 heartbeat IPC: 1.10976 cumulative IPC: 1.09448 (Simulation time: 2 hr 55 min 30 sec) 
Heartbeat CPU 1 instructions: 170000002 cycles: 609743459 heartbeat IPC: 0.17414 cumulative IPC: 0.198856 (Simulation time: 2 hr 56 min 19 sec) 
Heartbeat CPU 2 instructions: 610000003 cycles: 610114006 heartbeat IPC: 0.994527 cumulative IPC: 0.942695 (Simulation time: 2 hr 56 min 25 sec) 
Heartbeat CPU 0 instructions: 710000003 cycles: 615754103 heartbeat IPC: 1.11188 cumulative IPC: 1.09474 (Simulation time: 2 hr 57 min 58 sec) 
Heartbeat CPU 2 instructions: 620000000 cycles: 620150824 heartbeat IPC: 0.996331 cumulative IPC: 0.943586 (Simulation time: 2 hr 59 min 8 sec) 
Heartbeat CPU 0 instructions: 720000001 cycles: 624731813 heartbeat IPC: 1.11387 cumulative IPC: 1.09502 (Simulation time: 3 hr 0 min 21 sec) 
Heartbeat CPU 2 instructions: 630000001 cycles: 630275260 heartbeat IPC: 0.987709 cumulative IPC: 0.944314 (Simulation time: 3 hr 1 min 56 sec) 
Heartbeat CPU 0 instructions: 730000001 cycles: 633634008 heartbeat IPC: 1.12332 cumulative IPC: 1.09543 (Simulation time: 3 hr 2 min 51 sec) 
Heartbeat CPU 2 instructions: 640000001 cycles: 640628733 heartbeat IPC: 0.965859 cumulative IPC: 0.944671 (Simulation time: 3 hr 4 min 44 sec) 
Heartbeat CPU 0 instructions: 740000002 cycles: 642536955 heartbeat IPC: 1.12322 cumulative IPC: 1.09582 (Simulation time: 3 hr 5 min 15 sec) 
Heartbeat CPU 2 instructions: 650000001 cycles: 650459082 heartbeat IPC: 1.01726 cumulative IPC: 0.945796 (Simulation time: 3 hr 7 min 23 sec) 
*** Reached end of trace for Core: 0 Repeating trace: ./traces/ligra/ligra_BFSCC.com-lj.ungraph.gcc_6.3.0_O3.drop_6750M.length_250M.champsimtrace.xz
Heartbeat CPU 0 instructions: 750000001 cycles: 651432966 heartbeat IPC: 1.1241 cumulative IPC: 1.09622 (Simulation time: 3 hr 7 min 38 sec) 
Heartbeat CPU 2 instructions: 660000000 cycles: 660298968 heartbeat IPC: 1.01627 cumulative IPC: 0.946872 (Simulation time: 3 hr 9 min 52 sec) 
Heartbeat CPU 0 instructions: 760000001 cycles: 660711040 heartbeat IPC: 1.07781 cumulative IPC: 1.09595 (Simulation time: 3 hr 9 min 59 sec) 
Heartbeat CPU 1 instructions: 180000000 cycles: 666045339 heartbeat IPC: 0.177614 cumulative IPC: 0.197016 (Simulation time: 3 hr 11 min 20 sec) 
Heartbeat CPU 0 instructions: 770000000 cycles: 669890958 heartbeat IPC: 1.08933 cumulative IPC: 1.09586 (Simulation time: 3 hr 12 min 21 sec) 
Heartbeat CPU 2 instructions: 670000003 cycles: 670300823 heartbeat IPC: 0.999815 cumulative IPC: 0.947681 (Simulation time: 3 hr 12 min 27 sec) 
Heartbeat CPU 3 instructions: 200000001 cycles: 671995881 heartbeat IPC: 0.116098 cumulative IPC: 0.227916 (Simulation time: 3 hr 12 min 52 sec) 
Heartbeat CPU 0 instructions: 780000000 cycles: 679001095 heartbeat IPC: 1.09768 cumulative IPC: 1.09589 (Simulation time: 3 hr 14 min 40 sec) 
Heartbeat CPU 2 instructions: 680000003 cycles: 680888294 heartbeat IPC: 0.944513 cumulative IPC: 0.947631 (Simulation time: 3 hr 15 min 10 sec) 
Heartbeat CPU 0 instructions: 790000001 cycles: 688288669 heartbeat IPC: 1.07671 cumulative IPC: 1.09562 (Simulation time: 3 hr 16 min 59 sec) 
Heartbeat CPU 2 instructions: 690000003 cycles: 690880120 heartbeat IPC: 1.00082 cumulative IPC: 0.948418 (Simulation time: 3 hr 17 min 43 sec) 
Heartbeat CPU 0 instructions: 800000002 cycles: 697509230 heartbeat IPC: 1.08453 cumulative IPC: 1.09547 (Simulation time: 3 hr 19 min 32 sec) 
Heartbeat CPU 2 instructions: 700000000 cycles: 700444905 heartbeat IPC: 1.0455 cumulative IPC: 0.949775 (Simulation time: 3 hr 20 min 20 sec) 
Heartbeat CPU 0 instructions: 810000000 cycles: 706765012 heartbeat IPC: 1.08041 cumulative IPC: 1.09527 (Simulation time: 3 hr 21 min 56 sec) 
Heartbeat CPU 2 instructions: 710000000 cycles: 710557274 heartbeat IPC: 0.988888 cumulative IPC: 0.950345 (Simulation time: 3 hr 22 min 49 sec) 
Heartbeat CPU 0 instructions: 820000003 cycles: 715967777 heartbeat IPC: 1.08663 cumulative IPC: 1.09516 (Simulation time: 3 hr 24 min 8 sec) 
Heartbeat CPU 1 instructions: 190000001 cycles: 717668163 heartbeat IPC: 0.193713 cumulative IPC: 0.196773 (Simulation time: 3 hr 24 min 37 sec) 
Heartbeat CPU 2 instructions: 720000000 cycles: 720192043 heartbeat IPC: 1.03791 cumulative IPC: 0.951543 (Simulation time: 3 hr 25 min 18 sec) 
Heartbeat CPU 0 instructions: 830000001 cycles: 725096267 heartbeat IPC: 1.09547 cumulative IPC: 1.09516 (Simulation time: 3 hr 26 min 38 sec) 
Heartbeat CPU 2 instructions: 730000002 cycles: 729959707 heartbeat IPC: 1.02379 cumulative IPC: 0.952531 (Simulation time: 3 hr 27 min 58 sec) 
Heartbeat CPU 0 instructions: 840000000 cycles: 734232143 heartbeat IPC: 1.09459 cumulative IPC: 1.09515 (Simulation time: 3 hr 29 min 6 sec) 
Heartbeat CPU 2 instructions: 740000002 cycles: 739751252 heartbeat IPC: 1.02129 cumulative IPC: 0.953462 (Simulation time: 3 hr 30 min 34 sec) 
Heartbeat CPU 0 instructions: 850000001 cycles: 743388904 heartbeat IPC: 1.09209 cumulative IPC: 1.09511 (Simulation time: 3 hr 31 min 32 sec) 
*** Reached end of trace for Core: 2 Repeating trace: ./traces/ligra/ligra_CF.com-lj.ungraph.gcc_6.3.0_O3.drop_154750M.length_250M.champsimtrace.xz
Heartbeat CPU 2 instructions: 750000002 cycles: 749377621 heartbeat IPC: 1.03881 cumulative IPC: 0.954582 (Simulation time: 3 hr 33 min 11 sec) 
Heartbeat CPU 0 instructions: 860000001 cycles: 752572080 heartbeat IPC: 1.08895 cumulative IPC: 1.09504 (Simulation time: 3 hr 33 min 52 sec) 
Heartbeat CPU 3 instructions: 210000001 cycles: 760529599 heartbeat IPC: 0.112951 cumulative IPC: 0.214244 (Simulation time: 3 hr 35 min 53 sec) 
Heartbeat CPU 0 instructions: 870000000 cycles: 761730485 heartbeat IPC: 1.09189 cumulative IPC: 1.095 (Simulation time: 3 hr 36 min 12 sec) 
Heartbeat CPU 1 instructions: 200000001 cycles: 762596789 heartbeat IPC: 0.222575 cumulative IPC: 0.198326 (Simulation time: 3 hr 36 min 26 sec) 
Heartbeat CPU 2 instructions: 760000000 cycles: 769181492 heartbeat IPC: 0.504952 cumulative IPC: 0.942759 (Simulation time: 3 hr 38 min 11 sec) 
Heartbeat CPU 0 instructions: 880000000 cycles: 770863597 heartbeat IPC: 1.09492 cumulative IPC: 1.095 (Simulation time: 3 hr 38 min 39 sec) 
Heartbeat CPU 0 instructions: 890000002 cycles: 779932515 heartbeat IPC: 1.10267 cumulative IPC: 1.09509 (Simulation time: 3 hr 41 min 20 sec) 
Heartbeat CPU 2 instructions: 770000000 cycles: 780649804 heartbeat IPC: 0.871968 cumulative IPC: 0.941697 (Simulation time: 3 hr 41 min 31 sec) 
Heartbeat CPU 0 instructions: 900000001 cycles: 788990029 heartbeat IPC: 1.10406 cumulative IPC: 1.09519 (Simulation time: 3 hr 43 min 52 sec) 
Heartbeat CPU 2 instructions: 780000000 cycles: 790555875 heartbeat IPC: 1.00948 cumulative IPC: 0.942564 (Simulation time: 3 hr 44 min 18 sec) 
Heartbeat CPU 1 instructions: 210000000 cycles: 793376825 heartbeat IPC: 0.324886 cumulative IPC: 0.203337 (Simulation time: 3 hr 45 min 5 sec) 
Heartbeat CPU 0 instructions: 910000000 cycles: 798004653 heartbeat IPC: 1.10931 cumulative IPC: 1.09536 (Simulation time: 3 hr 46 min 17 sec) 
Heartbeat CPU 2 instructions: 790000000 cycles: 801023347 heartbeat IPC: 0.955341 cumulative IPC: 0.942734 (Simulation time: 3 hr 47 min 6 sec) 
Heartbeat CPU 0 instructions: 920000001 cycles: 807059982 heartbeat IPC: 1.10432 cumulative IPC: 1.09546 (Simulation time: 3 hr 48 min 46 sec) 
Heartbeat CPU 2 instructions: 800000000 cycles: 811472634 heartbeat IPC: 0.957003 cumulative IPC: 0.942922 (Simulation time: 3 hr 50 min 0 sec) 
Heartbeat CPU 0 instructions: 930000001 cycles: 816150752 heartbeat IPC: 1.10002 cumulative IPC: 1.09551 (Simulation time: 3 hr 51 min 17 sec) 
Heartbeat CPU 2 instructions: 810000001 cycles: 821801801 heartbeat IPC: 0.968132 cumulative IPC: 0.943245 (Simulation time: 3 hr 52 min 43 sec) 
Heartbeat CPU 0 instructions: 940000002 cycles: 825230328 heartbeat IPC: 1.10137 cumulative IPC: 1.09558 (Simulation time: 3 hr 53 min 38 sec) 
Heartbeat CPU 2 instructions: 820000000 cycles: 831699409 heartbeat IPC: 1.01034 cumulative IPC: 0.944059 (Simulation time: 3 hr 55 min 26 sec) 
Heartbeat CPU 0 instructions: 950000000 cycles: 834243376 heartbeat IPC: 1.1095 cumulative IPC: 1.09573 (Simulation time: 3 hr 56 min 9 sec) 
Heartbeat CPU 3 instructions: 220000000 cycles: 834314891 heartbeat IPC: 0.135528 cumulative IPC: 0.207146 (Simulation time: 3 hr 56 min 10 sec) 
Heartbeat CPU 2 instructions: 830000003 cycles: 841673442 heartbeat IPC: 1.0026 cumulative IPC: 0.944766 (Simulation time: 3 hr 58 min 14 sec) 
Heartbeat CPU 0 instructions: 960000000 cycles: 843235935 heartbeat IPC: 1.11203 cumulative IPC: 1.09591 (Simulation time: 3 hr 58 min 39 sec) 
Heartbeat CPU 1 instructions: 220000000 cycles: 848238026 heartbeat IPC: 0.182278 cumulative IPC: 0.201949 (Simulation time: 3 hr 59 min 58 sec) 
Heartbeat CPU 2 instructions: 840000000 cycles: 851646622 heartbeat IPC: 1.00269 cumulative IPC: 0.945458 (Simulation time: 4 hr 0 min 53 sec) 
Heartbeat CPU 0 instructions: 970000002 cycles: 852217346 heartbeat IPC: 1.11341 cumulative IPC: 1.0961 (Simulation time: 4 hr 1 min 2 sec) 
Heartbeat CPU 0 instructions: 980000002 cycles: 861122394 heartbeat IPC: 1.12296 cumulative IPC: 1.09638 (Simulation time: 4 hr 3 min 30 sec) 
Heartbeat CPU 2 instructions: 850000000 cycles: 861577290 heartbeat IPC: 1.00698 cumulative IPC: 0.94618 (Simulation time: 4 hr 3 min 38 sec) 
Heartbeat CPU 0 instructions: 990000000 cycles: 870024769 heartbeat IPC: 1.1233 cumulative IPC: 1.09666 (Simulation time: 4 hr 5 min 59 sec) 
Heartbeat CPU 2 instructions: 860000002 cycles: 871390480 heartbeat IPC: 1.01904 cumulative IPC: 0.947016 (Simulation time: 4 hr 6 min 23 sec) 
*** Reached end of trace for Core: 0 Repeating trace: ./traces/ligra/ligra_BFSCC.com-lj.ungraph.gcc_6.3.0_O3.drop_6750M.length_250M.champsimtrace.xz
Heartbeat CPU 0 instructions: 1000000002 cycles: 878919806 heartbeat IPC: 1.12422 cumulative IPC: 1.09694 (Simulation time: 4 hr 8 min 30 sec) 
Heartbeat CPU 2 instructions: 870000000 cycles: 881185438 heartbeat IPC: 1.02093 cumulative IPC: 0.947853 (Simulation time: 4 hr 9 min 4 sec) 
Heartbeat CPU 0 instructions: 1010000000 cycles: 888188354 heartbeat IPC: 1.07892 cumulative IPC: 1.09675 (Simulation time: 4 hr 10 min 54 sec) 
Heartbeat CPU 2 instructions: 880000000 cycles: 891061946 heartbeat IPC: 1.0125 cumulative IPC: 0.948583 (Simulation time: 4 hr 11 min 39 sec) 
Heartbeat CPU 0 instructions: 1020000000 cycles: 897369109 heartbeat IPC: 1.08924 cumulative IPC: 1.09667 (Simulation time: 4 hr 13 min 22 sec) 
Heartbeat CPU 2 instructions: 890000002 cycles: 901135037 heartbeat IPC: 0.992744 cumulative IPC: 0.949085 (Simulation time: 4 hr 14 min 20 sec) 
Heartbeat CPU 1 instructions: 230000002 cycles: 906061094 heartbeat IPC: 0.172941 cumulative IPC: 0.200064 (Simulation time: 4 hr 15 min 41 sec) 
Heartbeat CPU 0 instructions: 1030000003 cycles: 906475298 heartbeat IPC: 1.09815 cumulative IPC: 1.09669 (Simulation time: 4 hr 15 min 47 sec) 
Heartbeat CPU 2 instructions: 900000002 cycles: 911267281 heartbeat IPC: 0.986948 cumulative IPC: 0.949514 (Simulation time: 4 hr 17 min 1 sec) 
Heartbeat CPU 0 instructions: 1040000000 cycles: 915761924 heartbeat IPC: 1.07682 cumulative IPC: 1.09648 (Simulation time: 4 hr 18 min 9 sec) 
Heartbeat CPU 2 instructions: 910000002 cycles: 921060618 heartbeat IPC: 1.0211 cumulative IPC: 0.950289 (Simulation time: 4 hr 19 min 35 sec) 
Heartbeat CPU 3 instructions: 230000001 cycles: 924680689 heartbeat IPC: 0.110661 cumulative IPC: 0.19755 (Simulation time: 4 hr 20 min 32 sec) 
Heartbeat CPU 0 instructions: 1050000000 cycles: 924980839 heartbeat IPC: 1.08473 cumulative IPC: 1.09636 (Simulation time: 4 hr 20 min 36 sec) 
Heartbeat CPU 2 instructions: 920000000 cycles: 930938215 heartbeat IPC: 1.01239 cumulative IPC: 0.950959 (Simulation time: 4 hr 22 min 3 sec) 
Heartbeat CPU 0 instructions: 1060000001 cycles: 934238048 heartbeat IPC: 1.08024 cumulative IPC: 1.0962 (Simulation time: 4 hr 22 min 52 sec) 
Heartbeat CPU 2 instructions: 930000002 cycles: 941235487 heartbeat IPC: 0.971131 cumulative IPC: 0.951184 (Simulation time: 4 hr 24 min 43 sec) 
Heartbeat CPU 0 instructions: 1070000000 cycles: 943442758 heartbeat IPC: 1.0864 cumulative IPC: 1.0961 (Simulation time: 4 hr 25 min 18 sec) 
Heartbeat CPU 2 instructions: 940000001 cycles: 951331851 heartbeat IPC: 0.990455 cumulative IPC: 0.951608 (Simulation time: 4 hr 27 min 14 sec) 
Heartbeat CPU 0 instructions: 1080000002 cycles: 952571089 heartbeat IPC: 1.09549 cumulative IPC: 1.0961 (Simulation time: 4 hr 27 min 33 sec) 
Heartbeat CPU 2 instructions: 950000003 cycles: 961245476 heartbeat IPC: 1.00871 cumulative IPC: 0.952207 (Simulation time: 4 hr 29 min 57 sec) 
Heartbeat CPU 1 instructions: 240000002 cycles: 961429795 heartbeat IPC: 0.180607 cumulative IPC: 0.198925 (Simulation time: 4 hr 30 min 0 sec) 
Heartbeat CPU 0 instructions: 1090000000 cycles: 961706543 heartbeat IPC: 1.09464 cumulative IPC: 1.09608 (Simulation time: 4 hr 30 min 5 sec) 
Heartbeat CPU 0 instructions: 1100000000 cycles: 970864661 heartbeat IPC: 1.09193 cumulative IPC: 1.09604 (Simulation time: 4 hr 32 min 35 sec) 
Heartbeat CPU 2 instructions: 960000001 cycles: 971293410 heartbeat IPC: 0.995229 cumulative IPC: 0.952659 (Simulation time: 4 hr 32 min 42 sec) 
Heartbeat CPU 0 instructions: 1110000002 cycles: 980045670 heartbeat IPC: 1.08921 cumulative IPC: 1.09598 (Simulation time: 4 hr 35 min 9 sec) 
Heartbeat CPU 2 instructions: 970000002 cycles: 981496150 heartbeat IPC: 0.980129 cumulative IPC: 0.95295 (Simulation time: 4 hr 35 min 34 sec) 
Heartbeat CPU 0 instructions: 1120000000 cycles: 989205038 heartbeat IPC: 1.09178 cumulative IPC: 1.09594 (Simulation time: 4 hr 37 min 32 sec) 
Heartbeat CPU 2 instructions: 980000003 cycles: 991636885 heartbeat IPC: 0.986122 cumulative IPC: 0.953294 (Simulation time: 4 hr 38 min 13 sec) 
Heartbeat CPU 3 instructions: 240000002 cycles: 994458832 heartbeat IPC: 0.143311 cumulative IPC: 0.193682 (Simulation time: 4 hr 39 min 5 sec) 
Heartbeat CPU 0 instructions: 1130000001 cycles: 998333484 heartbeat IPC: 1.09548 cumulative IPC: 1.09594 (Simulation time: 4 hr 40 min 18 sec) 
Heartbeat CPU 2 instructions: 990000000 cycles: 1001469326 heartbeat IPC: 1.01704 cumulative IPC: 0.95393 (Simulation time: 4 hr 41 min 17 sec) 
Heartbeat CPU 0 instructions: 1140000002 cycles: 1007400764 heartbeat IPC: 1.10287 cumulative IPC: 1.096 (Simulation time: 4 hr 43 min 9 sec) 
*** Reached end of trace for Core: 2 Repeating trace: ./traces/ligra/ligra_CF.com-lj.ungraph.gcc_6.3.0_O3.drop_154750M.length_250M.champsimtrace.xz
Heartbeat CPU 2 instructions: 1000000003 cycles: 1011507585 heartbeat IPC: 0.996189 cumulative IPC: 0.954357 (Simulation time: 4 hr 44 min 22 sec) 
Heartbeat CPU 0 instructions: 1150000000 cycles: 1016455771 heartbeat IPC: 1.10436 cumulative IPC: 1.09607 (Simulation time: 4 hr 45 min 46 sec) 
Heartbeat CPU 1 instructions: 250000000 cycles: 1018262471 heartbeat IPC: 0.175955 cumulative IPC: 0.197622 (Simulation time: 4 hr 46 min 18 sec) 
Finished CPU 1 instructions: 200000001 cycles: 1007236367 cumulative IPC: 0.198563 (Simulation time: 4 hr 47 min 50 sec) 
Heartbeat CPU 0 instructions: 1160000001 cycles: 1025471923 heartbeat IPC: 1.10912 cumulative IPC: 1.09619 (Simulation time: 4 hr 48 min 31 sec) 
*** Reached end of trace for Core: 3 Repeating trace: ./traces/ligra/ligra_Triangle.com-lj.ungraph.gcc_6.3.0_O3.drop_25000M.length_250M.champsimtrace.xz
Heartbeat CPU 3 instructions: 250000002 cycles: 1027599074 heartbeat IPC: 0.301748 cumulative IPC: 0.197222 (Simulation time: 4 hr 49 min 11 sec) 
Finished CPU 3 instructions: 200000000 cycles: 1012955746 cumulative IPC: 0.197442 (Simulation time: 4 hr 49 min 35 sec) 

ChampSim completed all CPUs

Total Simulation Statistics (not including warmup)

CPU 0 cumulative IPC: 1.09622 instructions: 1110421880 cycles: 1012955745
ITLB TOTAL     ACCESS:  210381422  HIT:  210381422  MISS:          0  HIT %:        100  MISS %:          0   MPKI: 0
ITLB LOAD      ACCESS:          0  HIT:          0  MISS:          0  HIT %:       -nan  MISS %:       -nan   MPKI: 0
ITLB RFO       ACCESS:          0  HIT:          0  MISS:          0  HIT %:       -nan  MISS %:       -nan   MPKI: 0
ITLB PREFETCH  ACCESS:          0  HIT:          0  MISS:          0  HIT %:       -nan  MISS %:       -nan   MPKI: 0
ITLB WRITEBACK ACCESS:          0  HIT:          0  MISS:          0  HIT %:       -nan  MISS %:       -nan   MPKI: 0
DTLB TOTAL     ACCESS:  127336890  HIT:  127315494  MISS:      21396  HIT %:    99.9832  MISS %:  0.0168027   MPKI: 0.0192684
DTLB LOAD      ACCESS:          0  HIT:          0  MISS:          0  HIT %:       -nan  MISS %:       -nan   MPKI: 0
DTLB RFO       ACCESS:          0  HIT:          0  MISS:          0  HIT %:       -nan  MISS %:       -nan   MPKI: 0
DTLB PREFETCH  ACCESS:          0  HIT:          0  MISS:          0  HIT %:       -nan  MISS %:       -nan   MPKI: 0
DTLB WRITEBACK ACCESS:          0  HIT:          0  MISS:          0  HIT %:       -nan  MISS %:       -nan   MPKI: 0
STLB TOTAL     ACCESS:   26478563  HIT:   26457166  MISS:      21397  HIT %:    99.9192  MISS %:  0.0808088   MPKI: 0.0192693
STLB LOAD      ACCESS:          0  HIT:          0  MISS:          0  HIT %:       -nan  MISS %:       -nan   MPKI: 0
STLB RFO       ACCESS:          0  HIT:          0  MISS:          0  HIT %:       -nan  MISS %:       -nan   MPKI: 0
STLB PREFETCH  ACCESS:          0  HIT:          0  MISS:          0  HIT %:       -nan  MISS %:       -nan   MPKI: 0
STLB WRITEBACK ACCESS:          0  HIT:          0  MISS:          0  HIT %:       -nan  MISS %:       -nan   MPKI: 0
L1D TOTAL     ACCESS:  315867550  HIT:  314498635  MISS:    1368915  HIT %:    99.5666  MISS %:   0.433383   MPKI: 1.23279
L1D LOAD      ACCESS:   93614830  HIT:   93611737  MISS:       3093  HIT %:    99.9967  MISS %: 0.00330396   MPKI: 0.00278543
L1D RFO       ACCESS:   49450294  HIT:   49189560  MISS:     260734  HIT %:    99.4727  MISS %:   0.527265   MPKI: 0.234806
L1D PREFETCH  ACCESS:  172802426  HIT:  171697338  MISS:    1105088  HIT %:    99.3605  MISS %:    0.63951   MPKI: 0.995197
L1D WRITEBACK ACCESS:          0  HIT:          0  MISS:          0  HIT %:       -nan  MISS %:       -nan   MPKI: 0
L1I TOTAL     ACCESS:  222810396  HIT:  222810396  MISS:          0  HIT %:        100  MISS %:          0   MPKI: 0
L1I LOAD      ACCESS:  222810396  HIT:  222810396  MISS:          0  HIT %:        100  MISS %:          0   MPKI: 0
L1I RFO       ACCESS:          0  HIT:          0  MISS:          0  HIT %:       -nan  MISS %:       -nan   MPKI: 0
L1I PREFETCH  ACCESS:          0  HIT:          0  MISS:          0  HIT %:       -nan  MISS %:       -nan   MPKI: 0
L1I WRITEBACK ACCESS:          0  HIT:          0  MISS:          0  HIT %:       -nan  MISS %:       -nan   MPKI: 0
L2C TOTAL     ACCESS:   11208931  HIT:    9812398  MISS:    1396533  HIT %:    87.5409  MISS %:    12.4591   MPKI: 1.25766
L2C LOAD      ACCESS:       2786  HIT:          0  MISS:       2786  HIT %:          0  MISS %:        100   MPKI: 0.00250896
L2C RFO       ACCESS:     260734  HIT:          0  MISS:     260734  HIT %:          0  MISS %:        100   MPKI: 0.234806
L2C PREFETCH  ACCESS:    9654219  HIT:    8548796  MISS:    1105423  HIT %:    88.5498  MISS %:    11.4502   MPKI: 0.995498
L2C WRITEBACK ACCESS:     260728  HIT:     235954  MISS:      24774  HIT %:    90.4981  MISS %:    9.50186   MPKI: 0.0223104
PSCL5 TOTAL     ACCESS:    1030464  HIT:    1030464  MISS:          0  HIT %:        100  MISS %:          0   MPKI: 0
PSCL5 LOAD      ACCESS:          0  HIT:          0  MISS:          0  HIT %:       -nan  MISS %:       -nan   MPKI: 0
PSCL5 RFO       ACCESS:          0  HIT:          0  MISS:          0  HIT %:       -nan  MISS %:       -nan   MPKI: 0
PSCL5 PREFETCH  ACCESS:          0  HIT:          0  MISS:          0  HIT %:       -nan  MISS %:       -nan   MPKI: 0
PSCL5 WRITEBACK ACCESS:          0  HIT:          0  MISS:          0  HIT %:       -nan  MISS %:       -nan   MPKI: 0
PSCL4 TOTAL     ACCESS:    1030464  HIT:    1030464  MISS:          0  HIT %:        100  MISS %:          0   MPKI: 0
PSCL4 LOAD      ACCESS:          0  HIT:          0  MISS:          0  HIT %:       -nan  MISS %:       -nan   MPKI: 0
PSCL4 RFO       ACCESS:          0  HIT:          0  MISS:          0  HIT %:       -nan  MISS %:       -nan   MPKI: 0
PSCL4 PREFETCH  ACCESS:          0  HIT:          0  MISS:          0  HIT %:       -nan  MISS %:       -nan   MPKI: 0
PSCL4 WRITEBACK ACCESS:          0  HIT:          0  MISS:          0  HIT %:       -nan  MISS %:       -nan   MPKI: 0
PSCL3 TOTAL     ACCESS:    1030464  HIT:    1030464  MISS:          0  HIT %:        100  MISS %:          0   MPKI: 0
PSCL3 LOAD      ACCESS:          0  HIT:          0  MISS:          0  HIT %:       -nan  MISS %:       -nan   MPKI: 0
PSCL3 RFO       ACCESS:          0  HIT:          0  MISS:          0  HIT %:       -nan  MISS %:       -nan   MPKI: 0
PSCL3 PREFETCH  ACCESS:          0  HIT:          0  MISS:          0  HIT %:       -nan  MISS %:       -nan   MPKI: 0
PSCL3 WRITEBACK ACCESS:          0  HIT:          0  MISS:          0  HIT %:       -nan  MISS %:       -nan   MPKI: 0
PSCL2 TOTAL     ACCESS:    1028602  HIT:    1028595  MISS:          7  HIT %:    99.9993  MISS %: 0.000680535   MPKI: 6.30391e-06
PSCL2 LOAD      ACCESS:          0  HIT:          0  MISS:          0  HIT %:       -nan  MISS %:       -nan   MPKI: 0
PSCL2 RFO       ACCESS:          0  HIT:          0  MISS:          0  HIT %:       -nan  MISS %:       -nan   MPKI: 0
PSCL2 PREFETCH  ACCESS:          0  HIT:          0  MISS:          0  HIT %:       -nan  MISS %:       -nan   MPKI: 0
PSCL2 WRITEBACK ACCESS:          0  HIT:          0  MISS:          0  HIT %:       -nan  MISS %:       -nan   MPKI: 0
LLC TOTAL     ACCESS:    1632461  HIT:     101930  MISS:    1530531  HIT %:    6.24395  MISS %:    93.7561   MPKI: 1.37833
LLC LOAD      ACCESS:       2786  HIT:          0  MISS:       2786  HIT %:          0  MISS %:        100   MPKI: 0.00250896
LLC RFO       ACCESS:     260734  HIT:          0  MISS:     260734  HIT %:          0  MISS %:        100   MPKI: 0.234806
LLC PREFETCH  ACCESS:    1105423  HIT:          7  MISS:    1105416  HIT %: 0.000633242  MISS %:    99.9994   MPKI: 0.995492
LLC WRITEBACK ACCESS:     260702  HIT:     101799  MISS:     158903  HIT %:     39.048  MISS %:     60.952   MPKI: 0.143101

RAW hits: 16782933
Loads Generated: 150179993
Loads sent to L1D: 133397060
Stores Generated: 50059974
Stores sent to L1D: 50059980

CPU 1 cumulative IPC: 0.199887 instructions: 202476942 cycles: 1012955745
ITLB TOTAL     ACCESS:   24822244  HIT:   24822244  MISS:          0  HIT %:        100  MISS %:          0   MPKI: 0
ITLB LOAD      ACCESS:          0  HIT:          0  MISS:          0  HIT %:       -nan  MISS %:       -nan   MPKI: 0
ITLB RFO       ACCESS:          0  HIT:          0  MISS:          0  HIT %:       -nan  MISS %:       -nan   MPKI: 0
ITLB PREFETCH  ACCESS:          0  HIT:          0  MISS:          0  HIT %:       -nan  MISS %:       -nan   MPKI: 0
ITLB WRITEBACK ACCESS:          0  HIT:          0  MISS:          0  HIT %:       -nan  MISS %:       -nan   MPKI: 0
DTLB TOTAL     ACCESS:   41426658  HIT:   36807867  MISS:    4618791  HIT %:    88.8507  MISS %:    11.1493   MPKI: 22.8114
DTLB LOAD      ACCESS:          0  HIT:          0  MISS:          0  HIT %:       -nan  MISS %:       -nan   MPKI: 0
DTLB RFO       ACCESS:          0  HIT:          0  MISS:          0  HIT %:       -nan  MISS %:       -nan   MPKI: 0
DTLB PREFETCH  ACCESS:          0  HIT:          0  MISS:          0  HIT %:       -nan  MISS %:       -nan   MPKI: 0
DTLB WRITEBACK ACCESS:          0  HIT:          0  MISS:          0  HIT %:       -nan  MISS %:       -nan   MPKI: 0
STLB TOTAL     ACCESS:   14795633  HIT:   14730547  MISS:      65086  HIT %:    99.5601  MISS %:     0.4399   MPKI: 0.321449
STLB LOAD      ACCESS:          0  HIT:          0  MISS:          0  HIT %:       -nan  MISS %:       -nan   MPKI: 0
STLB RFO       ACCESS:          0  HIT:          0  MISS:          0  HIT %:       -nan  MISS %:       -nan   MPKI: 0
STLB PREFETCH  ACCESS:          0  HIT:          0  MISS:          0  HIT %:       -nan  MISS %:       -nan   MPKI: 0
STLB WRITEBACK ACCESS:          0  HIT:          0  MISS:          0  HIT %:       -nan  MISS %:       -nan   MPKI: 0
L1D TOTAL     ACCESS:   84615436  HIT:   73620432  MISS:   10995004  HIT %:    87.0059  MISS %:    12.9941   MPKI: 54.3025
L1D LOAD      ACCESS:   43500629  HIT:   34220318  MISS:    9280311  HIT %:    78.6663  MISS %:    21.3337   MPKI: 45.8339
L1D RFO       ACCESS:    2043159  HIT:    1569828  MISS:     473331  HIT %:    76.8334  MISS %:    23.1666   MPKI: 2.3377
L1D PREFETCH  ACCESS:   39071648  HIT:   37830286  MISS:    1241362  HIT %:    96.8229  MISS %:    3.17714   MPKI: 6.13088
L1D WRITEBACK ACCESS:          0  HIT:          0  MISS:          0  HIT %:       -nan  MISS %:       -nan   MPKI: 0
L1I TOTAL     ACCESS:   25489379  HIT:   25489379  MISS:          0  HIT %:        100  MISS %:          0   MPKI: 0
L1I LOAD      ACCESS:   25489379  HIT:   25489379  MISS:          0  HIT %:        100  MISS %:          0   MPKI: 0
L1I RFO       ACCESS:          0  HIT:          0  MISS:          0  HIT %:       -nan  MISS %:       -nan   MPKI: 0
L1I PREFETCH  ACCESS:          0  HIT:          0  MISS:          0  HIT %:       -nan  MISS %:       -nan   MPKI: 0
L1I WRITEBACK ACCESS:          0  HIT:          0  MISS:          0  HIT %:       -nan  MISS %:       -nan   MPKI: 0
L2C TOTAL     ACCESS:   23283263  HIT:   12714338  MISS:   10568925  HIT %:    54.6072  MISS %:    45.3928   MPKI: 52.1982
L2C LOAD      ACCESS:    9260036  HIT:    2260163  MISS:    6999873  HIT %:    24.4077  MISS %:    75.5923   MPKI: 34.5712
L2C RFO       ACCESS:     473326  HIT:     290269  MISS:     183057  HIT %:    61.3254  MISS %:    38.6746   MPKI: 0.904088
L2C PREFETCH  ACCESS:    8731347  HIT:    5472793  MISS:    3258554  HIT %:    62.6798  MISS %:    37.3202   MPKI: 16.0935
L2C WRITEBACK ACCESS:    1290752  HIT:    1213093  MISS:      77659  HIT %:    93.9834  MISS %:    6.01657   MPKI: 0.383545
PSCL5 TOTAL     ACCESS:    3505195  HIT:    3505195  MISS:          0  HIT %:        100  MISS %:          0   MPKI: 0
PSCL5 LOAD      ACCESS:          0  HIT:          0  MISS:          0  HIT %:       -nan  MISS %:       -nan   MPKI: 0
PSCL5 RFO       ACCESS:          0  HIT:          0  MISS:          0  HIT %:       -nan  MISS %:       -nan   MPKI: 0
PSCL5 PREFETCH  ACCESS:          0  HIT:          0  MISS:          0  HIT %:       -nan  MISS %:       -nan   MPKI: 0
PSCL5 WRITEBACK ACCESS:          0  HIT:          0  MISS:          0  HIT %:       -nan  MISS %:       -nan   MPKI: 0
PSCL4 TOTAL     ACCESS:    3505195  HIT:    3505195  MISS:          0  HIT %:        100  MISS %:          0   MPKI: 0
PSCL4 LOAD      ACCESS:          0  HIT:          0  MISS:          0  HIT %:       -nan  MISS %:       -nan   MPKI: 0
PSCL4 RFO       ACCESS:          0  HIT:          0  MISS:          0  HIT %:       -nan  MISS %:       -nan   MPKI: 0
PSCL4 PREFETCH  ACCESS:          0  HIT:          0  MISS:          0  HIT %:       -nan  MISS %:       -nan   MPKI: 0
PSCL4 WRITEBACK ACCESS:          0  HIT:          0  MISS:          0  HIT %:       -nan  MISS %:       -nan   MPKI: 0
PSCL3 TOTAL     ACCESS:    3505195  HIT:    3505195  MISS:          0  HIT %:        100  MISS %:          0   MPKI: 0
PSCL3 LOAD      ACCESS:          0  HIT:          0  MISS:          0  HIT %:       -nan  MISS %:       -nan   MPKI: 0
PSCL3 RFO       ACCESS:          0  HIT:          0  MISS:          0  HIT %:       -nan  MISS %:       -nan   MPKI: 0
PSCL3 PREFETCH  ACCESS:          0  HIT:          0  MISS:          0  HIT %:       -nan  MISS %:       -nan   MPKI: 0
PSCL3 WRITEBACK ACCESS:          0  HIT:          0  MISS:          0  HIT %:       -nan  MISS %:       -nan   MPKI: 0
PSCL2 TOTAL     ACCESS:    3495158  HIT:    3482586  MISS:      12572  HIT %:    99.6403  MISS %:   0.359698   MPKI: 0.062091
PSCL2 LOAD      ACCESS:          0  HIT:          0  MISS:          0  HIT %:       -nan  MISS %:       -nan   MPKI: 0
PSCL2 RFO       ACCESS:          0  HIT:          0  MISS:          0  HIT %:       -nan  MISS %:       -nan   MPKI: 0
PSCL2 PREFETCH  ACCESS:          0  HIT:          0  MISS:          0  HIT %:       -nan  MISS %:       -nan   MPKI: 0
PSCL2 WRITEBACK ACCESS:          0  HIT:          0  MISS:          0  HIT %:       -nan  MISS %:       -nan   MPKI: 0
LLC TOTAL     ACCESS:   11346283  HIT:    6678486  MISS:    4667797  HIT %:    58.8606  MISS %:    41.1394   MPKI: 23.0535
LLC LOAD      ACCESS:    6896791  HIT:    4866293  MISS:    2030498  HIT %:    70.5588  MISS %:    29.4412   MPKI: 10.0283
LLC RFO       ACCESS:     183055  HIT:      77167  MISS:     105888  HIT %:    42.1551  MISS %:    57.8449   MPKI: 0.522963
LLC PREFETCH  ACCESS:    3361633  HIT:     889158  MISS:    2472475  HIT %:    26.4502  MISS %:    73.5498   MPKI: 12.2111
LLC WRITEBACK ACCESS:     855022  HIT:     830053  MISS:      24969  HIT %:    97.0797  MISS %:    2.92028   MPKI: 0.123318

RAW hits: 80064
Loads Generated: 77779617
Loads sent to L1D: 77699553
Stores Generated: 2222959
Stores sent to L1D: 2222961

CPU 2 cumulative IPC: 0.946558 instructions: 958821738 cycles: 1012955745
ITLB TOTAL     ACCESS:  134983414  HIT:  134983414  MISS:          0  HIT %:        100  MISS %:          0   MPKI: 0
ITLB LOAD      ACCESS:          0  HIT:          0  MISS:          0  HIT %:       -nan  MISS %:       -nan   MPKI: 0
ITLB RFO       ACCESS:          0  HIT:          0  MISS:          0  HIT %:       -nan  MISS %:       -nan   MPKI: 0
ITLB PREFETCH  ACCESS:          0  HIT:          0  MISS:          0  HIT %:       -nan  MISS %:       -nan   MPKI: 0
ITLB WRITEBACK ACCESS:          0  HIT:          0  MISS:          0  HIT %:       -nan  MISS %:       -nan   MPKI: 0
DTLB TOTAL     ACCESS:  165015508  HIT:  164628411  MISS:     387097  HIT %:    99.7654  MISS %:   0.234582   MPKI: 0.403722
DTLB LOAD      ACCESS:          0  HIT:          0  MISS:          0  HIT %:       -nan  MISS %:       -nan   MPKI: 0
DTLB RFO       ACCESS:          0  HIT:          0  MISS:          0  HIT %:       -nan  MISS %:       -nan   MPKI: 0
DTLB PREFETCH  ACCESS:          0  HIT:          0  MISS:          0  HIT %:       -nan  MISS %:       -nan   MPKI: 0
DTLB WRITEBACK ACCESS:          0  HIT:          0  MISS:          0  HIT %:       -nan  MISS %:       -nan   MPKI: 0
STLB TOTAL     ACCESS:   49537609  HIT:   49197693  MISS:     339916  HIT %:    99.3138  MISS %:   0.686178   MPKI: 0.354514
STLB LOAD      ACCESS:          0  HIT:          0  MISS:          0  HIT %:       -nan  MISS %:       -nan   MPKI: 0
STLB RFO       ACCESS:          0  HIT:          0  MISS:          0  HIT %:       -nan  MISS %:       -nan   MPKI: 0
STLB PREFETCH  ACCESS:          0  HIT:          0  MISS:          0  HIT %:       -nan  MISS %:       -nan   MPKI: 0
STLB WRITEBACK ACCESS:          0  HIT:          0  MISS:          0  HIT %:       -nan  MISS %:       -nan   MPKI: 0
L1D TOTAL     ACCESS:  337226949  HIT:  321690728  MISS:   15536221  HIT %:    95.3929  MISS %:    4.60705   MPKI: 16.2035
L1D LOAD      ACCESS:   68172001  HIT:   65804791  MISS:    2367210  HIT %:    96.5276  MISS %:    3.47241   MPKI: 2.46887
L1D RFO       ACCESS:  118892083  HIT:  118892075  MISS:          8  HIT %:        100  MISS %: 6.72879e-06   MPKI: 8.34357e-06
L1D PREFETCH  ACCESS:  150162865  HIT:  136993862  MISS:   13169003  HIT %:    91.2302  MISS %:    8.76981   MPKI: 13.7346
L1D WRITEBACK ACCESS:          0  HIT:          0  MISS:          0  HIT %:       -nan  MISS %:       -nan   MPKI: 0
L1I TOTAL     ACCESS:  193489666  HIT:  193489666  MISS:          0  HIT %:        100  MISS %:          0   MPKI: 0
L1I LOAD      ACCESS:  193489666  HIT:  193489666  MISS:          0  HIT %:        100  MISS %:          0   MPKI: 0
L1I RFO       ACCESS:          0  HIT:          0  MISS:          0  HIT %:       -nan  MISS %:       -nan   MPKI: 0
L1I PREFETCH  ACCESS:          0  HIT:          0  MISS:          0  HIT %:       -nan  MISS %:       -nan   MPKI: 0
L1I WRITEBACK ACCESS:          0  HIT:          0  MISS:          0  HIT %:       -nan  MISS %:       -nan   MPKI: 0
L2C TOTAL     ACCESS:   35826360  HIT:   19539528  MISS:   16286832  HIT %:    54.5395  MISS %:    45.4605   MPKI: 16.9863
L2C LOAD      ACCESS:     589708  HIT:     115018  MISS:     474690  HIT %:    19.5042  MISS %:    80.4958   MPKI: 0.495076
L2C RFO       ACCESS:          8  HIT:          0  MISS:          8  HIT %:          0  MISS %:        100   MPKI: 8.34357e-06
L2C PREFETCH  ACCESS:   19603572  HIT:    4459660  MISS:   15143912  HIT %:    22.7492  MISS %:    77.2508   MPKI: 15.7943
L2C WRITEBACK ACCESS:   14752713  HIT:   14191617  MISS:     561096  HIT %:    96.1967  MISS %:    3.80334   MPKI: 0.585193
PSCL5 TOTAL     ACCESS:     841441  HIT:     841441  MISS:          0  HIT %:        100  MISS %:          0   MPKI: 0
PSCL5 LOAD      ACCESS:          0  HIT:          0  MISS:          0  HIT %:       -nan  MISS %:       -nan   MPKI: 0
PSCL5 RFO       ACCESS:          0  HIT:          0  MISS:          0  HIT %:       -nan  MISS %:       -nan   MPKI: 0
PSCL5 PREFETCH  ACCESS:          0  HIT:          0  MISS:          0  HIT %:       -nan  MISS %:       -nan   MPKI: 0
PSCL5 WRITEBACK ACCESS:          0  HIT:          0  MISS:          0  HIT %:       -nan  MISS %:       -nan   MPKI: 0
PSCL4 TOTAL     ACCESS:     841441  HIT:     841441  MISS:          0  HIT %:        100  MISS %:          0   MPKI: 0
PSCL4 LOAD      ACCESS:          0  HIT:          0  MISS:          0  HIT %:       -nan  MISS %:       -nan   MPKI: 0
PSCL4 RFO       ACCESS:          0  HIT:          0  MISS:          0  HIT %:       -nan  MISS %:       -nan   MPKI: 0
PSCL4 PREFETCH  ACCESS:          0  HIT:          0  MISS:          0  HIT %:       -nan  MISS %:       -nan   MPKI: 0
PSCL4 WRITEBACK ACCESS:          0  HIT:          0  MISS:          0  HIT %:       -nan  MISS %:       -nan   MPKI: 0
PSCL3 TOTAL     ACCESS:     841441  HIT:     841441  MISS:          0  HIT %:        100  MISS %:          0   MPKI: 0
PSCL3 LOAD      ACCESS:          0  HIT:          0  MISS:          0  HIT %:       -nan  MISS %:       -nan   MPKI: 0
PSCL3 RFO       ACCESS:          0  HIT:          0  MISS:          0  HIT %:       -nan  MISS %:       -nan   MPKI: 0
PSCL3 PREFETCH  ACCESS:          0  HIT:          0  MISS:          0  HIT %:       -nan  MISS %:       -nan   MPKI: 0
PSCL3 WRITEBACK ACCESS:          0  HIT:          0  MISS:          0  HIT %:       -nan  MISS %:       -nan   MPKI: 0
PSCL2 TOTAL     ACCESS:     840644  HIT:     802167  MISS:      38477  HIT %:    95.4229  MISS %:    4.57709   MPKI: 0.0401295
PSCL2 LOAD      ACCESS:          0  HIT:          0  MISS:          0  HIT %:       -nan  MISS %:       -nan   MPKI: 0
PSCL2 RFO       ACCESS:          0  HIT:          0  MISS:          0  HIT %:       -nan  MISS %:       -nan   MPKI: 0
PSCL2 PREFETCH  ACCESS:          0  HIT:          0  MISS:          0  HIT %:       -nan  MISS %:       -nan   MPKI: 0
PSCL2 WRITEBACK ACCESS:          0  HIT:          0  MISS:          0  HIT %:       -nan  MISS %:       -nan   MPKI: 0
LLC TOTAL     ACCESS:   30484087  HIT:   14767094  MISS:   15716993  HIT %:     48.442  MISS %:     51.558   MPKI: 16.392
LLC LOAD      ACCESS:     430321  HIT:      31263  MISS:     399058  HIT %:    7.26504  MISS %:     92.735   MPKI: 0.416196
LLC RFO       ACCESS:          8  HIT:          0  MISS:          8  HIT %:          0  MISS %:        100   MPKI: 8.34357e-06
LLC PREFETCH  ACCESS:   15188281  HIT:      12206  MISS:   15176075  HIT %:  0.0803646  MISS %:    99.9196   MPKI: 15.8278
LLC WRITEBACK ACCESS:   14758350  HIT:   14694797  MISS:      63553  HIT %:    99.5694  MISS %:   0.430624   MPKI: 0.0662824

RAW hits: 527127
Loads Generated: 133078181
Loads sent to L1D: 132551054
Stores Generated: 118892917
Stores sent to L1D: 118892917

CPU 3 cumulative IPC: 0.197442 instructions: 200000000 cycles: 1012955746
ITLB TOTAL     ACCESS:   36476785  HIT:   36476778  MISS:          7  HIT %:        100  MISS %: 1.91903e-05   MPKI: 3.5e-05
ITLB LOAD      ACCESS:          0  HIT:          0  MISS:          0  HIT %:       -nan  MISS %:       -nan   MPKI: 0
ITLB RFO       ACCESS:          0  HIT:          0  MISS:          0  HIT %:       -nan  MISS %:       -nan   MPKI: 0
ITLB PREFETCH  ACCESS:          0  HIT:          0  MISS:          0  HIT %:       -nan  MISS %:       -nan   MPKI: 0
ITLB WRITEBACK ACCESS:          0  HIT:          0  MISS:          0  HIT %:       -nan  MISS %:       -nan   MPKI: 0
DTLB TOTAL     ACCESS:   45796736  HIT:   41610808  MISS:    4185928  HIT %:    90.8598  MISS %:    9.14023   MPKI: 20.9296
DTLB LOAD      ACCESS:          0  HIT:          0  MISS:          0  HIT %:       -nan  MISS %:       -nan   MPKI: 0
DTLB RFO       ACCESS:          0  HIT:          0  MISS:          0  HIT %:       -nan  MISS %:       -nan   MPKI: 0
DTLB PREFETCH  ACCESS:          0  HIT:          0  MISS:          0  HIT %:       -nan  MISS %:       -nan   MPKI: 0
DTLB WRITEBACK ACCESS:          0  HIT:          0  MISS:          0  HIT %:       -nan  MISS %:       -nan   MPKI: 0
STLB TOTAL     ACCESS:   17465388  HIT:   17431968  MISS:      33420  HIT %:    99.8087  MISS %:    0.19135   MPKI: 0.1671
STLB LOAD      ACCESS:          0  HIT:          0  MISS:          0  HIT %:       -nan  MISS %:       -nan   MPKI: 0
STLB RFO       ACCESS:          0  HIT:          0  MISS:          0  HIT %:       -nan  MISS %:       -nan   MPKI: 0
STLB PREFETCH  ACCESS:          0  HIT:          0  MISS:          0  HIT %:       -nan  MISS %:       -nan   MPKI: 0
STLB WRITEBACK ACCESS:          0  HIT:          0  MISS:          0  HIT %:       -nan  MISS %:       -nan   MPKI: 0
L1D TOTAL     ACCESS:  111320463  HIT:  104375678  MISS:    6944785  HIT %:    93.7614  MISS %:    6.23855   MPKI: 34.7239
L1D LOAD      ACCESS:   44073143  HIT:   39142706  MISS:    4930437  HIT %:    88.8131  MISS %:    11.1869   MPKI: 24.6522
L1D RFO       ACCESS:    5068662  HIT:    5068353  MISS:        309  HIT %:    99.9939  MISS %: 0.00609628   MPKI: 0.001545
L1D PREFETCH  ACCESS:   62178658  HIT:   60164619  MISS:    2014039  HIT %:    96.7609  MISS %:    3.23912   MPKI: 10.0702
L1D WRITEBACK ACCESS:          0  HIT:          0  MISS:          0  HIT %:       -nan  MISS %:       -nan   MPKI: 0
L1I TOTAL     ACCESS:   39012073  HIT:   39012029  MISS:         44  HIT %:    99.9999  MISS %: 0.000112786   MPKI: 0.00022
L1I LOAD      ACCESS:   39012073  HIT:   39012029  MISS:         44  HIT %:    99.9999  MISS %: 0.000112786   MPKI: 0.00022
L1I RFO       ACCESS:          0  HIT:          0  MISS:          0  HIT %:       -nan  MISS %:       -nan   MPKI: 0
L1I PREFETCH  ACCESS:          0  HIT:          0  MISS:          0  HIT %:       -nan  MISS %:       -nan   MPKI: 0
L1I WRITEBACK ACCESS:          0  HIT:          0  MISS:          0  HIT %:       -nan  MISS %:       -nan   MPKI: 0
L2C TOTAL     ACCESS:   18998765  HIT:   13041798  MISS:    5956967  HIT %:    68.6455  MISS %:    31.3545   MPKI: 29.7848
L2C LOAD      ACCESS:    4898480  HIT:    1101556  MISS:    3796924  HIT %:    22.4877  MISS %:    77.5123   MPKI: 18.9846
L2C RFO       ACCESS:        309  HIT:         24  MISS:        285  HIT %:    7.76699  MISS %:     92.233   MPKI: 0.001425
L2C PREFETCH  ACCESS:    6992184  HIT:    4837507  MISS:    2154677  HIT %:    69.1845  MISS %:    30.8155   MPKI: 10.7734
L2C WRITEBACK ACCESS:        343  HIT:        241  MISS:        102  HIT %:    70.2624  MISS %:    29.7376   MPKI: 0.00051
PSCL5 TOTAL     ACCESS:    7107308  HIT:    7107308  MISS:          0  HIT %:        100  MISS %:          0   MPKI: 0
PSCL5 LOAD      ACCESS:          0  HIT:          0  MISS:          0  HIT %:       -nan  MISS %:       -nan   MPKI: 0
PSCL5 RFO       ACCESS:          0  HIT:          0  MISS:          0  HIT %:       -nan  MISS %:       -nan   MPKI: 0
PSCL5 PREFETCH  ACCESS:          0  HIT:          0  MISS:          0  HIT %:       -nan  MISS %:       -nan   MPKI: 0
PSCL5 WRITEBACK ACCESS:          0  HIT:          0  MISS:          0  HIT %:       -nan  MISS %:       -nan   MPKI: 0
PSCL4 TOTAL     ACCESS:    7107308  HIT:    7107308  MISS:          0  HIT %:        100  MISS %:          0   MPKI: 0
PSCL4 LOAD      ACCESS:          0  HIT:          0  MISS:          0  HIT %:       -nan  MISS %:       -nan   MPKI: 0
PSCL4 RFO       ACCESS:          0  HIT:          0  MISS:          0  HIT %:       -nan  MISS %:       -nan   MPKI: 0
PSCL4 PREFETCH  ACCESS:          0  HIT:          0  MISS:          0  HIT %:       -nan  MISS %:       -nan   MPKI: 0
PSCL4 WRITEBACK ACCESS:          0  HIT:          0  MISS:          0  HIT %:       -nan  MISS %:       -nan   MPKI: 0
PSCL3 TOTAL     ACCESS:    7107308  HIT:    7107308  MISS:          0  HIT %:        100  MISS %:          0   MPKI: 0
PSCL3 LOAD      ACCESS:          0  HIT:          0  MISS:          0  HIT %:       -nan  MISS %:       -nan   MPKI: 0
PSCL3 RFO       ACCESS:          0  HIT:          0  MISS:          0  HIT %:       -nan  MISS %:       -nan   MPKI: 0
PSCL3 PREFETCH  ACCESS:          0  HIT:          0  MISS:          0  HIT %:       -nan  MISS %:       -nan   MPKI: 0
PSCL3 WRITEBACK ACCESS:          0  HIT:          0  MISS:          0  HIT %:       -nan  MISS %:       -nan   MPKI: 0
PSCL2 TOTAL     ACCESS:    6854601  HIT:    6854521  MISS:         80  HIT %:    99.9988  MISS %:  0.0011671   MPKI: 0.0004
PSCL2 LOAD      ACCESS:          0  HIT:          0  MISS:          0  HIT %:       -nan  MISS %:       -nan   MPKI: 0
PSCL2 RFO       ACCESS:          0  HIT:          0  MISS:          0  HIT %:       -nan  MISS %:       -nan   MPKI: 0
PSCL2 PREFETCH  ACCESS:          0  HIT:          0  MISS:          0  HIT %:       -nan  MISS %:       -nan   MPKI: 0
PSCL2 WRITEBACK ACCESS:          0  HIT:          0  MISS:          0  HIT %:       -nan  MISS %:       -nan   MPKI: 0
LLC TOTAL     ACCESS:    5957208  HIT:    2162029  MISS:    3795179  HIT %:    36.2927  MISS %:    63.7073   MPKI: 18.9759
LLC LOAD      ACCESS:    3794419  HIT:    2116919  MISS:    1677500  HIT %:    55.7903  MISS %:    44.2097   MPKI: 8.3875
LLC RFO       ACCESS:        285  HIT:          1  MISS:        284  HIT %:   0.350877  MISS %:    99.6491   MPKI: 0.00142
LLC PREFETCH  ACCESS:    2157182  HIT:      44232  MISS:    2112950  HIT %:    2.05045  MISS %:    97.9495   MPKI: 10.5648
LLC WRITEBACK ACCESS:        343  HIT:        272  MISS:         71  HIT %:    79.3003  MISS %:    20.6997   MPKI: 0.000355

RAW hits: 2
Loads Generated: 60156203
Loads sent to L1D: 60156201
Stores Generated: 5068667
Stores sent to L1D: 5068667

Region of Interest Statistics

CPU 0 cumulative IPC: 1.08953 instructions: 200000001 cycles: 183565073
ITLB TOTAL     ACCESS:   38023313  HIT:   38023313  MISS:          0  HIT %:        100  MISS %:          0   MPKI: 0
ITLB LOAD TRANSLATION ACCESS:   38023313  HIT:   38023313  MISS:          0  HIT %:        100  MISS %:          0   MPKI: 0
ITLB PREFETCH  REQUESTED:          0  ISSUED:          0  USEFUL:          0  USELESS:          0
ITLB USEFUL LOAD PREFETCHES:          0 PREFETCH ISSUED TO LOWER LEVEL:          0  ACCURACY: -nan
ITLB TIMELY PREFETCHES:          0 LATE PREFETCHES: 0 DROPPED PREFETCHES: 0
ITLB PREFETCHES SAME FILL-ORIGIN LEVEL: 0 DIFFERENT FILL-ORIGIN LEVEL: 0
ITLB AVERAGE MISS LATENCY: -nan cycles
ITLB RQ	ACCESS:  222810397	FORWARD:          0	MERGED:   12428975	TO_CACHE:  210381422

DTLB TOTAL     ACCESS:   22949217  HIT:   22945360  MISS:       3857  HIT %:    99.9832  MISS %:  0.0168067   MPKI: 0.019285
DTLB LOAD TRANSLATION ACCESS:   22949217  HIT:   22945360  MISS:       3857  HIT %:    99.9832  MISS %:  0.0168067   MPKI: 0.019285
DTLB PREFETCH  REQUESTED:          0  ISSUED:          0  USEFUL:          0  USELESS:          0
DTLB USEFUL LOAD PREFETCHES:          0 PREFETCH ISSUED TO LOWER LEVEL:          0  ACCURACY: -nan
DTLB TIMELY PREFETCHES:          0 LATE PREFETCHES: 0 DROPPED PREFETCHES: 0
DTLB PREFETCHES SAME FILL-ORIGIN LEVEL: 0 DIFFERENT FILL-ORIGIN LEVEL: 0
DTLB AVERAGE MISS LATENCY: 265.484 cycles
DTLB RQ	ACCESS:  143676877	FORWARD:          0	MERGED:   16338760	TO_CACHE:  127338117

STLB TOTAL     ACCESS:    3645315  HIT:    3641457  MISS:       3858  HIT %:    99.8942  MISS %:   0.105834   MPKI: 0.01929
STLB LOAD TRANSLATION ACCESS:       3857  HIT:         54  MISS:       3803  HIT %:    1.40005  MISS %:    98.5999   MPKI: 0.019015
STLB TRANSLATION FROM L1D PREFETCHER ACCESS:    3641458  HIT:    3641403  MISS:         55  HIT %:    99.9985  MISS %: 0.00151038   MPKI: 0.000275
STLB PREFETCH  REQUESTED:          0  ISSUED:          0  USEFUL:      14246  USELESS:          0
STLB USEFUL LOAD PREFETCHES:      14246 PREFETCH ISSUED TO LOWER LEVEL:          0  ACCURACY: inf
STLB TIMELY PREFETCHES:      14246 LATE PREFETCHES: 486 DROPPED PREFETCHES: 1008581
STLB PREFETCHES SAME FILL-ORIGIN LEVEL: 0 DIFFERENT FILL-ORIGIN LEVEL: 0
STLB AVERAGE MISS LATENCY: 590.288 cycles
STLB RQ	ACCESS:  187875656	FORWARD:          0	MERGED:  160385229	TO_CACHE:   27490427

STLB Hit, L1D data hit: 0
STLB Hit, L2C data hit: 0
STLB Hit, LLC data hit: 0
STLB Hit, LLC data miss: 0
STLB STLB hints to L2: 0
L1D TOTAL     ACCESS:   52631000  HIT:   52384250  MISS:     246750  HIT %:    99.5312  MISS %:    0.46883   MPKI: 1.23375
L1D LOAD      ACCESS:   16870937  HIT:   16867850  MISS:       3087  HIT %:    99.9817  MISS %:  0.0182977   MPKI: 0.015435
L1D RFO       ACCESS:    8915492  HIT:    8868502  MISS:      46990  HIT %:    99.4729  MISS %:    0.52706   MPKI: 0.23495
L1D PREFETCH  ACCESS:   26844571  HIT:   26647898  MISS:     196673  HIT %:    99.2674  MISS %:   0.732636   MPKI: 0.983365
L1D PREFETCH  REQUESTED:  554477799  ISSUED:  553067803  USEFUL:    1105010  USELESS:         44
L1D USEFUL LOAD PREFETCHES:    1105010 PREFETCH ISSUED TO LOWER LEVEL:   11353608  ACCURACY: 9.73268
L1D TIMELY PREFETCHES:    1105010 LATE PREFETCHES: 307 DROPPED PREFETCHES: 4136212
L1D PREFETCHES SAME FILL-ORIGIN LEVEL: 1105395 DIFFERENT FILL-ORIGIN LEVEL: 10248213
L1D AVERAGE MISS LATENCY: 1572.28 cycles
L1D RQ	ACCESS:  133397060	FORWARD:          0	MERGED:   39708472	TO_CACHE:   93616897
L1D WQ	ACCESS:   50059980	FORWARD:      71691	MERGED:          0	TO_CACHE:   50059980
L1D PQ	ACCESS:  365213543	FORWARD:          0	MERGED:  177359283	TO_CACHE:  187854260

L1D UNIQUE REGIONS ACCESSED: 0
L1D REGIONS CONFLICTS: 0
L1D Cross Page Prefetch Requests: 39071006
L1D Same Page Prefetch Requests: 352411318
L1D ROI Sum of L1D PQ occupancy: 2728186689
L1D PREFETCHES PUSHED FROM L2C: 0
L1I TOTAL     ACCESS:   40262546  HIT:   40262546  MISS:          0  HIT %:        100  MISS %:          0   MPKI: 0
L1I LOAD      ACCESS:   40262546  HIT:   40262546  MISS:          0  HIT %:        100  MISS %:          0   MPKI: 0
L1I PREFETCH  REQUESTED:          0  ISSUED:          0  USEFUL:          0  USELESS:          0
L1I USEFUL LOAD PREFETCHES:          0 PREFETCH ISSUED TO LOWER LEVEL:          0  ACCURACY: -nan
L1I TIMELY PREFETCHES:          0 LATE PREFETCHES: 0 DROPPED PREFETCHES: 0
L1I PREFETCHES SAME FILL-ORIGIN LEVEL: 0 DIFFERENT FILL-ORIGIN LEVEL: 0
L1I AVERAGE MISS LATENCY: -nan cycles
L1I RQ	ACCESS:  321026994	FORWARD:          0	MERGED:   98216597	TO_CACHE:  222810397

BTB TOTAL     ACCESS:   34215103  HIT:   34215103  MISS:          0  HIT %:        100  MISS %:          0   MPKI: 0
BTB BRANCH_DIRECT_JUMP	ACCESS:    8270081  HIT:    8270081  MISS:          0
BTB BRANCH_INDIRECT	ACCESS:          0  HIT:          0  MISS:          0
BTB BRANCH_CONDITIONAL	ACCESS:   24441372  HIT:   24441372  MISS:          0
BTB BRANCH_DIRECT_CALL	ACCESS:     751825  HIT:     751825  MISS:          0
BTB BRANCH_INDIRECT_CALL	ACCESS:          0  HIT:          0  MISS:          0
BTB BRANCH_RETURN	ACCESS:     751825  HIT:     751825  MISS:          0
BTB BRANCH_OTHER ACCESS:          0  HIT:          0  MISS:          0

L2C TOTAL     ACCESS:    2633460  HIT:    2381853  MISS:     251607  HIT %:    90.4458  MISS %:    9.55424   MPKI: 1.25803
L2C LOAD      ACCESS:       2780  HIT:          0  MISS:       2780  HIT %:          0  MISS %:        100   MPKI: 0.0139
L2C DATA LOAD MPKI: 0.0139
L2C INSTRUCTION LOAD MPKI: 0
L2C RFO       ACCESS:      46990  HIT:          0  MISS:      46990  HIT %:          0  MISS %:        100   MPKI: 0.23495
L2C PREFETCH  ACCESS:    1525234  HIT:    1328244  MISS:     196990  HIT %:    87.0846  MISS %:    12.9154   MPKI: 0.98495
L2C DATA PREFETCH MPKI: 0.98495
L2C INSTRUCTION PREFETCH MPKI: 0
L2C WRITEBACK ACCESS:      46996  HIT:      42655  MISS:       4341  HIT %:     90.763  MISS %:    9.23696   MPKI: 0.021705
L2C LOAD TRANSLATION ACCESS:       3803  HIT:       3693  MISS:        110  HIT %:    97.1075  MISS %:    2.89245   MPKI: 0.00055
L2C TRANSLATION FROM L1D PREFETCHER ACCESS:    1007657  HIT:    1007261  MISS:        396  HIT %:    99.9607  MISS %:  0.0392991   MPKI: 0.00198
L2C PREFETCH  REQUESTED:          0  ISSUED:          0  USEFUL:       2173  USELESS:    1105397
L2C USEFUL LOAD PREFETCHES:       2173 PREFETCH ISSUED TO LOWER LEVEL:    1105423  ACCURACY: 0.196576
L2C TIMELY PREFETCHES:       2173 LATE PREFETCHES: 0 DROPPED PREFETCHES: 0
L2C PREFETCHES SAME FILL-ORIGIN LEVEL: 810403 DIFFERENT FILL-ORIGIN LEVEL: 0
L2C AVERAGE MISS LATENCY: 3574.89 cycles
L2C RQ	ACCESS:    1293984	FORWARD:          0	MERGED:          0	TO_CACHE:    1293984
L2C WQ	ACCESS:     260728	FORWARD:          0	MERGED:          0	TO_CACHE:     260728
L2C PQ	ACCESS:   11353608	FORWARD:          0	MERGED:         47	TO_CACHE:   11353561

L2C Instructions Evicting Data 0
L2C Translations Evicting Data 2815
L2C Data Evicting Data 1366170
L2C Instructions Evicting Instructions 0
L2C Translations Evicting Instructions 0
L2C Data Evicting Instructions 0
L2C Instructions Evicting Translations 0
L2C Translations Evicting Translations 1
L2C Data Evicting Translations 2772
L2C Dense regions hint from L2: 0
PSCL5 TOTAL     ACCESS:    1011460  HIT:    1011460  MISS:          0  HIT %:        100  MISS %:          0   MPKI: 0
PSCL5 LOAD TRANSLATION ACCESS:       3803  HIT:       3803  MISS:          0  HIT %:        100  MISS %:          0   MPKI: 0
PSCL5 TRANSLATION FROM L1D PREFETCHER ACCESS:    1007657  HIT:    1007657  MISS:          0  HIT %:        100  MISS %:          0   MPKI: 0
PSCL5 PREFETCH  REQUESTED:          0  ISSUED:          0  USEFUL:          0  USELESS:          0
PSCL5 USEFUL LOAD PREFETCHES:          0 PREFETCH ISSUED TO LOWER LEVEL:          0  ACCURACY: -nan
PSCL5 TIMELY PREFETCHES:          0 LATE PREFETCHES: 0 DROPPED PREFETCHES: 0
PSCL5 PREFETCHES SAME FILL-ORIGIN LEVEL: 0 DIFFERENT FILL-ORIGIN LEVEL: 0

PSCL4 TOTAL     ACCESS:    1011460  HIT:    1011460  MISS:          0  HIT %:        100  MISS %:          0   MPKI: 0
PSCL4 LOAD TRANSLATION ACCESS:       3803  HIT:       3803  MISS:          0  HIT %:        100  MISS %:          0   MPKI: 0
PSCL4 TRANSLATION FROM L1D PREFETCHER ACCESS:    1007657  HIT:    1007657  MISS:          0  HIT %:        100  MISS %:          0   MPKI: 0
PSCL4 PREFETCH  REQUESTED:          0  ISSUED:          0  USEFUL:          0  USELESS:          0
PSCL4 USEFUL LOAD PREFETCHES:          0 PREFETCH ISSUED TO LOWER LEVEL:          0  ACCURACY: -nan
PSCL4 TIMELY PREFETCHES:          0 LATE PREFETCHES: 0 DROPPED PREFETCHES: 0
PSCL4 PREFETCHES SAME FILL-ORIGIN LEVEL: 0 DIFFERENT FILL-ORIGIN LEVEL: 0

PSCL3 TOTAL     ACCESS:    1011460  HIT:    1011460  MISS:          0  HIT %:        100  MISS %:          0   MPKI: 0
PSCL3 LOAD TRANSLATION ACCESS:       3803  HIT:       3803  MISS:          0  HIT %:        100  MISS %:          0   MPKI: 0
PSCL3 TRANSLATION FROM L1D PREFETCHER ACCESS:    1007657  HIT:    1007657  MISS:          0  HIT %:        100  MISS %:          0   MPKI: 0
PSCL3 PREFETCH  REQUESTED:          0  ISSUED:          0  USEFUL:          0  USELESS:          0
PSCL3 USEFUL LOAD PREFETCHES:          0 PREFETCH ISSUED TO LOWER LEVEL:          0  ACCURACY: -nan
PSCL3 TIMELY PREFETCHES:          0 LATE PREFETCHES: 0 DROPPED PREFETCHES: 0
PSCL3 PREFETCHES SAME FILL-ORIGIN LEVEL: 0 DIFFERENT FILL-ORIGIN LEVEL: 0

PSCL2 TOTAL     ACCESS:    1009598  HIT:    1009591  MISS:          7  HIT %:    99.9993  MISS %: 0.000693345   MPKI: 3.5e-05
PSCL2 LOAD TRANSLATION ACCESS:       3803  HIT:       3796  MISS:          7  HIT %:    99.8159  MISS %:   0.184065   MPKI: 3.5e-05
PSCL2 TRANSLATION FROM L1D PREFETCHER ACCESS:    1005795  HIT:    1005795  MISS:          0  HIT %:        100  MISS %:          0   MPKI: 0
PSCL2 PREFETCH  REQUESTED:          0  ISSUED:          0  USEFUL:          0  USELESS:          0
PSCL2 USEFUL LOAD PREFETCHES:          0 PREFETCH ISSUED TO LOWER LEVEL:          0  ACCURACY: -nan
PSCL2 TIMELY PREFETCHES:          0 LATE PREFETCHES: 0 DROPPED PREFETCHES: 0
[...]
L2C USEFUL LOAD PREFETCHES:     129350 PREFETCH ISSUED TO LOWER LEVEL:   15188281  ACCURACY: 0.851643
L2C TIMELY PREFETCHES:     129350 LATE PREFETCHES: 44369 DROPPED PREFETCHES: 0
L2C PREFETCHES SAME FILL-ORIGIN LEVEL: 3992370 DIFFERENT FILL-ORIGIN LEVEL: 0
L2C AVERAGE MISS LATENCY: 2466.25 cycles
L2C RQ	ACCESS:    1470076	FORWARD:          0	MERGED:          0	TO_CACHE:    1470076
L2C WQ	ACCESS:   14752713	FORWARD:          0	MERGED:          0	TO_CACHE:   14752713
L2C PQ	ACCESS:   29884003	FORWARD:          0	MERGED:      82986	TO_CACHE:   29801017

L2C Instructions Evicting Data 0
L2C Translations Evicting Data 102138
L2C Data Evicting Data 15518889
L2C Instructions Evicting Instructions 0
L2C Translations Evicting Instructions 0
L2C Data Evicting Instructions 0
L2C Instructions Evicting Translations 0
L2C Translations Evicting Translations 4988
L2C Data Evicting Translations 99721
L2C Dense regions hint from L2: 0
PSCL5 TOTAL     ACCESS:     546905  HIT:     546905  MISS:          0  HIT %:        100  MISS %:          0   MPKI: 0
PSCL5 LOAD TRANSLATION ACCESS:      43670  HIT:      43670  MISS:          0  HIT %:        100  MISS %:          0   MPKI: 0
PSCL5 TRANSLATION FROM L1D PREFETCHER ACCESS:     503235  HIT:     503235  MISS:          0  HIT %:        100  MISS %:          0   MPKI: 0
PSCL5 PREFETCH  REQUESTED:          0  ISSUED:          0  USEFUL:          0  USELESS:          0
PSCL5 USEFUL LOAD PREFETCHES:          0 PREFETCH ISSUED TO LOWER LEVEL:          0  ACCURACY: -nan
PSCL5 TIMELY PREFETCHES:          0 LATE PREFETCHES: 0 DROPPED PREFETCHES: 0
PSCL5 PREFETCHES SAME FILL-ORIGIN LEVEL: 0 DIFFERENT FILL-ORIGIN LEVEL: 0

PSCL4 TOTAL     ACCESS:     546905  HIT:     546905  MISS:          0  HIT %:        100  MISS %:          0   MPKI: 0
PSCL4 LOAD TRANSLATION ACCESS:      43670  HIT:      43670  MISS:          0  HIT %:        100  MISS %:          0   MPKI: 0
PSCL4 TRANSLATION FROM L1D PREFETCHER ACCESS:     503235  HIT:     503235  MISS:          0  HIT %:        100  MISS %:          0   MPKI: 0
PSCL4 PREFETCH  REQUESTED:          0  ISSUED:          0  USEFUL:          0  USELESS:          0
PSCL4 USEFUL LOAD PREFETCHES:          0 PREFETCH ISSUED TO LOWER LEVEL:          0  ACCURACY: -nan
PSCL4 TIMELY PREFETCHES:          0 LATE PREFETCHES: 0 DROPPED PREFETCHES: 0
PSCL4 PREFETCHES SAME FILL-ORIGIN LEVEL: 0 DIFFERENT FILL-ORIGIN LEVEL: 0

PSCL3 TOTAL     ACCESS:     546905  HIT:     546905  MISS:          0  HIT %:        100  MISS %:          0   MPKI: 0
PSCL3 LOAD TRANSLATION ACCESS:      43670  HIT:      43670  MISS:          0  HIT %:        100  MISS %:          0   MPKI: 0
PSCL3 TRANSLATION FROM L1D PREFETCHER ACCESS:     503235  HIT:     503235  MISS:          0  HIT %:        100  MISS %:          0   MPKI: 0
PSCL3 PREFETCH  REQUESTED:          0  ISSUED:          0  USEFUL:          0  USELESS:          0
PSCL3 USEFUL LOAD PREFETCHES:          0 PREFETCH ISSUED TO LOWER LEVEL:          0  ACCURACY: -nan
PSCL3 TIMELY PREFETCHES:          0 LATE PREFETCHES: 0 DROPPED PREFETCHES: 0
PSCL3 PREFETCHES SAME FILL-ORIGIN LEVEL: 0 DIFFERENT FILL-ORIGIN LEVEL: 0

PSCL2 TOTAL     ACCESS:     546491  HIT:     546390  MISS:        101  HIT %:    99.9815  MISS %:  0.0184815   MPKI: 0.000505
PSCL2 LOAD TRANSLATION ACCESS:      43688  HIT:      43587  MISS:        101  HIT %:    99.7688  MISS %:   0.231185   MPKI: 0.000505
PSCL2 TRANSLATION FROM L1D PREFETCHER ACCESS:     502803  HIT:     502803  MISS:          0  HIT %:        100  MISS %:          0   MPKI: 0
PSCL2 PREFETCH  REQUESTED:          0  ISSUED:          0  USEFUL:          0  USELESS:          0
PSCL2 USEFUL LOAD PREFETCHES:          0 PREFETCH ISSUED TO LOWER LEVEL:          0  ACCURACY: -nan
PSCL2 TIMELY PREFETCHES:          0 LATE PREFETCHES: 0 DROPPED PREFETCHES: 0
PSCL2 PREFETCHES SAME FILL-ORIGIN LEVEL: 0 DIFFERENT FILL-ORIGIN LEVEL: 0

LLC TOTAL     ACCESS:    6426788  HIT:    3189668  MISS:    3237120  HIT %:    49.6308  MISS %:    50.3692   MPKI: 16.1856
LLC LOAD      ACCESS:      51525  HIT:          0  MISS:      51525  HIT %:          0  MISS %:        100   MPKI: 0.257625
LLC PREFETCH  ACCESS:    3163609  HIT:          1  MISS:    3163608  HIT %: 3.16095e-05  MISS %:        100   MPKI: 15.818
LLC WRITEBACK ACCESS:    3205136  HIT:    3189495  MISS:      15641  HIT %:     99.512  MISS %:   0.487998   MPKI: 0.078205
LLC TRANSLATION FROM L1D PREFETCHER ACCESS:       6518  HIT:        172  MISS:       6346  HIT %:    2.63885  MISS %:    97.3612   MPKI: 0.03173
LLC PREFETCH  REQUESTED:          0  ISSUED:          0  USEFUL:     177896  USELESS:   20726062
LLC USEFUL LOAD PREFETCHES:     177896 PREFETCH ISSUED TO LOWER LEVEL:   20866916  ACCURACY: 0.852527
LLC TIMELY PREFETCHES:     177896 LATE PREFETCHES: 0 DROPPED PREFETCHES: 0
LLC PREFETCHES SAME FILL-ORIGIN LEVEL: 0 DIFFERENT FILL-ORIGIN LEVEL: 0
LLC AVERAGE MISS LATENCY: 4206.01 cycles
LLC RQ	ACCESS:   11733107	FORWARD:          0	MERGED:          0	TO_CACHE:   11733104
LLC WQ	ACCESS:   15874417	FORWARD:          5	MERGED:          0	TO_CACHE:   15874417
LLC PQ	ACCESS:   21812521	FORWARD:          0	MERGED:          0	TO_CACHE:   21812519

LLC Dense regions hint to LLC: 0

RAW hits: 0
Loads Generated: 26282062
Loads sent to L1D: 26282062
Stores Generated: 25641028
Stores sent to L1D: 25641026
Major fault: 0 Minor fault: 71551
Allocated PAGES: 153605

CPU 3 cumulative IPC: 0.197442 instructions: 200000000 cycles: 1012955746
ITLB TOTAL     ACCESS:   36476785  HIT:   36476778  MISS:          7  HIT %:        100  MISS %: 1.91903e-05   MPKI: 3.5e-05
ITLB LOAD TRANSLATION ACCESS:   36476785  HIT:   36476778  MISS:          7  HIT %:        100  MISS %: 1.91903e-05   MPKI: 3.5e-05
ITLB PREFETCH  REQUESTED:          0  ISSUED:          0  USEFUL:          0  USELESS:          0
ITLB USEFUL LOAD PREFETCHES:          0 PREFETCH ISSUED TO LOWER LEVEL:          0  ACCURACY: -nan
ITLB TIMELY PREFETCHES:          0 LATE PREFETCHES: 0 DROPPED PREFETCHES: 0
ITLB PREFETCHES SAME FILL-ORIGIN LEVEL: 0 DIFFERENT FILL-ORIGIN LEVEL: 0
ITLB AVERAGE MISS LATENCY: 763.857 cycles
ITLB RQ	ACCESS:   39012078	FORWARD:          0	MERGED:    2535292	TO_CACHE:   36476786

DTLB TOTAL     ACCESS:   45796736  HIT:   41610808  MISS:    4185928  HIT %:    90.8598  MISS %:    9.14023   MPKI: 20.9296
DTLB LOAD TRANSLATION ACCESS:   45796736  HIT:   41610808  MISS:    4185928  HIT %:    90.8598  MISS %:    9.14023   MPKI: 20.9296
DTLB PREFETCH  REQUESTED:          0  ISSUED:          0  USEFUL:          0  USELESS:          0
DTLB USEFUL LOAD PREFETCHES:          0 PREFETCH ISSUED TO LOWER LEVEL:          0  ACCURACY: -nan
DTLB TIMELY PREFETCHES:          0 LATE PREFETCHES: 0 DROPPED PREFETCHES: 0
DTLB PREFETCHES SAME FILL-ORIGIN LEVEL: 0 DIFFERENT FILL-ORIGIN LEVEL: 0
DTLB AVERAGE MISS LATENCY: 10.4325 cycles
DTLB RQ	ACCESS:   49372559	FORWARD:          0	MERGED:    3565525	TO_CACHE:   45807034

STLB TOTAL     ACCESS:   17465388  HIT:   17431968  MISS:      33420  HIT %:    99.8087  MISS %:    0.19135   MPKI: 0.1671
STLB LOAD TRANSLATION ACCESS:    4185935  HIT:    4152589  MISS:      33346  HIT %:    99.2034  MISS %:    0.79662   MPKI: 0.16673
STLB TRANSLATION FROM L1D PREFETCHER ACCESS:   13279453  HIT:   13279379  MISS:         74  HIT %:    99.9994  MISS %: 0.000557252   MPKI: 0.00037
STLB PREFETCH  REQUESTED:          0  ISSUED:          0  USEFUL:         74  USELESS:          0
STLB USEFUL LOAD PREFETCHES:         74 PREFETCH ISSUED TO LOWER LEVEL:          0  ACCURACY: inf
STLB TIMELY PREFETCHES:         74 LATE PREFETCHES: 5735 DROPPED PREFETCHES: 7068153
STLB PREFETCHES SAME FILL-ORIGIN LEVEL: 0 DIFFERENT FILL-ORIGIN LEVEL: 0
STLB AVERAGE MISS LATENCY: 123.78 cycles
STLB RQ	ACCESS:   92895677	FORWARD:          0	MERGED:   68212859	TO_CACHE:   24682818

STLB Hit, L1D data hit: 0
STLB Hit, L2C data hit: 0
STLB Hit, LLC data hit: 0
STLB Hit, LLC data miss: 0
STLB STLB hints to L2: 0
L1D TOTAL     ACCESS:  111320463  HIT:  104375678  MISS:    6944785  HIT %:    93.7614  MISS %:    6.23855   MPKI: 34.7239
L1D LOAD      ACCESS:   44073143  HIT:   39142706  MISS:    4930437  HIT %:    88.8131  MISS %:    11.1869   MPKI: 24.6522
L1D RFO       ACCESS:    5068662  HIT:    5068353  MISS:        309  HIT %:    99.9939  MISS %: 0.00609628   MPKI: 0.001545
L1D PREFETCH  ACCESS:   62178658  HIT:   60164619  MISS:    2014039  HIT %:    96.7609  MISS %:    3.23912   MPKI: 10.0702
L1D PREFETCH  REQUESTED:  365236001  ISSUED:  271754839  USEFUL:    2011470  USELESS:       2556
L1D USEFUL LOAD PREFETCHES:    2011470 PREFETCH ISSUED TO LOWER LEVEL:    8343300  ACCURACY: 24.1088
L1D TIMELY PREFETCHES:    2011470 LATE PREFETCHES: 32001 DROPPED PREFETCHES: 10339740
L1D PREFETCHES SAME FILL-ORIGIN LEVEL: 2046041 DIFFERENT FILL-ORIGIN LEVEL: 6297259
L1D AVERAGE MISS LATENCY: 298.391 cycles
L1D RQ	ACCESS:   60156201	FORWARD:          0	MERGED:   15852309	TO_CACHE:   44303892
L1D WQ	ACCESS:    5068667	FORWARD:          0	MERGED:          0	TO_CACHE:    5068667
L1D PQ	ACCESS:  183045097	FORWARD:          0	MERGED:   94335355	TO_CACHE:   88709742

L1D UNIQUE REGIONS ACCESSED: 0
L1D REGIONS CONFLICTS: 0
L1D Cross Page Prefetch Requests: 32974906
L1D Same Page Prefetch Requests: 212570786
L1D ROI Sum of L1D PQ occupancy: 2340933425
L1D PREFETCHES PUSHED FROM L2C: 0
L1I TOTAL     ACCESS:   39012073  HIT:   39012029  MISS:         44  HIT %:    99.9999  MISS %: 0.000112786   MPKI: 0.00022
L1I LOAD      ACCESS:   39012073  HIT:   39012029  MISS:         44  HIT %:    99.9999  MISS %: 0.000112786   MPKI: 0.00022
L1I PREFETCH  REQUESTED:          0  ISSUED:          0  USEFUL:          0  USELESS:          0
L1I USEFUL LOAD PREFETCHES:          0 PREFETCH ISSUED TO LOWER LEVEL:          0  ACCURACY: -nan
L1I TIMELY PREFETCHES:          0 LATE PREFETCHES: 0 DROPPED PREFETCHES: 0
L1I PREFETCHES SAME FILL-ORIGIN LEVEL: 0 DIFFERENT FILL-ORIGIN LEVEL: 0
L1I AVERAGE MISS LATENCY: 574.955 cycles
L1I RQ	ACCESS:   56250940	FORWARD:          0	MERGED:   17238862	TO_CACHE:   39012078

BTB TOTAL     ACCESS:   38922296  HIT:   38922245  MISS:         51  HIT %:    99.9999  MISS %: 0.00013103   MPKI: 0.000255
BTB BRANCH_DIRECT_JUMP	ACCESS:    2533169  HIT:    2533158  MISS:         11
BTB BRANCH_INDIRECT	ACCESS:          0  HIT:          0  MISS:          0
BTB BRANCH_CONDITIONAL	ACCESS:   36389120  HIT:   36389087  MISS:         33
BTB BRANCH_DIRECT_CALL	ACCESS:          3  HIT:          0  MISS:          3
BTB BRANCH_INDIRECT_CALL	ACCESS:          0  HIT:          0  MISS:          0
BTB BRANCH_RETURN	ACCESS:          4  HIT:          0  MISS:          4
BTB BRANCH_OTHER ACCESS:          0  HIT:          0  MISS:          0

L2C TOTAL     ACCESS:   18998765  HIT:   13041798  MISS:    5956967  HIT %:    68.6455  MISS %:    31.3545   MPKI: 29.7848
L2C LOAD      ACCESS:    4898480  HIT:    1101556  MISS:    3796924  HIT %:    22.4877  MISS %:    77.5123   MPKI: 18.9846
L2C DATA LOAD MPKI: 18.9844
L2C INSTRUCTION LOAD MPKI: 0.00022
L2C RFO       ACCESS:        309  HIT:         24  MISS:        285  HIT %:    7.76699  MISS %:     92.233   MPKI: 0.001425
L2C PREFETCH  ACCESS:    6992184  HIT:    4837507  MISS:    2154677  HIT %:    69.1845  MISS %:    30.8155   MPKI: 10.7734
L2C DATA PREFETCH MPKI: 10.7734
L2C INSTRUCTION PREFETCH MPKI: 0
L2C WRITEBACK ACCESS:        343  HIT:        241  MISS:        102  HIT %:    70.2624  MISS %:    29.7376   MPKI: 0.00051
L2C LOAD TRANSLATION ACCESS:      33353  HIT:      32928  MISS:        425  HIT %:    98.7258  MISS %:    1.27425   MPKI: 0.002125
L2C TRANSLATION FROM L1D PREFETCHER ACCESS:    7074096  HIT:    7069542  MISS:       4554  HIT %:    99.9356  MISS %:  0.0643757   MPKI: 0.02277
L2C PREFETCH  REQUESTED:          0  ISSUED:          0  USEFUL:      45471  USELESS:    2112421
L2C USEFUL LOAD PREFETCHES:      45471 PREFETCH ISSUED TO LOWER LEVEL:    2157182  ACCURACY: 2.10789
L2C TIMELY PREFETCHES:      45471 LATE PREFETCHES: 2505 DROPPED PREFETCHES: 0
L2C PREFETCHES SAME FILL-ORIGIN LEVEL: 668815 DIFFERENT FILL-ORIGIN LEVEL: 0
L2C AVERAGE MISS LATENCY: 395.712 cycles
L2C RQ	ACCESS:   12006238	FORWARD:          0	MERGED:          0	TO_CACHE:   12006238
L2C WQ	ACCESS:        343	FORWARD:          0	MERGED:          0	TO_CACHE:        343
L2C PQ	ACCESS:    8341359	FORWARD:          0	MERGED:        644	TO_CACHE:    8340715

L2C Instructions Evicting Data 44
L2C Translations Evicting Data 4978
L2C Data Evicting Data 5946838
L2C Instructions Evicting Instructions 0
L2C Translations Evicting Instructions 0
L2C Data Evicting Instructions 44
L2C Instructions Evicting Translations 0
L2C Translations Evicting Translations 1
L2C Data Evicting Translations 4960
L2C Dense regions hint from L2: 0
PSCL5 TOTAL     ACCESS:    7107308  HIT:    7107308  MISS:          0  HIT %:        100  MISS %:          0   MPKI: 0
PSCL5 LOAD TRANSLATION ACCESS:      33346  HIT:      33346  MISS:          0  HIT %:        100  MISS %:          0   MPKI: 0
PSCL5 TRANSLATION FROM L1D PREFETCHER ACCESS:    7073962  HIT:    7073962  MISS:          0  HIT %:        100  MISS %:          0   MPKI: 0
PSCL5 PREFETCH  REQUESTED:          0  ISSUED:          0  USEFUL:          0  USELESS:          0
PSCL5 USEFUL LOAD PREFETCHES:          0 PREFETCH ISSUED TO LOWER LEVEL:          0  ACCURACY: -nan
PSCL5 TIMELY PREFETCHES:          0 LATE PREFETCHES: 0 DROPPED PREFETCHES: 0
PSCL5 PREFETCHES SAME FILL-ORIGIN LEVEL: 0 DIFFERENT FILL-ORIGIN LEVEL: 0

PSCL4 TOTAL     ACCESS:    7107308  HIT:    7107308  MISS:          0  HIT %:        100  MISS %:          0   MPKI: 0
PSCL4 LOAD TRANSLATION ACCESS:      33346  HIT:      33346  MISS:          0  HIT %:        100  MISS %:          0   MPKI: 0
PSCL4 TRANSLATION FROM L1D PREFETCHER ACCESS:    7073962  HIT:    7073962  MISS:          0  HIT %:        100  MISS %:          0   MPKI: 0
PSCL4 PREFETCH  REQUESTED:          0  ISSUED:          0  USEFUL:          0  USELESS:          0
PSCL4 USEFUL LOAD PREFETCHES:          0 PREFETCH ISSUED TO LOWER LEVEL:          0  ACCURACY: -nan
PSCL4 TIMELY PREFETCHES:          0 LATE PREFETCHES: 0 DROPPED PREFETCHES: 0
PSCL4 PREFETCHES SAME FILL-ORIGIN LEVEL: 0 DIFFERENT FILL-ORIGIN LEVEL: 0

PSCL3 TOTAL     ACCESS:    7107308  HIT:    7107308  MISS:          0  HIT %:        100  MISS %:          0   MPKI: 0
PSCL3 LOAD TRANSLATION ACCESS:      33346  HIT:      33346  MISS:          0  HIT %:        100  MISS %:          0   MPKI: 0
PSCL3 TRANSLATION FROM L1D PREFETCHER ACCESS:    7073962  HIT:    7073962  MISS:          0  HIT %:        100  MISS %:          0   MPKI: 0
PSCL3 PREFETCH  REQUESTED:          0  ISSUED:          0  USEFUL:          0  USELESS:          0
PSCL3 USEFUL LOAD PREFETCHES:          0 PREFETCH ISSUED TO LOWER LEVEL:          0  ACCURACY: -nan
PSCL3 TIMELY PREFETCHES:          0 LATE PREFETCHES: 0 DROPPED PREFETCHES: 0
PSCL3 PREFETCHES SAME FILL-ORIGIN LEVEL: 0 DIFFERENT FILL-ORIGIN LEVEL: 0

PSCL2 TOTAL     ACCESS:    6854601  HIT:    6854521  MISS:         80  HIT %:    99.9988  MISS %:  0.0011671   MPKI: 0.0004
PSCL2 LOAD TRANSLATION ACCESS:      33346  HIT:      33266  MISS:         80  HIT %:    99.7601  MISS %:   0.239909   MPKI: 0.0004
PSCL2 TRANSLATION FROM L1D PREFETCHER ACCESS:    6821255  HIT:    6821255  MISS:          0  HIT %:        100  MISS %:          0   MPKI: 0
PSCL2 PREFETCH  REQUESTED:          0  ISSUED:          0  USEFUL:          0  USELESS:          0
PSCL2 USEFUL LOAD PREFETCHES:          0 PREFETCH ISSUED TO LOWER LEVEL:          0  ACCURACY: -nan
PSCL2 TIMELY PREFETCHES:          0 LATE PREFETCHES: 0 DROPPED PREFETCHES: 0
PSCL2 PREFETCHES SAME FILL-ORIGIN LEVEL: 0 DIFFERENT FILL-ORIGIN LEVEL: 0

LLC TOTAL     ACCESS:    5957208  HIT:    2162029  MISS:    3795179  HIT %:    36.2927  MISS %:    63.7073   MPKI: 18.9759
LLC LOAD      ACCESS:    3794419  HIT:    2116919  MISS:    1677500  HIT %:    55.7903  MISS %:    44.2097   MPKI: 8.3875
LLC RFO       ACCESS:        285  HIT:          1  MISS:        284  HIT %:   0.350877  MISS %:    99.6491   MPKI: 0.00142
LLC PREFETCH  ACCESS:    2157182  HIT:      44232  MISS:    2112950  HIT %:    2.05045  MISS %:    97.9495   MPKI: 10.5648
LLC WRITEBACK ACCESS:        343  HIT:        272  MISS:         71  HIT %:    79.3003  MISS %:    20.6997   MPKI: 0.000355
LLC LOAD TRANSLATION ACCESS:        425  HIT:        264  MISS:        161  HIT %:    62.1176  MISS %:    37.8824   MPKI: 0.000805
LLC TRANSLATION FROM L1D PREFETCHER ACCESS:       4554  HIT:        341  MISS:       4213  HIT %:    7.48792  MISS %:    92.5121   MPKI: 0.021065
LLC PREFETCH  REQUESTED:          0  ISSUED:          0  USEFUL:     177896  USELESS:   20726062
LLC USEFUL LOAD PREFETCHES:     177896 PREFETCH ISSUED TO LOWER LEVEL:   20866916  ACCURACY: 0.852527
LLC TIMELY PREFETCHES:     177896 LATE PREFETCHES: 0 DROPPED PREFETCHES: 0
LLC PREFETCHES SAME FILL-ORIGIN LEVEL: 0 DIFFERENT FILL-ORIGIN LEVEL: 0
LLC AVERAGE MISS LATENCY: 3587.54 cycles
LLC RQ	ACCESS:   11733107	FORWARD:          0	MERGED:          0	TO_CACHE:   11733104
LLC WQ	ACCESS:   15874417	FORWARD:          5	MERGED:          0	TO_CACHE:   15874417
LLC PQ	ACCESS:   21812521	FORWARD:          0	MERGED:          0	TO_CACHE:   21812519

LLC Dense regions hint to LLC: 0

RAW hits: 2
Loads Generated: 60156203
Loads sent to L1D: 60156201
Stores Generated: 5068667
Stores sent to L1D: 5068667
Major fault: 0 Minor fault: 39674
Allocated PAGES: 153605

DRAM Statistics
 CHANNEL 0
 RQ ROW_BUFFER_HIT:    6006127  ROW_BUFFER_MISS:   19456473
 DBUS_CONGESTED:         35
 WQ ROW_BUFFER_HIT:    1989452  ROW_BUFFER_MISS:   13722412  FULL:        231

 AVG_CONGESTED_CYCLE: 5
 All warmup complete: 5
Channel 0 Bank busy for read cycles: 0
Channel 0 Bank busy for write cycles: 0
Channel 0
Rank 0
0banks busy for read cycles: 91330
0banks busy for write cycles: 0
1banks busy for read cycles: 13600702
1banks busy for write cycles: 1608123
2banks busy for read cycles: 33557820
2banks busy for write cycles: 1608160
3banks busy for read cycles: 54798184
3banks busy for write cycles: 1608200
4banks busy for read cycles: 70356432
4banks busy for write cycles: 1608015
5banks busy for read cycles: 78871747
5banks busy for write cycles: 1618690
6banks busy for read cycles: 87451524
6banks busy for write cycles: 2415491
7banks busy for read cycles: 109490905
7banks busy for write cycles: 32967871
8banks busy for read cycles: 176411675
8banks busy for write cycles: 344890877

CPU 0 Branch Prediction Accuracy: 99.6052% MPKI: 1.20624 Average ROB Occupancy at Mispredict: 279.557
Branch types
NOT_BRANCH: 770051697 69.3477%
BRANCH_DIRECT_JUMP: 45888336 4.13251%
BRANCH_INDIRECT: 0 0%
BRANCH_CONDITIONAL: 286138382 25.7684%
BRANCH_DIRECT_CALL: 4171664 0.375683%
BRANCH_INDIRECT_CALL: 0 0%
BRANCH_RETURN: 4171664 0.375683%
BRANCH_OTHER: 0 0%


CPU 1 Branch Prediction Accuracy: 97.8056% MPKI: 3.23338 Average ROB Occupancy at Mispredict: 175.492
Branch types
NOT_BRANCH: 172356352 85.1239%
BRANCH_DIRECT_JUMP: 9346132 4.6159%
BRANCH_INDIRECT: 0 0%
BRANCH_CONDITIONAL: 20771834 10.2589%
BRANCH_DIRECT_CALL: 1290 0.00063711%
BRANCH_INDIRECT_CALL: 0 0%
BRANCH_RETURN: 1290 0.00063711%
BRANCH_OTHER: 0 0%


CPU 2 Branch Prediction Accuracy: 99.9196% MPKI: 0.0645928 Average ROB Occupancy at Mispredict: 164.738
Branch types
NOT_BRANCH: 881810919 91.9682%
BRANCH_DIRECT_JUMP: 2987597 0.31159%
BRANCH_INDIRECT: 0 0%
BRANCH_CONDITIONAL: 74023431 7.72025%
BRANCH_DIRECT_CALL: 3 3.12884e-07%
BRANCH_INDIRECT_CALL: 0 0%
BRANCH_RETURN: 6 6.25768e-07%
BRANCH_OTHER: 0 0%


CPU 3 Branch Prediction Accuracy: 95.4356% MPKI: 11.8592 Average ROB Occupancy at Mispredict: 35.9143
Branch types
NOT_BRANCH: 147905223 73.9526%
BRANCH_DIRECT_JUMP: 2533169 1.26658%
BRANCH_INDIRECT: 0 0%
BRANCH_CONDITIONAL: 49561588 24.7808%
BRANCH_DIRECT_CALL: 3 1.5e-06%
BRANCH_INDIRECT_CALL: 0 0%
BRANCH_RETURN: 4 2e-06%
BRANCH_OTHER: 0 0%

DRAM PAGES: 1048576
Allocated PAGES: 153605
