
*** ChampSim Multicore Out-of-Order Simulator ***

Warmup Instructions: 50000000
Simulation Instructions: 200000000
Number of CPUs: 4
LLC sets: 8192
LLC ways: 16
Off-chip DRAM Size: 4096 MB Channels: 1 Width: 64-bit Data Rate: 6400 MT/s
CPU 0 runs ./traces/spec/654.roms_s-1070B.champsimtrace.xz
.xz
CPU 1 runs ./traces/spec/654.roms_s-1070B.champsimtrace.xz
.xz
CPU 2 runs ./traces/spec/654.roms_s-1070B.champsimtrace.xz
.xz
CPU 3 runs ./traces/spec/654.roms_s-1070B.champsimtrace.xz
.xz
BTB has LRU replacement policy
ITLB has LRU replacement policy
DTLB has LRU replacement policy
STLB has LRU replacement policy
L1I has LRU replacement policy
History Sets: 8
History Ways: 16
BERTI Size: 16
BERTI Stride Size: 8
L1D has LRU replacement policy
Initialize SRRIP state for L2C
Initialize DRRIP state for LLC
BTB has LRU replacement policy
ITLB has LRU replacement policy
DTLB has LRU replacement policy
STLB has LRU replacement policy
L1I has LRU replacement policy
History Sets: 8
History Ways: 16
BERTI Size: 16
BERTI Stride Size: 8
L1D has LRU replacement policy
Initialize SRRIP state for L2C
Initialize DRRIP state for LLC
BTB has LRU replacement policy
ITLB has LRU replacement policy
DTLB has LRU replacement policy
STLB has LRU replacement policy
L1I has LRU replacement policy
History Sets: 8
History Ways: 16
BERTI Size: 16
BERTI Stride Size: 8
L1D has LRU replacement policy
Initialize SRRIP state for L2C
Initialize DRRIP state for LLC
BTB has LRU replacement policy
ITLB has LRU replacement policy
DTLB has LRU replacement policy
STLB has LRU replacement policy
L1I has LRU replacement policy
History Sets: 8
History Ways: 16
BERTI Size: 16
BERTI Stride Size: 8
L1D has LRU replacement policy
Initialize SRRIP state for L2C
Initialize DRRIP state for LLC
Heartbeat CPU 0 instructions: 10000002 cycles: 3111611 heartbeat IPC: 3.21377 cumulative IPC: 3.21377 (Simulation time: 0 hr 3 min 37 sec) 
Heartbeat CPU 1 instructions: 10000002 cycles: 3111769 heartbeat IPC: 3.21361 cumulative IPC: 3.21361 (Simulation time: 0 hr 3 min 37 sec) 
Heartbeat CPU 2 instructions: 10000002 cycles: 3111835 heartbeat IPC: 3.21354 cumulative IPC: 3.21354 (Simulation time: 0 hr 3 min 37 sec) 
Heartbeat CPU 3 instructions: 10000002 cycles: 3112077 heartbeat IPC: 3.21329 cumulative IPC: 3.21329 (Simulation time: 0 hr 3 min 37 sec) 
Heartbeat CPU 0 instructions: 20000002 cycles: 6330764 heartbeat IPC: 3.10641 cumulative IPC: 3.15918 (Simulation time: 0 hr 7 min 16 sec) 
Heartbeat CPU 1 instructions: 20000002 cycles: 6330936 heartbeat IPC: 3.10639 cumulative IPC: 3.15909 (Simulation time: 0 hr 7 min 17 sec) 
Heartbeat CPU 2 instructions: 20000002 cycles: 6330974 heartbeat IPC: 3.10642 cumulative IPC: 3.15907 (Simulation time: 0 hr 7 min 17 sec) 
Heartbeat CPU 3 instructions: 20000002 cycles: 6331229 heartbeat IPC: 3.10641 cumulative IPC: 3.15894 (Simulation time: 0 hr 7 min 17 sec) 
Heartbeat CPU 0 instructions: 30000003 cycles: 9360134 heartbeat IPC: 3.30102 cumulative IPC: 3.20508 (Simulation time: 0 hr 10 min 53 sec) 
Heartbeat CPU 1 instructions: 30000003 cycles: 9360271 heartbeat IPC: 3.30105 cumulative IPC: 3.20504 (Simulation time: 0 hr 10 min 53 sec) 
Heartbeat CPU 2 instructions: 30000003 cycles: 9360394 heartbeat IPC: 3.30096 cumulative IPC: 3.20499 (Simulation time: 0 hr 10 min 53 sec) 
Heartbeat CPU 3 instructions: 30000003 cycles: 9360534 heartbeat IPC: 3.30109 cumulative IPC: 3.20495 (Simulation time: 0 hr 10 min 53 sec) 
Heartbeat CPU 0 instructions: 40000001 cycles: 12664075 heartbeat IPC: 3.02669 cumulative IPC: 3.15854 (Simulation time: 0 hr 14 min 31 sec) 
Heartbeat CPU 1 instructions: 40000001 cycles: 12664244 heartbeat IPC: 3.02666 cumulative IPC: 3.1585 (Simulation time: 0 hr 14 min 31 sec) 
Heartbeat CPU 2 instructions: 40000001 cycles: 12664348 heartbeat IPC: 3.02668 cumulative IPC: 3.15847 (Simulation time: 0 hr 14 min 31 sec) 
Heartbeat CPU 3 instructions: 40000001 cycles: 12664447 heartbeat IPC: 3.02671 cumulative IPC: 3.15845 (Simulation time: 0 hr 14 min 31 sec) 
Heartbeat CPU 0 instructions: 50000001 cycles: 15851150 heartbeat IPC: 3.13767 cumulative IPC: 3.15435 (Simulation time: 0 hr 18 min 7 sec) 
Heartbeat CPU 1 instructions: 50000001 cycles: 15851331 heartbeat IPC: 3.13766 cumulative IPC: 3.15431 (Simulation time: 0 hr 18 min 7 sec) 
Heartbeat CPU 2 instructions: 50000001 cycles: 15851441 heartbeat IPC: 3.13766 cumulative IPC: 3.15429 (Simulation time: 0 hr 18 min 7 sec) 
Heartbeat CPU 3 instructions: 50000001 cycles: 15851527 heartbeat IPC: 3.13767 cumulative IPC: 3.15427 (Simulation time: 0 hr 18 min 7 sec) 

Warmup complete CPU 0 instructions: 50001237 cycles: 15851527 (Simulation time: 0 hr 18 min 7 sec) 
Warmup complete CPU 1 instructions: 50000605 cycles: 15851527 (Simulation time: 0 hr 18 min 7 sec) 
Warmup complete CPU 2 instructions: 50000253 cycles: 15851527 (Simulation time: 0 hr 18 min 7 sec) 
Warmup complete CPU 3 instructions: 50000001 cycles: 15851527 (Simulation time: 0 hr 18 min 7 sec) 

Heartbeat CPU 3 instructions: 60000000 cycles: 45947975 heartbeat IPC: 0.332265 cumulative IPC: 0.332265 (Simulation time: 0 hr 25 min 11 sec) 
Heartbeat CPU 2 instructions: 60000000 cycles: 46279356 heartbeat IPC: 0.328646 cumulative IPC: 0.328638 (Simulation time: 0 hr 25 min 16 sec) 
Heartbeat CPU 1 instructions: 60000000 cycles: 46296629 heartbeat IPC: 0.328458 cumulative IPC: 0.32844 (Simulation time: 0 hr 25 min 17 sec) 
Heartbeat CPU 0 instructions: 60000000 cycles: 46772175 heartbeat IPC: 0.323405 cumulative IPC: 0.323368 (Simulation time: 0 hr 25 min 24 sec) 
Heartbeat CPU 3 instructions: 70000002 cycles: 62377001 heartbeat IPC: 0.608679 cumulative IPC: 0.429872 (Simulation time: 0 hr 30 min 6 sec) 
Heartbeat CPU 2 instructions: 70000002 cycles: 62470025 heartbeat IPC: 0.61764 cumulative IPC: 0.429009 (Simulation time: 0 hr 30 min 8 sec) 
Heartbeat CPU 1 instructions: 70000002 cycles: 62566936 heartbeat IPC: 0.614617 cumulative IPC: 0.428111 (Simulation time: 0 hr 30 min 10 sec) 
Heartbeat CPU 0 instructions: 70000002 cycles: 62727211 heartbeat IPC: 0.626761 cumulative IPC: 0.426634 (Simulation time: 0 hr 30 min 13 sec) 
Heartbeat CPU 3 instructions: 80000003 cycles: 86417380 heartbeat IPC: 0.415967 cumulative IPC: 0.425135 (Simulation time: 0 hr 36 min 4 sec) 
Heartbeat CPU 2 instructions: 80000003 cycles: 86654991 heartbeat IPC: 0.41348 cumulative IPC: 0.423705 (Simulation time: 0 hr 36 min 8 sec) 
Heartbeat CPU 1 instructions: 80000003 cycles: 86751753 heartbeat IPC: 0.413483 cumulative IPC: 0.423121 (Simulation time: 0 hr 36 min 10 sec) 
Heartbeat CPU 0 instructions: 80000003 cycles: 87738809 heartbeat IPC: 0.399815 cumulative IPC: 0.417303 (Simulation time: 0 hr 36 min 24 sec) 
Heartbeat CPU 3 instructions: 90000003 cycles: 109565154 heartbeat IPC: 0.432007 cumulative IPC: 0.426832 (Simulation time: 0 hr 42 min 13 sec) 
Heartbeat CPU 1 instructions: 90000002 cycles: 109856504 heartbeat IPC: 0.432811 cumulative IPC: 0.425503 (Simulation time: 0 hr 42 min 19 sec) 
Heartbeat CPU 2 instructions: 90000003 cycles: 109990604 heartbeat IPC: 0.42853 cumulative IPC: 0.424901 (Simulation time: 0 hr 42 min 22 sec) 
Heartbeat CPU 0 instructions: 90000002 cycles: 110621001 heartbeat IPC: 0.437021 cumulative IPC: 0.422064 (Simulation time: 0 hr 42 min 34 sec) 
Heartbeat CPU 3 instructions: 100000003 cycles: 123194943 heartbeat IPC: 0.733687 cumulative IPC: 0.465795 (Simulation time: 0 hr 46 min 39 sec) 
Heartbeat CPU 1 instructions: 100000003 cycles: 124100822 heartbeat IPC: 0.702034 cumulative IPC: 0.461891 (Simulation time: 0 hr 46 min 56 sec) 
Heartbeat CPU 2 instructions: 100000003 cycles: 124266792 heartbeat IPC: 0.700467 cumulative IPC: 0.461187 (Simulation time: 0 hr 46 min 58 sec) 
Heartbeat CPU 0 instructions: 100000003 cycles: 124303315 heartbeat IPC: 0.730871 cumulative IPC: 0.461023 (Simulation time: 0 hr 46 min 59 sec) 
Heartbeat CPU 3 instructions: 110000000 cycles: 154842303 heartbeat IPC: 0.315982 cumulative IPC: 0.431683 (Simulation time: 0 hr 54 min 7 sec) 
Heartbeat CPU 1 instructions: 110000000 cycles: 157026776 heartbeat IPC: 0.303712 cumulative IPC: 0.424999 (Simulation time: 0 hr 54 min 40 sec) 
Heartbeat CPU 0 instructions: 110000000 cycles: 157160411 heartbeat IPC: 0.304348 cumulative IPC: 0.424593 (Simulation time: 0 hr 54 min 42 sec) 
Heartbeat CPU 2 instructions: 110000000 cycles: 157283711 heartbeat IPC: 0.302875 cumulative IPC: 0.42423 (Simulation time: 0 hr 54 min 44 sec) 
Heartbeat CPU 3 instructions: 120000002 cycles: 170534489 heartbeat IPC: 0.63726 cumulative IPC: 0.452539 (Simulation time: 0 hr 59 min 11 sec) 
Heartbeat CPU 1 instructions: 120000002 cycles: 171536985 heartbeat IPC: 0.68917 cumulative IPC: 0.449621 (Simulation time: 0 hr 59 min 33 sec) 
Heartbeat CPU 2 instructions: 120000002 cycles: 171591907 heartbeat IPC: 0.6989 cumulative IPC: 0.449464 (Simulation time: 0 hr 59 min 34 sec) 
Heartbeat CPU 0 instructions: 120000002 cycles: 171640331 heartbeat IPC: 0.690612 cumulative IPC: 0.449318 (Simulation time: 0 hr 59 min 35 sec) 
Heartbeat CPU 3 instructions: 130000002 cycles: 195771428 heartbeat IPC: 0.396245 cumulative IPC: 0.444642 (Simulation time: 1 hr 5 min 47 sec) 
Heartbeat CPU 1 instructions: 130000002 cycles: 198059633 heartbeat IPC: 0.377036 cumulative IPC: 0.439055 (Simulation time: 1 hr 6 min 20 sec) 
Heartbeat CPU 2 instructions: 130000002 cycles: 198326991 heartbeat IPC: 0.37404 cumulative IPC: 0.438414 (Simulation time: 1 hr 6 min 23 sec) 
Heartbeat CPU 0 instructions: 130000002 cycles: 198656998 heartbeat IPC: 0.370142 cumulative IPC: 0.437617 (Simulation time: 1 hr 6 min 28 sec) 
Heartbeat CPU 3 instructions: 140000003 cycles: 217900414 heartbeat IPC: 0.451896 cumulative IPC: 0.445437 (Simulation time: 1 hr 11 min 46 sec) 
Heartbeat CPU 1 instructions: 140000003 cycles: 219413100 heartbeat IPC: 0.468308 cumulative IPC: 0.442124 (Simulation time: 1 hr 12 min 19 sec) 
Heartbeat CPU 2 instructions: 140000003 cycles: 219531878 heartbeat IPC: 0.471589 cumulative IPC: 0.441868 (Simulation time: 1 hr 12 min 21 sec) 
Heartbeat CPU 0 instructions: 140000003 cycles: 219626720 heartbeat IPC: 0.476878 cumulative IPC: 0.441657 (Simulation time: 1 hr 12 min 23 sec) 
Heartbeat CPU 3 instructions: 150000001 cycles: 232837813 heartbeat IPC: 0.66946 cumulative IPC: 0.460859 (Simulation time: 1 hr 16 min 55 sec) 
Heartbeat CPU 0 instructions: 150000001 cycles: 234683103 heartbeat IPC: 0.66417 cumulative IPC: 0.456967 (Simulation time: 1 hr 17 min 17 sec) 
Heartbeat CPU 1 instructions: 150000001 cycles: 234829703 heartbeat IPC: 0.648651 cumulative IPC: 0.456664 (Simulation time: 1 hr 17 min 18 sec) 
Heartbeat CPU 2 instructions: 150000001 cycles: 234885790 heartbeat IPC: 0.6513 cumulative IPC: 0.456548 (Simulation time: 1 hr 17 min 19 sec) 
Heartbeat CPU 3 instructions: 160000000 cycles: 264136016 heartbeat IPC: 0.319507 cumulative IPC: 0.44304 (Simulation time: 1 hr 24 min 18 sec) 
Heartbeat CPU 1 instructions: 160000000 cycles: 267086288 heartbeat IPC: 0.310014 cumulative IPC: 0.437835 (Simulation time: 1 hr 25 min 5 sec) 
Heartbeat CPU 0 instructions: 160000000 cycles: 267112639 heartbeat IPC: 0.308361 cumulative IPC: 0.437787 (Simulation time: 1 hr 25 min 5 sec) 
Heartbeat CPU 2 instructions: 160000000 cycles: 267292306 heartbeat IPC: 0.30858 cumulative IPC: 0.437478 (Simulation time: 1 hr 25 min 8 sec) 
Heartbeat CPU 3 instructions: 170000000 cycles: 279105333 heartbeat IPC: 0.668033 cumulative IPC: 0.455834 (Simulation time: 1 hr 29 min 28 sec) 
Heartbeat CPU 0 instructions: 170000000 cycles: 280820194 heartbeat IPC: 0.729525 cumulative IPC: 0.452879 (Simulation time: 1 hr 30 min 5 sec) 
Heartbeat CPU 1 instructions: 170000000 cycles: 280966984 heartbeat IPC: 0.720425 cumulative IPC: 0.452631 (Simulation time: 1 hr 30 min 8 sec) 
Heartbeat CPU 2 instructions: 170000000 cycles: 281187247 heartbeat IPC: 0.719686 cumulative IPC: 0.452256 (Simulation time: 1 hr 30 min 13 sec) 
Heartbeat CPU 3 instructions: 180000002 cycles: 305527169 heartbeat IPC: 0.378475 cumulative IPC: 0.448778 (Simulation time: 1 hr 36 min 23 sec) 
Heartbeat CPU 0 instructions: 180000002 cycles: 309132620 heartbeat IPC: 0.353202 cumulative IPC: 0.443257 (Simulation time: 1 hr 37 min 18 sec) 
Heartbeat CPU 1 instructions: 180000002 cycles: 309897884 heartbeat IPC: 0.345651 cumulative IPC: 0.442105 (Simulation time: 1 hr 37 min 29 sec) 
Heartbeat CPU 2 instructions: 180000002 cycles: 310432482 heartbeat IPC: 0.341936 cumulative IPC: 0.441304 (Simulation time: 1 hr 37 min 36 sec) 
Heartbeat CPU 3 instructions: 190000001 cycles: 326600249 heartbeat IPC: 0.474539 cumulative IPC: 0.450525 (Simulation time: 1 hr 41 min 46 sec) 
Heartbeat CPU 0 instructions: 190000000 cycles: 328730499 heartbeat IPC: 0.510259 cumulative IPC: 0.447453 (Simulation time: 1 hr 42 min 29 sec) 
Heartbeat CPU 2 instructions: 190000000 cycles: 329098869 heartbeat IPC: 0.535722 cumulative IPC: 0.44693 (Simulation time: 1 hr 42 min 36 sec) 
Heartbeat CPU 1 instructions: 190000000 cycles: 329196247 heartbeat IPC: 0.518179 cumulative IPC: 0.44679 (Simulation time: 1 hr 42 min 38 sec) 
Heartbeat CPU 3 instructions: 200000001 cycles: 344698206 heartbeat IPC: 0.552549 cumulative IPC: 0.45614 (Simulation time: 1 hr 46 min 57 sec) 
Heartbeat CPU 0 instructions: 200000001 cycles: 348744965 heartbeat IPC: 0.499639 cumulative IPC: 0.450591 (Simulation time: 1 hr 47 min 40 sec) 
Heartbeat CPU 2 instructions: 200000001 cycles: 348906038 heartbeat IPC: 0.504868 cumulative IPC: 0.450376 (Simulation time: 1 hr 47 min 42 sec) 
Heartbeat CPU 1 instructions: 200000001 cycles: 350003829 heartbeat IPC: 0.480594 cumulative IPC: 0.448895 (Simulation time: 1 hr 47 min 55 sec) 
Heartbeat CPU 3 instructions: 210000003 cycles: 373745756 heartbeat IPC: 0.344263 cumulative IPC: 0.447059 (Simulation time: 1 hr 53 min 39 sec) 
Heartbeat CPU 2 instructions: 210000001 cycles: 377029800 heartbeat IPC: 0.355571 cumulative IPC: 0.442994 (Simulation time: 1 hr 54 min 32 sec) 
Heartbeat CPU 0 instructions: 210000001 cycles: 377473631 heartbeat IPC: 0.348084 cumulative IPC: 0.442447 (Simulation time: 1 hr 54 min 41 sec) 
Heartbeat CPU 1 instructions: 210000001 cycles: 378394788 heartbeat IPC: 0.352225 cumulative IPC: 0.441325 (Simulation time: 1 hr 54 min 59 sec) 
Heartbeat CPU 3 instructions: 220000000 cycles: 387864089 heartbeat IPC: 0.708299 cumulative IPC: 0.456974 (Simulation time: 1 hr 58 min 31 sec) 
Heartbeat CPU 2 instructions: 220000000 cycles: 389737086 heartbeat IPC: 0.78695 cumulative IPC: 0.454684 (Simulation time: 1 hr 59 min 12 sec) 
Heartbeat CPU 0 instructions: 220000000 cycles: 389978183 heartbeat IPC: 0.799709 cumulative IPC: 0.454388 (Simulation time: 1 hr 59 min 17 sec) 
Heartbeat CPU 1 instructions: 220000000 cycles: 391008968 heartbeat IPC: 0.792759 cumulative IPC: 0.453141 (Simulation time: 1 hr 59 min 38 sec) 
Heartbeat CPU 3 instructions: 230000002 cycles: 414720384 heartbeat IPC: 0.372352 cumulative IPC: 0.451276 (Simulation time: 2 hr 4 min 39 sec) 
Heartbeat CPU 2 instructions: 230000002 cycles: 418276189 heartbeat IPC: 0.350397 cumulative IPC: 0.447288 (Simulation time: 2 hr 5 min 35 sec) 
Heartbeat CPU 0 instructions: 230000002 cycles: 418720299 heartbeat IPC: 0.347922 cumulative IPC: 0.446793 (Simulation time: 2 hr 5 min 42 sec) 
Heartbeat CPU 1 instructions: 230000002 cycles: 420907078 heartbeat IPC: 0.334469 cumulative IPC: 0.444382 (Simulation time: 2 hr 6 min 17 sec) 
Heartbeat CPU 3 instructions: 240000003 cycles: 435316721 heartbeat IPC: 0.485523 cumulative IPC: 0.452958 (Simulation time: 2 hr 10 min 24 sec) 
Heartbeat CPU 2 instructions: 240000003 cycles: 437887260 heartbeat IPC: 0.509916 cumulative IPC: 0.450198 (Simulation time: 2 hr 11 min 21 sec) 
Heartbeat CPU 0 instructions: 240000003 cycles: 438466028 heartbeat IPC: 0.506439 cumulative IPC: 0.449579 (Simulation time: 2 hr 11 min 34 sec) 
Heartbeat CPU 1 instructions: 240000003 cycles: 440442852 heartbeat IPC: 0.511881 cumulative IPC: 0.447488 (Simulation time: 2 hr 12 min 13 sec) 
Heartbeat CPU 3 instructions: 250000001 cycles: 450042418 heartbeat IPC: 0.679085 cumulative IPC: 0.460627 (Simulation time: 2 hr 15 min 24 sec) 
Finished CPU 3 instructions: 200000000 cycles: 434190891 cumulative IPC: 0.460627 (Simulation time: 2 hr 15 min 24 sec) 
Heartbeat CPU 2 instructions: 250000002 cycles: 453161738 heartbeat IPC: 0.654687 cumulative IPC: 0.457341 (Simulation time: 2 hr 16 min 5 sec) 
Finished CPU 2 instructions: 200000001 cycles: 437312857 cumulative IPC: 0.457338 (Simulation time: 2 hr 16 min 5 sec) 
Heartbeat CPU 0 instructions: 250000001 cycles: 454497311 heartbeat IPC: 0.62378 cumulative IPC: 0.455946 (Simulation time: 2 hr 16 min 24 sec) 
Finished CPU 0 instructions: 200000001 cycles: 438648736 cumulative IPC: 0.455946 (Simulation time: 2 hr 16 min 24 sec) 
Heartbeat CPU 1 instructions: 250000001 cycles: 457991280 heartbeat IPC: 0.569852 cumulative IPC: 0.452344 (Simulation time: 2 hr 17 min 8 sec) 
Finished CPU 1 instructions: 200000000 cycles: 442142441 cumulative IPC: 0.452343 (Simulation time: 2 hr 17 min 8 sec) 

ChampSim completed all CPUs

Total Simulation Statistics (not including warmup)

CPU 0 cumulative IPC: 0.454003 instructions: 200734181 cycles: 442142441
ITLB TOTAL     ACCESS:   31717797  HIT:   31717796  MISS:          1  HIT %:        100  MISS %: 3.1528e-06   MPKI: 4.98171e-06
ITLB LOAD      ACCESS:          0  HIT:          0  MISS:          0  HIT %:       -nan  MISS %:       -nan   MPKI: 0
ITLB RFO       ACCESS:          0  HIT:          0  MISS:          0  HIT %:       -nan  MISS %:       -nan   MPKI: 0
ITLB PREFETCH  ACCESS:          0  HIT:          0  MISS:          0  HIT %:       -nan  MISS %:       -nan   MPKI: 0
ITLB WRITEBACK ACCESS:          0  HIT:          0  MISS:          0  HIT %:       -nan  MISS %:       -nan   MPKI: 0
DTLB TOTAL     ACCESS:   49128781  HIT:   49025836  MISS:     102945  HIT %:    99.7905  MISS %:   0.209541   MPKI: 0.512842
DTLB LOAD      ACCESS:          0  HIT:          0  MISS:          0  HIT %:       -nan  MISS %:       -nan   MPKI: 0
DTLB RFO       ACCESS:          0  HIT:          0  MISS:          0  HIT %:       -nan  MISS %:       -nan   MPKI: 0
DTLB PREFETCH  ACCESS:          0  HIT:          0  MISS:          0  HIT %:       -nan  MISS %:       -nan   MPKI: 0
DTLB WRITEBACK ACCESS:          0  HIT:          0  MISS:          0  HIT %:       -nan  MISS %:       -nan   MPKI: 0
STLB TOTAL     ACCESS:   13789600  HIT:   13692513  MISS:      97087  HIT %:    99.2959  MISS %:    0.70406   MPKI: 0.48366
STLB LOAD      ACCESS:          0  HIT:          0  MISS:          0  HIT %:       -nan  MISS %:       -nan   MPKI: 0
STLB RFO       ACCESS:          0  HIT:          0  MISS:          0  HIT %:       -nan  MISS %:       -nan   MPKI: 0
STLB PREFETCH  ACCESS:          0  HIT:          0  MISS:          0  HIT %:       -nan  MISS %:       -nan   MPKI: 0
STLB WRITEBACK ACCESS:          0  HIT:          0  MISS:          0  HIT %:       -nan  MISS %:       -nan   MPKI: 0
L1D TOTAL     ACCESS:   81345891  HIT:   76496152  MISS:    4849739  HIT %:    94.0381  MISS %:    5.96187   MPKI: 24.16
L1D LOAD      ACCESS:   42909165  HIT:   42150052  MISS:     759113  HIT %:    98.2309  MISS %:    1.76912   MPKI: 3.78168
L1D RFO       ACCESS:    1799093  HIT:     435123  MISS:    1363970  HIT %:    24.1857  MISS %:    75.8143   MPKI: 6.79491
L1D PREFETCH  ACCESS:   36637633  HIT:   33910977  MISS:    2726656  HIT %:    92.5578  MISS %:    7.44223   MPKI: 13.5834
L1D WRITEBACK ACCESS:          0  HIT:          0  MISS:          0  HIT %:       -nan  MISS %:       -nan   MPKI: 0
L1I TOTAL     ACCESS:   35948990  HIT:   35948940  MISS:         50  HIT %:    99.9999  MISS %: 0.000139086   MPKI: 0.000249086
L1I LOAD      ACCESS:   35948990  HIT:   35948940  MISS:         50  HIT %:    99.9999  MISS %: 0.000139086   MPKI: 0.000249086
L1I RFO       ACCESS:          0  HIT:          0  MISS:          0  HIT %:       -nan  MISS %:       -nan   MPKI: 0
L1I PREFETCH  ACCESS:          0  HIT:          0  MISS:          0  HIT %:       -nan  MISS %:       -nan   MPKI: 0
L1I WRITEBACK ACCESS:          0  HIT:          0  MISS:          0  HIT %:       -nan  MISS %:       -nan   MPKI: 0
L2C TOTAL     ACCESS:   15784877  HIT:   10915777  MISS:    4869100  HIT %:    69.1534  MISS %:    30.8466   MPKI: 24.2565
L2C LOAD      ACCESS:     521202  HIT:     366575  MISS:     154627  HIT %:    70.3326  MISS %:    29.6674   MPKI: 0.770307
L2C RFO       ACCESS:    1363970  HIT:          0  MISS:    1363970  HIT %:          0  MISS %:        100   MPKI: 6.79491
L2C PREFETCH  ACCESS:   11469108  HIT:    8386579  MISS:    3082529  HIT %:    73.1232  MISS %:    26.8768   MPKI: 15.3563
L2C WRITEBACK ACCESS:    1363905  HIT:    1116350  MISS:     247555  HIT %:    81.8495  MISS %:    18.1505   MPKI: 1.23325
PSCL5 TOTAL     ACCESS:    1054768  HIT:    1054768  MISS:          0  HIT %:        100  MISS %:          0   MPKI: 0
PSCL5 LOAD      ACCESS:          0  HIT:          0  MISS:          0  HIT %:       -nan  MISS %:       -nan   MPKI: 0
PSCL5 RFO       ACCESS:          0  HIT:          0  MISS:          0  HIT %:       -nan  MISS %:       -nan   MPKI: 0
PSCL5 PREFETCH  ACCESS:          0  HIT:          0  MISS:          0  HIT %:       -nan  MISS %:       -nan   MPKI: 0
PSCL5 WRITEBACK ACCESS:          0  HIT:          0  MISS:          0  HIT %:       -nan  MISS %:       -nan   MPKI: 0
PSCL4 TOTAL     ACCESS:    1054768  HIT:    1054768  MISS:          0  HIT %:        100  MISS %:          0   MPKI: 0
PSCL4 LOAD      ACCESS:          0  HIT:          0  MISS:          0  HIT %:       -nan  MISS %:       -nan   MPKI: 0
PSCL4 RFO       ACCESS:          0  HIT:          0  MISS:          0  HIT %:       -nan  MISS %:       -nan   MPKI: 0
PSCL4 PREFETCH  ACCESS:          0  HIT:          0  MISS:          0  HIT %:       -nan  MISS %:       -nan   MPKI: 0
PSCL4 WRITEBACK ACCESS:          0  HIT:          0  MISS:          0  HIT %:       -nan  MISS %:       -nan   MPKI: 0
PSCL3 TOTAL     ACCESS:    1020753  HIT:    1020746  MISS:          7  HIT %:    99.9993  MISS %: 0.000685768   MPKI: 3.4872e-05
PSCL3 LOAD      ACCESS:          0  HIT:          0  MISS:          0  HIT %:       -nan  MISS %:       -nan   MPKI: 0
PSCL3 RFO       ACCESS:          0  HIT:          0  MISS:          0  HIT %:       -nan  MISS %:       -nan   MPKI: 0
PSCL3 PREFETCH  ACCESS:          0  HIT:          0  MISS:          0  HIT %:       -nan  MISS %:       -nan   MPKI: 0
PSCL3 WRITEBACK ACCESS:          0  HIT:          0  MISS:          0  HIT %:       -nan  MISS %:       -nan   MPKI: 0
PSCL2 TOTAL     ACCESS:    1033298  HIT:    1033009  MISS:        289  HIT %:     99.972  MISS %:  0.0279687   MPKI: 0.00143971
PSCL2 LOAD      ACCESS:          0  HIT:          0  MISS:          0  HIT %:       -nan  MISS %:       -nan   MPKI: 0
PSCL2 RFO       ACCESS:          0  HIT:          0  MISS:          0  HIT %:       -nan  MISS %:       -nan   MPKI: 0
PSCL2 PREFETCH  ACCESS:          0  HIT:          0  MISS:          0  HIT %:       -nan  MISS %:       -nan   MPKI: 0
PSCL2 WRITEBACK ACCESS:          0  HIT:          0  MISS:          0  HIT %:       -nan  MISS %:       -nan   MPKI: 0
LLC TOTAL     ACCESS:    5982706  HIT:    1217192  MISS:    4765514  HIT %:    20.3452  MISS %:    79.6548   MPKI: 23.7404
LLC LOAD      ACCESS:      81013  HIT:       2449  MISS:      78564  HIT %:    3.02297  MISS %:     96.977   MPKI: 0.391383
LLC RFO       ACCESS:    1363970  HIT:          0  MISS:    1363970  HIT %:          0  MISS %:        100   MPKI: 6.79491
LLC PREFETCH  ACCESS:    3156143  HIT:      71624  MISS:    3084519  HIT %:    2.26935  MISS %:    97.7306   MPKI: 15.3662
LLC WRITEBACK ACCESS:    1361161  HIT:    1142728  MISS:     218433  HIT %:    83.9524  MISS %:    16.0476   MPKI: 1.08817

RAW hits: 15
Loads Generated: 74158732
Loads sent to L1D: 74158717
Stores Generated: 10841558
Stores sent to L1D: 10841558

CPU 1 cumulative IPC: 0.452343 instructions: 200000000 cycles: 442142441
ITLB TOTAL     ACCESS:   31587337  HIT:   31587336  MISS:          1  HIT %:        100  MISS %: 3.16583e-06   MPKI: 5e-06
ITLB LOAD      ACCESS:          0  HIT:          0  MISS:          0  HIT %:       -nan  MISS %:       -nan   MPKI: 0
ITLB RFO       ACCESS:          0  HIT:          0  MISS:          0  HIT %:       -nan  MISS %:       -nan   MPKI: 0
ITLB PREFETCH  ACCESS:          0  HIT:          0  MISS:          0  HIT %:       -nan  MISS %:       -nan   MPKI: 0
ITLB WRITEBACK ACCESS:          0  HIT:          0  MISS:          0  HIT %:       -nan  MISS %:       -nan   MPKI: 0
DTLB TOTAL     ACCESS:   48907068  HIT:   48804827  MISS:     102241  HIT %:    99.7909  MISS %:   0.209052   MPKI: 0.511205
DTLB LOAD      ACCESS:          0  HIT:          0  MISS:          0  HIT %:       -nan  MISS %:       -nan   MPKI: 0
DTLB RFO       ACCESS:          0  HIT:          0  MISS:          0  HIT %:       -nan  MISS %:       -nan   MPKI: 0
DTLB PREFETCH  ACCESS:          0  HIT:          0  MISS:          0  HIT %:       -nan  MISS %:       -nan   MPKI: 0
DTLB WRITEBACK ACCESS:          0  HIT:          0  MISS:          0  HIT %:       -nan  MISS %:       -nan   MPKI: 0
STLB TOTAL     ACCESS:   13591403  HIT:   13495010  MISS:      96393  HIT %:    99.2908  MISS %:    0.70922   MPKI: 0.481965
STLB LOAD      ACCESS:          0  HIT:          0  MISS:          0  HIT %:       -nan  MISS %:       -nan   MPKI: 0
STLB RFO       ACCESS:          0  HIT:          0  MISS:          0  HIT %:       -nan  MISS %:       -nan   MPKI: 0
STLB PREFETCH  ACCESS:          0  HIT:          0  MISS:          0  HIT %:       -nan  MISS %:       -nan   MPKI: 0
STLB WRITEBACK ACCESS:          0  HIT:          0  MISS:          0  HIT %:       -nan  MISS %:       -nan   MPKI: 0
L1D TOTAL     ACCESS:   79684065  HIT:   74867341  MISS:    4816724  HIT %:    93.9552  MISS %:    6.04478   MPKI: 24.0836
L1D LOAD      ACCESS:   42804740  HIT:   42059902  MISS:     744838  HIT %:    98.2599  MISS %:    1.74008   MPKI: 3.72419
L1D RFO       ACCESS:    1788791  HIT:     440247  MISS:    1348544  HIT %:    24.6114  MISS %:    75.3886   MPKI: 6.74272
L1D PREFETCH  ACCESS:   35090534  HIT:   32367192  MISS:    2723342  HIT %:    92.2391  MISS %:     7.7609   MPKI: 13.6167
L1D WRITEBACK ACCESS:          0  HIT:          0  MISS:          0  HIT %:       -nan  MISS %:       -nan   MPKI: 0
L1I TOTAL     ACCESS:   35815547  HIT:   35815497  MISS:         50  HIT %:    99.9999  MISS %: 0.000139604   MPKI: 0.00025
L1I LOAD      ACCESS:   35815547  HIT:   35815497  MISS:         50  HIT %:    99.9999  MISS %: 0.000139604   MPKI: 0.00025
L1I RFO       ACCESS:          0  HIT:          0  MISS:          0  HIT %:       -nan  MISS %:       -nan   MPKI: 0
L1I PREFETCH  ACCESS:          0  HIT:          0  MISS:          0  HIT %:       -nan  MISS %:       -nan   MPKI: 0
L1I WRITEBACK ACCESS:          0  HIT:          0  MISS:          0  HIT %:       -nan  MISS %:       -nan   MPKI: 0
L2C TOTAL     ACCESS:   17162082  HIT:   12352337  MISS:    4809745  HIT %:    71.9746  MISS %:    28.0254   MPKI: 24.0487
L2C LOAD      ACCESS:     507002  HIT:     354296  MISS:     152706  HIT %:    69.8806  MISS %:    30.1194   MPKI: 0.76353
L2C RFO       ACCESS:    1348544  HIT:          0  MISS:    1348544  HIT %:          0  MISS %:        100   MPKI: 6.74272
L2C PREFETCH  ACCESS:   12797152  HIT:    9742932  MISS:    3054220  HIT %:    76.1336  MISS %:    23.8664   MPKI: 15.2711
L2C WRITEBACK ACCESS:    1348460  HIT:    1114553  MISS:     233907  HIT %:    82.6538  MISS %:    17.3462   MPKI: 1.16953
PSCL5 TOTAL     ACCESS:    1146855  HIT:    1146855  MISS:          0  HIT %:        100  MISS %:          0   MPKI: 0
PSCL5 LOAD      ACCESS:          0  HIT:          0  MISS:          0  HIT %:       -nan  MISS %:       -nan   MPKI: 0
PSCL5 RFO       ACCESS:          0  HIT:          0  MISS:          0  HIT %:       -nan  MISS %:       -nan   MPKI: 0
PSCL5 PREFETCH  ACCESS:          0  HIT:          0  MISS:          0  HIT %:       -nan  MISS %:       -nan   MPKI: 0
PSCL5 WRITEBACK ACCESS:          0  HIT:          0  MISS:          0  HIT %:       -nan  MISS %:       -nan   MPKI: 0
PSCL4 TOTAL     ACCESS:    1146855  HIT:    1146855  MISS:          0  HIT %:        100  MISS %:          0   MPKI: 0
PSCL4 LOAD      ACCESS:          0  HIT:          0  MISS:          0  HIT %:       -nan  MISS %:       -nan   MPKI: 0
PSCL4 RFO       ACCESS:          0  HIT:          0  MISS:          0  HIT %:       -nan  MISS %:       -nan   MPKI: 0
PSCL4 PREFETCH  ACCESS:          0  HIT:          0  MISS:          0  HIT %:       -nan  MISS %:       -nan   MPKI: 0
PSCL4 WRITEBACK ACCESS:          0  HIT:          0  MISS:          0  HIT %:       -nan  MISS %:       -nan   MPKI: 0
PSCL3 TOTAL     ACCESS:    1113644  HIT:    1113637  MISS:          7  HIT %:    99.9994  MISS %: 0.000628567   MPKI: 3.5e-05
PSCL3 LOAD      ACCESS:          0  HIT:          0  MISS:          0  HIT %:       -nan  MISS %:       -nan   MPKI: 0
PSCL3 RFO       ACCESS:          0  HIT:          0  MISS:          0  HIT %:       -nan  MISS %:       -nan   MPKI: 0
PSCL3 PREFETCH  ACCESS:          0  HIT:          0  MISS:          0  HIT %:       -nan  MISS %:       -nan   MPKI: 0
PSCL3 WRITEBACK ACCESS:          0  HIT:          0  MISS:          0  HIT %:       -nan  MISS %:       -nan   MPKI: 0
PSCL2 TOTAL     ACCESS:    1112614  HIT:    1112327  MISS:        287  HIT %:    99.9742  MISS %:  0.0257951   MPKI: 0.001435
PSCL2 LOAD      ACCESS:          0  HIT:          0  MISS:          0  HIT %:       -nan  MISS %:       -nan   MPKI: 0
PSCL2 RFO       ACCESS:          0  HIT:          0  MISS:          0  HIT %:       -nan  MISS %:       -nan   MPKI: 0
PSCL2 PREFETCH  ACCESS:          0  HIT:          0  MISS:          0  HIT %:       -nan  MISS %:       -nan   MPKI: 0
PSCL2 WRITEBACK ACCESS:          0  HIT:          0  MISS:          0  HIT %:       -nan  MISS %:       -nan   MPKI: 0
LLC TOTAL     ACCESS:    5921199  HIT:    1368907  MISS:    4552292  HIT %:    23.1187  MISS %:    76.8813   MPKI: 22.7615
LLC LOAD      ACCESS:      81945  HIT:       2624  MISS:      79321  HIT %:    3.20215  MISS %:    96.7979   MPKI: 0.396605
LLC RFO       ACCESS:    1348544  HIT:          0  MISS:    1348544  HIT %:          0  MISS %:        100   MPKI: 6.74272
LLC PREFETCH  ACCESS:    3124981  HIT:      67784  MISS:    3057197  HIT %:     2.1691  MISS %:    97.8309   MPKI: 15.286
LLC WRITEBACK ACCESS:    1345361  HIT:    1297917  MISS:      47444  HIT %:    96.4735  MISS %:    3.52649   MPKI: 0.23722

RAW hits: 15
Loads Generated: 73913336
Loads sent to L1D: 73913321
Stores Generated: 10719378
Stores sent to L1D: 10719378

CPU 2 cumulative IPC: 0.45473 instructions: 201055237 cycles: 442142441
ITLB TOTAL     ACCESS:   31773418  HIT:   31773417  MISS:          1  HIT %:        100  MISS %: 3.14728e-06   MPKI: 4.97376e-06
ITLB LOAD      ACCESS:          0  HIT:          0  MISS:          0  HIT %:       -nan  MISS %:       -nan   MPKI: 0
ITLB RFO       ACCESS:          0  HIT:          0  MISS:          0  HIT %:       -nan  MISS %:       -nan   MPKI: 0
ITLB PREFETCH  ACCESS:          0  HIT:          0  MISS:          0  HIT %:       -nan  MISS %:       -nan   MPKI: 0
ITLB WRITEBACK ACCESS:          0  HIT:          0  MISS:          0  HIT %:       -nan  MISS %:       -nan   MPKI: 0
DTLB TOTAL     ACCESS:   49229623  HIT:   49126303  MISS:     103320  HIT %:    99.7901  MISS %:   0.209874   MPKI: 0.513889
DTLB LOAD      ACCESS:          0  HIT:          0  MISS:          0  HIT %:       -nan  MISS %:       -nan   MPKI: 0
DTLB RFO       ACCESS:          0  HIT:          0  MISS:          0  HIT %:       -nan  MISS %:       -nan   MPKI: 0
DTLB PREFETCH  ACCESS:          0  HIT:          0  MISS:          0  HIT %:       -nan  MISS %:       -nan   MPKI: 0
DTLB WRITEBACK ACCESS:          0  HIT:          0  MISS:          0  HIT %:       -nan  MISS %:       -nan   MPKI: 0
STLB TOTAL     ACCESS:   13746163  HIT:   13648743  MISS:      97420  HIT %:    99.2913  MISS %:   0.708707   MPKI: 0.484543
STLB LOAD      ACCESS:          0  HIT:          0  MISS:          0  HIT %:       -nan  MISS %:       -nan   MPKI: 0
STLB RFO       ACCESS:          0  HIT:          0  MISS:          0  HIT %:       -nan  MISS %:       -nan   MPKI: 0
STLB PREFETCH  ACCESS:          0  HIT:          0  MISS:          0  HIT %:       -nan  MISS %:       -nan   MPKI: 0
STLB WRITEBACK ACCESS:          0  HIT:          0  MISS:          0  HIT %:       -nan  MISS %:       -nan   MPKI: 0
L1D TOTAL     ACCESS:   80924131  HIT:   76060601  MISS:    4863530  HIT %:      93.99  MISS %:    6.00999   MPKI: 24.19
L1D LOAD      ACCESS:   42954725  HIT:   42194033  MISS:     760692  HIT %:    98.2291  MISS %:    1.77092   MPKI: 3.7835
L1D RFO       ACCESS:    1810139  HIT:     439445  MISS:    1370694  HIT %:    24.2769  MISS %:    75.7231   MPKI: 6.8175
L1D PREFETCH  ACCESS:   36159267  HIT:   33427123  MISS:    2732144  HIT %:    92.4441  MISS %:    7.55586   MPKI: 13.589
L1D WRITEBACK ACCESS:          0  HIT:          0  MISS:          0  HIT %:       -nan  MISS %:       -nan   MPKI: 0
L1I TOTAL     ACCESS:   36004551  HIT:   36004501  MISS:         50  HIT %:    99.9999  MISS %: 0.000138871   MPKI: 0.000248688
L1I LOAD      ACCESS:   36004551  HIT:   36004501  MISS:         50  HIT %:    99.9999  MISS %: 0.000138871   MPKI: 0.000248688
L1I RFO       ACCESS:          0  HIT:          0  MISS:          0  HIT %:       -nan  MISS %:       -nan   MPKI: 0
L1I PREFETCH  ACCESS:          0  HIT:          0  MISS:          0  HIT %:       -nan  MISS %:       -nan   MPKI: 0
L1I WRITEBACK ACCESS:          0  HIT:          0  MISS:          0  HIT %:       -nan  MISS %:       -nan   MPKI: 0
L2C TOTAL     ACCESS:   16133071  HIT:   11144033  MISS:    4989038  HIT %:    69.0757  MISS %:    30.9243   MPKI: 24.8143
L2C LOAD      ACCESS:     518704  HIT:     363347  MISS:     155357  HIT %:     70.049  MISS %:     29.951   MPKI: 0.772708
L2C RFO       ACCESS:    1370694  HIT:          0  MISS:    1370694  HIT %:          0  MISS %:        100   MPKI: 6.8175
L2C PREFETCH  ACCESS:   11702768  HIT:    8608060  MISS:    3094708  HIT %:    73.5558  MISS %:    26.4442   MPKI: 15.3923
L2C WRITEBACK ACCESS:    1370607  HIT:    1022950  MISS:     347657  HIT %:    74.6348  MISS %:    25.3652   MPKI: 1.72916
PSCL5 TOTAL     ACCESS:    1156329  HIT:    1156329  MISS:          0  HIT %:        100  MISS %:          0   MPKI: 0
PSCL5 LOAD      ACCESS:          0  HIT:          0  MISS:          0  HIT %:       -nan  MISS %:       -nan   MPKI: 0
PSCL5 RFO       ACCESS:          0  HIT:          0  MISS:          0  HIT %:       -nan  MISS %:       -nan   MPKI: 0
PSCL5 PREFETCH  ACCESS:          0  HIT:          0  MISS:          0  HIT %:       -nan  MISS %:       -nan   MPKI: 0
PSCL5 WRITEBACK ACCESS:          0  HIT:          0  MISS:          0  HIT %:       -nan  MISS %:       -nan   MPKI: 0
PSCL4 TOTAL     ACCESS:    1156329  HIT:    1156329  MISS:          0  HIT %:        100  MISS %:          0   MPKI: 0
PSCL4 LOAD      ACCESS:          0  HIT:          0  MISS:          0  HIT %:       -nan  MISS %:       -nan   MPKI: 0
PSCL4 RFO       ACCESS:          0  HIT:          0  MISS:          0  HIT %:       -nan  MISS %:       -nan   MPKI: 0
PSCL4 PREFETCH  ACCESS:          0  HIT:          0  MISS:          0  HIT %:       -nan  MISS %:       -nan   MPKI: 0
PSCL4 WRITEBACK ACCESS:          0  HIT:          0  MISS:          0  HIT %:       -nan  MISS %:       -nan   MPKI: 0
PSCL3 TOTAL     ACCESS:    1120906  HIT:    1120899  MISS:          7  HIT %:    99.9994  MISS %: 0.000624495   MPKI: 3.48163e-05
PSCL3 LOAD      ACCESS:          0  HIT:          0  MISS:          0  HIT %:       -nan  MISS %:       -nan   MPKI: 0
PSCL3 RFO       ACCESS:          0  HIT:          0  MISS:          0  HIT %:       -nan  MISS %:       -nan   MPKI: 0
PSCL3 PREFETCH  ACCESS:          0  HIT:          0  MISS:          0  HIT %:       -nan  MISS %:       -nan   MPKI: 0
PSCL3 WRITEBACK ACCESS:          0  HIT:          0  MISS:          0  HIT %:       -nan  MISS %:       -nan   MPKI: 0
PSCL2 TOTAL     ACCESS:    1122091  HIT:    1121800  MISS:        291  HIT %:    99.9741  MISS %:  0.0259337   MPKI: 0.00144736
PSCL2 LOAD      ACCESS:          0  HIT:          0  MISS:          0  HIT %:       -nan  MISS %:       -nan   MPKI: 0
PSCL2 RFO       ACCESS:          0  HIT:          0  MISS:          0  HIT %:       -nan  MISS %:       -nan   MPKI: 0
PSCL2 PREFETCH  ACCESS:          0  HIT:          0  MISS:          0  HIT %:       -nan  MISS %:       -nan   MPKI: 0
PSCL2 WRITEBACK ACCESS:          0  HIT:          0  MISS:          0  HIT %:       -nan  MISS %:       -nan   MPKI: 0
LLC TOTAL     ACCESS:    6009472  HIT:    1403997  MISS:    4605475  HIT %:    23.3631  MISS %:    76.6369   MPKI: 22.9065
LLC LOAD      ACCESS:      81940  HIT:       2865  MISS:      79075  HIT %:    3.49646  MISS %:    96.5035   MPKI: 0.3933
LLC RFO       ACCESS:    1370694  HIT:          0  MISS:    1370694  HIT %:          0  MISS %:        100   MPKI: 6.8175
LLC PREFETCH  ACCESS:    3168125  HIT:      86737  MISS:    3081388  HIT %:     2.7378  MISS %:    97.2622   MPKI: 15.3261
LLC WRITEBACK ACCESS:    1368091  HIT:    1313778  MISS:      54313  HIT %:      96.03  MISS %:    3.96998   MPKI: 0.27014

RAW hits: 15
Loads Generated: 74266028
Loads sent to L1D: 74266013
Stores Generated: 10894798
Stores sent to L1D: 10894799

CPU 3 cumulative IPC: 0.456723 instructions: 201936815 cycles: 442142441
ITLB TOTAL     ACCESS:   31932863  HIT:   31932862  MISS:          1  HIT %:        100  MISS %: 3.13157e-06   MPKI: 4.95204e-06
ITLB LOAD      ACCESS:          0  HIT:          0  MISS:          0  HIT %:       -nan  MISS %:       -nan   MPKI: 0
ITLB RFO       ACCESS:          0  HIT:          0  MISS:          0  HIT %:       -nan  MISS %:       -nan   MPKI: 0
ITLB PREFETCH  ACCESS:          0  HIT:          0  MISS:          0  HIT %:       -nan  MISS %:       -nan   MPKI: 0
ITLB WRITEBACK ACCESS:          0  HIT:          0  MISS:          0  HIT %:       -nan  MISS %:       -nan   MPKI: 0
DTLB TOTAL     ACCESS:   49488017  HIT:   49383920  MISS:     104097  HIT %:    99.7897  MISS %:   0.210348   MPKI: 0.515493
DTLB LOAD      ACCESS:          0  HIT:          0  MISS:          0  HIT %:       -nan  MISS %:       -nan   MPKI: 0
DTLB RFO       ACCESS:          0  HIT:          0  MISS:          0  HIT %:       -nan  MISS %:       -nan   MPKI: 0
DTLB PREFETCH  ACCESS:          0  HIT:          0  MISS:          0  HIT %:       -nan  MISS %:       -nan   MPKI: 0
DTLB WRITEBACK ACCESS:          0  HIT:          0  MISS:          0  HIT %:       -nan  MISS %:       -nan   MPKI: 0
STLB TOTAL     ACCESS:   13944645  HIT:   13846384  MISS:      98261  HIT %:    99.2953  MISS %:    0.70465   MPKI: 0.486593
STLB LOAD      ACCESS:          0  HIT:          0  MISS:          0  HIT %:       -nan  MISS %:       -nan   MPKI: 0
STLB RFO       ACCESS:          0  HIT:          0  MISS:          0  HIT %:       -nan  MISS %:       -nan   MPKI: 0
STLB PREFETCH  ACCESS:          0  HIT:          0  MISS:          0  HIT %:       -nan  MISS %:       -nan   MPKI: 0
STLB WRITEBACK ACCESS:          0  HIT:          0  MISS:          0  HIT %:       -nan  MISS %:       -nan   MPKI: 0
L1D TOTAL     ACCESS:   80830489  HIT:   75928930  MISS:    4901559  HIT %:     93.936  MISS %:      6.064   MPKI: 24.2727
L1D LOAD      ACCESS:   43052988  HIT:   42290458  MISS:     762530  HIT %:    98.2289  MISS %:    1.77114   MPKI: 3.77608
L1D RFO       ACCESS:    1832589  HIT:     443402  MISS:    1389187  HIT %:    24.1954  MISS %:    75.8046   MPKI: 6.87932
L1D PREFETCH  ACCESS:   35944912  HIT:   33195070  MISS:    2749842  HIT %:    92.3498  MISS %:    7.65016   MPKI: 13.6173
L1D WRITEBACK ACCESS:          0  HIT:          0  MISS:          0  HIT %:       -nan  MISS %:       -nan   MPKI: 0
L1I TOTAL     ACCESS:   36162145  HIT:   36162095  MISS:         50  HIT %:    99.9999  MISS %: 0.000138266   MPKI: 0.000247602
L1I LOAD      ACCESS:   36162145  HIT:   36162095  MISS:         50  HIT %:    99.9999  MISS %: 0.000138266   MPKI: 0.000247602
L1I RFO       ACCESS:          0  HIT:          0  MISS:          0  HIT %:       -nan  MISS %:       -nan   MPKI: 0
L1I PREFETCH  ACCESS:          0  HIT:          0  MISS:          0  HIT %:       -nan  MISS %:       -nan   MPKI: 0
L1I WRITEBACK ACCESS:          0  HIT:          0  MISS:          0  HIT %:       -nan  MISS %:       -nan   MPKI: 0
L2C TOTAL     ACCESS:   17114707  HIT:   12197131  MISS:    4917576  HIT %:     71.267  MISS %:     28.733   MPKI: 24.3521
L2C LOAD      ACCESS:     514977  HIT:     355668  MISS:     159309  HIT %:    69.0648  MISS %:    30.9352   MPKI: 0.788905
L2C RFO       ACCESS:    1389187  HIT:          0  MISS:    1389187  HIT %:          0  MISS %:        100   MPKI: 6.87932
L2C PREFETCH  ACCESS:   12799695  HIT:    9693373  MISS:    3106322  HIT %:    75.7313  MISS %:    24.2687   MPKI: 15.3826
L2C WRITEBACK ACCESS:    1389127  HIT:    1147095  MISS:     242032  HIT %:    82.5767  MISS %:    17.4233   MPKI: 1.19855
PSCL5 TOTAL     ACCESS:    1008787  HIT:    1008787  MISS:          0  HIT %:        100  MISS %:          0   MPKI: 0
PSCL5 LOAD      ACCESS:          0  HIT:          0  MISS:          0  HIT %:       -nan  MISS %:       -nan   MPKI: 0
PSCL5 RFO       ACCESS:          0  HIT:          0  MISS:          0  HIT %:       -nan  MISS %:       -nan   MPKI: 0
PSCL5 PREFETCH  ACCESS:          0  HIT:          0  MISS:          0  HIT %:       -nan  MISS %:       -nan   MPKI: 0
PSCL5 WRITEBACK ACCESS:          0  HIT:          0  MISS:          0  HIT %:       -nan  MISS %:       -nan   MPKI: 0
PSCL4 TOTAL     ACCESS:    1008787  HIT:    1008787  MISS:          0  HIT %:        100  MISS %:          0   MPKI: 0
PSCL4 LOAD      ACCESS:          0  HIT:          0  MISS:          0  HIT %:       -nan  MISS %:       -nan   MPKI: 0
PSCL4 RFO       ACCESS:          0  HIT:          0  MISS:          0  HIT %:       -nan  MISS %:       -nan   MPKI: 0
PSCL4 PREFETCH  ACCESS:          0  HIT:          0  MISS:          0  HIT %:       -nan  MISS %:       -nan   MPKI: 0
PSCL4 WRITEBACK ACCESS:          0  HIT:          0  MISS:          0  HIT %:       -nan  MISS %:       -nan   MPKI: 0
PSCL3 TOTAL     ACCESS:     973788  HIT:     973781  MISS:          7  HIT %:    99.9993  MISS %: 0.000718842   MPKI: 3.46643e-05
PSCL3 LOAD      ACCESS:          0  HIT:          0  MISS:          0  HIT %:       -nan  MISS %:       -nan   MPKI: 0
PSCL3 RFO       ACCESS:          0  HIT:          0  MISS:          0  HIT %:       -nan  MISS %:       -nan   MPKI: 0
PSCL3 PREFETCH  ACCESS:          0  HIT:          0  MISS:          0  HIT %:       -nan  MISS %:       -nan   MPKI: 0
PSCL3 WRITEBACK ACCESS:          0  HIT:          0  MISS:          0  HIT %:       -nan  MISS %:       -nan   MPKI: 0
PSCL2 TOTAL     ACCESS:     985310  HIT:     985015  MISS:        295  HIT %:    99.9701  MISS %:  0.0299398   MPKI: 0.00146085
PSCL2 LOAD      ACCESS:          0  HIT:          0  MISS:          0  HIT %:       -nan  MISS %:       -nan   MPKI: 0
PSCL2 RFO       ACCESS:          0  HIT:          0  MISS:          0  HIT %:       -nan  MISS %:       -nan   MPKI: 0
PSCL2 PREFETCH  ACCESS:          0  HIT:          0  MISS:          0  HIT %:       -nan  MISS %:       -nan   MPKI: 0
PSCL2 WRITEBACK ACCESS:          0  HIT:          0  MISS:          0  HIT %:       -nan  MISS %:       -nan   MPKI: 0
LLC TOTAL     ACCESS:    6061712  HIT:    1425555  MISS:    4636157  HIT %:    23.5174  MISS %:    76.4826   MPKI: 22.9585
LLC LOAD      ACCESS:      83044  HIT:       2987  MISS:      80057  HIT %:    3.59689  MISS %:    96.4031   MPKI: 0.396446
LLC RFO       ACCESS:    1389187  HIT:          0  MISS:    1389187  HIT %:          0  MISS %:        100   MPKI: 6.87932
LLC PREFETCH  ACCESS:    3182587  HIT:      80723  MISS:    3101864  HIT %:     2.5364  MISS %:    97.4636   MPKI: 15.3606
LLC WRITEBACK ACCESS:    1386168  HIT:    1341303  MISS:      44865  HIT %:    96.7634  MISS %:    3.23662   MPKI: 0.222173

RAW hits: 15
Loads Generated: 74560687
Loads sent to L1D: 74560673
Stores Generated: 11041356
Stores sent to L1D: 11041357

Region of Interest Statistics

CPU 0 cumulative IPC: 0.455946 instructions: 200000001 cycles: 438648736
ITLB TOTAL     ACCESS:   31586927  HIT:   31586926  MISS:          1  HIT %:        100  MISS %: 3.16587e-06   MPKI: 5e-06
ITLB LOAD TRANSLATION ACCESS:   31586927  HIT:   31586926  MISS:          1  HIT %:        100  MISS %: 3.16587e-06   MPKI: 5e-06
ITLB PREFETCH  REQUESTED:          0  ISSUED:          0  USEFUL:          0  USELESS:          0
ITLB USEFUL LOAD PREFETCHES:          0 PREFETCH ISSUED TO LOWER LEVEL:          0  ACCURACY: -nan
ITLB TIMELY PREFETCHES:          0 LATE PREFETCHES: 0 DROPPED PREFETCHES: 0
ITLB PREFETCHES SAME FILL-ORIGIN LEVEL: 0 DIFFERENT FILL-ORIGIN LEVEL: 0
ITLB AVERAGE MISS LATENCY: 1590 cycles
ITLB RQ	ACCESS:   35949021	FORWARD:          0	MERGED:    4231225	TO_CACHE:   31717796

DTLB TOTAL     ACCESS:   48910839  HIT:   48808608  MISS:     102231  HIT %:     99.791  MISS %:   0.209015   MPKI: 0.511155
DTLB LOAD TRANSLATION ACCESS:   48910839  HIT:   48808608  MISS:     102231  HIT %:     99.791  MISS %:   0.209015   MPKI: 0.511155
DTLB PREFETCH  REQUESTED:          0  ISSUED:          0  USEFUL:          0  USELESS:          0
DTLB USEFUL LOAD PREFETCHES:          0 PREFETCH ISSUED TO LOWER LEVEL:          0  ACCURACY: -nan
DTLB TIMELY PREFETCHES:          0 LATE PREFETCHES: 0 DROPPED PREFETCHES: 0
DTLB PREFETCHES SAME FILL-ORIGIN LEVEL: 0 DIFFERENT FILL-ORIGIN LEVEL: 0
DTLB AVERAGE MISS LATENCY: 502.745 cycles
DTLB RQ	ACCESS:   54455591	FORWARD:          0	MERGED:    5133186	TO_CACHE:   49322405

STLB TOTAL     ACCESS:   13751327  HIT:   13654954  MISS:      96373  HIT %:    99.2992  MISS %:   0.700827   MPKI: 0.481865
STLB LOAD TRANSLATION ACCESS:     102232  HIT:      36574  MISS:      65658  HIT %:    35.7755  MISS %:    64.2245   MPKI: 0.32829
STLB TRANSLATION FROM L1D PREFETCHER ACCESS:   13649095  HIT:   13618380  MISS:      30715  HIT %:     99.775  MISS %:   0.225033   MPKI: 0.153575
STLB PREFETCH  REQUESTED:          0  ISSUED:          0  USEFUL:      30715  USELESS:          0
STLB USEFUL LOAD PREFETCHES:      30715 PREFETCH ISSUED TO LOWER LEVEL:          0  ACCURACY: inf
STLB TIMELY PREFETCHES:      30715 LATE PREFETCHES: 5556 DROPPED PREFETCHES: 952316
STLB PREFETCHES SAME FILL-ORIGIN LEVEL: 0 DIFFERENT FILL-ORIGIN LEVEL: 0
STLB AVERAGE MISS LATENCY: 653.168 cycles
STLB RQ	ACCESS:   60989391	FORWARD:          0	MERGED:   46174099	TO_CACHE:   14815292

STLB Hit, L1D data hit: 0
STLB Hit, L2C data hit: 0
STLB Hit, LLC data hit: 0
STLB Hit, LLC data miss: 0
STLB STLB hints to L2: 0
L1D TOTAL     ACCESS:   81088204  HIT:   76270502  MISS:    4817702  HIT %:    94.0587  MISS %:    5.94131   MPKI: 24.0885
L1D LOAD      ACCESS:   42812841  HIT:   42061494  MISS:     751347  HIT %:     98.245  MISS %:    1.75496   MPKI: 3.75673
L1D RFO       ACCESS:    1779444  HIT:     430894  MISS:    1348550  HIT %:    24.2151  MISS %:    75.7849   MPKI: 6.74275
L1D PREFETCH  ACCESS:   36495919  HIT:   33778114  MISS:    2717805  HIT %:    92.5531  MISS %:    7.44687   MPKI: 13.589
L1D PREFETCH  REQUESTED:  416292741  ISSUED:  152999171  USEFUL:    2606664  USELESS:     120261
L1D USEFUL LOAD PREFETCHES:    2606664 PREFETCH ISSUED TO LOWER LEVEL:   37009434  ACCURACY: 7.04324
L1D TIMELY PREFETCHES:    2606664 LATE PREFETCHES: 237957 DROPPED PREFETCHES: 1860691
L1D PREFETCHES SAME FILL-ORIGIN LEVEL: 3929199 DIFFERENT FILL-ORIGIN LEVEL: 33080235
L1D AVERAGE MISS LATENCY: 851.206 cycles
L1D RQ	ACCESS:   74158717	FORWARD:          0	MERGED:   30544683	TO_CACHE:   43614034
L1D WQ	ACCESS:   10841558	FORWARD:        839	MERGED:          1	TO_CACHE:   10841557
L1D PQ	ACCESS:   92112726	FORWARD:          0	MERGED:   31225442	TO_CACHE:   60886445

L1D UNIQUE REGIONS ACCESSED: 0
L1D REGIONS CONFLICTS: 0
L1D Cross Page Prefetch Requests: 14489183
L1D Same Page Prefetch Requests: 103754808
L1D ROI Sum of L1D PQ occupancy: 2617480826
L1D PREFETCHES PUSHED FROM L2C: 0
L1I TOTAL     ACCESS:   35818000  HIT:   35817950  MISS:         50  HIT %:    99.9999  MISS %: 0.000139595   MPKI: 0.00025
L1I LOAD      ACCESS:   35818000  HIT:   35817950  MISS:         50  HIT %:    99.9999  MISS %: 0.000139595   MPKI: 0.00025
L1I PREFETCH  REQUESTED:          0  ISSUED:          0  USEFUL:          0  USELESS:          0
L1I USEFUL LOAD PREFETCHES:          0 PREFETCH ISSUED TO LOWER LEVEL:          0  ACCURACY: -nan
L1I TIMELY PREFETCHES:          0 LATE PREFETCHES: 0 DROPPED PREFETCHES: 0
L1I PREFETCHES SAME FILL-ORIGIN LEVEL: 0 DIFFERENT FILL-ORIGIN LEVEL: 0
L1I AVERAGE MISS LATENCY: 1348.02 cycles
L1I RQ	ACCESS:   56531293	FORWARD:          0	MERGED:   20582272	TO_CACHE:   35949021

BTB TOTAL     ACCESS:   10637294  HIT:   10637274  MISS:         20  HIT %:    99.9998  MISS %: 0.000188018   MPKI: 0.0001
BTB BRANCH_DIRECT_JUMP	ACCESS:      26624  HIT:      26622  MISS:          2
BTB BRANCH_INDIRECT	ACCESS:          0  HIT:          0  MISS:          0
BTB BRANCH_CONDITIONAL	ACCESS:   10610670  HIT:   10610652  MISS:         18
BTB BRANCH_DIRECT_CALL	ACCESS:          0  HIT:          0  MISS:          0
BTB BRANCH_INDIRECT_CALL	ACCESS:          0  HIT:          0  MISS:          0
BTB BRANCH_RETURN	ACCESS:          0  HIT:          0  MISS:          0
BTB BRANCH_OTHER ACCESS:          0  HIT:          0  MISS:          0

L2C TOTAL     ACCESS:   15721189  HIT:   10887525  MISS:    4833664  HIT %:    69.2538  MISS %:    30.7462   MPKI: 24.1683
L2C LOAD      ACCESS:     516069  HIT:     363769  MISS:     152300  HIT %:    70.4884  MISS %:    29.5116   MPKI: 0.7615
L2C DATA LOAD MPKI: 0.76125
L2C INSTRUCTION LOAD MPKI: 0.00025
L2C RFO       ACCESS:    1348550  HIT:          0  MISS:    1348550  HIT %:          0  MISS %:        100   MPKI: 6.74275
L2C PREFETCH  ACCESS:   11443144  HIT:    8375414  MISS:    3067730  HIT %:    73.1915  MISS %:    26.8085   MPKI: 15.3386
L2C DATA PREFETCH MPKI: 15.3386
L2C INSTRUCTION PREFETCH MPKI: 0
L2C WRITEBACK ACCESS:    1348485  HIT:    1103666  MISS:     244819  HIT %:    81.8449  MISS %:    18.1551   MPKI: 1.22409
L2C LOAD TRANSLATION ACCESS:      65569  HIT:      54148  MISS:      11421  HIT %:    82.5817  MISS %:    17.4183   MPKI: 0.057105
L2C TRANSLATION FROM L1D PREFETCHER ACCESS:     999372  HIT:     990528  MISS:       8844  HIT %:     99.115  MISS %:   0.884956   MPKI: 0.04422
L2C PREFETCH  REQUESTED:          0  ISSUED:          0  USEFUL:     362827  USELESS:    2732474
L2C USEFUL LOAD PREFETCHES:     362827 PREFETCH ISSUED TO LOWER LEVEL:    3156152  ACCURACY: 11.4959
L2C TIMELY PREFETCHES:     362827 LATE PREFETCHES: 73615 DROPPED PREFETCHES: 0
L2C PREFETCHES SAME FILL-ORIGIN LEVEL: 2401967 DIFFERENT FILL-ORIGIN LEVEL: 0
L2C AVERAGE MISS LATENCY: 1624.85 cycles
L2C RQ	ACCESS:    2951877	FORWARD:          0	MERGED:          0	TO_CACHE:    2951872
L2C WQ	ACCESS:    1363905	FORWARD:          5	MERGED:          0	TO_CACHE:    1363905
L2C PQ	ACCESS:   18969072	FORWARD:          0	MERGED:     467206	TO_CACHE:   18501866

L2C Instructions Evicting Data 50
L2C Translations Evicting Data 20268
L2C Data Evicting Data 4581485
L2C Instructions Evicting Instructions 0
L2C Translations Evicting Instructions 1
L2C Data Evicting Instructions 44
L2C Instructions Evicting Translations 0
L2C Translations Evicting Translations 150
L2C Data Evicting Translations 19547
L2C Dense regions hint from L2: 0
PSCL5 TOTAL     ACCESS:    1053017  HIT:    1053017  MISS:          0  HIT %:        100  MISS %:          0   MPKI: 0
PSCL5 LOAD TRANSLATION ACCESS:      65467  HIT:      65467  MISS:          0  HIT %:        100  MISS %:          0   MPKI: 0
PSCL5 TRANSLATION FROM L1D PREFETCHER ACCESS:     987550  HIT:     987550  MISS:          0  HIT %:        100  MISS %:          0   MPKI: 0
PSCL5 PREFETCH  REQUESTED:          0  ISSUED:          0  USEFUL:          0  USELESS:          0
PSCL5 USEFUL LOAD PREFETCHES:          0 PREFETCH ISSUED TO LOWER LEVEL:          0  ACCURACY: -nan
PSCL5 TIMELY PREFETCHES:          0 LATE PREFETCHES: 0 DROPPED PREFETCHES: 0
PSCL5 PREFETCHES SAME FILL-ORIGIN LEVEL: 0 DIFFERENT FILL-ORIGIN LEVEL: 0

PSCL4 TOTAL     ACCESS:    1053017  HIT:    1053017  MISS:          0  HIT %:        100  MISS %:          0   MPKI: 0
PSCL4 LOAD TRANSLATION ACCESS:      65467  HIT:      65467  MISS:          0  HIT %:        100  MISS %:          0   MPKI: 0
PSCL4 TRANSLATION FROM L1D PREFETCHER ACCESS:     987550  HIT:     987550  MISS:          0  HIT %:        100  MISS %:          0   MPKI: 0
PSCL4 PREFETCH  REQUESTED:          0  ISSUED:          0  USEFUL:          0  USELESS:          0
PSCL4 USEFUL LOAD PREFETCHES:          0 PREFETCH ISSUED TO LOWER LEVEL:          0  ACCURACY: -nan
PSCL4 TIMELY PREFETCHES:          0 LATE PREFETCHES: 0 DROPPED PREFETCHES: 0
PSCL4 PREFETCHES SAME FILL-ORIGIN LEVEL: 0 DIFFERENT FILL-ORIGIN LEVEL: 0

PSCL3 TOTAL     ACCESS:    1019002  HIT:    1018995  MISS:          7  HIT %:    99.9993  MISS %: 0.000686947   MPKI: 3.5e-05
PSCL3 LOAD TRANSLATION ACCESS:      65137  HIT:      65130  MISS:          7  HIT %:    99.9893  MISS %:  0.0107466   MPKI: 3.5e-05
PSCL3 TRANSLATION FROM L1D PREFETCHER ACCESS:     953865  HIT:     953865  MISS:          0  HIT %:        100  MISS %:          0   MPKI: 0
PSCL3 PREFETCH  REQUESTED:          0  ISSUED:          0  USEFUL:          0  USELESS:          0
PSCL3 USEFUL LOAD PREFETCHES:          0 PREFETCH ISSUED TO LOWER LEVEL:          0  ACCURACY: -nan
PSCL3 TIMELY PREFETCHES:          0 LATE PREFETCHES: 0 DROPPED PREFETCHES: 0
PSCL3 PREFETCHES SAME FILL-ORIGIN LEVEL: 0 DIFFERENT FILL-ORIGIN LEVEL: 0

PSCL2 TOTAL     ACCESS:    1031562  HIT:    1031275  MISS:        287  HIT %:    99.9722  MISS %:  0.0278219   MPKI: 0.001435
PSCL2 LOAD TRANSLATION ACCESS:      65506  HIT:      65219  MISS:        287  HIT %:    99.5619  MISS %:   0.438128   MPKI: 0.001435
PSCL2 TRANSLATION FROM L1D PREFETCHER ACCESS:     966056  HIT:     966056  MISS:          0  HIT %:        100  MISS %:          0   MPKI: 0
PSCL2 PREFETCH  REQUESTED:          0  ISSUED:          0  USEFUL:          0  USELESS:          0
PSCL2 USEFUL LOAD PREFETCHES:          0 PREFETCH ISSUED TO LOWER LEVEL:          0  ACCURACY: -nan
PSCL2 TIMELY PREFETCHES:          0 LATE PREFETCHES: 0 DROPPED PREFETCHES: 0
PSCL2 PREFETCHES SAME FILL-ORIGIN LEVEL: 0 DIFFERENT FILL-ORIGIN LEVEL: 0

LLC TOTAL     ACCESS:    5934885  HIT:    1206114  MISS:    4728771  HIT %:    20.3224  MISS %:    79.6776   MPKI: 23.6439
LLC LOAD      ACCESS:      80009  HIT:       2446  MISS:      77563  HIT %:    3.05716  MISS %:    96.9428   MPKI: 0.387815
LLC RFO       ACCESS:    1348550  HIT:          0  MISS:    1348550  HIT %:          0  MISS %:        100   MPKI: 6.74275
LLC PREFETCH  ACCESS:    3140021  HIT:      71622  MISS:    3068399  HIT %:    2.28094  MISS %:    97.7191   MPKI: 15.342
LLC WRITEBACK ACCESS:    1346040  HIT:    1131656  MISS:     214384  HIT %:     84.073  MISS %:     15.927   MPKI: 1.07192
LLC LOAD TRANSLATION ACCESS:      11421  HIT:        118  MISS:      11303  HIT %:    1.03318  MISS %:    98.9668   MPKI: 0.056515
LLC TRANSLATION FROM L1D PREFETCHER ACCESS:       8844  HIT:        272  MISS:       8572  HIT %:    3.07553  MISS %:    96.9245   MPKI: 0.04286
LLC PREFETCH  REQUESTED:          0  ISSUED:          0  USEFUL:      10237  USELESS:   12403523
LLC USEFUL LOAD PREFETCHES:      10237 PREFETCH ISSUED TO LOWER LEVEL: 1034148883  ACCURACY: 0.000989896
LLC TIMELY PREFETCHES:      10237 LATE PREFETCHES: 0 DROPPED PREFETCHES: 0
LLC PREFETCHES SAME FILL-ORIGIN LEVEL: 0 DIFFERENT FILL-ORIGIN LEVEL: 0
LLC AVERAGE MISS LATENCY: 5543.82 cycles
LLC RQ	ACCESS:    5882502	FORWARD:          0	MERGED:          0	TO_CACHE:    5882502
LLC WQ	ACCESS:    5460781	FORWARD:          0	MERGED:          0	TO_CACHE:    5460781
LLC PQ	ACCESS:   12631870	FORWARD:          0	MERGED:          0	TO_CACHE:   12631870

LLC Dense regions hint to LLC: 0

RAW hits: 15
Loads Generated: 73913363
Loads sent to L1D: 73913348
Stores Generated: 10719476
Stores sent to L1D: 10719472
Major fault: 0 Minor fault: 52347
Allocated PAGES: 209906

CPU 1 cumulative IPC: 0.452343 instructions: 200000000 cycles: 442142441
ITLB TOTAL     ACCESS:   31587337  HIT:   31587336  MISS:          1  HIT %:        100  MISS %: 3.16583e-06   MPKI: 5e-06
ITLB LOAD TRANSLATION ACCESS:   31587337  HIT:   31587336  MISS:          1  HIT %:        100  MISS %: 3.16583e-06   MPKI: 5e-06
ITLB PREFETCH  REQUESTED:          0  ISSUED:          0  USEFUL:          0  USELESS:          0
ITLB USEFUL LOAD PREFETCHES:          0 PREFETCH ISSUED TO LOWER LEVEL:          0  ACCURACY: -nan
ITLB TIMELY PREFETCHES:          0 LATE PREFETCHES: 0 DROPPED PREFETCHES: 0
ITLB PREFETCHES SAME FILL-ORIGIN LEVEL: 0 DIFFERENT FILL-ORIGIN LEVEL: 0
ITLB AVERAGE MISS LATENCY: 2355 cycles
ITLB RQ	ACCESS:   35815574	FORWARD:          0	MERGED:    4228238	TO_CACHE:   31587336

DTLB TOTAL     ACCESS:   48907068  HIT:   48804827  MISS:     102241  HIT %:    99.7909  MISS %:   0.209052   MPKI: 0.511205
DTLB LOAD TRANSLATION ACCESS:   48907068  HIT:   48804827  MISS:     102241  HIT %:    99.7909  MISS %:   0.209052   MPKI: 0.511205
DTLB PREFETCH  REQUESTED:          0  ISSUED:          0  USEFUL:          0  USELESS:          0
DTLB USEFUL LOAD PREFETCHES:          0 PREFETCH ISSUED TO LOWER LEVEL:          0  ACCURACY: -nan
DTLB TIMELY PREFETCHES:          0 LATE PREFETCHES: 0 DROPPED PREFETCHES: 0
DTLB PREFETCHES SAME FILL-ORIGIN LEVEL: 0 DIFFERENT FILL-ORIGIN LEVEL: 0
DTLB AVERAGE MISS LATENCY: 513.867 cycles
DTLB RQ	ACCESS:   54222765	FORWARD:          0	MERGED:    5124871	TO_CACHE:   49097894

STLB TOTAL     ACCESS:   13591403  HIT:   13495010  MISS:      96393  HIT %:    99.2908  MISS %:    0.70922   MPKI: 0.481965
STLB LOAD TRANSLATION ACCESS:     102242  HIT:      36016  MISS:      66226  HIT %:    35.2262  MISS %:    64.7738   MPKI: 0.33113
STLB TRANSLATION FROM L1D PREFETCHER ACCESS:   13489161  HIT:   13458994  MISS:      30167  HIT %:    99.7764  MISS %:   0.223639   MPKI: 0.150835
STLB PREFETCH  REQUESTED:          0  ISSUED:          0  USEFUL:      30166  USELESS:          1
STLB USEFUL LOAD PREFETCHES:      30166 PREFETCH ISSUED TO LOWER LEVEL:          0  ACCURACY: inf
STLB TIMELY PREFETCHES:      30166 LATE PREFETCHES: 5404 DROPPED PREFETCHES: 1045265
STLB PREFETCHES SAME FILL-ORIGIN LEVEL: 0 DIFFERENT FILL-ORIGIN LEVEL: 0
STLB AVERAGE MISS LATENCY: 655.419 cycles
STLB RQ	ACCESS:   60690061	FORWARD:          0	MERGED:   45980064	TO_CACHE:   14709997

STLB Hit, L1D data hit: 0
STLB Hit, L2C data hit: 0
STLB Hit, LLC data hit: 0
STLB Hit, LLC data miss: 0
STLB STLB hints to L2: 0
L1D TOTAL     ACCESS:   79684065  HIT:   74867341  MISS:    4816724  HIT %:    93.9552  MISS %:    6.04478   MPKI: 24.0836
L1D LOAD      ACCESS:   42804740  HIT:   42059902  MISS:     744838  HIT %:    98.2599  MISS %:    1.74008   MPKI: 3.72419
L1D RFO       ACCESS:    1788791  HIT:     440247  MISS:    1348544  HIT %:    24.6114  MISS %:    75.3886   MPKI: 6.74272
L1D PREFETCH  ACCESS:   35090534  HIT:   32367192  MISS:    2723342  HIT %:    92.2391  MISS %:     7.7609   MPKI: 13.6167
L1D PREFETCH  REQUESTED:  416929913  ISSUED:  151779986  USEFUL:    2605049  USELESS:     118577
L1D USEFUL LOAD PREFETCHES:    2605049 PREFETCH ISSUED TO LOWER LEVEL:   37005195  ACCURACY: 7.03968
L1D TIMELY PREFETCHES:    2605049 LATE PREFETCHES: 237884 DROPPED PREFETCHES: 1942370
L1D PREFETCHES SAME FILL-ORIGIN LEVEL: 3799675 DIFFERENT FILL-ORIGIN LEVEL: 33205520
L1D AVERAGE MISS LATENCY: 846.24 cycles
L1D RQ	ACCESS:   73913321	FORWARD:          0	MERGED:   30409934	TO_CACHE:   43503387
L1D WQ	ACCESS:   10719378	FORWARD:        816	MERGED:          0	TO_CACHE:   10719378
L1D PQ	ACCESS:   91192167	FORWARD:          0	MERGED:   30603532	TO_CACHE:   60587819

L1D UNIQUE REGIONS ACCESSED: 0
L1D REGIONS CONFLICTS: 0
L1D Cross Page Prefetch Requests: 14246942
L1D Same Page Prefetch Requests: 103260539
L1D ROI Sum of L1D PQ occupancy: 2590125049
L1D PREFETCHES PUSHED FROM L2C: 0
L1I TOTAL     ACCESS:   35815547  HIT:   35815497  MISS:         50  HIT %:    99.9999  MISS %: 0.000139604   MPKI: 0.00025
L1I LOAD      ACCESS:   35815547  HIT:   35815497  MISS:         50  HIT %:    99.9999  MISS %: 0.000139604   MPKI: 0.00025
L1I PREFETCH  REQUESTED:          0  ISSUED:          0  USEFUL:          0  USELESS:          0
L1I USEFUL LOAD PREFETCHES:          0 PREFETCH ISSUED TO LOWER LEVEL:          0  ACCURACY: -nan
L1I TIMELY PREFETCHES:          0 LATE PREFETCHES: 0 DROPPED PREFETCHES: 0
L1I PREFETCHES SAME FILL-ORIGIN LEVEL: 0 DIFFERENT FILL-ORIGIN LEVEL: 0
L1I AVERAGE MISS LATENCY: 1264.46 cycles
L1I RQ	ACCESS:   56348840	FORWARD:          0	MERGED:   20533266	TO_CACHE:   35815574

BTB TOTAL     ACCESS:   10637254  HIT:   10637234  MISS:         20  HIT %:    99.9998  MISS %: 0.000188018   MPKI: 0.0001
BTB BRANCH_DIRECT_JUMP	ACCESS:      26624  HIT:      26622  MISS:          2
BTB BRANCH_INDIRECT	ACCESS:          0  HIT:          0  MISS:          0
BTB BRANCH_CONDITIONAL	ACCESS:   10610630  HIT:   10610612  MISS:         18
BTB BRANCH_DIRECT_CALL	ACCESS:          0  HIT:          0  MISS:          0
BTB BRANCH_INDIRECT_CALL	ACCESS:          0  HIT:          0  MISS:          0
BTB BRANCH_RETURN	ACCESS:          0  HIT:          0  MISS:          0
BTB BRANCH_OTHER ACCESS:          0  HIT:          0  MISS:          0

L2C TOTAL     ACCESS:   17162082  HIT:   12352337  MISS:    4809745  HIT %:    71.9746  MISS %:    28.0254   MPKI: 24.0487
L2C LOAD      ACCESS:     507002  HIT:     354296  MISS:     152706  HIT %:    69.8806  MISS %:    30.1194   MPKI: 0.76353
L2C DATA LOAD MPKI: 0.76328
L2C INSTRUCTION LOAD MPKI: 0.00025
L2C RFO       ACCESS:    1348544  HIT:          0  MISS:    1348544  HIT %:          0  MISS %:        100   MPKI: 6.74272
L2C PREFETCH  ACCESS:   12797152  HIT:    9742932  MISS:    3054220  HIT %:    76.1336  MISS %:    23.8664   MPKI: 15.2711
L2C DATA PREFETCH MPKI: 15.2711
L2C INSTRUCTION PREFETCH MPKI: 0
L2C WRITEBACK ACCESS:    1348460  HIT:    1114553  MISS:     233907  HIT %:    82.6538  MISS %:    17.3462   MPKI: 1.16953
L2C LOAD TRANSLATION ACCESS:      66122  HIT:      54455  MISS:      11667  HIT %:    82.3553  MISS %:    17.6447   MPKI: 0.058335
L2C TRANSLATION FROM L1D PREFETCHER ACCESS:    1094802  HIT:    1086101  MISS:       8701  HIT %:    99.2052  MISS %:   0.794756   MPKI: 0.043505
L2C PREFETCH  REQUESTED:          0  ISSUED:          0  USEFUL:     349385  USELESS:    2717572
L2C USEFUL LOAD PREFETCHES:     349385 PREFETCH ISSUED TO LOWER LEVEL:    3124991  ACCURACY: 11.1804
L2C TIMELY PREFETCHES:     349385 LATE PREFETCHES: 70761 DROPPED PREFETCHES: 0
L2C PREFETCHES SAME FILL-ORIGIN LEVEL: 2360640 DIFFERENT FILL-ORIGIN LEVEL: 0
L2C AVERAGE MISS LATENCY: 1618.53 cycles
L2C RQ	ACCESS:    3016484	FORWARD:          0	MERGED:          0	TO_CACHE:    3016482
L2C WQ	ACCESS:    1348460	FORWARD:          2	MERGED:          0	TO_CACHE:    1348460
L2C PQ	ACCESS:   20137660	FORWARD:          0	MERGED:     440680	TO_CACHE:   19696980

L2C Instructions Evicting Data 50
L2C Translations Evicting Data 20281
L2C Data Evicting Data 4535739
L2C Instructions Evicting Instructions 0
L2C Translations Evicting Instructions 0
L2C Data Evicting Instructions 49
L2C Instructions Evicting Translations 0
L2C Translations Evicting Translations 87
L2C Data Evicting Translations 19632
L2C Dense regions hint from L2: 0
PSCL5 TOTAL     ACCESS:    1146855  HIT:    1146855  MISS:          0  HIT %:        100  MISS %:          0   MPKI: 0
PSCL5 LOAD TRANSLATION ACCESS:      66019  HIT:      66019  MISS:          0  HIT %:        100  MISS %:          0   MPKI: 0
PSCL5 TRANSLATION FROM L1D PREFETCHER ACCESS:    1080836  HIT:    1080836  MISS:          0  HIT %:        100  MISS %:          0   MPKI: 0
PSCL5 PREFETCH  REQUESTED:          0  ISSUED:          0  USEFUL:          0  USELESS:          0
PSCL5 USEFUL LOAD PREFETCHES:          0 PREFETCH ISSUED TO LOWER LEVEL:          0  ACCURACY: -nan
PSCL5 TIMELY PREFETCHES:          0 LATE PREFETCHES: 0 DROPPED PREFETCHES: 0
PSCL5 PREFETCHES SAME FILL-ORIGIN LEVEL: 0 DIFFERENT FILL-ORIGIN LEVEL: 0

PSCL4 TOTAL     ACCESS:    1146855  HIT:    1146855  MISS:          0  HIT %:        100  MISS %:          0   MPKI: 0
PSCL4 LOAD TRANSLATION ACCESS:      66019  HIT:      66019  MISS:          0  HIT %:        100  MISS %:          0   MPKI: 0
PSCL4 TRANSLATION FROM L1D PREFETCHER ACCESS:    1080836  HIT:    1080836  MISS:          0  HIT %:        100  MISS %:          0   MPKI: 0
PSCL4 PREFETCH  REQUESTED:          0  ISSUED:          0  USEFUL:          0  USELESS:          0
PSCL4 USEFUL LOAD PREFETCHES:          0 PREFETCH ISSUED TO LOWER LEVEL:          0  ACCURACY: -nan
PSCL4 TIMELY PREFETCHES:          0 LATE PREFETCHES: 0 DROPPED PREFETCHES: 0
PSCL4 PREFETCHES SAME FILL-ORIGIN LEVEL: 0 DIFFERENT FILL-ORIGIN LEVEL: 0

PSCL3 TOTAL     ACCESS:    1113644  HIT:    1113637  MISS:          7  HIT %:    99.9994  MISS %: 0.000628567   MPKI: 3.5e-05
PSCL3 LOAD TRANSLATION ACCESS:      65687  HIT:      65680  MISS:          7  HIT %:    99.9893  MISS %:  0.0106566   MPKI: 3.5e-05
PSCL3 TRANSLATION FROM L1D PREFETCHER ACCESS:    1047957  HIT:    1047957  MISS:          0  HIT %:        100  MISS %:          0   MPKI: 0
PSCL3 PREFETCH  REQUESTED:          0  ISSUED:          0  USEFUL:          0  USELESS:          0
PSCL3 USEFUL LOAD PREFETCHES:          0 PREFETCH ISSUED TO LOWER LEVEL:          0  ACCURACY: -nan
PSCL3 TIMELY PREFETCHES:          0 LATE PREFETCHES: 0 DROPPED PREFETCHES: 0
PSCL3 PREFETCHES SAME FILL-ORIGIN LEVEL: 0 DIFFERENT FILL-ORIGIN LEVEL: 0

PSCL2 TOTAL     ACCESS:    1112614  HIT:    1112327  MISS:        287  HIT %:    99.9742  MISS %:  0.0257951   MPKI: 0.001435
PSCL2 LOAD TRANSLATION ACCESS:      66058  HIT:      65771  MISS:        287  HIT %:    99.5655  MISS %:   0.434467   MPKI: 0.001435
PSCL2 TRANSLATION FROM L1D PREFETCHER ACCESS:    1046556  HIT:    1046556  MISS:          0  HIT %:        100  MISS %:          0   MPKI: 0
PSCL2 PREFETCH  REQUESTED:          0  ISSUED:          0  USEFUL:          0  USELESS:          0
PSCL2 USEFUL LOAD PREFETCHES:          0 PREFETCH ISSUED TO LOWER LEVEL:          0  ACCURACY: -nan
PSCL2 TIMELY PREFETCHES:          0 LATE PREFETCHES: 0 DROPPED PREFETCHES: 0
PSCL2 PREFETCHES SAME FILL-ORIGIN LEVEL: 0 DIFFERENT FILL-ORIGIN LEVEL: 0

LLC TOTAL     ACCESS:    5921199  HIT:    1368907  MISS:    4552292  HIT %:    23.1187  MISS %:    76.8813   MPKI: 22.7615
LLC LOAD      ACCESS:      81945  HIT:       2624  MISS:      79321  HIT %:    3.20215  MISS %:    96.7979   MPKI: 0.396605
LLC RFO       ACCESS:    1348544  HIT:          0  MISS:    1348544  HIT %:          0  MISS %:        100   MPKI: 6.74272
LLC PREFETCH  ACCESS:    3124981  HIT:      67784  MISS:    3057197  HIT %:     2.1691  MISS %:    97.8309   MPKI: 15.286
LLC WRITEBACK ACCESS:    1345361  HIT:    1297917  MISS:      47444  HIT %:    96.4735  MISS %:    3.52649   MPKI: 0.23722
LLC LOAD TRANSLATION ACCESS:      11667  HIT:        259  MISS:      11408  HIT %:    2.21994  MISS %:    97.7801   MPKI: 0.05704
LLC TRANSLATION FROM L1D PREFETCHER ACCESS:       8701  HIT:        323  MISS:       8378  HIT %:    3.71222  MISS %:    96.2878   MPKI: 0.04189
LLC PREFETCH  REQUESTED:          0  ISSUED:          0  USEFUL:      10237  USELESS:   12403523
LLC USEFUL LOAD PREFETCHES:      10237 PREFETCH ISSUED TO LOWER LEVEL: 1034148883  ACCURACY: 0.000989896
LLC TIMELY PREFETCHES:      10237 LATE PREFETCHES: 0 DROPPED PREFETCHES: 0
LLC PREFETCHES SAME FILL-ORIGIN LEVEL: 0 DIFFERENT FILL-ORIGIN LEVEL: 0
LLC AVERAGE MISS LATENCY: 5758.74 cycles
LLC RQ	ACCESS:    5882502	FORWARD:          0	MERGED:          0	TO_CACHE:    5882502
LLC WQ	ACCESS:    5460781	FORWARD:          0	MERGED:          0	TO_CACHE:    5460781
LLC PQ	ACCESS:   12631870	FORWARD:          0	MERGED:          0	TO_CACHE:   12631870

LLC Dense regions hint to LLC: 0

RAW hits: 15
Loads Generated: 73913336
Loads sent to L1D: 73913321
Stores Generated: 10719378
Stores sent to L1D: 10719378
Major fault: 0 Minor fault: 51871
Allocated PAGES: 209906

CPU 2 cumulative IPC: 0.457338 instructions: 200000001 cycles: 437312857
ITLB TOTAL     ACCESS:   31585524  HIT:   31585523  MISS:          1  HIT %:        100  MISS %: 3.16601e-06   MPKI: 5e-06
ITLB LOAD TRANSLATION ACCESS:   31585524  HIT:   31585523  MISS:          1  HIT %:        100  MISS %: 3.16601e-06   MPKI: 5e-06
ITLB PREFETCH  REQUESTED:          0  ISSUED:          0  USEFUL:          0  USELESS:          0
ITLB USEFUL LOAD PREFETCHES:          0 PREFETCH ISSUED TO LOWER LEVEL:          0  ACCURACY: -nan
ITLB TIMELY PREFETCHES:          0 LATE PREFETCHES: 0 DROPPED PREFETCHES: 0
ITLB PREFETCHES SAME FILL-ORIGIN LEVEL: 0 DIFFERENT FILL-ORIGIN LEVEL: 0
ITLB AVERAGE MISS LATENCY: 1959 cycles
ITLB RQ	ACCESS:   36004583	FORWARD:          0	MERGED:    4231165	TO_CACHE:   31773418

DTLB TOTAL     ACCESS:   48916529  HIT:   48814239  MISS:     102290  HIT %:    99.7909  MISS %:   0.209111   MPKI: 0.51145
DTLB LOAD TRANSLATION ACCESS:   48916529  HIT:   48814239  MISS:     102290  HIT %:    99.7909  MISS %:   0.209111   MPKI: 0.51145
DTLB PREFETCH  REQUESTED:          0  ISSUED:          0  USEFUL:          0  USELESS:          0
DTLB USEFUL LOAD PREFETCHES:          0 PREFETCH ISSUED TO LOWER LEVEL:          0  ACCURACY: -nan
DTLB TIMELY PREFETCHES:          0 LATE PREFETCHES: 0 DROPPED PREFETCHES: 0
DTLB PREFETCHES SAME FILL-ORIGIN LEVEL: 0 DIFFERENT FILL-ORIGIN LEVEL: 0
DTLB AVERAGE MISS LATENCY: 503.12 cycles
DTLB RQ	ACCESS:   54562623	FORWARD:          0	MERGED:    5136636	TO_CACHE:   49425987

STLB TOTAL     ACCESS:   13691487  HIT:   13595097  MISS:      96390  HIT %:     99.296  MISS %:   0.704014   MPKI: 0.48195
STLB LOAD TRANSLATION ACCESS:     102291  HIT:      36591  MISS:      65700  HIT %:    35.7715  MISS %:    64.2285   MPKI: 0.3285
STLB TRANSLATION FROM L1D PREFETCHER ACCESS:   13589196  HIT:   13558506  MISS:      30690  HIT %:    99.7742  MISS %:   0.225841   MPKI: 0.15345
STLB PREFETCH  REQUESTED:          0  ISSUED:          0  USEFUL:      30689  USELESS:          1
STLB USEFUL LOAD PREFETCHES:      30689 PREFETCH ISSUED TO LOWER LEVEL:          0  ACCURACY: inf
STLB TIMELY PREFETCHES:      30689 LATE PREFETCHES: 5588 DROPPED PREFETCHES: 1053535
STLB PREFETCHES SAME FILL-ORIGIN LEVEL: 0 DIFFERENT FILL-ORIGIN LEVEL: 0
STLB AVERAGE MISS LATENCY: 650.047 cycles
STLB RQ	ACCESS:   60711165	FORWARD:          0	MERGED:   45836249	TO_CACHE:   14874916

STLB Hit, L1D data hit: 0
STLB Hit, L2C data hit: 0
STLB Hit, LLC data hit: 0
STLB Hit, LLC data miss: 0
STLB STLB hints to L2: 0
L1D TOTAL     ACCESS:   80556656  HIT:   75739132  MISS:    4817524  HIT %:    94.0197  MISS %:    5.98029   MPKI: 24.0876
L1D LOAD      ACCESS:   42816551  HIT:   42066945  MISS:     749606  HIT %:    98.2493  MISS %:    1.75074   MPKI: 3.74803
L1D RFO       ACCESS:    1782314  HIT:     433772  MISS:    1348542  HIT %:    24.3376  MISS %:    75.6624   MPKI: 6.74271
L1D PREFETCH  ACCESS:   35957791  HIT:   33238415  MISS:    2719376  HIT %:    92.4373  MISS %:    7.56269   MPKI: 13.5969
L1D PREFETCH  REQUESTED:  418264903  ISSUED:  152753954  USEFUL:    2611877  USELESS:     120540
L1D USEFUL LOAD PREFETCHES:    2611877 PREFETCH ISSUED TO LOWER LEVEL:   36701833  ACCURACY: 7.11648
L1D TIMELY PREFETCHES:    2611877 LATE PREFETCHES: 242036 DROPPED PREFETCHES: 1951705
L1D PREFETCHES SAME FILL-ORIGIN LEVEL: 3885619 DIFFERENT FILL-ORIGIN LEVEL: 32816214
L1D AVERAGE MISS LATENCY: 848.391 cycles
L1D RQ	ACCESS:   74266013	FORWARD:          0	MERGED:   30598189	TO_CACHE:   43667824
L1D WQ	ACCESS:   10894799	FORWARD:        869	MERGED:          0	TO_CACHE:   10894799
L1D PQ	ACCESS:   92146111	FORWARD:          0	MERGED:   31537399	TO_CACHE:   60607843

L1D UNIQUE REGIONS ACCESSED: 0
L1D REGIONS CONFLICTS: 0
L1D Cross Page Prefetch Requests: 14648540
L1D Same Page Prefetch Requests: 103671885
L1D ROI Sum of L1D PQ occupancy: 2611403420
L1D PREFETCHES PUSHED FROM L2C: 0
L1I TOTAL     ACCESS:   35816483  HIT:   35816433  MISS:         50  HIT %:    99.9999  MISS %: 0.000139601   MPKI: 0.00025
L1I LOAD      ACCESS:   35816483  HIT:   35816433  MISS:         50  HIT %:    99.9999  MISS %: 0.000139601   MPKI: 0.00025
L1I PREFETCH  REQUESTED:          0  ISSUED:          0  USEFUL:          0  USELESS:          0
L1I USEFUL LOAD PREFETCHES:          0 PREFETCH ISSUED TO LOWER LEVEL:          0  ACCURACY: -nan
L1I TIMELY PREFETCHES:          0 LATE PREFETCHES: 0 DROPPED PREFETCHES: 0
L1I PREFETCHES SAME FILL-ORIGIN LEVEL: 0 DIFFERENT FILL-ORIGIN LEVEL: 0
L1I AVERAGE MISS LATENCY: 1132.3 cycles
L1I RQ	ACCESS:   56616506	FORWARD:          0	MERGED:   20611923	TO_CACHE:   36004583

BTB TOTAL     ACCESS:   10637229  HIT:   10637209  MISS:         20  HIT %:    99.9998  MISS %: 0.000188019   MPKI: 0.0001
BTB BRANCH_DIRECT_JUMP	ACCESS:      26624  HIT:      26622  MISS:          2
BTB BRANCH_INDIRECT	ACCESS:          0  HIT:          0  MISS:          0
BTB BRANCH_CONDITIONAL	ACCESS:   10610605  HIT:   10610587  MISS:         18
BTB BRANCH_DIRECT_CALL	ACCESS:          0  HIT:          0  MISS:          0
BTB BRANCH_INDIRECT_CALL	ACCESS:          0  HIT:          0  MISS:          0
BTB BRANCH_RETURN	ACCESS:          0  HIT:          0  MISS:          0
BTB BRANCH_OTHER ACCESS:          0  HIT:          0  MISS:          0

L2C TOTAL     ACCESS:   16041252  HIT:   11106009  MISS:    4935243  HIT %:    69.2341  MISS %:    30.7659   MPKI: 24.6762
L2C LOAD      ACCESS:     511418  HIT:     359395  MISS:     152023  HIT %:    70.2742  MISS %:    29.7258   MPKI: 0.760115
L2C DATA LOAD MPKI: 0.759865
L2C INSTRUCTION LOAD MPKI: 0.00025
L2C RFO       ACCESS:    1348542  HIT:          0  MISS:    1348542  HIT %:          0  MISS %:        100   MPKI: 6.74271
L2C PREFETCH  ACCESS:   11665320  HIT:    8591891  MISS:    3073429  HIT %:    73.6533  MISS %:    26.3467   MPKI: 15.3671
L2C DATA PREFETCH MPKI: 15.3671
L2C INSTRUCTION PREFETCH MPKI: 0
L2C WRITEBACK ACCESS:    1348460  HIT:    1007613  MISS:     340847  HIT %:    74.7232  MISS %:    25.2768   MPKI: 1.70423
L2C LOAD TRANSLATION ACCESS:      65587  HIT:      54110  MISS:      11477  HIT %:    82.5011  MISS %:    17.4989   MPKI: 0.057385
L2C TRANSLATION FROM L1D PREFETCHER ACCESS:    1101925  HIT:    1093000  MISS:       8925  HIT %:    99.1901  MISS %:   0.809946   MPKI: 0.044625
L2C PREFETCH  REQUESTED:          0  ISSUED:          0  USEFUL:     359167  USELESS:    2748159
L2C USEFUL LOAD PREFETCHES:     359167 PREFETCH ISSUED TO LOWER LEVEL:    3168130  ACCURACY: 11.3369
L2C TIMELY PREFETCHES:     359167 LATE PREFETCHES: 73417 DROPPED PREFETCHES: 0
L2C PREFETCHES SAME FILL-ORIGIN LEVEL: 2408155 DIFFERENT FILL-ORIGIN LEVEL: 0
L2C AVERAGE MISS LATENCY: 1586.59 cycles
L2C RQ	ACCESS:    3059702	FORWARD:          0	MERGED:          0	TO_CACHE:    3059699
L2C WQ	ACCESS:    1370607	FORWARD:          3	MERGED:          0	TO_CACHE:    1370607
L2C PQ	ACCESS:   19120507	FORWARD:          0	MERGED:     454129	TO_CACHE:   18666378

L2C Instructions Evicting Data 50
L2C Translations Evicting Data 20531
L2C Data Evicting Data 4600924
L2C Instructions Evicting Instructions 0
L2C Translations Evicting Instructions 1
L2C Data Evicting Instructions 49
L2C Instructions Evicting Translations 0
L2C Translations Evicting Translations 90
L2C Data Evicting Translations 19736
L2C Dense regions hint from L2: 0
PSCL5 TOTAL     ACCESS:    1153542  HIT:    1153542  MISS:          0  HIT %:        100  MISS %:          0   MPKI: 0
PSCL5 LOAD TRANSLATION ACCESS:      65485  HIT:      65485  MISS:          0  HIT %:        100  MISS %:          0   MPKI: 0
PSCL5 TRANSLATION FROM L1D PREFETCHER ACCESS:    1088057  HIT:    1088057  MISS:          0  HIT %:        100  MISS %:          0   MPKI: 0
PSCL5 PREFETCH  REQUESTED:          0  ISSUED:          0  USEFUL:          0  USELESS:          0
PSCL5 USEFUL LOAD PREFETCHES:          0 PREFETCH ISSUED TO LOWER LEVEL:          0  ACCURACY: -nan
PSCL5 TIMELY PREFETCHES:          0 LATE PREFETCHES: 0 DROPPED PREFETCHES: 0
PSCL5 PREFETCHES SAME FILL-ORIGIN LEVEL: 0 DIFFERENT FILL-ORIGIN LEVEL: 0

PSCL4 TOTAL     ACCESS:    1153542  HIT:    1153542  MISS:          0  HIT %:        100  MISS %:          0   MPKI: 0
PSCL4 LOAD TRANSLATION ACCESS:      65485  HIT:      65485  MISS:          0  HIT %:        100  MISS %:          0   MPKI: 0
PSCL4 TRANSLATION FROM L1D PREFETCHER ACCESS:    1088057  HIT:    1088057  MISS:          0  HIT %:        100  MISS %:          0   MPKI: 0
PSCL4 PREFETCH  REQUESTED:          0  ISSUED:          0  USEFUL:          0  USELESS:          0
PSCL4 USEFUL LOAD PREFETCHES:          0 PREFETCH ISSUED TO LOWER LEVEL:          0  ACCURACY: -nan
PSCL4 TIMELY PREFETCHES:          0 LATE PREFETCHES: 0 DROPPED PREFETCHES: 0
PSCL4 PREFETCHES SAME FILL-ORIGIN LEVEL: 0 DIFFERENT FILL-ORIGIN LEVEL: 0

PSCL3 TOTAL     ACCESS:    1118119  HIT:    1118112  MISS:          7  HIT %:    99.9994  MISS %: 0.000626051   MPKI: 3.5e-05
PSCL3 LOAD TRANSLATION ACCESS:      65154  HIT:      65147  MISS:          7  HIT %:    99.9893  MISS %:  0.0107438   MPKI: 3.5e-05
PSCL3 TRANSLATION FROM L1D PREFETCHER ACCESS:    1052965  HIT:    1052965  MISS:          0  HIT %:        100  MISS %:          0   MPKI: 0
PSCL3 PREFETCH  REQUESTED:          0  ISSUED:          0  USEFUL:          0  USELESS:          0
PSCL3 USEFUL LOAD PREFETCHES:          0 PREFETCH ISSUED TO LOWER LEVEL:          0  ACCURACY: -nan
PSCL3 TIMELY PREFETCHES:          0 LATE PREFETCHES: 0 DROPPED PREFETCHES: 0
PSCL3 PREFETCHES SAME FILL-ORIGIN LEVEL: 0 DIFFERENT FILL-ORIGIN LEVEL: 0

PSCL2 TOTAL     ACCESS:    1119310  HIT:    1119023  MISS:        287  HIT %:    99.9744  MISS %:  0.0256408   MPKI: 0.001435
PSCL2 LOAD TRANSLATION ACCESS:      65524  HIT:      65237  MISS:        287  HIT %:     99.562  MISS %:   0.438007   MPKI: 0.001435
PSCL2 TRANSLATION FROM L1D PREFETCHER ACCESS:    1053786  HIT:    1053786  MISS:          0  HIT %:        100  MISS %:          0   MPKI: 0
PSCL2 PREFETCH  REQUESTED:          0  ISSUED:          0  USEFUL:          0  USELESS:          0
PSCL2 USEFUL LOAD PREFETCHES:          0 PREFETCH ISSUED TO LOWER LEVEL:          0  ACCURACY: -nan
PSCL2 TIMELY PREFETCHES:          0 LATE PREFETCHES: 0 DROPPED PREFETCHES: 0
PSCL2 PREFETCHES SAME FILL-ORIGIN LEVEL: 0 DIFFERENT FILL-ORIGIN LEVEL: 0

LLC TOTAL     ACCESS:    5940438  HIT:    1382445  MISS:    4557993  HIT %:    23.2718  MISS %:    76.7282   MPKI: 22.79
LLC LOAD      ACCESS:      80482  HIT:       2862  MISS:      77620  HIT %:    3.55607  MISS %:    96.4439   MPKI: 0.3881
LLC RFO       ACCESS:    1348542  HIT:          0  MISS:    1348542  HIT %:          0  MISS %:        100   MPKI: 6.74271
LLC PREFETCH  ACCESS:    3144970  HIT:      86735  MISS:    3058235  HIT %:     2.7579  MISS %:    97.2421   MPKI: 15.2912
LLC WRITEBACK ACCESS:    1346042  HIT:    1292234  MISS:      53808  HIT %:    96.0025  MISS %:     3.9975   MPKI: 0.26904
LLC LOAD TRANSLATION ACCESS:      11477  HIT:        256  MISS:      11221  HIT %:    2.23055  MISS %:    97.7695   MPKI: 0.056105
LLC TRANSLATION FROM L1D PREFETCHER ACCESS:       8925  HIT:        358  MISS:       8567  HIT %:     4.0112  MISS %:    95.9888   MPKI: 0.042835
LLC PREFETCH  REQUESTED:          0  ISSUED:          0  USEFUL:      10237  USELESS:   12403523
LLC USEFUL LOAD PREFETCHES:      10237 PREFETCH ISSUED TO LOWER LEVEL: 1034148883  ACCURACY: 0.000989896
LLC TIMELY PREFETCHES:      10237 LATE PREFETCHES: 0 DROPPED PREFETCHES: 0
LLC PREFETCHES SAME FILL-ORIGIN LEVEL: 0 DIFFERENT FILL-ORIGIN LEVEL: 0
LLC AVERAGE MISS LATENCY: 5751.53 cycles
LLC RQ	ACCESS:    5882502	FORWARD:          0	MERGED:          0	TO_CACHE:    5882502
LLC WQ	ACCESS:    5460781	FORWARD:          0	MERGED:          0	TO_CACHE:    5460781
LLC PQ	ACCESS:   12631870	FORWARD:          0	MERGED:          0	TO_CACHE:   12631870

LLC Dense regions hint to LLC: 0

RAW hits: 15
Loads Generated: 73913357
Loads sent to L1D: 73913342
Stores Generated: 10719325
Stores sent to L1D: 10719325
Major fault: 0 Minor fault: 52559
Allocated PAGES: 209906

CPU 3 cumulative IPC: 0.460627 instructions: 200000000 cycles: 434190891
ITLB TOTAL     ACCESS:   31587971  HIT:   31587970  MISS:          1  HIT %:        100  MISS %: 3.16576e-06   MPKI: 5e-06
ITLB LOAD TRANSLATION ACCESS:   31587971  HIT:   31587970  MISS:          1  HIT %:        100  MISS %: 3.16576e-06   MPKI: 5e-06
ITLB PREFETCH  REQUESTED:          0  ISSUED:          0  USEFUL:          0  USELESS:          0
ITLB USEFUL LOAD PREFETCHES:          0 PREFETCH ISSUED TO LOWER LEVEL:          0  ACCURACY: -nan
ITLB TIMELY PREFETCHES:          0 LATE PREFETCHES: 0 DROPPED PREFETCHES: 0
ITLB PREFETCHES SAME FILL-ORIGIN LEVEL: 0 DIFFERENT FILL-ORIGIN LEVEL: 0
ITLB AVERAGE MISS LATENCY: 2166 cycles
ITLB RQ	ACCESS:   36162176	FORWARD:          0	MERGED:    4229314	TO_CACHE:   31932862

DTLB TOTAL     ACCESS:   48913128  HIT:   48810920  MISS:     102208  HIT %:     99.791  MISS %:   0.208958   MPKI: 0.51104
DTLB LOAD TRANSLATION ACCESS:   48913128  HIT:   48810920  MISS:     102208  HIT %:     99.791  MISS %:   0.208958   MPKI: 0.51104
DTLB PREFETCH  REQUESTED:          0  ISSUED:          0  USEFUL:          0  USELESS:          0
DTLB USEFUL LOAD PREFETCHES:          0 PREFETCH ISSUED TO LOWER LEVEL:          0  ACCURACY: -nan
DTLB TIMELY PREFETCHES:          0 LATE PREFETCHES: 0 DROPPED PREFETCHES: 0
DTLB PREFETCHES SAME FILL-ORIGIN LEVEL: 0 DIFFERENT FILL-ORIGIN LEVEL: 0
DTLB AVERAGE MISS LATENCY: 513.093 cycles
DTLB RQ	ACCESS:   54822755	FORWARD:          0	MERGED:    5139603	TO_CACHE:   49683152

STLB TOTAL     ACCESS:   13841357  HIT:   13744985  MISS:      96372  HIT %:    99.3037  MISS %:   0.696261   MPKI: 0.48186
STLB LOAD TRANSLATION ACCESS:     102209  HIT:      36530  MISS:      65679  HIT %:    35.7405  MISS %:    64.2595   MPKI: 0.328395
STLB TRANSLATION FROM L1D PREFETCHER ACCESS:   13739148  HIT:   13708455  MISS:      30693  HIT %:    99.7766  MISS %:   0.223398   MPKI: 0.153465
STLB PREFETCH  REQUESTED:          0  ISSUED:          0  USEFUL:      30693  USELESS:          0
STLB USEFUL LOAD PREFETCHES:      30693 PREFETCH ISSUED TO LOWER LEVEL:          0  ACCURACY: inf
STLB TIMELY PREFETCHES:      30693 LATE PREFETCHES: 5587 DROPPED PREFETCHES: 905151
STLB PREFETCHES SAME FILL-ORIGIN LEVEL: 0 DIFFERENT FILL-ORIGIN LEVEL: 0
STLB AVERAGE MISS LATENCY: 665.242 cycles
STLB RQ	ACCESS:   61724715	FORWARD:          0	MERGED:   46801520	TO_CACHE:   14923195

STLB Hit, L1D data hit: 0
STLB Hit, L2C data hit: 0
STLB Hit, LLC data hit: 0
STLB Hit, LLC data miss: 0
STLB STLB hints to L2: 0
L1D TOTAL     ACCESS:   80148438  HIT:   75331326  MISS:    4817112  HIT %:    93.9898  MISS %:    6.01024   MPKI: 24.0856
L1D LOAD      ACCESS:   42799635  HIT:   42057659  MISS:     741976  HIT %:    98.2664  MISS %:     1.7336   MPKI: 3.70988
L1D RFO       ACCESS:    1781622  HIT:     433088  MISS:    1348534  HIT %:    24.3086  MISS %:    75.6914   MPKI: 6.74267
L1D PREFETCH  ACCESS:   35567181  HIT:   32840579  MISS:    2726602  HIT %:    92.3339  MISS %:    7.66606   MPKI: 13.633
L1D PREFETCH  REQUESTED:  419406297  ISSUED:  154842202  USEFUL:    2627903  USELESS:     122210
L1D USEFUL LOAD PREFETCHES:    2627903 PREFETCH ISSUED TO LOWER LEVEL:   40065285  ACCURACY: 6.55905
L1D TIMELY PREFETCHES:    2627903 LATE PREFETCHES: 247602 DROPPED PREFETCHES: 1810562
L1D PREFETCHES SAME FILL-ORIGIN LEVEL: 3999368 DIFFERENT FILL-ORIGIN LEVEL: 36065917
L1D AVERAGE MISS LATENCY: 842.146 cycles
L1D RQ	ACCESS:   74560673	FORWARD:          0	MERGED:   30779275	TO_CACHE:   43781398
L1D WQ	ACCESS:   11041357	FORWARD:        671	MERGED:          0	TO_CACHE:   11041357
L1D PQ	ACCESS:   93221585	FORWARD:          0	MERGED:   31600297	TO_CACHE:   61620617

L1D UNIQUE REGIONS ACCESSED: 0
L1D REGIONS CONFLICTS: 0
L1D Cross Page Prefetch Requests: 14485016
L1D Same Page Prefetch Requests: 104895053
L1D ROI Sum of L1D PQ occupancy: 2584245918
L1D PREFETCHES PUSHED FROM L2C: 0
L1I TOTAL     ACCESS:   35816939  HIT:   35816889  MISS:         50  HIT %:    99.9999  MISS %: 0.000139599   MPKI: 0.00025
L1I LOAD      ACCESS:   35816939  HIT:   35816889  MISS:         50  HIT %:    99.9999  MISS %: 0.000139599   MPKI: 0.00025
L1I PREFETCH  REQUESTED:          0  ISSUED:          0  USEFUL:          0  USELESS:          0
L1I USEFUL LOAD PREFETCHES:          0 PREFETCH ISSUED TO LOWER LEVEL:          0  ACCURACY: -nan
L1I TIMELY PREFETCHES:          0 LATE PREFETCHES: 0 DROPPED PREFETCHES: 0
L1I PREFETCHES SAME FILL-ORIGIN LEVEL: 0 DIFFERENT FILL-ORIGIN LEVEL: 0
L1I AVERAGE MISS LATENCY: 1535.46 cycles
L1I RQ	ACCESS:   56841633	FORWARD:          0	MERGED:   20679457	TO_CACHE:   36162176

BTB TOTAL     ACCESS:   10637210  HIT:   10637189  MISS:         21  HIT %:    99.9998  MISS %: 0.00019742   MPKI: 0.000105
BTB BRANCH_DIRECT_JUMP	ACCESS:      26624  HIT:      26622  MISS:          2
BTB BRANCH_INDIRECT	ACCESS:          0  HIT:          0  MISS:          0
BTB BRANCH_CONDITIONAL	ACCESS:   10610586  HIT:   10610567  MISS:         19
BTB BRANCH_DIRECT_CALL	ACCESS:          0  HIT:          0  MISS:          0
BTB BRANCH_INDIRECT_CALL	ACCESS:          0  HIT:          0  MISS:          0
BTB BRANCH_RETURN	ACCESS:          0  HIT:          0  MISS:          0
BTB BRANCH_OTHER ACCESS:          0  HIT:          0  MISS:          0

L2C TOTAL     ACCESS:   16945954  HIT:   12122125  MISS:    4823829  HIT %:     71.534  MISS %:     28.466   MPKI: 24.1191
L2C LOAD      ACCESS:     501334  HIT:     348445  MISS:     152889  HIT %:    69.5036  MISS %:    30.4964   MPKI: 0.764445
L2C DATA LOAD MPKI: 0.764195
L2C INSTRUCTION LOAD MPKI: 0.00025
L2C RFO       ACCESS:    1348534  HIT:          0  MISS:    1348534  HIT %:          0  MISS %:        100   MPKI: 6.74267
L2C PREFETCH  ACCESS:   12731408  HIT:    9663900  MISS:    3067508  HIT %:     75.906  MISS %:     24.094   MPKI: 15.3375
L2C DATA PREFETCH MPKI: 15.3375
L2C INSTRUCTION PREFETCH MPKI: 0
L2C WRITEBACK ACCESS:    1348469  HIT:    1113894  MISS:     234575  HIT %:    82.6043  MISS %:    17.3957   MPKI: 1.17287
L2C LOAD TRANSLATION ACCESS:      65571  HIT:      54098  MISS:      11473  HIT %:    82.5029  MISS %:    17.4971   MPKI: 0.057365
L2C TRANSLATION FROM L1D PREFETCHER ACCESS:     950638  HIT:     941788  MISS:       8850  HIT %:     99.069  MISS %:   0.930954   MPKI: 0.04425
L2C PREFETCH  REQUESTED:          0  ISSUED:          0  USEFUL:     351166  USELESS:    2767798
L2C USEFUL LOAD PREFETCHES:     351166 PREFETCH ISSUED TO LOWER LEVEL:    3182597  ACCURACY: 11.0339
L2C TIMELY PREFETCHES:     351166 LATE PREFETCHES: 76265 DROPPED PREFETCHES: 0
L2C PREFETCHES SAME FILL-ORIGIN LEVEL: 2423434 DIFFERENT FILL-ORIGIN LEVEL: 0
L2C AVERAGE MISS LATENCY: 1631.86 cycles
L2C RQ	ACCESS:    2925896	FORWARD:          0	MERGED:          0	TO_CACHE:    2925894
L2C WQ	ACCESS:    1389127	FORWARD:          2	MERGED:          0	TO_CACHE:    1389127
L2C PQ	ACCESS:   20381689	FORWARD:          0	MERGED:     483131	TO_CACHE:   19898558

L2C Instructions Evicting Data 50
L2C Translations Evicting Data 20555
L2C Data Evicting Data 4634718
L2C Instructions Evicting Instructions 0
L2C Translations Evicting Instructions 0
L2C Data Evicting Instructions 48
L2C Instructions Evicting Translations 0
L2C Translations Evicting Translations 171
L2C Data Evicting Translations 20002
L2C Dense regions hint from L2: 0
PSCL5 TOTAL     ACCESS:    1003279  HIT:    1003279  MISS:          0  HIT %:        100  MISS %:          0   MPKI: 0
PSCL5 LOAD TRANSLATION ACCESS:      65467  HIT:      65467  MISS:          0  HIT %:        100  MISS %:          0   MPKI: 0
PSCL5 TRANSLATION FROM L1D PREFETCHER ACCESS:     937812  HIT:     937812  MISS:          0  HIT %:        100  MISS %:          0   MPKI: 0
PSCL5 PREFETCH  REQUESTED:          0  ISSUED:          0  USEFUL:          0  USELESS:          0
PSCL5 USEFUL LOAD PREFETCHES:          0 PREFETCH ISSUED TO LOWER LEVEL:          0  ACCURACY: -nan
PSCL5 TIMELY PREFETCHES:          0 LATE PREFETCHES: 0 DROPPED PREFETCHES: 0
PSCL5 PREFETCHES SAME FILL-ORIGIN LEVEL: 0 DIFFERENT FILL-ORIGIN LEVEL: 0

PSCL4 TOTAL     ACCESS:    1003279  HIT:    1003279  MISS:          0  HIT %:        100  MISS %:          0   MPKI: 0
PSCL4 LOAD TRANSLATION ACCESS:      65467  HIT:      65467  MISS:          0  HIT %:        100  MISS %:          0   MPKI: 0
PSCL4 TRANSLATION FROM L1D PREFETCHER ACCESS:     937812  HIT:     937812  MISS:          0  HIT %:        100  MISS %:          0   MPKI: 0
PSCL4 PREFETCH  REQUESTED:          0  ISSUED:          0  USEFUL:          0  USELESS:          0
PSCL4 USEFUL LOAD PREFETCHES:          0 PREFETCH ISSUED TO LOWER LEVEL:          0  ACCURACY: -nan
PSCL4 TIMELY PREFETCHES:          0 LATE PREFETCHES: 0 DROPPED PREFETCHES: 0
PSCL4 PREFETCHES SAME FILL-ORIGIN LEVEL: 0 DIFFERENT FILL-ORIGIN LEVEL: 0

PSCL3 TOTAL     ACCESS:     968280  HIT:     968273  MISS:          7  HIT %:    99.9993  MISS %: 0.000722931   MPKI: 3.5e-05
PSCL3 LOAD TRANSLATION ACCESS:      65137  HIT:      65130  MISS:          7  HIT %:    99.9893  MISS %:  0.0107466   MPKI: 3.5e-05
PSCL3 TRANSLATION FROM L1D PREFETCHER ACCESS:     903143  HIT:     903143  MISS:          0  HIT %:        100  MISS %:          0   MPKI: 0
PSCL3 PREFETCH  REQUESTED:          0  ISSUED:          0  USEFUL:          0  USELESS:          0
PSCL3 USEFUL LOAD PREFETCHES:          0 PREFETCH ISSUED TO LOWER LEVEL:          0  ACCURACY: -nan
PSCL3 TIMELY PREFETCHES:          0 LATE PREFETCHES: 0 DROPPED PREFETCHES: 0
PSCL3 PREFETCHES SAME FILL-ORIGIN LEVEL: 0 DIFFERENT FILL-ORIGIN LEVEL: 0

PSCL2 TOTAL     ACCESS:     979805  HIT:     979518  MISS:        287  HIT %:    99.9707  MISS %:  0.0292915   MPKI: 0.001435
PSCL2 LOAD TRANSLATION ACCESS:      65505  HIT:      65218  MISS:        287  HIT %:    99.5619  MISS %:   0.438134   MPKI: 0.001435
PSCL2 TRANSLATION FROM L1D PREFETCHER ACCESS:     914300  HIT:     914300  MISS:          0  HIT %:        100  MISS %:          0   MPKI: 0
PSCL2 PREFETCH  REQUESTED:          0  ISSUED:          0  USEFUL:          0  USELESS:          0
PSCL2 USEFUL LOAD PREFETCHES:          0 PREFETCH ISSUED TO LOWER LEVEL:          0  ACCURACY: -nan
PSCL2 TIMELY PREFETCHES:          0 LATE PREFETCHES: 0 DROPPED PREFETCHES: 0
PSCL2 PREFETCHES SAME FILL-ORIGIN LEVEL: 0 DIFFERENT FILL-ORIGIN LEVEL: 0

LLC TOTAL     ACCESS:    5935046  HIT:    1386245  MISS:    4548801  HIT %:    23.3569  MISS %:    76.6431   MPKI: 22.744
LLC LOAD      ACCESS:      80475  HIT:       2984  MISS:      77491  HIT %:    3.70798  MISS %:     96.292   MPKI: 0.387455
LLC RFO       ACCESS:    1348534  HIT:          0  MISS:    1348534  HIT %:          0  MISS %:        100   MPKI: 6.74267
LLC PREFETCH  ACCESS:    3139922  HIT:      80714  MISS:    3059208  HIT %:    2.57057  MISS %:    97.4294   MPKI: 15.296
LLC WRITEBACK ACCESS:    1345792  HIT:    1302007  MISS:      43785  HIT %:    96.7465  MISS %:    3.25347   MPKI: 0.218925
LLC LOAD TRANSLATION ACCESS:      11473  HIT:        160  MISS:      11313  HIT %:    1.39458  MISS %:    98.6054   MPKI: 0.056565
LLC TRANSLATION FROM L1D PREFETCHER ACCESS:       8850  HIT:        380  MISS:       8470  HIT %:    4.29379  MISS %:    95.7062   MPKI: 0.04235
LLC PREFETCH  REQUESTED:          0  ISSUED:          0  USEFUL:      10237  USELESS:   12403523
LLC USEFUL LOAD PREFETCHES:      10237 PREFETCH ISSUED TO LOWER LEVEL: 1034148883  ACCURACY: 0.000989896
LLC TIMELY PREFETCHES:      10237 LATE PREFETCHES: 0 DROPPED PREFETCHES: 0
LLC PREFETCHES SAME FILL-ORIGIN LEVEL: 0 DIFFERENT FILL-ORIGIN LEVEL: 0
LLC AVERAGE MISS LATENCY: 5763.16 cycles
LLC RQ	ACCESS:    5882502	FORWARD:          0	MERGED:          0	TO_CACHE:    5882502
LLC WQ	ACCESS:    5460781	FORWARD:          0	MERGED:          0	TO_CACHE:    5460781
LLC PQ	ACCESS:   12631870	FORWARD:          0	MERGED:          0	TO_CACHE:   12631870

LLC Dense regions hint to LLC: 0

RAW hits: 15
Loads Generated: 73913399
Loads sent to L1D: 73913381
Stores Generated: 10719293
Stores sent to L1D: 10719287
Major fault: 0 Minor fault: 53129
Allocated PAGES: 209906

DRAM Statistics
 CHANNEL 0
 RQ ROW_BUFFER_HIT:    6265470  ROW_BUFFER_MISS:   11928914
 DBUS_CONGESTED:          0
 WQ ROW_BUFFER_HIT:     429015  ROW_BUFFER_MISS:    4991439  FULL:          0

 AVG_CONGESTED_CYCLE: -
 All warmup complete: 5
Channel 0 Bank busy for read cycles: 0
Channel 0 Bank busy for write cycles: 0
Channel 0
Rank 0
0banks busy for read cycles: 50
0banks busy for write cycles: 0
1banks busy for read cycles: 556743
1banks busy for write cycles: 555689
2banks busy for read cycles: 562760
2banks busy for write cycles: 555689
3banks busy for read cycles: 578124
3banks busy for write cycles: 555689
4banks busy for read cycles: 637468
4banks busy for write cycles: 555720
5banks busy for read cycles: 819138
5banks busy for write cycles: 561551
6banks busy for read cycles: 1578370
6banks busy for write cycles: 970052
7banks busy for read cycles: 22469225
7banks busy for write cycles: 13146818
8banks busy for read cycles: 268805520
8banks busy for write cycles: 129233836

CPU 0 Branch Prediction Accuracy: 99.8815% MPKI: 0.0631877 Average ROB Occupancy at Mispredict: 294.725
Branch types
NOT_BRANCH: 190032737 94.6688%
BRANCH_DIRECT_JUMP: 26624 0.0132633%
BRANCH_INDIRECT: 0 0%
BRANCH_CONDITIONAL: 10674821 5.31789%
BRANCH_DIRECT_CALL: 0 0%
BRANCH_INDIRECT_CALL: 0 0%
BRANCH_RETURN: 0 0%
BRANCH_OTHER: 0 0%


CPU 1 Branch Prediction Accuracy: 99.8819% MPKI: 0.0628248 Average ROB Occupancy at Mispredict: 295.223
Branch types
NOT_BRANCH: 189359605 94.6798%
BRANCH_DIRECT_JUMP: 26624 0.013312%
BRANCH_INDIRECT: 0 0%
BRANCH_CONDITIONAL: 10613733 5.30687%
BRANCH_DIRECT_CALL: 0 0%
BRANCH_INDIRECT_CALL: 0 0%
BRANCH_RETURN: 0 0%
BRANCH_OTHER: 0 0%


CPU 2 Branch Prediction Accuracy: 99.8813% MPKI: 0.0633457 Average ROB Occupancy at Mispredict: 294.228
Branch types
NOT_BRANCH: 190327166 94.6641%
BRANCH_DIRECT_JUMP: 26624 0.0132421%
BRANCH_INDIRECT: 0 0%
BRANCH_CONDITIONAL: 10701450 5.32264%
BRANCH_DIRECT_CALL: 0 0%
BRANCH_INDIRECT_CALL: 0 0%
BRANCH_RETURN: 0 0%
BRANCH_OTHER: 0 0%


CPU 3 Branch Prediction Accuracy: 99.8808% MPKI: 0.0637774 Average ROB Occupancy at Mispredict: 294.754
Branch types
NOT_BRANCH: 191135459 94.6511%
BRANCH_DIRECT_JUMP: 26624 0.0131843%
BRANCH_INDIRECT: 0 0%
BRANCH_CONDITIONAL: 10774732 5.33569%
BRANCH_DIRECT_CALL: 0 0%
BRANCH_INDIRECT_CALL: 0 0%
BRANCH_RETURN: 0 0%
BRANCH_OTHER: 0 0%

DRAM PAGES: 1048576
Allocated PAGES: 209906
