
*** ChampSim Multicore Out-of-Order Simulator ***

Warmup Instructions: 50000000
Simulation Instructions: 200000000
Number of CPUs: 4
LLC sets: 8192
LLC ways: 16
Off-chip DRAM Size: 4096 MB Channels: 1 Width: 64-bit Data Rate: 6400 MT/s
CPU 0 runs ./traces/ligra/ligra_BFSCC.com-lj.ungraph.gcc_6.3.0_O3.drop_5000M.length_250M.champsimtrace.xz
.xz
CPU 1 runs ./traces/ligra/ligra_BFSCC.com-lj.ungraph.gcc_6.3.0_O3.drop_5000M.length_250M.champsimtrace.xz
.xz
CPU 2 runs ./traces/ligra/ligra_BFSCC.com-lj.ungraph.gcc_6.3.0_O3.drop_5000M.length_250M.champsimtrace.xz
.xz
CPU 3 runs ./traces/ligra/ligra_BFSCC.com-lj.ungraph.gcc_6.3.0_O3.drop_5000M.length_250M.champsimtrace.xz
.xz
BTB has LRU replacement policy
ITLB has LRU replacement policy
DTLB has LRU replacement policy
STLB has LRU replacement policy
L1I has LRU replacement policy
History Sets: 8
History Ways: 16
BERTI Size: 16
BERTI Stride Size: 8
L1D has LRU replacement policy
Initialize SRRIP state for L2C
Initialize DRRIP state for LLC
BTB has LRU replacement policy
ITLB has LRU replacement policy
DTLB has LRU replacement policy
STLB has LRU replacement policy
L1I has LRU replacement policy
History Sets: 8
History Ways: 16
BERTI Size: 16
BERTI Stride Size: 8
L1D has LRU replacement policy
Initialize SRRIP state for L2C
Initialize DRRIP state for LLC
BTB has LRU replacement policy
ITLB has LRU replacement policy
DTLB has LRU replacement policy
STLB has LRU replacement policy
L1I has LRU replacement policy
History Sets: 8
History Ways: 16
BERTI Size: 16
BERTI Stride Size: 8
L1D has LRU replacement policy
Initialize SRRIP state for L2C
Initialize DRRIP state for LLC
BTB has LRU replacement policy
ITLB has LRU replacement policy
DTLB has LRU replacement policy
STLB has LRU replacement policy
L1I has LRU replacement policy
History Sets: 8
History Ways: 16
BERTI Size: 16
BERTI Stride Size: 8
L1D has LRU replacement policy
Initialize SRRIP state for L2C
Initialize DRRIP state for LLC
Heartbeat CPU 0 instructions: 10000000 cycles: 3795346 heartbeat IPC: 2.63481 cumulative IPC: 2.63481 (Simulation time: 0 hr 3 min 14 sec) 
Heartbeat CPU 1 instructions: 10000000 cycles: 3795356 heartbeat IPC: 2.6348 cumulative IPC: 2.6348 (Simulation time: 0 hr 3 min 14 sec) 
Heartbeat CPU 2 instructions: 10000000 cycles: 3795366 heartbeat IPC: 2.63479 cumulative IPC: 2.63479 (Simulation time: 0 hr 3 min 14 sec) 
Heartbeat CPU 3 instructions: 10000000 cycles: 3795375 heartbeat IPC: 2.63479 cumulative IPC: 2.63479 (Simulation time: 0 hr 3 min 14 sec) 
Heartbeat CPU 0 instructions: 20000002 cycles: 7591678 heartbeat IPC: 2.63412 cumulative IPC: 2.63446 (Simulation time: 0 hr 6 min 11 sec) 
Heartbeat CPU 1 instructions: 20000002 cycles: 7591688 heartbeat IPC: 2.63412 cumulative IPC: 2.63446 (Simulation time: 0 hr 6 min 11 sec) 
Heartbeat CPU 2 instructions: 20000002 cycles: 7591698 heartbeat IPC: 2.63412 cumulative IPC: 2.63446 (Simulation time: 0 hr 6 min 11 sec) 
Heartbeat CPU 3 instructions: 20000002 cycles: 7591708 heartbeat IPC: 2.63412 cumulative IPC: 2.63445 (Simulation time: 0 hr 6 min 11 sec) 
Heartbeat CPU 0 instructions: 30000001 cycles: 11387942 heartbeat IPC: 2.63417 cumulative IPC: 2.63437 (Simulation time: 0 hr 9 min 8 sec) 
Heartbeat CPU 1 instructions: 30000001 cycles: 11387952 heartbeat IPC: 2.63417 cumulative IPC: 2.63436 (Simulation time: 0 hr 9 min 8 sec) 
Heartbeat CPU 2 instructions: 30000001 cycles: 11387963 heartbeat IPC: 2.63417 cumulative IPC: 2.63436 (Simulation time: 0 hr 9 min 8 sec) 
Heartbeat CPU 3 instructions: 30000001 cycles: 11387973 heartbeat IPC: 2.63417 cumulative IPC: 2.63436 (Simulation time: 0 hr 9 min 8 sec) 
Heartbeat CPU 0 instructions: 40000001 cycles: 15185950 heartbeat IPC: 2.63296 cumulative IPC: 2.63401 (Simulation time: 0 hr 12 min 30 sec) 
Heartbeat CPU 1 instructions: 40000001 cycles: 15185961 heartbeat IPC: 2.63296 cumulative IPC: 2.63401 (Simulation time: 0 hr 12 min 30 sec) 
Heartbeat CPU 2 instructions: 40000001 cycles: 15185972 heartbeat IPC: 2.63296 cumulative IPC: 2.63401 (Simulation time: 0 hr 12 min 30 sec) 
Heartbeat CPU 3 instructions: 40000001 cycles: 15185983 heartbeat IPC: 2.63296 cumulative IPC: 2.63401 (Simulation time: 0 hr 12 min 30 sec) 
Heartbeat CPU 0 instructions: 50000000 cycles: 18986562 heartbeat IPC: 2.63116 cumulative IPC: 2.63344 (Simulation time: 0 hr 15 min 32 sec) 
Heartbeat CPU 1 instructions: 50000000 cycles: 18986573 heartbeat IPC: 2.63116 cumulative IPC: 2.63344 (Simulation time: 0 hr 15 min 32 sec) 
Heartbeat CPU 2 instructions: 50000000 cycles: 18986584 heartbeat IPC: 2.63116 cumulative IPC: 2.63344 (Simulation time: 0 hr 15 min 32 sec) 
Heartbeat CPU 3 instructions: 50000000 cycles: 18986595 heartbeat IPC: 2.63116 cumulative IPC: 2.63344 (Simulation time: 0 hr 15 min 32 sec) 

Warmup complete CPU 0 instructions: 50000090 cycles: 18986596 (Simulation time: 0 hr 15 min 32 sec) 
Warmup complete CPU 1 instructions: 50000060 cycles: 18986596 (Simulation time: 0 hr 15 min 32 sec) 
Warmup complete CPU 2 instructions: 50000031 cycles: 18986596 (Simulation time: 0 hr 15 min 32 sec) 
Warmup complete CPU 3 instructions: 50000003 cycles: 18986596 (Simulation time: 0 hr 15 min 32 sec) 

Heartbeat CPU 0 instructions: 60000002 cycles: 27865135 heartbeat IPC: 1.12631 cumulative IPC: 1.1263 (Simulation time: 0 hr 19 min 1 sec) 
Heartbeat CPU 1 instructions: 60000002 cycles: 27867578 heartbeat IPC: 1.126 cumulative IPC: 1.126 (Simulation time: 0 hr 19 min 1 sec) 
Heartbeat CPU 3 instructions: 60000002 cycles: 27873047 heartbeat IPC: 1.12531 cumulative IPC: 1.12531 (Simulation time: 0 hr 19 min 2 sec) 
Heartbeat CPU 2 instructions: 60000002 cycles: 27877122 heartbeat IPC: 1.12479 cumulative IPC: 1.12479 (Simulation time: 0 hr 19 min 2 sec) 
Heartbeat CPU 0 instructions: 70000000 cycles: 36779844 heartbeat IPC: 1.12174 cumulative IPC: 1.12402 (Simulation time: 0 hr 22 min 16 sec) 
Heartbeat CPU 1 instructions: 70000000 cycles: 36788998 heartbeat IPC: 1.1209 cumulative IPC: 1.12344 (Simulation time: 0 hr 22 min 16 sec) 
Heartbeat CPU 3 instructions: 70000000 cycles: 36792630 heartbeat IPC: 1.12113 cumulative IPC: 1.12321 (Simulation time: 0 hr 22 min 16 sec) 
Heartbeat CPU 2 instructions: 70000000 cycles: 36795643 heartbeat IPC: 1.12126 cumulative IPC: 1.12302 (Simulation time: 0 hr 22 min 16 sec) 
Heartbeat CPU 0 instructions: 80000001 cycles: 45683096 heartbeat IPC: 1.12319 cumulative IPC: 1.12374 (Simulation time: 0 hr 25 min 16 sec) 
Heartbeat CPU 1 instructions: 80000001 cycles: 45688664 heartbeat IPC: 1.12364 cumulative IPC: 1.12351 (Simulation time: 0 hr 25 min 16 sec) 
Heartbeat CPU 3 instructions: 80000001 cycles: 45694816 heartbeat IPC: 1.12332 cumulative IPC: 1.12325 (Simulation time: 0 hr 25 min 17 sec) 
Heartbeat CPU 2 instructions: 80000001 cycles: 45698086 heartbeat IPC: 1.12329 cumulative IPC: 1.12311 (Simulation time: 0 hr 25 min 17 sec) 
Heartbeat CPU 0 instructions: 90000002 cycles: 54622097 heartbeat IPC: 1.11869 cumulative IPC: 1.12247 (Simulation time: 0 hr 28 min 17 sec) 
Heartbeat CPU 1 instructions: 90000002 cycles: 54629013 heartbeat IPC: 1.11852 cumulative IPC: 1.12226 (Simulation time: 0 hr 28 min 17 sec) 
Heartbeat CPU 3 instructions: 90000002 cycles: 54633168 heartbeat IPC: 1.11877 cumulative IPC: 1.12213 (Simulation time: 0 hr 28 min 17 sec) 
Heartbeat CPU 2 instructions: 90000002 cycles: 54638680 heartbeat IPC: 1.11849 cumulative IPC: 1.12195 (Simulation time: 0 hr 28 min 18 sec) 
Heartbeat CPU 0 instructions: 100000001 cycles: 63617316 heartbeat IPC: 1.1117 cumulative IPC: 1.1203 (Simulation time: 0 hr 31 min 14 sec) 
Heartbeat CPU 1 instructions: 100000001 cycles: 63628948 heartbeat IPC: 1.11112 cumulative IPC: 1.12001 (Simulation time: 0 hr 31 min 14 sec) 
Heartbeat CPU 3 instructions: 100000001 cycles: 63632057 heartbeat IPC: 1.11125 cumulative IPC: 1.11993 (Simulation time: 0 hr 31 min 14 sec) 
Heartbeat CPU 2 instructions: 100000001 cycles: 63633241 heartbeat IPC: 1.11178 cumulative IPC: 1.1199 (Simulation time: 0 hr 31 min 14 sec) 
Heartbeat CPU 0 instructions: 110000000 cycles: 72645488 heartbeat IPC: 1.10764 cumulative IPC: 1.11817 (Simulation time: 0 hr 34 min 6 sec) 
Heartbeat CPU 1 instructions: 110000000 cycles: 72652017 heartbeat IPC: 1.10827 cumulative IPC: 1.11804 (Simulation time: 0 hr 34 min 6 sec) 
Heartbeat CPU 3 instructions: 110000000 cycles: 72654511 heartbeat IPC: 1.10835 cumulative IPC: 1.11799 (Simulation time: 0 hr 34 min 6 sec) 
Heartbeat CPU 2 instructions: 110000000 cycles: 72655921 heartbeat IPC: 1.10832 cumulative IPC: 1.11796 (Simulation time: 0 hr 34 min 6 sec) 
Heartbeat CPU 0 instructions: 120000002 cycles: 81716089 heartbeat IPC: 1.10246 cumulative IPC: 1.1159 (Simulation time: 0 hr 36 min 58 sec) 
Heartbeat CPU 1 instructions: 120000002 cycles: 81721689 heartbeat IPC: 1.10258 cumulative IPC: 1.1158 (Simulation time: 0 hr 36 min 58 sec) 
Heartbeat CPU 3 instructions: 120000002 cycles: 81726630 heartbeat IPC: 1.10228 cumulative IPC: 1.11572 (Simulation time: 0 hr 36 min 58 sec) 
Heartbeat CPU 2 instructions: 120000002 cycles: 81733421 heartbeat IPC: 1.10163 cumulative IPC: 1.11559 (Simulation time: 0 hr 36 min 58 sec) 
Heartbeat CPU 0 instructions: 130000000 cycles: 90680343 heartbeat IPC: 1.11554 cumulative IPC: 1.11586 (Simulation time: 0 hr 40 min 15 sec) 
Heartbeat CPU 1 instructions: 130000000 cycles: 90683579 heartbeat IPC: 1.11584 cumulative IPC: 1.11581 (Simulation time: 0 hr 40 min 15 sec) 
Heartbeat CPU 3 instructions: 130000000 cycles: 90688129 heartbeat IPC: 1.11588 cumulative IPC: 1.11574 (Simulation time: 0 hr 40 min 15 sec) 
Heartbeat CPU 2 instructions: 130000000 cycles: 90692590 heartbeat IPC: 1.11617 cumulative IPC: 1.11567 (Simulation time: 0 hr 40 min 15 sec) 
Heartbeat CPU 0 instructions: 140000003 cycles: 99583663 heartbeat IPC: 1.12318 cumulative IPC: 1.11666 (Simulation time: 0 hr 43 min 20 sec) 
Heartbeat CPU 1 instructions: 140000003 cycles: 99588700 heartbeat IPC: 1.12295 cumulative IPC: 1.1166 (Simulation time: 0 hr 43 min 20 sec) 
Heartbeat CPU 3 instructions: 140000003 cycles: 99592291 heartbeat IPC: 1.12307 cumulative IPC: 1.11655 (Simulation time: 0 hr 43 min 20 sec) 
Heartbeat CPU 2 instructions: 140000003 cycles: 99597056 heartbeat IPC: 1.12303 cumulative IPC: 1.11648 (Simulation time: 0 hr 43 min 20 sec) 
Heartbeat CPU 0 instructions: 150000001 cycles: 108463296 heartbeat IPC: 1.12617 cumulative IPC: 1.11761 (Simulation time: 0 hr 46 min 21 sec) 
Heartbeat CPU 1 instructions: 150000001 cycles: 108466850 heartbeat IPC: 1.12636 cumulative IPC: 1.11756 (Simulation time: 0 hr 46 min 21 sec) 
Heartbeat CPU 3 instructions: 150000001 cycles: 108471098 heartbeat IPC: 1.12628 cumulative IPC: 1.11751 (Simulation time: 0 hr 46 min 21 sec) 
Heartbeat CPU 2 instructions: 150000001 cycles: 108475439 heartbeat IPC: 1.12633 cumulative IPC: 1.11746 (Simulation time: 0 hr 46 min 21 sec) 
Heartbeat CPU 1 instructions: 160000001 cycles: 117518155 heartbeat IPC: 1.10481 cumulative IPC: 1.11639 (Simulation time: 0 hr 49 min 27 sec) 
Heartbeat CPU 0 instructions: 160000001 cycles: 117522054 heartbeat IPC: 1.1039 cumulative IPC: 1.11635 (Simulation time: 0 hr 49 min 27 sec) 
Heartbeat CPU 3 instructions: 160000001 cycles: 117528731 heartbeat IPC: 1.10404 cumulative IPC: 1.11627 (Simulation time: 0 hr 49 min 27 sec) 
Heartbeat CPU 2 instructions: 160000001 cycles: 117534580 heartbeat IPC: 1.10386 cumulative IPC: 1.11621 (Simulation time: 0 hr 49 min 27 sec) 
Heartbeat CPU 1 instructions: 170000000 cycles: 126668298 heartbeat IPC: 1.09288 cumulative IPC: 1.11439 (Simulation time: 0 hr 52 min 34 sec) 
Heartbeat CPU 0 instructions: 170000000 cycles: 126671353 heartbeat IPC: 1.09298 cumulative IPC: 1.11436 (Simulation time: 0 hr 52 min 34 sec) 
Heartbeat CPU 3 instructions: 170000000 cycles: 126677955 heartbeat IPC: 1.09299 cumulative IPC: 1.1143 (Simulation time: 0 hr 52 min 34 sec) 
Heartbeat CPU 2 instructions: 170000000 cycles: 126680801 heartbeat IPC: 1.09335 cumulative IPC: 1.11427 (Simulation time: 0 hr 52 min 35 sec) 
Heartbeat CPU 1 instructions: 180000000 cycles: 135954471 heartbeat IPC: 1.07687 cumulative IPC: 1.11142 (Simulation time: 0 hr 55 min 22 sec) 
Heartbeat CPU 0 instructions: 180000000 cycles: 135956652 heartbeat IPC: 1.07697 cumulative IPC: 1.11139 (Simulation time: 0 hr 55 min 22 sec) 
Heartbeat CPU 3 instructions: 180000000 cycles: 135967415 heartbeat IPC: 1.07649 cumulative IPC: 1.11129 (Simulation time: 0 hr 55 min 22 sec) 
Heartbeat CPU 2 instructions: 180000000 cycles: 135970706 heartbeat IPC: 1.07644 cumulative IPC: 1.11126 (Simulation time: 0 hr 55 min 22 sec) 
Heartbeat CPU 1 instructions: 190000000 cycles: 145225059 heartbeat IPC: 1.07868 cumulative IPC: 1.10901 (Simulation time: 0 hr 58 min 36 sec) 
Heartbeat CPU 0 instructions: 190000000 cycles: 145229524 heartbeat IPC: 1.07841 cumulative IPC: 1.10897 (Simulation time: 0 hr 58 min 36 sec) 
Heartbeat CPU 3 instructions: 190000000 cycles: 145237973 heartbeat IPC: 1.07868 cumulative IPC: 1.1089 (Simulation time: 0 hr 58 min 36 sec) 
Heartbeat CPU 2 instructions: 190000000 cycles: 145241530 heartbeat IPC: 1.07865 cumulative IPC: 1.10887 (Simulation time: 0 hr 58 min 36 sec) 
Heartbeat CPU 1 instructions: 200000000 cycles: 154179912 heartbeat IPC: 1.11671 cumulative IPC: 1.10952 (Simulation time: 1 hr 1 min 44 sec) 
Heartbeat CPU 0 instructions: 200000000 cycles: 154182196 heartbeat IPC: 1.11698 cumulative IPC: 1.1095 (Simulation time: 1 hr 1 min 44 sec) 
Heartbeat CPU 3 instructions: 200000000 cycles: 154187611 heartbeat IPC: 1.11736 cumulative IPC: 1.10946 (Simulation time: 1 hr 1 min 44 sec) 
Heartbeat CPU 2 instructions: 200000000 cycles: 154192777 heartbeat IPC: 1.11716 cumulative IPC: 1.10942 (Simulation time: 1 hr 1 min 44 sec) 
Heartbeat CPU 1 instructions: 210000002 cycles: 163091124 heartbeat IPC: 1.12218 cumulative IPC: 1.1103 (Simulation time: 1 hr 4 min 42 sec) 
Heartbeat CPU 0 instructions: 210000002 cycles: 163101154 heartbeat IPC: 1.12121 cumulative IPC: 1.11023 (Simulation time: 1 hr 4 min 42 sec) 
Heartbeat CPU 3 instructions: 210000002 cycles: 163104918 heartbeat IPC: 1.12142 cumulative IPC: 1.1102 (Simulation time: 1 hr 4 min 43 sec) 
Heartbeat CPU 2 instructions: 210000002 cycles: 163106665 heartbeat IPC: 1.12185 cumulative IPC: 1.11019 (Simulation time: 1 hr 4 min 43 sec) 
Heartbeat CPU 1 instructions: 220000000 cycles: 171944019 heartbeat IPC: 1.12957 cumulative IPC: 1.11142 (Simulation time: 1 hr 7 min 46 sec) 
Heartbeat CPU 0 instructions: 220000000 cycles: 171949940 heartbeat IPC: 1.1301 cumulative IPC: 1.11138 (Simulation time: 1 hr 7 min 46 sec) 
Heartbeat CPU 3 instructions: 220000000 cycles: 171954405 heartbeat IPC: 1.13001 cumulative IPC: 1.11134 (Simulation time: 1 hr 7 min 46 sec) 
Heartbeat CPU 2 instructions: 220000000 cycles: 171959914 heartbeat IPC: 1.12953 cumulative IPC: 1.1113 (Simulation time: 1 hr 7 min 46 sec) 
Heartbeat CPU 1 instructions: 230000000 cycles: 180961764 heartbeat IPC: 1.10892 cumulative IPC: 1.11128 (Simulation time: 1 hr 10 min 52 sec) 
Heartbeat CPU 0 instructions: 230000000 cycles: 180972801 heartbeat IPC: 1.1083 cumulative IPC: 1.11121 (Simulation time: 1 hr 10 min 53 sec) 
Heartbeat CPU 3 instructions: 230000000 cycles: 180976649 heartbeat IPC: 1.10837 cumulative IPC: 1.11118 (Simulation time: 1 hr 10 min 53 sec) 
Heartbeat CPU 2 instructions: 230000000 cycles: 180977648 heartbeat IPC: 1.10893 cumulative IPC: 1.11117 (Simulation time: 1 hr 10 min 53 sec) 
Heartbeat CPU 1 instructions: 240000000 cycles: 190256037 heartbeat IPC: 1.07593 cumulative IPC: 1.10936 (Simulation time: 1 hr 14 min 0 sec) 
Heartbeat CPU 0 instructions: 240000000 cycles: 190262366 heartbeat IPC: 1.07648 cumulative IPC: 1.10932 (Simulation time: 1 hr 14 min 0 sec) 
Heartbeat CPU 3 instructions: 240000000 cycles: 190265335 heartbeat IPC: 1.07658 cumulative IPC: 1.1093 (Simulation time: 1 hr 14 min 0 sec) 
Heartbeat CPU 2 instructions: 240000000 cycles: 190271408 heartbeat IPC: 1.07599 cumulative IPC: 1.10926 (Simulation time: 1 hr 14 min 0 sec) 
*** Reached end of trace for Core: 1 Repeating trace: ./traces/ligra/ligra_BFSCC.com-lj.ungraph.gcc_6.3.0_O3.drop_5000M.length_250M.champsimtrace.xz
Heartbeat CPU 1 instructions: 250000000 cycles: 199286122 heartbeat IPC: 1.10741 cumulative IPC: 1.10926 (Simulation time: 1 hr 17 min 17 sec) 
Finished CPU 1 instructions: 200000000 cycles: 180300919 cumulative IPC: 1.10926 (Simulation time: 1 hr 17 min 17 sec) 
*** Reached end of trace for Core: 0 Repeating trace: ./traces/ligra/ligra_BFSCC.com-lj.ungraph.gcc_6.3.0_O3.drop_5000M.length_250M.champsimtrace.xz
Heartbeat CPU 0 instructions: 250000000 cycles: 199290656 heartbeat IPC: 1.10763 cumulative IPC: 1.10924 (Simulation time: 1 hr 17 min 17 sec) 
Finished CPU 0 instructions: 200000002 cycles: 180306288 cumulative IPC: 1.10922 (Simulation time: 1 hr 17 min 17 sec) 
*** Reached end of trace for Core: 3 Repeating trace: ./traces/ligra/ligra_BFSCC.com-lj.ungraph.gcc_6.3.0_O3.drop_5000M.length_250M.champsimtrace.xz
Heartbeat CPU 3 instructions: 250000000 cycles: 199294652 heartbeat IPC: 1.1075 cumulative IPC: 1.10921 (Simulation time: 1 hr 17 min 17 sec) 
Finished CPU 3 instructions: 200000000 cycles: 180309327 cumulative IPC: 1.10921 (Simulation time: 1 hr 17 min 17 sec) 
*** Reached end of trace for Core: 2 Repeating trace: ./traces/ligra/ligra_BFSCC.com-lj.ungraph.gcc_6.3.0_O3.drop_5000M.length_250M.champsimtrace.xz
Heartbeat CPU 2 instructions: 250000000 cycles: 199301856 heartbeat IPC: 1.10736 cumulative IPC: 1.10917 (Simulation time: 1 hr 17 min 18 sec) 
Finished CPU 2 instructions: 200000002 cycles: 180318022 cumulative IPC: 1.10915 (Simulation time: 1 hr 17 min 18 sec) 

ChampSim completed all CPUs

Total Simulation Statistics (not including warmup)

CPU 0 cumulative IPC: 1.10922 instructions: 200012645 cycles: 180318022
ITLB TOTAL     ACCESS:   33162228  HIT:   33162228  MISS:          0  HIT %:        100  MISS %:          0   MPKI: 0
ITLB LOAD      ACCESS:          0  HIT:          0  MISS:          0  HIT %:       -nan  MISS %:       -nan   MPKI: 0
ITLB RFO       ACCESS:          0  HIT:          0  MISS:          0  HIT %:       -nan  MISS %:       -nan   MPKI: 0
ITLB PREFETCH  ACCESS:          0  HIT:          0  MISS:          0  HIT %:       -nan  MISS %:       -nan   MPKI: 0
ITLB WRITEBACK ACCESS:          0  HIT:          0  MISS:          0  HIT %:       -nan  MISS %:       -nan   MPKI: 0
DTLB TOTAL     ACCESS:   20733579  HIT:   20713873  MISS:      19706  HIT %:     99.905  MISS %:  0.0950439   MPKI: 0.0985238
DTLB LOAD      ACCESS:          0  HIT:          0  MISS:          0  HIT %:       -nan  MISS %:       -nan   MPKI: 0
DTLB RFO       ACCESS:          0  HIT:          0  MISS:          0  HIT %:       -nan  MISS %:       -nan   MPKI: 0
DTLB PREFETCH  ACCESS:          0  HIT:          0  MISS:          0  HIT %:       -nan  MISS %:       -nan   MPKI: 0
DTLB WRITEBACK ACCESS:          0  HIT:          0  MISS:          0  HIT %:       -nan  MISS %:       -nan   MPKI: 0
STLB TOTAL     ACCESS:   10261691  HIT:   10241984  MISS:      19707  HIT %:     99.808  MISS %:   0.192044   MPKI: 0.0985288
STLB LOAD      ACCESS:          0  HIT:          0  MISS:          0  HIT %:       -nan  MISS %:       -nan   MPKI: 0
STLB RFO       ACCESS:          0  HIT:          0  MISS:          0  HIT %:       -nan  MISS %:       -nan   MPKI: 0
STLB PREFETCH  ACCESS:          0  HIT:          0  MISS:          0  HIT %:       -nan  MISS %:       -nan   MPKI: 0
STLB WRITEBACK ACCESS:          0  HIT:          0  MISS:          0  HIT %:       -nan  MISS %:       -nan   MPKI: 0
L1D TOTAL     ACCESS:   76035090  HIT:   74773951  MISS:    1261139  HIT %:    98.3414  MISS %:    1.65863   MPKI: 6.3053
L1D LOAD      ACCESS:   15422008  HIT:   15411299  MISS:      10709  HIT %:    99.9306  MISS %:  0.0694397   MPKI: 0.0535416
L1D RFO       ACCESS:    1361137  HIT:     692960  MISS:     668177  HIT %:    50.9104  MISS %:    49.0896   MPKI: 3.34067
L1D PREFETCH  ACCESS:   59251945  HIT:   58669692  MISS:     582253  HIT %:    99.0173  MISS %:   0.982673   MPKI: 2.91108
L1D WRITEBACK ACCESS:          0  HIT:          0  MISS:          0  HIT %:       -nan  MISS %:       -nan   MPKI: 0
L1I TOTAL     ACCESS:   33180683  HIT:   33180683  MISS:          0  HIT %:        100  MISS %:          0   MPKI: 0
L1I LOAD      ACCESS:   33180683  HIT:   33180683  MISS:          0  HIT %:        100  MISS %:          0   MPKI: 0
L1I RFO       ACCESS:          0  HIT:          0  MISS:          0  HIT %:       -nan  MISS %:       -nan   MPKI: 0
L1I PREFETCH  ACCESS:          0  HIT:          0  MISS:          0  HIT %:       -nan  MISS %:       -nan   MPKI: 0
L1I WRITEBACK ACCESS:          0  HIT:          0  MISS:          0  HIT %:       -nan  MISS %:       -nan   MPKI: 0
L2C TOTAL     ACCESS:    3620421  HIT:    2311165  MISS:    1309256  HIT %:    63.8369  MISS %:    36.1631   MPKI: 6.54587
L2C LOAD      ACCESS:       4867  HIT:          2  MISS:       4865  HIT %:  0.0410931  MISS %:    99.9589   MPKI: 0.0243235
L2C RFO       ACCESS:     668177  HIT:          0  MISS:     668177  HIT %:          0  MISS %:        100   MPKI: 3.34067
L2C PREFETCH  ACCESS:    1733854  HIT:    1145795  MISS:     588059  HIT %:    66.0837  MISS %:    33.9163   MPKI: 2.94011
L2C WRITEBACK ACCESS:     668174  HIT:     622556  MISS:      45618  HIT %:    93.1727  MISS %:    6.82726   MPKI: 0.228076
PSCL5 TOTAL     ACCESS:     545282  HIT:     545282  MISS:          0  HIT %:        100  MISS %:          0   MPKI: 0
PSCL5 LOAD      ACCESS:          0  HIT:          0  MISS:          0  HIT %:       -nan  MISS %:       -nan   MPKI: 0
PSCL5 RFO       ACCESS:          0  HIT:          0  MISS:          0  HIT %:       -nan  MISS %:       -nan   MPKI: 0
PSCL5 PREFETCH  ACCESS:          0  HIT:          0  MISS:          0  HIT %:       -nan  MISS %:       -nan   MPKI: 0
PSCL5 WRITEBACK ACCESS:          0  HIT:          0  MISS:          0  HIT %:       -nan  MISS %:       -nan   MPKI: 0
PSCL4 TOTAL     ACCESS:     545282  HIT:     545282  MISS:          0  HIT %:        100  MISS %:          0   MPKI: 0
PSCL4 LOAD      ACCESS:          0  HIT:          0  MISS:          0  HIT %:       -nan  MISS %:       -nan   MPKI: 0
PSCL4 RFO       ACCESS:          0  HIT:          0  MISS:          0  HIT %:       -nan  MISS %:       -nan   MPKI: 0
PSCL4 PREFETCH  ACCESS:          0  HIT:          0  MISS:          0  HIT %:       -nan  MISS %:       -nan   MPKI: 0
PSCL4 WRITEBACK ACCESS:          0  HIT:          0  MISS:          0  HIT %:       -nan  MISS %:       -nan   MPKI: 0
PSCL3 TOTAL     ACCESS:     545282  HIT:     545282  MISS:          0  HIT %:        100  MISS %:          0   MPKI: 0
PSCL3 LOAD      ACCESS:          0  HIT:          0  MISS:          0  HIT %:       -nan  MISS %:       -nan   MPKI: 0
PSCL3 RFO       ACCESS:          0  HIT:          0  MISS:          0  HIT %:       -nan  MISS %:       -nan   MPKI: 0
PSCL3 PREFETCH  ACCESS:          0  HIT:          0  MISS:          0  HIT %:       -nan  MISS %:       -nan   MPKI: 0
PSCL3 WRITEBACK ACCESS:          0  HIT:          0  MISS:          0  HIT %:       -nan  MISS %:       -nan   MPKI: 0
PSCL2 TOTAL     ACCESS:     544316  HIT:     544275  MISS:         41  HIT %:    99.9925  MISS %: 0.00753239   MPKI: 0.000204987
PSCL2 LOAD      ACCESS:          0  HIT:          0  MISS:          0  HIT %:       -nan  MISS %:       -nan   MPKI: 0
PSCL2 RFO       ACCESS:          0  HIT:          0  MISS:          0  HIT %:       -nan  MISS %:       -nan   MPKI: 0
PSCL2 PREFETCH  ACCESS:          0  HIT:          0  MISS:          0  HIT %:       -nan  MISS %:       -nan   MPKI: 0
PSCL2 WRITEBACK ACCESS:          0  HIT:          0  MISS:          0  HIT %:       -nan  MISS %:       -nan   MPKI: 0
LLC TOTAL     ACCESS:    1933369  HIT:     644002  MISS:    1289367  HIT %:    33.3098  MISS %:    66.6902   MPKI: 6.44643
LLC LOAD      ACCESS:       4865  HIT:          0  MISS:       4865  HIT %:          0  MISS %:        100   MPKI: 0.0243235
LLC RFO       ACCESS:     668177  HIT:          0  MISS:     668177  HIT %:          0  MISS %:        100   MPKI: 3.34067
LLC PREFETCH  ACCESS:     588059  HIT:         11  MISS:     588048  HIT %: 0.00187056  MISS %:    99.9981   MPKI: 2.94005
LLC WRITEBACK ACCESS:     669731  HIT:     643984  MISS:      25747  HIT %:    96.1556  MISS %:    3.84438   MPKI: 0.128727

RAW hits: 0
Loads Generated: 37853291
Loads sent to L1D: 37853290
Stores Generated: 5345422
Stores sent to L1D: 5345421

CPU 1 cumulative IPC: 1.10926 instructions: 200019208 cycles: 180318022
ITLB TOTAL     ACCESS:   33163119  HIT:   33163119  MISS:          0  HIT %:        100  MISS %:          0   MPKI: 0
ITLB LOAD      ACCESS:          0  HIT:          0  MISS:          0  HIT %:       -nan  MISS %:       -nan   MPKI: 0
ITLB RFO       ACCESS:          0  HIT:          0  MISS:          0  HIT %:       -nan  MISS %:       -nan   MPKI: 0
ITLB PREFETCH  ACCESS:          0  HIT:          0  MISS:          0  HIT %:       -nan  MISS %:       -nan   MPKI: 0
ITLB WRITEBACK ACCESS:          0  HIT:          0  MISS:          0  HIT %:       -nan  MISS %:       -nan   MPKI: 0
DTLB TOTAL     ACCESS:   20734544  HIT:   20714837  MISS:      19707  HIT %:     99.905  MISS %:  0.0950443   MPKI: 0.0985255
DTLB LOAD      ACCESS:          0  HIT:          0  MISS:          0  HIT %:       -nan  MISS %:       -nan   MPKI: 0
DTLB RFO       ACCESS:          0  HIT:          0  MISS:          0  HIT %:       -nan  MISS %:       -nan   MPKI: 0
DTLB PREFETCH  ACCESS:          0  HIT:          0  MISS:          0  HIT %:       -nan  MISS %:       -nan   MPKI: 0
DTLB WRITEBACK ACCESS:          0  HIT:          0  MISS:          0  HIT %:       -nan  MISS %:       -nan   MPKI: 0
STLB TOTAL     ACCESS:   10261935  HIT:   10242228  MISS:      19707  HIT %:     99.808  MISS %:    0.19204   MPKI: 0.0985255
STLB LOAD      ACCESS:          0  HIT:          0  MISS:          0  HIT %:       -nan  MISS %:       -nan   MPKI: 0
STLB RFO       ACCESS:          0  HIT:          0  MISS:          0  HIT %:       -nan  MISS %:       -nan   MPKI: 0
STLB PREFETCH  ACCESS:          0  HIT:          0  MISS:          0  HIT %:       -nan  MISS %:       -nan   MPKI: 0
STLB WRITEBACK ACCESS:          0  HIT:          0  MISS:          0  HIT %:       -nan  MISS %:       -nan   MPKI: 0
L1D TOTAL     ACCESS:   76054337  HIT:   74793158  MISS:    1261179  HIT %:    98.3417  MISS %:    1.65826   MPKI: 6.30529
L1D LOAD      ACCESS:   15423292  HIT:   15412635  MISS:      10657  HIT %:    99.9309  MISS %:  0.0690968   MPKI: 0.0532799
L1D RFO       ACCESS:    1361126  HIT:     692925  MISS:     668201  HIT %:    50.9082  MISS %:    49.0918   MPKI: 3.34068
L1D PREFETCH  ACCESS:   59269919  HIT:   58687598  MISS:     582321  HIT %:    99.0175  MISS %:    0.98249   MPKI: 2.91133
L1D WRITEBACK ACCESS:          0  HIT:          0  MISS:          0  HIT %:       -nan  MISS %:       -nan   MPKI: 0
L1I TOTAL     ACCESS:   33181575  HIT:   33181575  MISS:          0  HIT %:        100  MISS %:          0   MPKI: 0
L1I LOAD      ACCESS:   33181575  HIT:   33181575  MISS:          0  HIT %:        100  MISS %:          0   MPKI: 0
L1I RFO       ACCESS:          0  HIT:          0  MISS:          0  HIT %:       -nan  MISS %:       -nan   MPKI: 0
L1I PREFETCH  ACCESS:          0  HIT:          0  MISS:          0  HIT %:       -nan  MISS %:       -nan   MPKI: 0
L1I WRITEBACK ACCESS:          0  HIT:          0  MISS:          0  HIT %:       -nan  MISS %:       -nan   MPKI: 0
L2C TOTAL     ACCESS:    3621242  HIT:    2310921  MISS:    1310321  HIT %:    63.8157  MISS %:    36.1843   MPKI: 6.55098
L2C LOAD      ACCESS:       4853  HIT:          0  MISS:       4853  HIT %:          0  MISS %:        100   MPKI: 0.0242627
L2C RFO       ACCESS:     668201  HIT:          0  MISS:     668201  HIT %:          0  MISS %:        100   MPKI: 3.34068
L2C PREFETCH  ACCESS:    1734670  HIT:    1146587  MISS:     588083  HIT %:    66.0983  MISS %:    33.9017   MPKI: 2.94013
L2C WRITEBACK ACCESS:     668195  HIT:     621548  MISS:      46647  HIT %:     93.019  MISS %:    6.98105   MPKI: 0.233213
PSCL5 TOTAL     ACCESS:     545256  HIT:     545256  MISS:          0  HIT %:        100  MISS %:          0   MPKI: 0
PSCL5 LOAD      ACCESS:          0  HIT:          0  MISS:          0  HIT %:       -nan  MISS %:       -nan   MPKI: 0
PSCL5 RFO       ACCESS:          0  HIT:          0  MISS:          0  HIT %:       -nan  MISS %:       -nan   MPKI: 0
PSCL5 PREFETCH  ACCESS:          0  HIT:          0  MISS:          0  HIT %:       -nan  MISS %:       -nan   MPKI: 0
PSCL5 WRITEBACK ACCESS:          0  HIT:          0  MISS:          0  HIT %:       -nan  MISS %:       -nan   MPKI: 0
PSCL4 TOTAL     ACCESS:     545256  HIT:     545256  MISS:          0  HIT %:        100  MISS %:          0   MPKI: 0
PSCL4 LOAD      ACCESS:          0  HIT:          0  MISS:          0  HIT %:       -nan  MISS %:       -nan   MPKI: 0
PSCL4 RFO       ACCESS:          0  HIT:          0  MISS:          0  HIT %:       -nan  MISS %:       -nan   MPKI: 0
PSCL4 PREFETCH  ACCESS:          0  HIT:          0  MISS:          0  HIT %:       -nan  MISS %:       -nan   MPKI: 0
PSCL4 WRITEBACK ACCESS:          0  HIT:          0  MISS:          0  HIT %:       -nan  MISS %:       -nan   MPKI: 0
PSCL3 TOTAL     ACCESS:     545256  HIT:     545256  MISS:          0  HIT %:        100  MISS %:          0   MPKI: 0
PSCL3 LOAD      ACCESS:          0  HIT:          0  MISS:          0  HIT %:       -nan  MISS %:       -nan   MPKI: 0
PSCL3 RFO       ACCESS:          0  HIT:          0  MISS:          0  HIT %:       -nan  MISS %:       -nan   MPKI: 0
PSCL3 PREFETCH  ACCESS:          0  HIT:          0  MISS:          0  HIT %:       -nan  MISS %:       -nan   MPKI: 0
PSCL3 WRITEBACK ACCESS:          0  HIT:          0  MISS:          0  HIT %:       -nan  MISS %:       -nan   MPKI: 0
PSCL2 TOTAL     ACCESS:     544333  HIT:     544292  MISS:         41  HIT %:    99.9925  MISS %: 0.00753215   MPKI: 0.00020498
PSCL2 LOAD      ACCESS:          0  HIT:          0  MISS:          0  HIT %:       -nan  MISS %:       -nan   MPKI: 0
PSCL2 RFO       ACCESS:          0  HIT:          0  MISS:          0  HIT %:       -nan  MISS %:       -nan   MPKI: 0
PSCL2 PREFETCH  ACCESS:          0  HIT:          0  MISS:          0  HIT %:       -nan  MISS %:       -nan   MPKI: 0
PSCL2 WRITEBACK ACCESS:          0  HIT:          0  MISS:          0  HIT %:       -nan  MISS %:       -nan   MPKI: 0
LLC TOTAL     ACCESS:    1933237  HIT:     644381  MISS:    1288856  HIT %:    33.3317  MISS %:    66.6683   MPKI: 6.44366
LLC LOAD      ACCESS:       4853  HIT:          0  MISS:       4853  HIT %:          0  MISS %:        100   MPKI: 0.0242627
LLC RFO       ACCESS:     668201  HIT:          0  MISS:     668201  HIT %:          0  MISS %:        100   MPKI: 3.34068
LLC PREFETCH  ACCESS:     588083  HIT:          3  MISS:     588080  HIT %: 0.000510132  MISS %:    99.9995   MPKI: 2.94012
LLC WRITEBACK ACCESS:     669563  HIT:     644377  MISS:      25186  HIT %:    96.2384  MISS %:    3.76156   MPKI: 0.125918

RAW hits: 0
Loads Generated: 37854503
Loads sent to L1D: 37854501
Stores Generated: 5345624
Stores sent to L1D: 5345626

CPU 2 cumulative IPC: 1.10915 instructions: 200000002 cycles: 180318022
ITLB TOTAL     ACCESS:   33159872  HIT:   33159872  MISS:          0  HIT %:        100  MISS %:          0   MPKI: 0
ITLB LOAD      ACCESS:          0  HIT:          0  MISS:          0  HIT %:       -nan  MISS %:       -nan   MPKI: 0
ITLB RFO       ACCESS:          0  HIT:          0  MISS:          0  HIT %:       -nan  MISS %:       -nan   MPKI: 0
ITLB PREFETCH  ACCESS:          0  HIT:          0  MISS:          0  HIT %:       -nan  MISS %:       -nan   MPKI: 0
ITLB WRITEBACK ACCESS:          0  HIT:          0  MISS:          0  HIT %:       -nan  MISS %:       -nan   MPKI: 0
DTLB TOTAL     ACCESS:   20732301  HIT:   20712598  MISS:      19703  HIT %:     99.905  MISS %:  0.0950353   MPKI: 0.098515
DTLB LOAD      ACCESS:          0  HIT:          0  MISS:          0  HIT %:       -nan  MISS %:       -nan   MPKI: 0
DTLB RFO       ACCESS:          0  HIT:          0  MISS:          0  HIT %:       -nan  MISS %:       -nan   MPKI: 0
DTLB PREFETCH  ACCESS:          0  HIT:          0  MISS:          0  HIT %:       -nan  MISS %:       -nan   MPKI: 0
DTLB WRITEBACK ACCESS:          0  HIT:          0  MISS:          0  HIT %:       -nan  MISS %:       -nan   MPKI: 0
STLB TOTAL     ACCESS:   10260068  HIT:   10240365  MISS:      19703  HIT %:     99.808  MISS %:   0.192036   MPKI: 0.098515
STLB LOAD      ACCESS:          0  HIT:          0  MISS:          0  HIT %:       -nan  MISS %:       -nan   MPKI: 0
STLB RFO       ACCESS:          0  HIT:          0  MISS:          0  HIT %:       -nan  MISS %:       -nan   MPKI: 0
STLB PREFETCH  ACCESS:          0  HIT:          0  MISS:          0  HIT %:       -nan  MISS %:       -nan   MPKI: 0
STLB WRITEBACK ACCESS:          0  HIT:          0  MISS:          0  HIT %:       -nan  MISS %:       -nan   MPKI: 0
L1D TOTAL     ACCESS:   76058387  HIT:   74797359  MISS:    1261028  HIT %:     98.342  MISS %:    1.65797   MPKI: 6.30514
L1D LOAD      ACCESS:   15421986  HIT:   15411342  MISS:      10644  HIT %:     99.931  MISS %:  0.0690183   MPKI: 0.05322
L1D RFO       ACCESS:    1362744  HIT:     694613  MISS:     668131  HIT %:    50.9716  MISS %:    49.0284   MPKI: 3.34065
L1D PREFETCH  ACCESS:   59273657  HIT:   58691404  MISS:     582253  HIT %:    99.0177  MISS %:   0.982313   MPKI: 2.91126
L1D WRITEBACK ACCESS:          0  HIT:          0  MISS:          0  HIT %:       -nan  MISS %:       -nan   MPKI: 0
L1I TOTAL     ACCESS:   33178327  HIT:   33178327  MISS:          0  HIT %:        100  MISS %:          0   MPKI: 0
L1I LOAD      ACCESS:   33178327  HIT:   33178327  MISS:          0  HIT %:        100  MISS %:          0   MPKI: 0
L1I RFO       ACCESS:          0  HIT:          0  MISS:          0  HIT %:       -nan  MISS %:       -nan   MPKI: 0
L1I PREFETCH  ACCESS:          0  HIT:          0  MISS:          0  HIT %:       -nan  MISS %:       -nan   MPKI: 0
L1I WRITEBACK ACCESS:          0  HIT:          0  MISS:          0  HIT %:       -nan  MISS %:       -nan   MPKI: 0
L2C TOTAL     ACCESS:    3630257  HIT:    2321244  MISS:    1309013  HIT %:    63.9416  MISS %:    36.0584   MPKI: 6.54506
L2C LOAD      ACCESS:       4880  HIT:          1  MISS:       4879  HIT %:  0.0204918  MISS %:    99.9795   MPKI: 0.024395
L2C RFO       ACCESS:     668131  HIT:          0  MISS:     668131  HIT %:          0  MISS %:        100   MPKI: 3.34065
L2C PREFETCH  ACCESS:    1744412  HIT:    1156422  MISS:     587990  HIT %:    66.2929  MISS %:    33.7071   MPKI: 2.93995
L2C WRITEBACK ACCESS:     668128  HIT:     622649  MISS:      45479  HIT %:    93.1931  MISS %:    6.80693   MPKI: 0.227395
PSCL5 TOTAL     ACCESS:     544641  HIT:     544641  MISS:          0  HIT %:        100  MISS %:          0   MPKI: 0
PSCL5 LOAD      ACCESS:          0  HIT:          0  MISS:          0  HIT %:       -nan  MISS %:       -nan   MPKI: 0
PSCL5 RFO       ACCESS:          0  HIT:          0  MISS:          0  HIT %:       -nan  MISS %:       -nan   MPKI: 0
PSCL5 PREFETCH  ACCESS:          0  HIT:          0  MISS:          0  HIT %:       -nan  MISS %:       -nan   MPKI: 0
PSCL5 WRITEBACK ACCESS:          0  HIT:          0  MISS:          0  HIT %:       -nan  MISS %:       -nan   MPKI: 0
PSCL4 TOTAL     ACCESS:     544641  HIT:     544641  MISS:          0  HIT %:        100  MISS %:          0   MPKI: 0
PSCL4 LOAD      ACCESS:          0  HIT:          0  MISS:          0  HIT %:       -nan  MISS %:       -nan   MPKI: 0
PSCL4 RFO       ACCESS:          0  HIT:          0  MISS:          0  HIT %:       -nan  MISS %:       -nan   MPKI: 0
PSCL4 PREFETCH  ACCESS:          0  HIT:          0  MISS:          0  HIT %:       -nan  MISS %:       -nan   MPKI: 0
PSCL4 WRITEBACK ACCESS:          0  HIT:          0  MISS:          0  HIT %:       -nan  MISS %:       -nan   MPKI: 0
PSCL3 TOTAL     ACCESS:     544641  HIT:     544641  MISS:          0  HIT %:        100  MISS %:          0   MPKI: 0
PSCL3 LOAD      ACCESS:          0  HIT:          0  MISS:          0  HIT %:       -nan  MISS %:       -nan   MPKI: 0
PSCL3 RFO       ACCESS:          0  HIT:          0  MISS:          0  HIT %:       -nan  MISS %:       -nan   MPKI: 0
PSCL3 PREFETCH  ACCESS:          0  HIT:          0  MISS:          0  HIT %:       -nan  MISS %:       -nan   MPKI: 0
PSCL3 WRITEBACK ACCESS:          0  HIT:          0  MISS:          0  HIT %:       -nan  MISS %:       -nan   MPKI: 0
PSCL2 TOTAL     ACCESS:     543752  HIT:     543712  MISS:         40  HIT %:    99.9926  MISS %: 0.00735629   MPKI: 0.0002
PSCL2 LOAD      ACCESS:          0  HIT:          0  MISS:          0  HIT %:       -nan  MISS %:       -nan   MPKI: 0
PSCL2 RFO       ACCESS:          0  HIT:          0  MISS:          0  HIT %:       -nan  MISS %:       -nan   MPKI: 0
PSCL2 PREFETCH  ACCESS:          0  HIT:          0  MISS:          0  HIT %:       -nan  MISS %:       -nan   MPKI: 0
PSCL2 WRITEBACK ACCESS:          0  HIT:          0  MISS:          0  HIT %:       -nan  MISS %:       -nan   MPKI: 0
LLC TOTAL     ACCESS:    1933083  HIT:     643876  MISS:    1289207  HIT %:    33.3082  MISS %:    66.6918   MPKI: 6.44603
LLC LOAD      ACCESS:       4879  HIT:          0  MISS:       4879  HIT %:          0  MISS %:        100   MPKI: 0.024395
LLC RFO       ACCESS:     668131  HIT:          0  MISS:     668131  HIT %:          0  MISS %:        100   MPKI: 3.34065
LLC PREFETCH  ACCESS:     587990  HIT:          2  MISS:     587988  HIT %: 0.000340142  MISS %:    99.9997   MPKI: 2.93994
LLC WRITEBACK ACCESS:     669549  HIT:     643874  MISS:      25675  HIT %:    96.1653  MISS %:    3.83467   MPKI: 0.128375

RAW hits: 0
Loads Generated: 37850889
Loads sent to L1D: 37850887
Stores Generated: 5345044
Stores sent to L1D: 5345047

CPU 3 cumulative IPC: 1.10921 instructions: 200009855 cycles: 180318022
ITLB TOTAL     ACCESS:   33161550  HIT:   33161550  MISS:          0  HIT %:        100  MISS %:          0   MPKI: 0
ITLB LOAD      ACCESS:          0  HIT:          0  MISS:          0  HIT %:       -nan  MISS %:       -nan   MPKI: 0
ITLB RFO       ACCESS:          0  HIT:          0  MISS:          0  HIT %:       -nan  MISS %:       -nan   MPKI: 0
ITLB PREFETCH  ACCESS:          0  HIT:          0  MISS:          0  HIT %:       -nan  MISS %:       -nan   MPKI: 0
ITLB WRITEBACK ACCESS:          0  HIT:          0  MISS:          0  HIT %:       -nan  MISS %:       -nan   MPKI: 0
DTLB TOTAL     ACCESS:   20734025  HIT:   20714321  MISS:      19704  HIT %:     99.905  MISS %:  0.0950322   MPKI: 0.0985151
DTLB LOAD      ACCESS:          0  HIT:          0  MISS:          0  HIT %:       -nan  MISS %:       -nan   MPKI: 0
DTLB RFO       ACCESS:          0  HIT:          0  MISS:          0  HIT %:       -nan  MISS %:       -nan   MPKI: 0
DTLB PREFETCH  ACCESS:          0  HIT:          0  MISS:          0  HIT %:       -nan  MISS %:       -nan   MPKI: 0
DTLB WRITEBACK ACCESS:          0  HIT:          0  MISS:          0  HIT %:       -nan  MISS %:       -nan   MPKI: 0
STLB TOTAL     ACCESS:   10260492  HIT:   10240788  MISS:      19704  HIT %:     99.808  MISS %:   0.192038   MPKI: 0.0985151
STLB LOAD      ACCESS:          0  HIT:          0  MISS:          0  HIT %:       -nan  MISS %:       -nan   MPKI: 0
STLB RFO       ACCESS:          0  HIT:          0  MISS:          0  HIT %:       -nan  MISS %:       -nan   MPKI: 0
STLB PREFETCH  ACCESS:          0  HIT:          0  MISS:          0  HIT %:       -nan  MISS %:       -nan   MPKI: 0
STLB WRITEBACK ACCESS:          0  HIT:          0  MISS:          0  HIT %:       -nan  MISS %:       -nan   MPKI: 0
L1D TOTAL     ACCESS:   76051493  HIT:   74790387  MISS:    1261106  HIT %:    98.3418  MISS %:    1.65823   MPKI: 6.30522
L1D LOAD      ACCESS:   15422569  HIT:   15411862  MISS:      10707  HIT %:    99.9306  MISS %:  0.0694242   MPKI: 0.0535324
L1D RFO       ACCESS:    1358959  HIT:     690794  MISS:     668165  HIT %:    50.8326  MISS %:    49.1674   MPKI: 3.34066
L1D PREFETCH  ACCESS:   59269965  HIT:   58687731  MISS:     582234  HIT %:    99.0177  MISS %:   0.982342   MPKI: 2.91103
L1D WRITEBACK ACCESS:          0  HIT:          0  MISS:          0  HIT %:       -nan  MISS %:       -nan   MPKI: 0
L1I TOTAL     ACCESS:   33180005  HIT:   33180005  MISS:          0  HIT %:        100  MISS %:          0   MPKI: 0
L1I LOAD      ACCESS:   33180005  HIT:   33180005  MISS:          0  HIT %:        100  MISS %:          0   MPKI: 0
L1I RFO       ACCESS:          0  HIT:          0  MISS:          0  HIT %:       -nan  MISS %:       -nan   MPKI: 0
L1I PREFETCH  ACCESS:          0  HIT:          0  MISS:          0  HIT %:       -nan  MISS %:       -nan   MPKI: 0
L1I WRITEBACK ACCESS:          0  HIT:          0  MISS:          0  HIT %:       -nan  MISS %:       -nan   MPKI: 0
L2C TOTAL     ACCESS:    3624031  HIT:    2324237  MISS:    1299794  HIT %:     64.134  MISS %:     35.866   MPKI: 6.49865
L2C LOAD      ACCESS:       4890  HIT:          0  MISS:       4890  HIT %:          0  MISS %:        100   MPKI: 0.0244488
L2C RFO       ACCESS:     668165  HIT:          0  MISS:     668165  HIT %:          0  MISS %:        100   MPKI: 3.34066
L2C PREFETCH  ACCESS:    1738006  HIT:    1149991  MISS:     588015  HIT %:    66.1673  MISS %:    33.8327   MPKI: 2.93993
L2C WRITEBACK ACCESS:     668162  HIT:     631975  MISS:      36187  HIT %:    94.5841  MISS %:     5.4159   MPKI: 0.180926
PSCL5 TOTAL     ACCESS:     544741  HIT:     544741  MISS:          0  HIT %:        100  MISS %:          0   MPKI: 0
PSCL5 LOAD      ACCESS:          0  HIT:          0  MISS:          0  HIT %:       -nan  MISS %:       -nan   MPKI: 0
PSCL5 RFO       ACCESS:          0  HIT:          0  MISS:          0  HIT %:       -nan  MISS %:       -nan   MPKI: 0
PSCL5 PREFETCH  ACCESS:          0  HIT:          0  MISS:          0  HIT %:       -nan  MISS %:       -nan   MPKI: 0
PSCL5 WRITEBACK ACCESS:          0  HIT:          0  MISS:          0  HIT %:       -nan  MISS %:       -nan   MPKI: 0
PSCL4 TOTAL     ACCESS:     544741  HIT:     544741  MISS:          0  HIT %:        100  MISS %:          0   MPKI: 0
PSCL4 LOAD      ACCESS:          0  HIT:          0  MISS:          0  HIT %:       -nan  MISS %:       -nan   MPKI: 0
PSCL4 RFO       ACCESS:          0  HIT:          0  MISS:          0  HIT %:       -nan  MISS %:       -nan   MPKI: 0
PSCL4 PREFETCH  ACCESS:          0  HIT:          0  MISS:          0  HIT %:       -nan  MISS %:       -nan   MPKI: 0
PSCL4 WRITEBACK ACCESS:          0  HIT:          0  MISS:          0  HIT %:       -nan  MISS %:       -nan   MPKI: 0
PSCL3 TOTAL     ACCESS:     544741  HIT:     544741  MISS:          0  HIT %:        100  MISS %:          0   MPKI: 0
PSCL3 LOAD      ACCESS:          0  HIT:          0  MISS:          0  HIT %:       -nan  MISS %:       -nan   MPKI: 0
PSCL3 RFO       ACCESS:          0  HIT:          0  MISS:          0  HIT %:       -nan  MISS %:       -nan   MPKI: 0
PSCL3 PREFETCH  ACCESS:          0  HIT:          0  MISS:          0  HIT %:       -nan  MISS %:       -nan   MPKI: 0
PSCL3 WRITEBACK ACCESS:          0  HIT:          0  MISS:          0  HIT %:       -nan  MISS %:       -nan   MPKI: 0
PSCL2 TOTAL     ACCESS:     543840  HIT:     543799  MISS:         41  HIT %:    99.9925  MISS %: 0.00753898   MPKI: 0.00020499
PSCL2 LOAD      ACCESS:          0  HIT:          0  MISS:          0  HIT %:       -nan  MISS %:       -nan   MPKI: 0
PSCL2 RFO       ACCESS:          0  HIT:          0  MISS:          0  HIT %:       -nan  MISS %:       -nan   MPKI: 0
PSCL2 PREFETCH  ACCESS:          0  HIT:          0  MISS:          0  HIT %:       -nan  MISS %:       -nan   MPKI: 0
PSCL2 WRITEBACK ACCESS:          0  HIT:          0  MISS:          0  HIT %:       -nan  MISS %:       -nan   MPKI: 0
LLC TOTAL     ACCESS:    1933333  HIT:     643511  MISS:    1289822  HIT %:    33.2851  MISS %:    66.7149   MPKI: 6.44879
LLC LOAD      ACCESS:       4890  HIT:          0  MISS:       4890  HIT %:          0  MISS %:        100   MPKI: 0.0244488
LLC RFO       ACCESS:     668165  HIT:          0  MISS:     668165  HIT %:          0  MISS %:        100   MPKI: 3.34066
LLC PREFETCH  ACCESS:     588015  HIT:          7  MISS:     588008  HIT %: 0.00119045  MISS %:    99.9988   MPKI: 2.9399
LLC WRITEBACK ACCESS:     669726  HIT:     643498  MISS:      26228  HIT %:    96.0838  MISS %:    3.91623   MPKI: 0.131134

RAW hits: 0
Loads Generated: 37852744
Loads sent to L1D: 37852743
Stores Generated: 5345330
Stores sent to L1D: 5345333

Region of Interest Statistics

CPU 0 cumulative IPC: 1.10922 instructions: 200000002 cycles: 180306288
ITLB TOTAL     ACCESS:   33160159  HIT:   33160159  MISS:          0  HIT %:        100  MISS %:          0   MPKI: 0
ITLB LOAD TRANSLATION ACCESS:   33160159  HIT:   33160159  MISS:          0  HIT %:        100  MISS %:          0   MPKI: 0
ITLB PREFETCH  REQUESTED:          0  ISSUED:          0  USEFUL:          0  USELESS:          0
ITLB USEFUL LOAD PREFETCHES:          0 PREFETCH ISSUED TO LOWER LEVEL:          0  ACCURACY: -nan
ITLB TIMELY PREFETCHES:          0 LATE PREFETCHES: 0 DROPPED PREFETCHES: 0
ITLB PREFETCHES SAME FILL-ORIGIN LEVEL: 0 DIFFERENT FILL-ORIGIN LEVEL: 0
ITLB AVERAGE MISS LATENCY: -nan cycles
ITLB RQ	ACCESS:   33180684	FORWARD:          0	MERGED:      18456	TO_CACHE:   33162228

DTLB TOTAL     ACCESS:   20732312  HIT:   20712609  MISS:      19703  HIT %:     99.905  MISS %:  0.0950352   MPKI: 0.098515
DTLB LOAD TRANSLATION ACCESS:   20732312  HIT:   20712609  MISS:      19703  HIT %:     99.905  MISS %:  0.0950352   MPKI: 0.098515
DTLB PREFETCH  REQUESTED:          0  ISSUED:          0  USEFUL:          0  USELESS:          0
DTLB USEFUL LOAD PREFETCHES:          0 PREFETCH ISSUED TO LOWER LEVEL:          0  ACCURACY: -nan
DTLB TIMELY PREFETCHES:          0 LATE PREFETCHES: 0 DROPPED PREFETCHES: 0
DTLB PREFETCHES SAME FILL-ORIGIN LEVEL: 0 DIFFERENT FILL-ORIGIN LEVEL: 0
DTLB AVERAGE MISS LATENCY: 148.738 cycles
DTLB RQ	ACCESS:   20825790	FORWARD:          0	MERGED:      73802	TO_CACHE:   20751988

STLB TOTAL     ACCESS:   10261018  HIT:   10241315  MISS:      19703  HIT %:     99.808  MISS %:   0.192018   MPKI: 0.098515
STLB LOAD TRANSLATION ACCESS:      19703  HIT:          0  MISS:      19703  HIT %:          0  MISS %:        100   MPKI: 0.098515
STLB TRANSLATION FROM L1D PREFETCHER ACCESS:   10241315  HIT:   10241315  MISS:          0  HIT %:        100  MISS %:          0   MPKI: 0
STLB PREFETCH  REQUESTED:          0  ISSUED:          0  USEFUL:          1  USELESS:          0
STLB USEFUL LOAD PREFETCHES:          1 PREFETCH ISSUED TO LOWER LEVEL:          0  ACCURACY: inf
STLB TIMELY PREFETCHES:          1 LATE PREFETCHES: 1858 DROPPED PREFETCHES: 523717
STLB PREFETCHES SAME FILL-ORIGIN LEVEL: 0 DIFFERENT FILL-ORIGIN LEVEL: 0
STLB AVERAGE MISS LATENCY: 139.451 cycles
STLB RQ	ACCESS:   70888398	FORWARD:          0	MERGED:   60051633	TO_CACHE:   10836765

STLB Hit, L1D data hit: 0
STLB Hit, L2C data hit: 0
STLB Hit, LLC data hit: 0
STLB Hit, LLC data miss: 0
STLB STLB hints to L2: 0
L1D TOTAL     ACCESS:   76031507  HIT:   74770453  MISS:    1261054  HIT %:    98.3414  MISS %:    1.65859   MPKI: 6.30527
L1D LOAD      ACCESS:   15421096  HIT:   15410388  MISS:      10708  HIT %:    99.9306  MISS %:  0.0694373   MPKI: 0.05354
L1D RFO       ACCESS:    1361068  HIT:     692937  MISS:     668131  HIT %:    50.9113  MISS %:    49.0887   MPKI: 3.34065
L1D PREFETCH  ACCESS:   59249343  HIT:   58667128  MISS:     582215  HIT %:    99.0173  MISS %:   0.982652   MPKI: 2.91107
L1D PREFETCH  REQUESTED:  285375014  ISSUED:  285358092  USEFUL:     582193  USELESS:         53
L1D USEFUL LOAD PREFETCHES:     582193 PREFETCH ISSUED TO LOWER LEVEL:    2621437  ACCURACY: 22.2089
L1D TIMELY PREFETCHES:     582193 LATE PREFETCHES: 5842 DROPPED PREFETCHES: 2386317
L1D PREFETCHES SAME FILL-ORIGIN LEVEL: 588098 DIFFERENT FILL-ORIGIN LEVEL: 2033339
L1D AVERAGE MISS LATENCY: 293.324 cycles
L1D RQ	ACCESS:   37853290	FORWARD:          0	MERGED:   22372921	TO_CACHE:   15480369
L1D WQ	ACCESS:    5345421	FORWARD:          0	MERGED:          0	TO_CACHE:    5345421
L1D PQ	ACCESS:  214489400	FORWARD:          0	MERGED:  143620708	TO_CACHE:   70868692

L1D UNIQUE REGIONS ACCESSED: 0
L1D REGIONS CONFLICTS: 0
L1D Cross Page Prefetch Requests: 21998200
L1D Same Page Prefetch Requests: 314884049
L1D ROI Sum of L1D PQ occupancy: 872875443
L1D PREFETCHES PUSHED FROM L2C: 0
L1I TOTAL     ACCESS:   33178613  HIT:   33178613  MISS:          0  HIT %:        100  MISS %:          0   MPKI: 0
L1I LOAD      ACCESS:   33178613  HIT:   33178613  MISS:          0  HIT %:        100  MISS %:          0   MPKI: 0
L1I PREFETCH  REQUESTED:          0  ISSUED:          0  USEFUL:          0  USELESS:          0
L1I USEFUL LOAD PREFETCHES:          0 PREFETCH ISSUED TO LOWER LEVEL:          0  ACCURACY: -nan
L1I TIMELY PREFETCHES:          0 LATE PREFETCHES: 0 DROPPED PREFETCHES: 0
L1I PREFETCHES SAME FILL-ORIGIN LEVEL: 0 DIFFERENT FILL-ORIGIN LEVEL: 0
L1I AVERAGE MISS LATENCY: -nan cycles
L1I RQ	ACCESS:   91491556	FORWARD:          0	MERGED:   58310872	TO_CACHE:   33180684

BTB TOTAL     ACCESS:   75609557  HIT:   75609556  MISS:          1  HIT %:        100  MISS %: 1.32258e-06   MPKI: 5e-06
BTB BRANCH_DIRECT_JUMP	ACCESS:          0  HIT:          0  MISS:          0
BTB BRANCH_INDIRECT	ACCESS:          0  HIT:          0  MISS:          0
BTB BRANCH_CONDITIONAL	ACCESS:   75609557  HIT:   75609556  MISS:          1
BTB BRANCH_DIRECT_CALL	ACCESS:          0  HIT:          0  MISS:          0
BTB BRANCH_INDIRECT_CALL	ACCESS:          0  HIT:          0  MISS:          0
BTB BRANCH_RETURN	ACCESS:          0  HIT:          0  MISS:          0
BTB BRANCH_OTHER ACCESS:          0  HIT:          0  MISS:          0

L2C TOTAL     ACCESS:    3620089  HIT:    2310927  MISS:    1309162  HIT %:    63.8362  MISS %:    36.1638   MPKI: 6.54581
L2C LOAD      ACCESS:       4866  HIT:          2  MISS:       4864  HIT %:  0.0411015  MISS %:    99.9589   MPKI: 0.02432
L2C DATA LOAD MPKI: 0.02432
L2C INSTRUCTION LOAD MPKI: 0
L2C RFO       ACCESS:     668131  HIT:          0  MISS:     668131  HIT %:          0  MISS %:        100   MPKI: 3.34065
L2C PREFETCH  ACCESS:    1733619  HIT:    1145601  MISS:     588018  HIT %:    66.0815  MISS %:    33.9185   MPKI: 2.94009
L2C DATA PREFETCH MPKI: 2.94009
L2C INSTRUCTION PREFETCH MPKI: 0
L2C WRITEBACK ACCESS:     668128  HIT:     622514  MISS:      45614  HIT %:    93.1729  MISS %:    6.82713   MPKI: 0.22807
L2C LOAD TRANSLATION ACCESS:      19706  HIT:      18378  MISS:       1328  HIT %:    93.2609  MISS %:    6.73906   MPKI: 0.00664
L2C TRANSLATION FROM L1D PREFETCHER ACCESS:     525639  HIT:     524432  MISS:       1207  HIT %:    99.7704  MISS %:   0.229625   MPKI: 0.006035
L2C PREFETCH  REQUESTED:          0  ISSUED:          0  USEFUL:       1209  USELESS:     586511
L2C USEFUL LOAD PREFETCHES:       1209 PREFETCH ISSUED TO LOWER LEVEL:     588062  ACCURACY: 0.205591
L2C TIMELY PREFETCHES:       1209 LATE PREFETCHES: 0 DROPPED PREFETCHES: 0
L2C PREFETCHES SAME FILL-ORIGIN LEVEL: 68909 DIFFERENT FILL-ORIGIN LEVEL: 0
L2C AVERAGE MISS LATENCY: 287.247 cycles
L2C RQ	ACCESS:    1218395	FORWARD:          0	MERGED:          0	TO_CACHE:    1218395
L2C WQ	ACCESS:     668174	FORWARD:          0	MERGED:          0	TO_CACHE:     668174
L2C PQ	ACCESS:    2621437	FORWARD:          0	MERGED:       3125	TO_CACHE:    2618312

L2C Instructions Evicting Data 0
L2C Translations Evicting Data 2537
L2C Data Evicting Data 1258621
L2C Instructions Evicting Instructions 0
L2C Translations Evicting Instructions 0
L2C Data Evicting Instructions 0
L2C Instructions Evicting Translations 0
L2C Translations Evicting Translations 0
L2C Data Evicting Translations 2480
L2C Dense regions hint from L2: 0
PSCL5 TOTAL     ACCESS:     545279  HIT:     545279  MISS:          0  HIT %:        100  MISS %:          0   MPKI: 0
PSCL5 LOAD TRANSLATION ACCESS:      19704  HIT:      19704  MISS:          0  HIT %:        100  MISS %:          0   MPKI: 0
PSCL5 TRANSLATION FROM L1D PREFETCHER ACCESS:     525575  HIT:     525575  MISS:          0  HIT %:        100  MISS %:          0   MPKI: 0
PSCL5 PREFETCH  REQUESTED:          0  ISSUED:          0  USEFUL:          0  USELESS:          0
PSCL5 USEFUL LOAD PREFETCHES:          0 PREFETCH ISSUED TO LOWER LEVEL:          0  ACCURACY: -nan
PSCL5 TIMELY PREFETCHES:          0 LATE PREFETCHES: 0 DROPPED PREFETCHES: 0
PSCL5 PREFETCHES SAME FILL-ORIGIN LEVEL: 0 DIFFERENT FILL-ORIGIN LEVEL: 0

PSCL4 TOTAL     ACCESS:     545279  HIT:     545279  MISS:          0  HIT %:        100  MISS %:          0   MPKI: 0
PSCL4 LOAD TRANSLATION ACCESS:      19704  HIT:      19704  MISS:          0  HIT %:        100  MISS %:          0   MPKI: 0
PSCL4 TRANSLATION FROM L1D PREFETCHER ACCESS:     525575  HIT:     525575  MISS:          0  HIT %:        100  MISS %:          0   MPKI: 0
PSCL4 PREFETCH  REQUESTED:          0  ISSUED:          0  USEFUL:          0  USELESS:          0
PSCL4 USEFUL LOAD PREFETCHES:          0 PREFETCH ISSUED TO LOWER LEVEL:          0  ACCURACY: -nan
PSCL4 TIMELY PREFETCHES:          0 LATE PREFETCHES: 0 DROPPED PREFETCHES: 0
PSCL4 PREFETCHES SAME FILL-ORIGIN LEVEL: 0 DIFFERENT FILL-ORIGIN LEVEL: 0

PSCL3 TOTAL     ACCESS:     545279  HIT:     545279  MISS:          0  HIT %:        100  MISS %:          0   MPKI: 0
PSCL3 LOAD TRANSLATION ACCESS:      19704  HIT:      19704  MISS:          0  HIT %:        100  MISS %:          0   MPKI: 0
PSCL3 TRANSLATION FROM L1D PREFETCHER ACCESS:     525575  HIT:     525575  MISS:          0  HIT %:        100  MISS %:          0   MPKI: 0
PSCL3 PREFETCH  REQUESTED:          0  ISSUED:          0  USEFUL:          0  USELESS:          0
PSCL3 USEFUL LOAD PREFETCHES:          0 PREFETCH ISSUED TO LOWER LEVEL:          0  ACCURACY: -nan
PSCL3 TIMELY PREFETCHES:          0 LATE PREFETCHES: 0 DROPPED PREFETCHES: 0
PSCL3 PREFETCHES SAME FILL-ORIGIN LEVEL: 0 DIFFERENT FILL-ORIGIN LEVEL: 0

PSCL2 TOTAL     ACCESS:     544312  HIT:     544272  MISS:         40  HIT %:    99.9927  MISS %: 0.00734873   MPKI: 0.0002
PSCL2 LOAD TRANSLATION ACCESS:      19703  HIT:      19663  MISS:         40  HIT %:     99.797  MISS %:   0.203015   MPKI: 0.0002
PSCL2 TRANSLATION FROM L1D PREFETCHER ACCESS:     524609  HIT:     524609  MISS:          0  HIT %:        100  MISS %:          0   MPKI: 0
PSCL2 PREFETCH  REQUESTED:          0  ISSUED:          0  USEFUL:          0  USELESS:          0
PSCL2 USEFUL LOAD PREFETCHES:          0 PREFETCH ISSUED TO LOWER LEVEL:          0  ACCURACY: -nan
PSCL2 TIMELY PREFETCHES:          0 LATE PREFETCHES: 0 DROPPED PREFETCHES: 0
PSCL2 PREFETCHES SAME FILL-ORIGIN LEVEL: 0 DIFFERENT FILL-ORIGIN LEVEL: 0

LLC TOTAL     ACCESS:    1933222  HIT:     643945  MISS:    1289277  HIT %:    33.3094  MISS %:    66.6906   MPKI: 6.44638
LLC LOAD      ACCESS:       4864  HIT:          0  MISS:       4864  HIT %:          0  MISS %:        100   MPKI: 0.02432
LLC RFO       ACCESS:     668131  HIT:          0  MISS:     668131  HIT %:          0  MISS %:        100   MPKI: 3.34065
LLC PREFETCH  ACCESS:     588018  HIT:         11  MISS:     588007  HIT %: 0.00187069  MISS %:    99.9981   MPKI: 2.94003
LLC WRITEBACK ACCESS:     669674  HIT:     643927  MISS:      25747  HIT %:    96.1553  MISS %:    3.84471   MPKI: 0.128735
LLC LOAD TRANSLATION ACCESS:       1328  HIT:          0  MISS:       1328  HIT %:          0  MISS %:        100   MPKI: 0.00664
LLC TRANSLATION FROM L1D PREFETCHER ACCESS:       1207  HIT:          7  MISS:       1200  HIT %:    0.57995  MISS %:      99.42   MPKI: 0.006
LLC PREFETCH  REQUESTED:          0  ISSUED:          0  USEFUL:          2  USELESS:    2354210
LLC USEFUL LOAD PREFETCHES:          2 PREFETCH ISSUED TO LOWER LEVEL:    2352133  ACCURACY: 8.50292e-05
LLC TIMELY PREFETCHES:          2 LATE PREFETCHES: 0 DROPPED PREFETCHES: 0
LLC PREFETCHES SAME FILL-ORIGIN LEVEL: 0 DIFFERENT FILL-ORIGIN LEVEL: 0
LLC AVERAGE MISS LATENCY: 1046.54 cycles
LLC RQ	ACCESS:    2702315	FORWARD:          0	MERGED:          0	TO_CACHE:    2702315
LLC WQ	ACCESS:    2678570	FORWARD:          0	MERGED:          0	TO_CACHE:    2678570
LLC PQ	ACCESS:    2352156	FORWARD:          0	MERGED:          0	TO_CACHE:    2352156

LLC Dense regions hint to LLC: 0

RAW hits: 0
Loads Generated: 37850914
Loads sent to L1D: 37850914
Stores Generated: 5345047
Stores sent to L1D: 5345047
Major fault: 0 Minor fault: 24882
Allocated PAGES: 99528

CPU 1 cumulative IPC: 1.10926 instructions: 200000000 cycles: 180300919
ITLB TOTAL     ACCESS:   33159915  HIT:   33159915  MISS:          0  HIT %:        100  MISS %:          0   MPKI: 0
ITLB LOAD TRANSLATION ACCESS:   33159915  HIT:   33159915  MISS:          0  HIT %:        100  MISS %:          0   MPKI: 0
ITLB PREFETCH  REQUESTED:          0  ISSUED:          0  USEFUL:          0  USELESS:          0
ITLB USEFUL LOAD PREFETCHES:          0 PREFETCH ISSUED TO LOWER LEVEL:          0  ACCURACY: -nan
ITLB TIMELY PREFETCHES:          0 LATE PREFETCHES: 0 DROPPED PREFETCHES: 0
ITLB PREFETCHES SAME FILL-ORIGIN LEVEL: 0 DIFFERENT FILL-ORIGIN LEVEL: 0
ITLB AVERAGE MISS LATENCY: -nan cycles
ITLB RQ	ACCESS:   33181575	FORWARD:          0	MERGED:      18456	TO_CACHE:   33163119

DTLB TOTAL     ACCESS:   20732584  HIT:   20712881  MISS:      19703  HIT %:     99.905  MISS %:   0.095034   MPKI: 0.098515
DTLB LOAD TRANSLATION ACCESS:   20732584  HIT:   20712881  MISS:      19703  HIT %:     99.905  MISS %:   0.095034   MPKI: 0.098515
DTLB PREFETCH  REQUESTED:          0  ISSUED:          0  USEFUL:          0  USELESS:          0
DTLB USEFUL LOAD PREFETCHES:          0 PREFETCH ISSUED TO LOWER LEVEL:          0  ACCURACY: -nan
DTLB TIMELY PREFETCHES:          0 LATE PREFETCHES: 0 DROPPED PREFETCHES: 0
DTLB PREFETCHES SAME FILL-ORIGIN LEVEL: 0 DIFFERENT FILL-ORIGIN LEVEL: 0
DTLB AVERAGE MISS LATENCY: 149.18 cycles
DTLB RQ	ACCESS:   20827050	FORWARD:          0	MERGED:      73843	TO_CACHE:   20753207

STLB TOTAL     ACCESS:   10260832  HIT:   10241129  MISS:      19703  HIT %:     99.808  MISS %:   0.192021   MPKI: 0.098515
STLB LOAD TRANSLATION ACCESS:      19703  HIT:          0  MISS:      19703  HIT %:          0  MISS %:        100   MPKI: 0.098515
STLB TRANSLATION FROM L1D PREFETCHER ACCESS:   10241129  HIT:   10241129  MISS:          0  HIT %:        100  MISS %:          0   MPKI: 0
STLB PREFETCH  REQUESTED:          0  ISSUED:          0  USEFUL:          1  USELESS:          0
STLB USEFUL LOAD PREFETCHES:          1 PREFETCH ISSUED TO LOWER LEVEL:          0  ACCURACY: inf
STLB TIMELY PREFETCHES:          1 LATE PREFETCHES: 1858 DROPPED PREFETCHES: 523691
STLB PREFETCHES SAME FILL-ORIGIN LEVEL: 0 DIFFERENT FILL-ORIGIN LEVEL: 0
STLB AVERAGE MISS LATENCY: 139.881 cycles
STLB RQ	ACCESS:   70891860	FORWARD:          0	MERGED:   60054880	TO_CACHE:   10836980

STLB Hit, L1D data hit: 0
STLB Hit, L2C data hit: 0
STLB Hit, LLC data hit: 0
STLB Hit, LLC data miss: 0
STLB STLB hints to L2: 0
L1D TOTAL     ACCESS:   76048315  HIT:   74787268  MISS:    1261047  HIT %:    98.3418  MISS %:    1.65822   MPKI: 6.30523
L1D LOAD      ACCESS:   15421889  HIT:   15411234  MISS:      10655  HIT %:    99.9309  MISS %:  0.0690901   MPKI: 0.053275
L1D RFO       ACCESS:    1361039  HIT:     692908  MISS:     668131  HIT %:    50.9102  MISS %:    49.0898   MPKI: 3.34065
L1D PREFETCH  ACCESS:   59265387  HIT:   58683126  MISS:     582261  HIT %:    99.0175  MISS %:   0.982464   MPKI: 2.91131
L1D PREFETCH  REQUESTED:  285394257  ISSUED:  285376201  USEFUL:     582264  USELESS:         48
L1D USEFUL LOAD PREFETCHES:     582264 PREFETCH ISSUED TO LOWER LEVEL:    2617367  ACCURACY: 22.2462
L1D TIMELY PREFETCHES:     582264 LATE PREFETCHES: 5804 DROPPED PREFETCHES: 2387297
L1D PREFETCHES SAME FILL-ORIGIN LEVEL: 588127 DIFFERENT FILL-ORIGIN LEVEL: 2029240
L1D AVERAGE MISS LATENCY: 293.485 cycles
L1D RQ	ACCESS:   37854501	FORWARD:          0	MERGED:   22373077	TO_CACHE:   15481424
L1D WQ	ACCESS:    5345626	FORWARD:          0	MERGED:          0	TO_CACHE:    5345626
L1D PQ	ACCESS:  214504048	FORWARD:          0	MERGED:  143631895	TO_CACHE:   70872153

L1D UNIQUE REGIONS ACCESSED: 0
L1D REGIONS CONFLICTS: 0
L1D Cross Page Prefetch Requests: 22004376
L1D Same Page Prefetch Requests: 314892535
L1D ROI Sum of L1D PQ occupancy: 872949058
L1D PREFETCHES PUSHED FROM L2C: 0
L1I TOTAL     ACCESS:   33178369  HIT:   33178369  MISS:          0  HIT %:        100  MISS %:          0   MPKI: 0
L1I LOAD      ACCESS:   33178369  HIT:   33178369  MISS:          0  HIT %:        100  MISS %:          0   MPKI: 0
L1I PREFETCH  REQUESTED:          0  ISSUED:          0  USEFUL:          0  USELESS:          0
L1I USEFUL LOAD PREFETCHES:          0 PREFETCH ISSUED TO LOWER LEVEL:          0  ACCURACY: -nan
L1I TIMELY PREFETCHES:          0 LATE PREFETCHES: 0 DROPPED PREFETCHES: 0
L1I PREFETCHES SAME FILL-ORIGIN LEVEL: 0 DIFFERENT FILL-ORIGIN LEVEL: 0
L1I AVERAGE MISS LATENCY: -nan cycles
L1I RQ	ACCESS:   91493566	FORWARD:          0	MERGED:   58311991	TO_CACHE:   33181575

BTB TOTAL     ACCESS:   75609432  HIT:   75609431  MISS:          1  HIT %:        100  MISS %: 1.32259e-06   MPKI: 5e-06
BTB BRANCH_DIRECT_JUMP	ACCESS:          0  HIT:          0  MISS:          0
BTB BRANCH_INDIRECT	ACCESS:          0  HIT:          0  MISS:          0
BTB BRANCH_CONDITIONAL	ACCESS:   75609432  HIT:   75609431  MISS:          1
BTB BRANCH_DIRECT_CALL	ACCESS:          0  HIT:          0  MISS:          0
BTB BRANCH_INDIRECT_CALL	ACCESS:          0  HIT:          0  MISS:          0
BTB BRANCH_RETURN	ACCESS:          0  HIT:          0  MISS:          0
BTB BRANCH_OTHER ACCESS:          0  HIT:          0  MISS:          0

L2C TOTAL     ACCESS:    3620232  HIT:    2310052  MISS:    1310180  HIT %:    63.8095  MISS %:    36.1905   MPKI: 6.5509
L2C LOAD      ACCESS:       4852  HIT:          0  MISS:       4852  HIT %:          0  MISS %:        100   MPKI: 0.02426
L2C DATA LOAD MPKI: 0.02426
L2C INSTRUCTION LOAD MPKI: 0
L2C RFO       ACCESS:     668131  HIT:          0  MISS:     668131  HIT %:          0  MISS %:        100   MPKI: 3.34065
L2C PREFETCH  ACCESS:    1733803  HIT:    1145783  MISS:     588020  HIT %:     66.085  MISS %:     33.915   MPKI: 2.9401
L2C DATA PREFETCH MPKI: 2.9401
L2C INSTRUCTION PREFETCH MPKI: 0
L2C WRITEBACK ACCESS:     668128  HIT:     621485  MISS:      46643  HIT %:    93.0189  MISS %:    6.98115   MPKI: 0.233215
L2C LOAD TRANSLATION ACCESS:      19705  HIT:      18377  MISS:       1328  HIT %:    93.2606  MISS %:    6.73941   MPKI: 0.00664
L2C TRANSLATION FROM L1D PREFETCHER ACCESS:     525613  HIT:     524407  MISS:       1206  HIT %:    99.7706  MISS %:   0.229446   MPKI: 0.00603
L2C PREFETCH  REQUESTED:          0  ISSUED:          0  USEFUL:       1206  USELESS:     586756
L2C USEFUL LOAD PREFETCHES:       1206 PREFETCH ISSUED TO LOWER LEVEL:     588085  ACCURACY: 0.205072
L2C TIMELY PREFETCHES:       1206 LATE PREFETCHES: 0 DROPPED PREFETCHES: 0
L2C PREFETCHES SAME FILL-ORIGIN LEVEL: 68354 DIFFERENT FILL-ORIGIN LEVEL: 0
L2C AVERAGE MISS LATENCY: 287.058 cycles
L2C RQ	ACCESS:    1218380	FORWARD:          0	MERGED:          0	TO_CACHE:    1218380
L2C WQ	ACCESS:     668196	FORWARD:          0	MERGED:          0	TO_CACHE:     668196
L2C PQ	ACCESS:    2617367	FORWARD:          0	MERGED:       3204	TO_CACHE:    2614163

L2C Instructions Evicting Data 0
L2C Translations Evicting Data 2536
L2C Data Evicting Data 1258661
L2C Instructions Evicting Instructions 0
L2C Translations Evicting Instructions 0
L2C Data Evicting Instructions 0
L2C Instructions Evicting Translations 0
L2C Translations Evicting Translations 1
L2C Data Evicting Translations 2476
L2C Dense regions hint from L2: 0
PSCL5 TOTAL     ACCESS:     545253  HIT:     545253  MISS:          0  HIT %:        100  MISS %:          0   MPKI: 0
PSCL5 LOAD TRANSLATION ACCESS:      19704  HIT:      19704  MISS:          0  HIT %:        100  MISS %:          0   MPKI: 0
PSCL5 TRANSLATION FROM L1D PREFETCHER ACCESS:     525549  HIT:     525549  MISS:          0  HIT %:        100  MISS %:          0   MPKI: 0
PSCL5 PREFETCH  REQUESTED:          0  ISSUED:          0  USEFUL:          0  USELESS:          0
PSCL5 USEFUL LOAD PREFETCHES:          0 PREFETCH ISSUED TO LOWER LEVEL:          0  ACCURACY: -nan
PSCL5 TIMELY PREFETCHES:          0 LATE PREFETCHES: 0 DROPPED PREFETCHES: 0
PSCL5 PREFETCHES SAME FILL-ORIGIN LEVEL: 0 DIFFERENT FILL-ORIGIN LEVEL: 0

PSCL4 TOTAL     ACCESS:     545253  HIT:     545253  MISS:          0  HIT %:        100  MISS %:          0   MPKI: 0
PSCL4 LOAD TRANSLATION ACCESS:      19704  HIT:      19704  MISS:          0  HIT %:        100  MISS %:          0   MPKI: 0
PSCL4 TRANSLATION FROM L1D PREFETCHER ACCESS:     525549  HIT:     525549  MISS:          0  HIT %:        100  MISS %:          0   MPKI: 0
PSCL4 PREFETCH  REQUESTED:          0  ISSUED:          0  USEFUL:          0  USELESS:          0
PSCL4 USEFUL LOAD PREFETCHES:          0 PREFETCH ISSUED TO LOWER LEVEL:          0  ACCURACY: -nan
PSCL4 TIMELY PREFETCHES:          0 LATE PREFETCHES: 0 DROPPED PREFETCHES: 0
PSCL4 PREFETCHES SAME FILL-ORIGIN LEVEL: 0 DIFFERENT FILL-ORIGIN LEVEL: 0

PSCL3 TOTAL     ACCESS:     545253  HIT:     545253  MISS:          0  HIT %:        100  MISS %:          0   MPKI: 0
PSCL3 LOAD TRANSLATION ACCESS:      19704  HIT:      19704  MISS:          0  HIT %:        100  MISS %:          0   MPKI: 0
PSCL3 TRANSLATION FROM L1D PREFETCHER ACCESS:     525549  HIT:     525549  MISS:          0  HIT %:        100  MISS %:          0   MPKI: 0
PSCL3 PREFETCH  REQUESTED:          0  ISSUED:          0  USEFUL:          0  USELESS:          0
PSCL3 USEFUL LOAD PREFETCHES:          0 PREFETCH ISSUED TO LOWER LEVEL:          0  ACCURACY: -nan
PSCL3 TIMELY PREFETCHES:          0 LATE PREFETCHES: 0 DROPPED PREFETCHES: 0
PSCL3 PREFETCHES SAME FILL-ORIGIN LEVEL: 0 DIFFERENT FILL-ORIGIN LEVEL: 0

PSCL2 TOTAL     ACCESS:     544329  HIT:     544289  MISS:         40  HIT %:    99.9927  MISS %:  0.0073485   MPKI: 0.0002
PSCL2 LOAD TRANSLATION ACCESS:      19703  HIT:      19663  MISS:         40  HIT %:     99.797  MISS %:   0.203015   MPKI: 0.0002
PSCL2 TRANSLATION FROM L1D PREFETCHER ACCESS:     524626  HIT:     524626  MISS:          0  HIT %:        100  MISS %:          0   MPKI: 0
PSCL2 PREFETCH  REQUESTED:          0  ISSUED:          0  USEFUL:          0  USELESS:          0
PSCL2 USEFUL LOAD PREFETCHES:          0 PREFETCH ISSUED TO LOWER LEVEL:          0  ACCURACY: -nan
PSCL2 TIMELY PREFETCHES:          0 LATE PREFETCHES: 0 DROPPED PREFETCHES: 0
PSCL2 PREFETCHES SAME FILL-ORIGIN LEVEL: 0 DIFFERENT FILL-ORIGIN LEVEL: 0

LLC TOTAL     ACCESS:    1933021  HIT:     644302  MISS:    1288719  HIT %:    33.3314  MISS %:    66.6686   MPKI: 6.4436
LLC LOAD      ACCESS:       4852  HIT:          0  MISS:       4852  HIT %:          0  MISS %:        100   MPKI: 0.02426
LLC RFO       ACCESS:     668131  HIT:          0  MISS:     668131  HIT %:          0  MISS %:        100   MPKI: 3.34065
LLC PREFETCH  ACCESS:     588020  HIT:          3  MISS:     588017  HIT %: 0.000510187  MISS %:    99.9995   MPKI: 2.94008
LLC WRITEBACK ACCESS:     669484  HIT:     644298  MISS:      25186  HIT %:     96.238  MISS %:      3.762   MPKI: 0.12593
LLC LOAD TRANSLATION ACCESS:       1328  HIT:          1  MISS:       1327  HIT %:  0.0753012  MISS %:    99.9247   MPKI: 0.006635
LLC TRANSLATION FROM L1D PREFETCHER ACCESS:       1206  HIT:          0  MISS:       1206  HIT %:          0  MISS %:        100   MPKI: 0.00603
LLC PREFETCH  REQUESTED:          0  ISSUED:          0  USEFUL:          2  USELESS:    2354210
LLC USEFUL LOAD PREFETCHES:          2 PREFETCH ISSUED TO LOWER LEVEL:    2352133  ACCURACY: 8.50292e-05
LLC TIMELY PREFETCHES:          2 LATE PREFETCHES: 0 DROPPED PREFETCHES: 0
LLC PREFETCHES SAME FILL-ORIGIN LEVEL: 0 DIFFERENT FILL-ORIGIN LEVEL: 0
LLC AVERAGE MISS LATENCY: 1047 cycles
LLC RQ	ACCESS:    2702315	FORWARD:          0	MERGED:          0	TO_CACHE:    2702315
LLC WQ	ACCESS:    2678570	FORWARD:          0	MERGED:          0	TO_CACHE:    2678570
LLC PQ	ACCESS:    2352156	FORWARD:          0	MERGED:          0	TO_CACHE:    2352156

LLC Dense regions hint to LLC: 0

RAW hits: 0
Loads Generated: 37850890
Loads sent to L1D: 37850888
Stores Generated: 5345044
Stores sent to L1D: 5345047
Major fault: 0 Minor fault: 24882
Allocated PAGES: 99528

CPU 2 cumulative IPC: 1.10915 instructions: 200000002 cycles: 180318022
ITLB TOTAL     ACCESS:   33159872  HIT:   33159872  MISS:          0  HIT %:        100  MISS %:          0   MPKI: 0
ITLB LOAD TRANSLATION ACCESS:   33159872  HIT:   33159872  MISS:          0  HIT %:        100  MISS %:          0   MPKI: 0
ITLB PREFETCH  REQUESTED:          0  ISSUED:          0  USEFUL:          0  USELESS:          0
ITLB USEFUL LOAD PREFETCHES:          0 PREFETCH ISSUED TO LOWER LEVEL:          0  ACCURACY: -nan
ITLB TIMELY PREFETCHES:          0 LATE PREFETCHES: 0 DROPPED PREFETCHES: 0
ITLB PREFETCHES SAME FILL-ORIGIN LEVEL: 0 DIFFERENT FILL-ORIGIN LEVEL: 0
ITLB AVERAGE MISS LATENCY: -nan cycles
ITLB RQ	ACCESS:   33178327	FORWARD:          0	MERGED:      18455	TO_CACHE:   33159872

DTLB TOTAL     ACCESS:   20732301  HIT:   20712598  MISS:      19703  HIT %:     99.905  MISS %:  0.0950353   MPKI: 0.098515
DTLB LOAD TRANSLATION ACCESS:   20732301  HIT:   20712598  MISS:      19703  HIT %:     99.905  MISS %:  0.0950353   MPKI: 0.098515
DTLB PREFETCH  REQUESTED:          0  ISSUED:          0  USEFUL:          0  USELESS:          0
DTLB USEFUL LOAD PREFETCHES:          0 PREFETCH ISSUED TO LOWER LEVEL:          0  ACCURACY: -nan
DTLB TIMELY PREFETCHES:          0 LATE PREFETCHES: 0 DROPPED PREFETCHES: 0
DTLB PREFETCHES SAME FILL-ORIGIN LEVEL: 0 DIFFERENT FILL-ORIGIN LEVEL: 0
DTLB AVERAGE MISS LATENCY: 149.622 cycles
DTLB RQ	ACCESS:   20825106	FORWARD:          0	MERGED:      73828	TO_CACHE:   20751278

STLB TOTAL     ACCESS:   10260068  HIT:   10240365  MISS:      19703  HIT %:     99.808  MISS %:   0.192036   MPKI: 0.098515
STLB LOAD TRANSLATION ACCESS:      19703  HIT:          0  MISS:      19703  HIT %:          0  MISS %:        100   MPKI: 0.098515
STLB TRANSLATION FROM L1D PREFETCHER ACCESS:   10240365  HIT:   10240365  MISS:          0  HIT %:        100  MISS %:          0   MPKI: 0
STLB PREFETCH  REQUESTED:          0  ISSUED:          0  USEFUL:          0  USELESS:          0
STLB USEFUL LOAD PREFETCHES:          0 PREFETCH ISSUED TO LOWER LEVEL:          0  ACCURACY: -nan
STLB TIMELY PREFETCHES:          0 LATE PREFETCHES: 1861 DROPPED PREFETCHES: 523076
STLB PREFETCHES SAME FILL-ORIGIN LEVEL: 0 DIFFERENT FILL-ORIGIN LEVEL: 0
STLB AVERAGE MISS LATENCY: 140.336 cycles
STLB RQ	ACCESS:   70884688	FORWARD:          0	MERGED:   60050255	TO_CACHE:   10834433

STLB Hit, L1D data hit: 0
STLB Hit, L2C data hit: 0
STLB Hit, LLC data hit: 0
STLB Hit, LLC data miss: 0
STLB STLB hints to L2: 0
L1D TOTAL     ACCESS:   76058387  HIT:   74797359  MISS:    1261028  HIT %:     98.342  MISS %:    1.65797   MPKI: 6.30514
L1D LOAD      ACCESS:   15421986  HIT:   15411342  MISS:      10644  HIT %:     99.931  MISS %:  0.0690183   MPKI: 0.05322
L1D RFO       ACCESS:    1362744  HIT:     694613  MISS:     668131  HIT %:    50.9716  MISS %:    49.0284   MPKI: 3.34065
L1D PREFETCH  ACCESS:   59273657  HIT:   58691404  MISS:     582253  HIT %:    99.0177  MISS %:   0.982313   MPKI: 2.91126
L1D PREFETCH  REQUESTED:  285382490  ISSUED:  285365162  USEFUL:     582219  USELESS:         33
L1D USEFUL LOAD PREFETCHES:     582219 PREFETCH ISSUED TO LOWER LEVEL:    2638022  ACCURACY: 22.0703
L1D TIMELY PREFETCHES:     582219 LATE PREFETCHES: 5764 DROPPED PREFETCHES: 2384572
L1D PREFETCHES SAME FILL-ORIGIN LEVEL: 588019 DIFFERENT FILL-ORIGIN LEVEL: 2050003
L1D AVERAGE MISS LATENCY: 292.395 cycles
L1D RQ	ACCESS:   37850887	FORWARD:          0	MERGED:   22370828	TO_CACHE:   15480059
L1D WQ	ACCESS:    5345047	FORWARD:          0	MERGED:          0	TO_CACHE:    5345047
L1D PQ	ACCESS:  214500178	FORWARD:          0	MERGED:  143635194	TO_CACHE:   70864984

L1D UNIQUE REGIONS ACCESSED: 0
L1D REGIONS CONFLICTS: 0
L1D Cross Page Prefetch Requests: 22006411
L1D Same Page Prefetch Requests: 314886552
L1D ROI Sum of L1D PQ occupancy: 873022038
L1D PREFETCHES PUSHED FROM L2C: 0
L1I TOTAL     ACCESS:   33178327  HIT:   33178327  MISS:          0  HIT %:        100  MISS %:          0   MPKI: 0
L1I LOAD      ACCESS:   33178327  HIT:   33178327  MISS:          0  HIT %:        100  MISS %:          0   MPKI: 0
L1I PREFETCH  REQUESTED:          0  ISSUED:          0  USEFUL:          0  USELESS:          0
L1I USEFUL LOAD PREFETCHES:          0 PREFETCH ISSUED TO LOWER LEVEL:          0  ACCURACY: -nan
L1I TIMELY PREFETCHES:          0 LATE PREFETCHES: 0 DROPPED PREFETCHES: 0
L1I PREFETCHES SAME FILL-ORIGIN LEVEL: 0 DIFFERENT FILL-ORIGIN LEVEL: 0
L1I AVERAGE MISS LATENCY: -nan cycles
L1I RQ	ACCESS:   91484949	FORWARD:          0	MERGED:   58306622	TO_CACHE:   33178327

BTB TOTAL     ACCESS:   75609426  HIT:   75609424  MISS:          2  HIT %:        100  MISS %: 2.64517e-06   MPKI: 1e-05
BTB BRANCH_DIRECT_JUMP	ACCESS:          0  HIT:          0  MISS:          0
BTB BRANCH_INDIRECT	ACCESS:          0  HIT:          0  MISS:          0
BTB BRANCH_CONDITIONAL	ACCESS:   75609426  HIT:   75609424  MISS:          2
BTB BRANCH_DIRECT_CALL	ACCESS:          0  HIT:          0  MISS:          0
BTB BRANCH_INDIRECT_CALL	ACCESS:          0  HIT:          0  MISS:          0
BTB BRANCH_RETURN	ACCESS:          0  HIT:          0  MISS:          0
BTB BRANCH_OTHER ACCESS:          0  HIT:          0  MISS:          0

L2C TOTAL     ACCESS:    3630257  HIT:    2321244  MISS:    1309013  HIT %:    63.9416  MISS %:    36.0584   MPKI: 6.54506
L2C LOAD      ACCESS:       4880  HIT:          1  MISS:       4879  HIT %:  0.0204918  MISS %:    99.9795   MPKI: 0.024395
L2C DATA LOAD MPKI: 0.024395
L2C INSTRUCTION LOAD MPKI: 0
L2C RFO       ACCESS:     668131  HIT:          0  MISS:     668131  HIT %:          0  MISS %:        100   MPKI: 3.34065
L2C PREFETCH  ACCESS:    1744412  HIT:    1156422  MISS:     587990  HIT %:    66.2929  MISS %:    33.7071   MPKI: 2.93995
L2C DATA PREFETCH MPKI: 2.93995
L2C INSTRUCTION PREFETCH MPKI: 0
L2C WRITEBACK ACCESS:     668128  HIT:     622649  MISS:      45479  HIT %:    93.1931  MISS %:    6.80693   MPKI: 0.227395
L2C LOAD TRANSLATION ACCESS:      19705  HIT:      18378  MISS:       1327  HIT %:    93.2657  MISS %:    6.73433   MPKI: 0.006635
L2C TRANSLATION FROM L1D PREFETCHER ACCESS:     525001  HIT:     523794  MISS:       1207  HIT %:    99.7701  MISS %:   0.229904   MPKI: 0.006035
L2C PREFETCH  REQUESTED:          0  ISSUED:          0  USEFUL:       1208  USELESS:     586583
L2C USEFUL LOAD PREFETCHES:       1208 PREFETCH ISSUED TO LOWER LEVEL:     587992  ACCURACY: 0.205445
L2C TIMELY PREFETCHES:       1208 LATE PREFETCHES: 0 DROPPED PREFETCHES: 0
L2C PREFETCHES SAME FILL-ORIGIN LEVEL: 69041 DIFFERENT FILL-ORIGIN LEVEL: 0
L2C AVERAGE MISS LATENCY: 286.395 cycles
L2C RQ	ACCESS:    1217718	FORWARD:          0	MERGED:          0	TO_CACHE:    1217718
L2C WQ	ACCESS:     668128	FORWARD:          0	MERGED:          0	TO_CACHE:     668128
L2C PQ	ACCESS:    2638022	FORWARD:          0	MERGED:       3137	TO_CACHE:    2634885

L2C Instructions Evicting Data 0
L2C Translations Evicting Data 2534
L2C Data Evicting Data 1258539
L2C Instructions Evicting Instructions 0
L2C Translations Evicting Instructions 0
L2C Data Evicting Instructions 0
L2C Instructions Evicting Translations 0
L2C Translations Evicting Translations 0
L2C Data Evicting Translations 2461
L2C Dense regions hint from L2: 0
PSCL5 TOTAL     ACCESS:     544641  HIT:     544641  MISS:          0  HIT %:        100  MISS %:          0   MPKI: 0
PSCL5 LOAD TRANSLATION ACCESS:      19704  HIT:      19704  MISS:          0  HIT %:        100  MISS %:          0   MPKI: 0
PSCL5 TRANSLATION FROM L1D PREFETCHER ACCESS:     524937  HIT:     524937  MISS:          0  HIT %:        100  MISS %:          0   MPKI: 0
PSCL5 PREFETCH  REQUESTED:          0  ISSUED:          0  USEFUL:          0  USELESS:          0
PSCL5 USEFUL LOAD PREFETCHES:          0 PREFETCH ISSUED TO LOWER LEVEL:          0  ACCURACY: -nan
PSCL5 TIMELY PREFETCHES:          0 LATE PREFETCHES: 0 DROPPED PREFETCHES: 0
PSCL5 PREFETCHES SAME FILL-ORIGIN LEVEL: 0 DIFFERENT FILL-ORIGIN LEVEL: 0

PSCL4 TOTAL     ACCESS:     544641  HIT:     544641  MISS:          0  HIT %:        100  MISS %:          0   MPKI: 0
PSCL4 LOAD TRANSLATION ACCESS:      19704  HIT:      19704  MISS:          0  HIT %:        100  MISS %:          0   MPKI: 0
PSCL4 TRANSLATION FROM L1D PREFETCHER ACCESS:     524937  HIT:     524937  MISS:          0  HIT %:        100  MISS %:          0   MPKI: 0
PSCL4 PREFETCH  REQUESTED:          0  ISSUED:          0  USEFUL:          0  USELESS:          0
PSCL4 USEFUL LOAD PREFETCHES:          0 PREFETCH ISSUED TO LOWER LEVEL:          0  ACCURACY: -nan
PSCL4 TIMELY PREFETCHES:          0 LATE PREFETCHES: 0 DROPPED PREFETCHES: 0
PSCL4 PREFETCHES SAME FILL-ORIGIN LEVEL: 0 DIFFERENT FILL-ORIGIN LEVEL: 0

PSCL3 TOTAL     ACCESS:     544641  HIT:     544641  MISS:          0  HIT %:        100  MISS %:          0   MPKI: 0
PSCL3 LOAD TRANSLATION ACCESS:      19704  HIT:      19704  MISS:          0  HIT %:        100  MISS %:          0   MPKI: 0
PSCL3 TRANSLATION FROM L1D PREFETCHER ACCESS:     524937  HIT:     524937  MISS:          0  HIT %:        100  MISS %:          0   MPKI: 0
PSCL3 PREFETCH  REQUESTED:          0  ISSUED:          0  USEFUL:          0  USELESS:          0
PSCL3 USEFUL LOAD PREFETCHES:          0 PREFETCH ISSUED TO LOWER LEVEL:          0  ACCURACY: -nan
PSCL3 TIMELY PREFETCHES:          0 LATE PREFETCHES: 0 DROPPED PREFETCHES: 0
PSCL3 PREFETCHES SAME FILL-ORIGIN LEVEL: 0 DIFFERENT FILL-ORIGIN LEVEL: 0

PSCL2 TOTAL     ACCESS:     543752  HIT:     543712  MISS:         40  HIT %:    99.9926  MISS %: 0.00735629   MPKI: 0.0002
PSCL2 LOAD TRANSLATION ACCESS:      19703  HIT:      19663  MISS:         40  HIT %:     99.797  MISS %:   0.203015   MPKI: 0.0002
PSCL2 TRANSLATION FROM L1D PREFETCHER ACCESS:     524049  HIT:     524049  MISS:          0  HIT %:        100  MISS %:          0   MPKI: 0
PSCL2 PREFETCH  REQUESTED:          0  ISSUED:          0  USEFUL:          0  USELESS:          0
PSCL2 USEFUL LOAD PREFETCHES:          0 PREFETCH ISSUED TO LOWER LEVEL:          0  ACCURACY: -nan
PSCL2 TIMELY PREFETCHES:          0 LATE PREFETCHES: 0 DROPPED PREFETCHES: 0
PSCL2 PREFETCHES SAME FILL-ORIGIN LEVEL: 0 DIFFERENT FILL-ORIGIN LEVEL: 0

LLC TOTAL     ACCESS:    1933083  HIT:     643876  MISS:    1289207  HIT %:    33.3082  MISS %:    66.6918   MPKI: 6.44603
LLC LOAD      ACCESS:       4879  HIT:          0  MISS:       4879  HIT %:          0  MISS %:        100   MPKI: 0.024395
LLC RFO       ACCESS:     668131  HIT:          0  MISS:     668131  HIT %:          0  MISS %:        100   MPKI: 3.34065
LLC PREFETCH  ACCESS:     587990  HIT:          2  MISS:     587988  HIT %: 0.000340142  MISS %:    99.9997   MPKI: 2.93994
LLC WRITEBACK ACCESS:     669549  HIT:     643874  MISS:      25675  HIT %:    96.1653  MISS %:    3.83467   MPKI: 0.128375
LLC LOAD TRANSLATION ACCESS:       1327  HIT:          0  MISS:       1327  HIT %:          0  MISS %:        100   MPKI: 0.006635
LLC TRANSLATION FROM L1D PREFETCHER ACCESS:       1207  HIT:          0  MISS:       1207  HIT %:          0  MISS %:        100   MPKI: 0.006035
LLC PREFETCH  REQUESTED:          0  ISSUED:          0  USEFUL:          2  USELESS:    2354210
LLC USEFUL LOAD PREFETCHES:          2 PREFETCH ISSUED TO LOWER LEVEL:    2352133  ACCURACY: 8.50292e-05
LLC TIMELY PREFETCHES:          2 LATE PREFETCHES: 0 DROPPED PREFETCHES: 0
LLC PREFETCHES SAME FILL-ORIGIN LEVEL: 0 DIFFERENT FILL-ORIGIN LEVEL: 0
LLC AVERAGE MISS LATENCY: 1046.6 cycles
LLC RQ	ACCESS:    2702315	FORWARD:          0	MERGED:          0	TO_CACHE:    2702315
LLC WQ	ACCESS:    2678570	FORWARD:          0	MERGED:          0	TO_CACHE:    2678570
LLC PQ	ACCESS:    2352156	FORWARD:          0	MERGED:          0	TO_CACHE:    2352156

LLC Dense regions hint to LLC: 0

RAW hits: 0
Loads Generated: 37850889
Loads sent to L1D: 37850887
Stores Generated: 5345044
Stores sent to L1D: 5345047
Major fault: 0 Minor fault: 24882
Allocated PAGES: 99528

CPU 3 cumulative IPC: 1.10921 instructions: 200000000 cycles: 180309327
ITLB TOTAL     ACCESS:   33159909  HIT:   33159909  MISS:          0  HIT %:        100  MISS %:          0   MPKI: 0
ITLB LOAD TRANSLATION ACCESS:   33159909  HIT:   33159909  MISS:          0  HIT %:        100  MISS %:          0   MPKI: 0
ITLB PREFETCH  REQUESTED:          0  ISSUED:          0  USEFUL:          0  USELESS:          0
ITLB USEFUL LOAD PREFETCHES:          0 PREFETCH ISSUED TO LOWER LEVEL:          0  ACCURACY: -nan
ITLB TIMELY PREFETCHES:          0 LATE PREFETCHES: 0 DROPPED PREFETCHES: 0
ITLB PREFETCHES SAME FILL-ORIGIN LEVEL: 0 DIFFERENT FILL-ORIGIN LEVEL: 0
ITLB AVERAGE MISS LATENCY: -nan cycles
ITLB RQ	ACCESS:   33180005	FORWARD:          0	MERGED:      18456	TO_CACHE:   33161549

DTLB TOTAL     ACCESS:   20733002  HIT:   20713299  MISS:      19703  HIT %:     99.905  MISS %:  0.0950321   MPKI: 0.098515
DTLB LOAD TRANSLATION ACCESS:   20733002  HIT:   20713299  MISS:      19703  HIT %:     99.905  MISS %:  0.0950321   MPKI: 0.098515
DTLB PREFETCH  REQUESTED:          0  ISSUED:          0  USEFUL:          0  USELESS:          0
DTLB USEFUL LOAD PREFETCHES:          0 PREFETCH ISSUED TO LOWER LEVEL:          0  ACCURACY: -nan
DTLB TIMELY PREFETCHES:          0 LATE PREFETCHES: 0 DROPPED PREFETCHES: 0
DTLB PREFETCHES SAME FILL-ORIGIN LEVEL: 0 DIFFERENT FILL-ORIGIN LEVEL: 0
DTLB AVERAGE MISS LATENCY: 148.96 cycles
DTLB RQ	ACCESS:   20826413	FORWARD:          0	MERGED:      73752	TO_CACHE:   20752661

STLB TOTAL     ACCESS:   10259960  HIT:   10240257  MISS:      19703  HIT %:     99.808  MISS %:   0.192038   MPKI: 0.098515
STLB LOAD TRANSLATION ACCESS:      19703  HIT:          0  MISS:      19703  HIT %:          0  MISS %:        100   MPKI: 0.098515
STLB TRANSLATION FROM L1D PREFETCHER ACCESS:   10240257  HIT:   10240257  MISS:          0  HIT %:        100  MISS %:          0   MPKI: 0
STLB PREFETCH  REQUESTED:          0  ISSUED:          0  USEFUL:          0  USELESS:          0
STLB USEFUL LOAD PREFETCHES:          0 PREFETCH ISSUED TO LOWER LEVEL:          0  ACCURACY: -nan
STLB TIMELY PREFETCHES:          0 LATE PREFETCHES: 1856 DROPPED PREFETCHES: 523181
STLB PREFETCHES SAME FILL-ORIGIN LEVEL: 0 DIFFERENT FILL-ORIGIN LEVEL: 0
STLB AVERAGE MISS LATENCY: 139.665 cycles
STLB RQ	ACCESS:   70885493	FORWARD:          0	MERGED:   60050433	TO_CACHE:   10835060

STLB Hit, L1D data hit: 0
STLB Hit, L2C data hit: 0
STLB Hit, LLC data hit: 0
STLB Hit, LLC data miss: 0
STLB STLB hints to L2: 0
L1D TOTAL     ACCESS:   76048121  HIT:   74787082  MISS:    1261039  HIT %:    98.3418  MISS %:    1.65821   MPKI: 6.3052
L1D LOAD      ACCESS:   15421798  HIT:   15411091  MISS:      10707  HIT %:    99.9306  MISS %:  0.0694277   MPKI: 0.053535
L1D RFO       ACCESS:    1358911  HIT:     690781  MISS:     668130  HIT %:    50.8334  MISS %:    49.1666   MPKI: 3.34065
L1D PREFETCH  ACCESS:   59267412  HIT:   58685210  MISS:     582202  HIT %:    99.0177  MISS %:   0.982331   MPKI: 2.91101
L1D PREFETCH  REQUESTED:  285384833  ISSUED:  285367378  USEFUL:     582185  USELESS:         45
L1D USEFUL LOAD PREFETCHES:     582185 PREFETCH ISSUED TO LOWER LEVEL:    2630274  ACCURACY: 22.134
L1D TIMELY PREFETCHES:     582185 LATE PREFETCHES: 5817 DROPPED PREFETCHES: 2384920
L1D PREFETCHES SAME FILL-ORIGIN LEVEL: 588052 DIFFERENT FILL-ORIGIN LEVEL: 2042222
L1D AVERAGE MISS LATENCY: 293.082 cycles
L1D RQ	ACCESS:   37852743	FORWARD:          0	MERGED:   22371663	TO_CACHE:   15481080
L1D WQ	ACCESS:    5345333	FORWARD:          0	MERGED:          0	TO_CACHE:    5345333
L1D PQ	ACCESS:  214501590	FORWARD:          0	MERGED:  143635802	TO_CACHE:   70865788

L1D UNIQUE REGIONS ACCESSED: 0
L1D REGIONS CONFLICTS: 0
L1D Cross Page Prefetch Requests: 22006607
L1D Same Page Prefetch Requests: 314887377
L1D ROI Sum of L1D PQ occupancy: 872987069
L1D PREFETCHES PUSHED FROM L2C: 0
L1I TOTAL     ACCESS:   33178364  HIT:   33178364  MISS:          0  HIT %:        100  MISS %:          0   MPKI: 0
L1I LOAD      ACCESS:   33178364  HIT:   33178364  MISS:          0  HIT %:        100  MISS %:          0   MPKI: 0
L1I PREFETCH  REQUESTED:          0  ISSUED:          0  USEFUL:          0  USELESS:          0
L1I USEFUL LOAD PREFETCHES:          0 PREFETCH ISSUED TO LOWER LEVEL:          0  ACCURACY: -nan
L1I TIMELY PREFETCHES:          0 LATE PREFETCHES: 0 DROPPED PREFETCHES: 0
L1I PREFETCHES SAME FILL-ORIGIN LEVEL: 0 DIFFERENT FILL-ORIGIN LEVEL: 0
L1I AVERAGE MISS LATENCY: -nan cycles
L1I RQ	ACCESS:   91489739	FORWARD:          0	MERGED:   58309734	TO_CACHE:   33180005

BTB TOTAL     ACCESS:   75609402  HIT:   75609399  MISS:          3  HIT %:        100  MISS %: 3.96776e-06   MPKI: 1.5e-05
BTB BRANCH_DIRECT_JUMP	ACCESS:          0  HIT:          0  MISS:          0
BTB BRANCH_INDIRECT	ACCESS:          0  HIT:          0  MISS:          0
BTB BRANCH_CONDITIONAL	ACCESS:   75609402  HIT:   75609399  MISS:          3
BTB BRANCH_DIRECT_CALL	ACCESS:          0  HIT:          0  MISS:          0
BTB BRANCH_INDIRECT_CALL	ACCESS:          0  HIT:          0  MISS:          0
BTB BRANCH_RETURN	ACCESS:          0  HIT:          0  MISS:          0
BTB BRANCH_OTHER ACCESS:          0  HIT:          0  MISS:          0

L2C TOTAL     ACCESS:    3623742  HIT:    2324018  MISS:    1299724  HIT %:    64.1331  MISS %:    35.8669   MPKI: 6.49862
L2C LOAD      ACCESS:       4890  HIT:          0  MISS:       4890  HIT %:          0  MISS %:        100   MPKI: 0.02445
L2C DATA LOAD MPKI: 0.02445
L2C INSTRUCTION LOAD MPKI: 0
L2C RFO       ACCESS:     668130  HIT:          0  MISS:     668130  HIT %:          0  MISS %:        100   MPKI: 3.34065
L2C PREFETCH  ACCESS:    1737788  HIT:    1149806  MISS:     587982  HIT %:    66.1649  MISS %:    33.8351   MPKI: 2.93991
L2C DATA PREFETCH MPKI: 2.93991
L2C INSTRUCTION PREFETCH MPKI: 0
L2C WRITEBACK ACCESS:     668128  HIT:     631941  MISS:      36187  HIT %:    94.5838  MISS %:    5.41618   MPKI: 0.180935
L2C LOAD TRANSLATION ACCESS:      19705  HIT:      18378  MISS:       1327  HIT %:    93.2657  MISS %:    6.73433   MPKI: 0.006635
L2C TRANSLATION FROM L1D PREFETCHER ACCESS:     525101  HIT:     523893  MISS:       1208  HIT %:    99.7699  MISS %:   0.230051   MPKI: 0.00604
L2C PREFETCH  REQUESTED:          0  ISSUED:          0  USEFUL:       1208  USELESS:     586415
L2C USEFUL LOAD PREFETCHES:       1208 PREFETCH ISSUED TO LOWER LEVEL:     588017  ACCURACY: 0.205436
L2C TIMELY PREFETCHES:       1208 LATE PREFETCHES: 0 DROPPED PREFETCHES: 0
L2C PREFETCHES SAME FILL-ORIGIN LEVEL: 68870 DIFFERENT FILL-ORIGIN LEVEL: 0
L2C AVERAGE MISS LATENCY: 289.126 cycles
L2C RQ	ACCESS:    1217866	FORWARD:          0	MERGED:          0	TO_CACHE:    1217866
L2C WQ	ACCESS:     668162	FORWARD:          0	MERGED:          0	TO_CACHE:     668162
L2C PQ	ACCESS:    2630274	FORWARD:          0	MERGED:       3144	TO_CACHE:    2627130

L2C Instructions Evicting Data 0
L2C Translations Evicting Data 2537
L2C Data Evicting Data 1258543
L2C Instructions Evicting Instructions 0
L2C Translations Evicting Instructions 0
L2C Data Evicting Instructions 0
L2C Instructions Evicting Translations 0
L2C Translations Evicting Translations 0
L2C Data Evicting Translations 2527
L2C Dense regions hint from L2: 0
PSCL5 TOTAL     ACCESS:     544740  HIT:     544740  MISS:          0  HIT %:        100  MISS %:          0   MPKI: 0
PSCL5 LOAD TRANSLATION ACCESS:      19703  HIT:      19703  MISS:          0  HIT %:        100  MISS %:          0   MPKI: 0
PSCL5 TRANSLATION FROM L1D PREFETCHER ACCESS:     525037  HIT:     525037  MISS:          0  HIT %:        100  MISS %:          0   MPKI: 0
PSCL5 PREFETCH  REQUESTED:          0  ISSUED:          0  USEFUL:          0  USELESS:          0
PSCL5 USEFUL LOAD PREFETCHES:          0 PREFETCH ISSUED TO LOWER LEVEL:          0  ACCURACY: -nan
PSCL5 TIMELY PREFETCHES:          0 LATE PREFETCHES: 0 DROPPED PREFETCHES: 0
PSCL5 PREFETCHES SAME FILL-ORIGIN LEVEL: 0 DIFFERENT FILL-ORIGIN LEVEL: 0

PSCL4 TOTAL     ACCESS:     544740  HIT:     544740  MISS:          0  HIT %:        100  MISS %:          0   MPKI: 0
PSCL4 LOAD TRANSLATION ACCESS:      19703  HIT:      19703  MISS:          0  HIT %:        100  MISS %:          0   MPKI: 0
PSCL4 TRANSLATION FROM L1D PREFETCHER ACCESS:     525037  HIT:     525037  MISS:          0  HIT %:        100  MISS %:          0   MPKI: 0
PSCL4 PREFETCH  REQUESTED:          0  ISSUED:          0  USEFUL:          0  USELESS:          0
PSCL4 USEFUL LOAD PREFETCHES:          0 PREFETCH ISSUED TO LOWER LEVEL:          0  ACCURACY: -nan
PSCL4 TIMELY PREFETCHES:          0 LATE PREFETCHES: 0 DROPPED PREFETCHES: 0
PSCL4 PREFETCHES SAME FILL-ORIGIN LEVEL: 0 DIFFERENT FILL-ORIGIN LEVEL: 0

PSCL3 TOTAL     ACCESS:     544740  HIT:     544740  MISS:          0  HIT %:        100  MISS %:          0   MPKI: 0
PSCL3 LOAD TRANSLATION ACCESS:      19703  HIT:      19703  MISS:          0  HIT %:        100  MISS %:          0   MPKI: 0
PSCL3 TRANSLATION FROM L1D PREFETCHER ACCESS:     525037  HIT:     525037  MISS:          0  HIT %:        100  MISS %:          0   MPKI: 0
PSCL3 PREFETCH  REQUESTED:          0  ISSUED:          0  USEFUL:          0  USELESS:          0
PSCL3 USEFUL LOAD PREFETCHES:          0 PREFETCH ISSUED TO LOWER LEVEL:          0  ACCURACY: -nan
PSCL3 TIMELY PREFETCHES:          0 LATE PREFETCHES: 0 DROPPED PREFETCHES: 0
PSCL3 PREFETCHES SAME FILL-ORIGIN LEVEL: 0 DIFFERENT FILL-ORIGIN LEVEL: 0

PSCL2 TOTAL     ACCESS:     543839  HIT:     543799  MISS:         40  HIT %:    99.9926  MISS %: 0.00735512   MPKI: 0.0002
PSCL2 LOAD TRANSLATION ACCESS:      19703  HIT:      19663  MISS:         40  HIT %:     99.797  MISS %:   0.203015   MPKI: 0.0002
PSCL2 TRANSLATION FROM L1D PREFETCHER ACCESS:     524136  HIT:     524136  MISS:          0  HIT %:        100  MISS %:          0   MPKI: 0
PSCL2 PREFETCH  REQUESTED:          0  ISSUED:          0  USEFUL:          0  USELESS:          0
PSCL2 USEFUL LOAD PREFETCHES:          0 PREFETCH ISSUED TO LOWER LEVEL:          0  ACCURACY: -nan
PSCL2 TIMELY PREFETCHES:          0 LATE PREFETCHES: 0 DROPPED PREFETCHES: 0
PSCL2 PREFETCHES SAME FILL-ORIGIN LEVEL: 0 DIFFERENT FILL-ORIGIN LEVEL: 0

LLC TOTAL     ACCESS:    1933239  HIT:     643488  MISS:    1289751  HIT %:    33.2855  MISS %:    66.7145   MPKI: 6.44876
LLC LOAD      ACCESS:       4890  HIT:          0  MISS:       4890  HIT %:          0  MISS %:        100   MPKI: 0.02445
LLC RFO       ACCESS:     668130  HIT:          0  MISS:     668130  HIT %:          0  MISS %:        100   MPKI: 3.34065
LLC PREFETCH  ACCESS:     587983  HIT:          7  MISS:     587976  HIT %: 0.00119051  MISS %:    99.9988   MPKI: 2.93988
LLC WRITEBACK ACCESS:     669701  HIT:     643475  MISS:      26226  HIT %:    96.0839  MISS %:    3.91608   MPKI: 0.13113
LLC LOAD TRANSLATION ACCESS:       1327  HIT:          0  MISS:       1327  HIT %:          0  MISS %:        100   MPKI: 0.006635
LLC TRANSLATION FROM L1D PREFETCHER ACCESS:       1208  HIT:          6  MISS:       1202  HIT %:   0.496689  MISS %:    99.5033   MPKI: 0.00601
LLC PREFETCH  REQUESTED:          0  ISSUED:          0  USEFUL:          2  USELESS:    2354210
LLC USEFUL LOAD PREFETCHES:          2 PREFETCH ISSUED TO LOWER LEVEL:    2352133  ACCURACY: 8.50292e-05
LLC TIMELY PREFETCHES:          2 LATE PREFETCHES: 0 DROPPED PREFETCHES: 0
LLC PREFETCHES SAME FILL-ORIGIN LEVEL: 0 DIFFERENT FILL-ORIGIN LEVEL: 0
LLC AVERAGE MISS LATENCY: 1046.16 cycles
LLC RQ	ACCESS:    2702315	FORWARD:          0	MERGED:          0	TO_CACHE:    2702315
LLC WQ	ACCESS:    2678570	FORWARD:          0	MERGED:          0	TO_CACHE:    2678570
LLC PQ	ACCESS:    2352156	FORWARD:          0	MERGED:          0	TO_CACHE:    2352156

LLC Dense regions hint to LLC: 0

RAW hits: 0
Loads Generated: 37850886
Loads sent to L1D: 37850886
Stores Generated: 5345043
Stores sent to L1D: 5345046
Major fault: 0 Minor fault: 24882
Allocated PAGES: 99528

DRAM Statistics
 CHANNEL 0
 RQ ROW_BUFFER_HIT:    2453603  ROW_BUFFER_MISS:    2600813
 DBUS_CONGESTED:         15
 WQ ROW_BUFFER_HIT:     386651  ROW_BUFFER_MISS:    2295263  FULL:          0

 AVG_CONGESTED_CYCLE: 6
 All warmup complete: 5
Channel 0 Bank busy for read cycles: 0
Channel 0 Bank busy for write cycles: 0
Channel 0
Rank 0
0banks busy for read cycles: 115222
0banks busy for write cycles: 0
1banks busy for read cycles: 6897824
1banks busy for write cycles: 301873
2banks busy for read cycles: 14338286
2banks busy for write cycles: 301867
3banks busy for read cycles: 17841348
3banks busy for write cycles: 301863
4banks busy for read cycles: 19304644
4banks busy for write cycles: 301857
5banks busy for read cycles: 20930263
5banks busy for write cycles: 302115
6banks busy for read cycles: 19040116
6banks busy for write cycles: 345343
7banks busy for read cycles: 12767035
7banks busy for write cycles: 3918347
8banks busy for read cycles: 8985784
8banks busy for write cycles: 54324236

CPU 0 Branch Prediction Accuracy: 99.6394% MPKI: 1.36382 Average ROB Occupancy at Mispredict: 57.7692
Branch types
NOT_BRANCH: 124361333 62.1767%
BRANCH_DIRECT_JUMP: 0 0%
BRANCH_INDIRECT: 0 0%
BRANCH_CONDITIONAL: 75651140 37.8232%
BRANCH_DIRECT_CALL: 0 0%
BRANCH_INDIRECT_CALL: 0 0%
BRANCH_RETURN: 0 0%
BRANCH_OTHER: 0 0%


CPU 1 Branch Prediction Accuracy: 99.6394% MPKI: 1.36378 Average ROB Occupancy at Mispredict: 57.7785
Branch types
NOT_BRANCH: 124365377 62.1767%
BRANCH_DIRECT_JUMP: 0 0%
BRANCH_INDIRECT: 0 0%
BRANCH_CONDITIONAL: 75653567 37.8232%
BRANCH_DIRECT_CALL: 0 0%
BRANCH_INDIRECT_CALL: 0 0%
BRANCH_RETURN: 0 0%
BRANCH_OTHER: 0 0%


CPU 2 Branch Prediction Accuracy: 99.6394% MPKI: 1.36383 Average ROB Occupancy at Mispredict: 57.8035
Branch types
NOT_BRANCH: 124353358 62.1767%
BRANCH_DIRECT_JUMP: 0 0%
BRANCH_INDIRECT: 0 0%
BRANCH_CONDITIONAL: 75646336 37.8232%
BRANCH_DIRECT_CALL: 0 0%
BRANCH_INDIRECT_CALL: 0 0%
BRANCH_RETURN: 0 0%
BRANCH_OTHER: 0 0%


CPU 3 Branch Prediction Accuracy: 99.6394% MPKI: 1.36384 Average ROB Occupancy at Mispredict: 57.7568
Branch types
NOT_BRANCH: 124359486 62.1767%
BRANCH_DIRECT_JUMP: 0 0%
BRANCH_INDIRECT: 0 0%
BRANCH_CONDITIONAL: 75650033 37.8232%
BRANCH_DIRECT_CALL: 0 0%
BRANCH_INDIRECT_CALL: 0 0%
BRANCH_RETURN: 0 0%
BRANCH_OTHER: 0 0%

DRAM PAGES: 1048576
Allocated PAGES: 99528
