
*** ChampSim Multicore Out-of-Order Simulator ***

Warmup Instructions: 50000000
Simulation Instructions: 200000000
Number of CPUs: 4
LLC sets: 8192
LLC ways: 16
Off-chip DRAM Size: 4096 MB Channels: 1 Width: 64-bit Data Rate: 6400 MT/s
CPU 0 runs ./traces/ligra/ligra_BFS.com-lj.ungraph.gcc_6.3.0_O3.drop_5000M.length_250M.champsimtrace.xz
.xz
CPU 1 runs ./traces/ligra/ligra_BFS.com-lj.ungraph.gcc_6.3.0_O3.drop_5000M.length_250M.champsimtrace.xz
.xz
CPU 2 runs ./traces/ligra/ligra_BFS.com-lj.ungraph.gcc_6.3.0_O3.drop_5000M.length_250M.champsimtrace.xz
.xz
CPU 3 runs ./traces/ligra/ligra_BFS.com-lj.ungraph.gcc_6.3.0_O3.drop_5000M.length_250M.champsimtrace.xz
.xz
BTB has LRU replacement policy
ITLB has LRU replacement policy
DTLB has LRU replacement policy
STLB has LRU replacement policy
L1I has LRU replacement policy
History Sets: 8
History Ways: 16
BERTI Size: 16
BERTI Stride Size: 8
L1D has LRU replacement policy
Initialize SRRIP state for L2C
Initialize DRRIP state for LLC
BTB has LRU replacement policy
ITLB has LRU replacement policy
DTLB has LRU replacement policy
STLB has LRU replacement policy
L1I has LRU replacement policy
History Sets: 8
History Ways: 16
BERTI Size: 16
BERTI Stride Size: 8
L1D has LRU replacement policy
Initialize SRRIP state for L2C
Initialize DRRIP state for LLC
BTB has LRU replacement policy
ITLB has LRU replacement policy
DTLB has LRU replacement policy
STLB has LRU replacement policy
L1I has LRU replacement policy
History Sets: 8
History Ways: 16
BERTI Size: 16
BERTI Stride Size: 8
L1D has LRU replacement policy
Initialize SRRIP state for L2C
Initialize DRRIP state for LLC
BTB has LRU replacement policy
ITLB has LRU replacement policy
DTLB has LRU replacement policy
STLB has LRU replacement policy
L1I has LRU replacement policy
History Sets: 8
History Ways: 16
BERTI Size: 16
BERTI Stride Size: 8
L1D has LRU replacement policy
Initialize SRRIP state for L2C
Initialize DRRIP state for LLC
Heartbeat CPU 0 instructions: 10000001 cycles: 3795032 heartbeat IPC: 2.63502 cumulative IPC: 2.63502 (Simulation time: 0 hr 3 min 36 sec) 
Heartbeat CPU 1 instructions: 10000001 cycles: 3795042 heartbeat IPC: 2.63502 cumulative IPC: 2.63502 (Simulation time: 0 hr 3 min 36 sec) 
Heartbeat CPU 2 instructions: 10000001 cycles: 3795052 heartbeat IPC: 2.63501 cumulative IPC: 2.63501 (Simulation time: 0 hr 3 min 36 sec) 
Heartbeat CPU 3 instructions: 10000001 cycles: 3795063 heartbeat IPC: 2.635 cumulative IPC: 2.635 (Simulation time: 0 hr 3 min 36 sec) 
Heartbeat CPU 0 instructions: 20000000 cycles: 7591513 heartbeat IPC: 2.63402 cumulative IPC: 2.63452 (Simulation time: 0 hr 6 min 38 sec) 
Heartbeat CPU 1 instructions: 20000000 cycles: 7591523 heartbeat IPC: 2.63402 cumulative IPC: 2.63452 (Simulation time: 0 hr 6 min 38 sec) 
Heartbeat CPU 2 instructions: 20000000 cycles: 7591534 heartbeat IPC: 2.63402 cumulative IPC: 2.63451 (Simulation time: 0 hr 6 min 38 sec) 
Heartbeat CPU 3 instructions: 20000000 cycles: 7591544 heartbeat IPC: 2.63402 cumulative IPC: 2.63451 (Simulation time: 0 hr 6 min 38 sec) 
Heartbeat CPU 0 instructions: 30000001 cycles: 11387482 heartbeat IPC: 2.63437 cumulative IPC: 2.63447 (Simulation time: 0 hr 9 min 41 sec) 
Heartbeat CPU 1 instructions: 30000001 cycles: 11387493 heartbeat IPC: 2.63437 cumulative IPC: 2.63447 (Simulation time: 0 hr 9 min 41 sec) 
Heartbeat CPU 2 instructions: 30000001 cycles: 11387505 heartbeat IPC: 2.63437 cumulative IPC: 2.63447 (Simulation time: 0 hr 9 min 41 sec) 
Heartbeat CPU 3 instructions: 30000001 cycles: 11387515 heartbeat IPC: 2.63437 cumulative IPC: 2.63446 (Simulation time: 0 hr 9 min 41 sec) 
Heartbeat CPU 0 instructions: 40000001 cycles: 15185038 heartbeat IPC: 2.63327 cumulative IPC: 2.63417 (Simulation time: 0 hr 12 min 51 sec) 
Heartbeat CPU 1 instructions: 40000001 cycles: 15185049 heartbeat IPC: 2.63327 cumulative IPC: 2.63417 (Simulation time: 0 hr 12 min 51 sec) 
Heartbeat CPU 2 instructions: 40000001 cycles: 15185062 heartbeat IPC: 2.63327 cumulative IPC: 2.63417 (Simulation time: 0 hr 12 min 51 sec) 
Heartbeat CPU 3 instructions: 40000001 cycles: 15185073 heartbeat IPC: 2.63327 cumulative IPC: 2.63417 (Simulation time: 0 hr 12 min 51 sec) 
Heartbeat CPU 0 instructions: 50000001 cycles: 18985628 heartbeat IPC: 2.63117 cumulative IPC: 2.63357 (Simulation time: 0 hr 16 min 15 sec) 
Heartbeat CPU 1 instructions: 50000001 cycles: 18985639 heartbeat IPC: 2.63117 cumulative IPC: 2.63357 (Simulation time: 0 hr 16 min 15 sec) 
Heartbeat CPU 2 instructions: 50000001 cycles: 18985652 heartbeat IPC: 2.63117 cumulative IPC: 2.63357 (Simulation time: 0 hr 16 min 15 sec) 
Heartbeat CPU 3 instructions: 50000001 cycles: 18985663 heartbeat IPC: 2.63117 cumulative IPC: 2.63357 (Simulation time: 0 hr 16 min 15 sec) 

Warmup complete CPU 0 instructions: 50000094 cycles: 18985663 (Simulation time: 0 hr 16 min 15 sec) 
Warmup complete CPU 1 instructions: 50000065 cycles: 18985663 (Simulation time: 0 hr 16 min 15 sec) 
Warmup complete CPU 2 instructions: 50000031 cycles: 18985663 (Simulation time: 0 hr 16 min 15 sec) 
Warmup complete CPU 3 instructions: 50000001 cycles: 18985663 (Simulation time: 0 hr 16 min 15 sec) 

Heartbeat CPU 0 instructions: 60000001 cycles: 27865469 heartbeat IPC: 1.12615 cumulative IPC: 1.12614 (Simulation time: 0 hr 19 min 31 sec) 
Heartbeat CPU 1 instructions: 60000001 cycles: 27869817 heartbeat IPC: 1.1256 cumulative IPC: 1.12559 (Simulation time: 0 hr 19 min 31 sec) 
Heartbeat CPU 3 instructions: 60000001 cycles: 27874333 heartbeat IPC: 1.12503 cumulative IPC: 1.12503 (Simulation time: 0 hr 19 min 31 sec) 
Heartbeat CPU 2 instructions: 60000001 cycles: 27877823 heartbeat IPC: 1.12458 cumulative IPC: 1.12458 (Simulation time: 0 hr 19 min 31 sec) 
Heartbeat CPU 0 instructions: 70000000 cycles: 36777129 heartbeat IPC: 1.12213 cumulative IPC: 1.12413 (Simulation time: 0 hr 22 min 55 sec) 
Heartbeat CPU 1 instructions: 70000000 cycles: 36783893 heartbeat IPC: 1.12182 cumulative IPC: 1.1237 (Simulation time: 0 hr 22 min 55 sec) 
Heartbeat CPU 3 instructions: 70000000 cycles: 36789894 heartbeat IPC: 1.12163 cumulative IPC: 1.12333 (Simulation time: 0 hr 22 min 56 sec) 
Heartbeat CPU 2 instructions: 70000000 cycles: 36793380 heartbeat IPC: 1.12163 cumulative IPC: 1.12311 (Simulation time: 0 hr 22 min 56 sec) 
Heartbeat CPU 0 instructions: 80000001 cycles: 45677514 heartbeat IPC: 1.12355 cumulative IPC: 1.12394 (Simulation time: 0 hr 26 min 2 sec) 
Heartbeat CPU 1 instructions: 80000001 cycles: 45680087 heartbeat IPC: 1.12408 cumulative IPC: 1.12383 (Simulation time: 0 hr 26 min 2 sec) 
Heartbeat CPU 3 instructions: 80000001 cycles: 45689020 heartbeat IPC: 1.12371 cumulative IPC: 1.12345 (Simulation time: 0 hr 26 min 2 sec) 
Heartbeat CPU 2 instructions: 80000001 cycles: 45693242 heartbeat IPC: 1.12361 cumulative IPC: 1.12328 (Simulation time: 0 hr 26 min 2 sec) 
Heartbeat CPU 0 instructions: 90000002 cycles: 54618286 heartbeat IPC: 1.11847 cumulative IPC: 1.12256 (Simulation time: 0 hr 29 min 15 sec) 
Heartbeat CPU 1 instructions: 90000002 cycles: 54625078 heartbeat IPC: 1.11794 cumulative IPC: 1.12235 (Simulation time: 0 hr 29 min 15 sec) 
Heartbeat CPU 3 instructions: 90000002 cycles: 54629030 heartbeat IPC: 1.11857 cumulative IPC: 1.12223 (Simulation time: 0 hr 29 min 15 sec) 
Heartbeat CPU 2 instructions: 90000002 cycles: 54631603 heartbeat IPC: 1.11877 cumulative IPC: 1.12215 (Simulation time: 0 hr 29 min 15 sec) 
Heartbeat CPU 0 instructions: 100000000 cycles: 63610904 heartbeat IPC: 1.11202 cumulative IPC: 1.12044 (Simulation time: 0 hr 32 min 28 sec) 
Heartbeat CPU 1 instructions: 100000000 cycles: 63617221 heartbeat IPC: 1.11208 cumulative IPC: 1.12028 (Simulation time: 0 hr 32 min 28 sec) 
Heartbeat CPU 3 instructions: 100000000 cycles: 63623825 heartbeat IPC: 1.11175 cumulative IPC: 1.12012 (Simulation time: 0 hr 32 min 28 sec) 
Heartbeat CPU 2 instructions: 100000000 cycles: 63626093 heartbeat IPC: 1.11179 cumulative IPC: 1.12006 (Simulation time: 0 hr 32 min 28 sec) 
Heartbeat CPU 0 instructions: 110000000 cycles: 72633462 heartbeat IPC: 1.10833 cumulative IPC: 1.1184 (Simulation time: 0 hr 35 min 41 sec) 
Heartbeat CPU 1 instructions: 110000000 cycles: 72640452 heartbeat IPC: 1.10825 cumulative IPC: 1.11826 (Simulation time: 0 hr 35 min 41 sec) 
Heartbeat CPU 3 instructions: 110000000 cycles: 72644038 heartbeat IPC: 1.10862 cumulative IPC: 1.11819 (Simulation time: 0 hr 35 min 41 sec) 
Heartbeat CPU 2 instructions: 110000000 cycles: 72650250 heartbeat IPC: 1.10814 cumulative IPC: 1.11806 (Simulation time: 0 hr 35 min 41 sec) 
Heartbeat CPU 0 instructions: 120000001 cycles: 81712134 heartbeat IPC: 1.10148 cumulative IPC: 1.11595 (Simulation time: 0 hr 38 min 58 sec) 
Heartbeat CPU 1 instructions: 120000001 cycles: 81716289 heartbeat IPC: 1.10183 cumulative IPC: 1.11588 (Simulation time: 0 hr 38 min 58 sec) 
Heartbeat CPU 3 instructions: 120000001 cycles: 81720593 heartbeat IPC: 1.10174 cumulative IPC: 1.11581 (Simulation time: 0 hr 38 min 58 sec) 
Heartbeat CPU 2 instructions: 120000001 cycles: 81726295 heartbeat IPC: 1.1018 cumulative IPC: 1.1157 (Simulation time: 0 hr 38 min 58 sec) 
Heartbeat CPU 0 instructions: 130000002 cycles: 90674052 heartbeat IPC: 1.11583 cumulative IPC: 1.11594 (Simulation time: 0 hr 42 min 21 sec) 
Heartbeat CPU 1 instructions: 130000002 cycles: 90676565 heartbeat IPC: 1.11604 cumulative IPC: 1.1159 (Simulation time: 0 hr 42 min 21 sec) 
Heartbeat CPU 3 instructions: 130000002 cycles: 90680804 heartbeat IPC: 1.11605 cumulative IPC: 1.11584 (Simulation time: 0 hr 42 min 21 sec) 
Heartbeat CPU 2 instructions: 130000002 cycles: 90688993 heartbeat IPC: 1.11574 cumulative IPC: 1.11571 (Simulation time: 0 hr 42 min 21 sec) 
Heartbeat CPU 0 instructions: 140000001 cycles: 99581919 heartbeat IPC: 1.1226 cumulative IPC: 1.11668 (Simulation time: 0 hr 45 min 56 sec) 
Heartbeat CPU 1 instructions: 140000001 cycles: 99585360 heartbeat IPC: 1.12249 cumulative IPC: 1.11663 (Simulation time: 0 hr 45 min 56 sec) 
Heartbeat CPU 3 instructions: 140000001 cycles: 99592759 heartbeat IPC: 1.12209 cumulative IPC: 1.11653 (Simulation time: 0 hr 45 min 56 sec) 
Heartbeat CPU 2 instructions: 140000001 cycles: 99598290 heartbeat IPC: 1.12242 cumulative IPC: 1.11645 (Simulation time: 0 hr 45 min 56 sec) 
Heartbeat CPU 0 instructions: 150000001 cycles: 108465556 heartbeat IPC: 1.12567 cumulative IPC: 1.11757 (Simulation time: 0 hr 49 min 3 sec) 
Heartbeat CPU 1 instructions: 150000001 cycles: 108468841 heartbeat IPC: 1.12568 cumulative IPC: 1.11753 (Simulation time: 0 hr 49 min 3 sec) 
Heartbeat CPU 3 instructions: 150000001 cycles: 108476925 heartbeat IPC: 1.1256 cumulative IPC: 1.11743 (Simulation time: 0 hr 49 min 3 sec) 
Heartbeat CPU 2 instructions: 150000001 cycles: 108480906 heartbeat IPC: 1.12579 cumulative IPC: 1.11738 (Simulation time: 0 hr 49 min 3 sec) 
Heartbeat CPU 0 instructions: 160000000 cycles: 117531421 heartbeat IPC: 1.10304 cumulative IPC: 1.11623 (Simulation time: 0 hr 52 min 27 sec) 
Heartbeat CPU 1 instructions: 160000000 cycles: 117538611 heartbeat IPC: 1.10256 cumulative IPC: 1.11615 (Simulation time: 0 hr 52 min 27 sec) 
Heartbeat CPU 3 instructions: 160000000 cycles: 117541825 heartbeat IPC: 1.10316 cumulative IPC: 1.11611 (Simulation time: 0 hr 52 min 27 sec) 
Heartbeat CPU 2 instructions: 160000000 cycles: 117547007 heartbeat IPC: 1.10301 cumulative IPC: 1.11606 (Simulation time: 0 hr 52 min 27 sec) 
Heartbeat CPU 0 instructions: 170000001 cycles: 126684219 heartbeat IPC: 1.09256 cumulative IPC: 1.11422 (Simulation time: 0 hr 56 min 2 sec) 
Heartbeat CPU 1 instructions: 170000001 cycles: 126688267 heartbeat IPC: 1.09294 cumulative IPC: 1.11418 (Simulation time: 0 hr 56 min 2 sec) 
Heartbeat CPU 3 instructions: 170000001 cycles: 126695167 heartbeat IPC: 1.0925 cumulative IPC: 1.11411 (Simulation time: 0 hr 56 min 2 sec) 
Heartbeat CPU 2 instructions: 170000001 cycles: 126698843 heartbeat IPC: 1.09268 cumulative IPC: 1.11407 (Simulation time: 0 hr 56 min 2 sec) 
Heartbeat CPU 0 instructions: 180000001 cycles: 135972412 heartbeat IPC: 1.07664 cumulative IPC: 1.11124 (Simulation time: 0 hr 59 min 6 sec) 
Heartbeat CPU 1 instructions: 180000001 cycles: 135980081 heartbeat IPC: 1.07622 cumulative IPC: 1.11116 (Simulation time: 0 hr 59 min 6 sec) 
Heartbeat CPU 3 instructions: 180000001 cycles: 135982779 heartbeat IPC: 1.0767 cumulative IPC: 1.11114 (Simulation time: 0 hr 59 min 6 sec) 
Heartbeat CPU 2 instructions: 180000001 cycles: 135987331 heartbeat IPC: 1.0766 cumulative IPC: 1.1111 (Simulation time: 0 hr 59 min 6 sec) 
Heartbeat CPU 0 instructions: 190000000 cycles: 145244152 heartbeat IPC: 1.07855 cumulative IPC: 1.10884 (Simulation time: 1 hr 2 min 7 sec) 
Heartbeat CPU 1 instructions: 190000000 cycles: 145251632 heartbeat IPC: 1.07857 cumulative IPC: 1.10877 (Simulation time: 1 hr 2 min 7 sec) 
Heartbeat CPU 3 instructions: 190000000 cycles: 145255028 heartbeat IPC: 1.07849 cumulative IPC: 1.10874 (Simulation time: 1 hr 2 min 7 sec) 
Heartbeat CPU 2 instructions: 190000000 cycles: 145259660 heartbeat IPC: 1.07848 cumulative IPC: 1.1087 (Simulation time: 1 hr 2 min 7 sec) 
Heartbeat CPU 0 instructions: 200000001 cycles: 154202728 heartbeat IPC: 1.11625 cumulative IPC: 1.10933 (Simulation time: 1 hr 5 min 27 sec) 
Heartbeat CPU 1 instructions: 200000001 cycles: 154208738 heartbeat IPC: 1.11643 cumulative IPC: 1.10928 (Simulation time: 1 hr 5 min 27 sec) 
Heartbeat CPU 3 instructions: 200000001 cycles: 154214074 heartbeat IPC: 1.11619 cumulative IPC: 1.10923 (Simulation time: 1 hr 5 min 27 sec) 
Heartbeat CPU 2 instructions: 200000001 cycles: 154216712 heartbeat IPC: 1.11644 cumulative IPC: 1.10921 (Simulation time: 1 hr 5 min 27 sec) 
Heartbeat CPU 0 instructions: 210000002 cycles: 163124090 heartbeat IPC: 1.12091 cumulative IPC: 1.11004 (Simulation time: 1 hr 8 min 59 sec) 
Heartbeat CPU 1 instructions: 210000002 cycles: 163127270 heartbeat IPC: 1.12126 cumulative IPC: 1.11002 (Simulation time: 1 hr 8 min 59 sec) 
Heartbeat CPU 3 instructions: 210000002 cycles: 163133302 heartbeat IPC: 1.12117 cumulative IPC: 1.10997 (Simulation time: 1 hr 8 min 59 sec) 
Heartbeat CPU 2 instructions: 210000002 cycles: 163136279 heartbeat IPC: 1.12113 cumulative IPC: 1.10995 (Simulation time: 1 hr 8 min 59 sec) 
Heartbeat CPU 0 instructions: 220000000 cycles: 171975669 heartbeat IPC: 1.12974 cumulative IPC: 1.11118 (Simulation time: 1 hr 12 min 43 sec) 
Heartbeat CPU 1 instructions: 220000000 cycles: 171977872 heartbeat IPC: 1.12987 cumulative IPC: 1.11117 (Simulation time: 1 hr 12 min 43 sec) 
Heartbeat CPU 3 instructions: 220000000 cycles: 171984164 heartbeat IPC: 1.12983 cumulative IPC: 1.11112 (Simulation time: 1 hr 12 min 43 sec) 
Heartbeat CPU 2 instructions: 220000000 cycles: 171984858 heartbeat IPC: 1.13012 cumulative IPC: 1.11112 (Simulation time: 1 hr 12 min 43 sec) 
Heartbeat CPU 0 instructions: 230000001 cycles: 181000130 heartbeat IPC: 1.1081 cumulative IPC: 1.11101 (Simulation time: 1 hr 16 min 20 sec) 
Heartbeat CPU 1 instructions: 230000001 cycles: 181001093 heartbeat IPC: 1.10825 cumulative IPC: 1.111 (Simulation time: 1 hr 16 min 20 sec) 
Heartbeat CPU 3 instructions: 230000001 cycles: 181006042 heartbeat IPC: 1.10842 cumulative IPC: 1.11097 (Simulation time: 1 hr 16 min 20 sec) 
Heartbeat CPU 2 instructions: 230000001 cycles: 181015198 heartbeat IPC: 1.10738 cumulative IPC: 1.11091 (Simulation time: 1 hr 16 min 20 sec) 
Heartbeat CPU 0 instructions: 240000001 cycles: 190297047 heartbeat IPC: 1.07563 cumulative IPC: 1.10909 (Simulation time: 1 hr 19 min 53 sec) 
Heartbeat CPU 1 instructions: 240000001 cycles: 190297719 heartbeat IPC: 1.07566 cumulative IPC: 1.10909 (Simulation time: 1 hr 19 min 53 sec) 
Heartbeat CPU 3 instructions: 240000001 cycles: 190303567 heartbeat IPC: 1.07556 cumulative IPC: 1.10905 (Simulation time: 1 hr 19 min 53 sec) 
Heartbeat CPU 2 instructions: 240000001 cycles: 190309121 heartbeat IPC: 1.07597 cumulative IPC: 1.10901 (Simulation time: 1 hr 19 min 53 sec) 
*** Reached end of trace for Core: 0 Repeating trace: ./traces/ligra/ligra_BFS.com-lj.ungraph.gcc_6.3.0_O3.drop_5000M.length_250M.champsimtrace.xz
Heartbeat CPU 0 instructions: 250000000 cycles: 199325140 heartbeat IPC: 1.10765 cumulative IPC: 1.10902 (Simulation time: 1 hr 23 min 29 sec) 
Finished CPU 0 instructions: 200000002 cycles: 180340888 cumulative IPC: 1.10901 (Simulation time: 1 hr 23 min 29 sec) 
*** Reached end of trace for Core: 3 Repeating trace: ./traces/ligra/ligra_BFS.com-lj.ungraph.gcc_6.3.0_O3.drop_5000M.length_250M.champsimtrace.xz
Heartbeat CPU 3 instructions: 250000000 cycles: 199332864 heartbeat IPC: 1.10751 cumulative IPC: 1.10897 (Simulation time: 1 hr 23 min 29 sec) 
Finished CPU 3 instructions: 200000000 cycles: 180347202 cumulative IPC: 1.10897 (Simulation time: 1 hr 23 min 29 sec) 
*** Reached end of trace for Core: 1 Repeating trace: ./traces/ligra/ligra_BFS.com-lj.ungraph.gcc_6.3.0_O3.drop_5000M.length_250M.champsimtrace.xz
Heartbeat CPU 1 instructions: 250000000 cycles: 199334394 heartbeat IPC: 1.1066 cumulative IPC: 1.10896 (Simulation time: 1 hr 23 min 29 sec) 
*** Reached end of trace for Core: 2 Repeating trace: ./traces/ligra/ligra_BFS.com-lj.ungraph.gcc_6.3.0_O3.drop_5000M.length_250M.champsimtrace.xz
Heartbeat CPU 2 instructions: 250000000 cycles: 199336856 heartbeat IPC: 1.1077 cumulative IPC: 1.10895 (Simulation time: 1 hr 23 min 29 sec) 
Finished CPU 1 instructions: 200000001 cycles: 180351636 cumulative IPC: 1.10894 (Simulation time: 1 hr 23 min 29 sec) 
Finished CPU 2 instructions: 200000001 cycles: 180352499 cumulative IPC: 1.10894 (Simulation time: 1 hr 23 min 29 sec) 

ChampSim completed all CPUs

Total Simulation Statistics (not including warmup)

CPU 0 cumulative IPC: 1.10901 instructions: 200012155 cycles: 180352499
ITLB TOTAL     ACCESS:   33168636  HIT:   33168636  MISS:          0  HIT %:        100  MISS %:          0   MPKI: 0
ITLB LOAD      ACCESS:          0  HIT:          0  MISS:          0  HIT %:       -nan  MISS %:       -nan   MPKI: 0
ITLB RFO       ACCESS:          0  HIT:          0  MISS:          0  HIT %:       -nan  MISS %:       -nan   MPKI: 0
ITLB PREFETCH  ACCESS:          0  HIT:          0  MISS:          0  HIT %:       -nan  MISS %:       -nan   MPKI: 0
ITLB WRITEBACK ACCESS:          0  HIT:          0  MISS:          0  HIT %:       -nan  MISS %:       -nan   MPKI: 0
DTLB TOTAL     ACCESS:   20727794  HIT:   20708089  MISS:      19705  HIT %:    99.9049  MISS %:  0.0950656   MPKI: 0.098519
DTLB LOAD      ACCESS:          0  HIT:          0  MISS:          0  HIT %:       -nan  MISS %:       -nan   MPKI: 0
DTLB RFO       ACCESS:          0  HIT:          0  MISS:          0  HIT %:       -nan  MISS %:       -nan   MPKI: 0
DTLB PREFETCH  ACCESS:          0  HIT:          0  MISS:          0  HIT %:       -nan  MISS %:       -nan   MPKI: 0
DTLB WRITEBACK ACCESS:          0  HIT:          0  MISS:          0  HIT %:       -nan  MISS %:       -nan   MPKI: 0
STLB TOTAL     ACCESS:   10265662  HIT:   10245957  MISS:      19705  HIT %:     99.808  MISS %:   0.191951   MPKI: 0.098519
STLB LOAD      ACCESS:          0  HIT:          0  MISS:          0  HIT %:       -nan  MISS %:       -nan   MPKI: 0
STLB RFO       ACCESS:          0  HIT:          0  MISS:          0  HIT %:       -nan  MISS %:       -nan   MPKI: 0
STLB PREFETCH  ACCESS:          0  HIT:          0  MISS:          0  HIT %:       -nan  MISS %:       -nan   MPKI: 0
STLB WRITEBACK ACCESS:          0  HIT:          0  MISS:          0  HIT %:       -nan  MISS %:       -nan   MPKI: 0
L1D TOTAL     ACCESS:   75986931  HIT:   74725800  MISS:    1261131  HIT %:    98.3403  MISS %:    1.65967   MPKI: 6.30527
L1D LOAD      ACCESS:   15417485  HIT:   15406714  MISS:      10771  HIT %:    99.9301  MISS %:  0.0698622   MPKI: 0.0538517
L1D RFO       ACCESS:    1361153  HIT:     692979  MISS:     668174  HIT %:    50.9112  MISS %:    49.0888   MPKI: 3.34067
L1D PREFETCH  ACCESS:   59208293  HIT:   58626107  MISS:     582186  HIT %:    99.0167  MISS %:   0.983285   MPKI: 2.91075
L1D WRITEBACK ACCESS:          0  HIT:          0  MISS:          0  HIT %:       -nan  MISS %:       -nan   MPKI: 0
L1I TOTAL     ACCESS:   33187093  HIT:   33187093  MISS:          0  HIT %:        100  MISS %:          0   MPKI: 0
L1I LOAD      ACCESS:   33187093  HIT:   33187093  MISS:          0  HIT %:        100  MISS %:          0   MPKI: 0
L1I RFO       ACCESS:          0  HIT:          0  MISS:          0  HIT %:       -nan  MISS %:       -nan   MPKI: 0
L1I PREFETCH  ACCESS:          0  HIT:          0  MISS:          0  HIT %:       -nan  MISS %:       -nan   MPKI: 0
L1I WRITEBACK ACCESS:          0  HIT:          0  MISS:          0  HIT %:       -nan  MISS %:       -nan   MPKI: 0
L2C TOTAL     ACCESS:    3617045  HIT:    2312503  MISS:    1304542  HIT %:    63.9335  MISS %:    36.0665   MPKI: 6.52231
L2C LOAD      ACCESS:       4965  HIT:          0  MISS:       4965  HIT %:          0  MISS %:        100   MPKI: 0.0248235
L2C RFO       ACCESS:     668174  HIT:          0  MISS:     668174  HIT %:          0  MISS %:        100   MPKI: 3.34067
L2C PREFETCH  ACCESS:    1730475  HIT:    1142522  MISS:     587953  HIT %:    66.0236  MISS %:    33.9764   MPKI: 2.93959
L2C WRITEBACK ACCESS:     668173  HIT:     627258  MISS:      40915  HIT %:    93.8766  MISS %:    6.12341   MPKI: 0.204563
PSCL5 TOTAL     ACCESS:     545191  HIT:     545191  MISS:          0  HIT %:        100  MISS %:          0   MPKI: 0
PSCL5 LOAD      ACCESS:          0  HIT:          0  MISS:          0  HIT %:       -nan  MISS %:       -nan   MPKI: 0
PSCL5 RFO       ACCESS:          0  HIT:          0  MISS:          0  HIT %:       -nan  MISS %:       -nan   MPKI: 0
PSCL5 PREFETCH  ACCESS:          0  HIT:          0  MISS:          0  HIT %:       -nan  MISS %:       -nan   MPKI: 0
PSCL5 WRITEBACK ACCESS:          0  HIT:          0  MISS:          0  HIT %:       -nan  MISS %:       -nan   MPKI: 0
PSCL4 TOTAL     ACCESS:     545191  HIT:     545191  MISS:          0  HIT %:        100  MISS %:          0   MPKI: 0
PSCL4 LOAD      ACCESS:          0  HIT:          0  MISS:          0  HIT %:       -nan  MISS %:       -nan   MPKI: 0
PSCL4 RFO       ACCESS:          0  HIT:          0  MISS:          0  HIT %:       -nan  MISS %:       -nan   MPKI: 0
PSCL4 PREFETCH  ACCESS:          0  HIT:          0  MISS:          0  HIT %:       -nan  MISS %:       -nan   MPKI: 0
PSCL4 WRITEBACK ACCESS:          0  HIT:          0  MISS:          0  HIT %:       -nan  MISS %:       -nan   MPKI: 0
PSCL3 TOTAL     ACCESS:     545191  HIT:     545191  MISS:          0  HIT %:        100  MISS %:          0   MPKI: 0
PSCL3 LOAD      ACCESS:          0  HIT:          0  MISS:          0  HIT %:       -nan  MISS %:       -nan   MPKI: 0
PSCL3 RFO       ACCESS:          0  HIT:          0  MISS:          0  HIT %:       -nan  MISS %:       -nan   MPKI: 0
PSCL3 PREFETCH  ACCESS:          0  HIT:          0  MISS:          0  HIT %:       -nan  MISS %:       -nan   MPKI: 0
PSCL3 WRITEBACK ACCESS:          0  HIT:          0  MISS:          0  HIT %:       -nan  MISS %:       -nan   MPKI: 0
PSCL2 TOTAL     ACCESS:     544264  HIT:     544223  MISS:         41  HIT %:    99.9925  MISS %: 0.00753311   MPKI: 0.000204988
PSCL2 LOAD      ACCESS:          0  HIT:          0  MISS:          0  HIT %:       -nan  MISS %:       -nan   MPKI: 0
PSCL2 RFO       ACCESS:          0  HIT:          0  MISS:          0  HIT %:       -nan  MISS %:       -nan   MPKI: 0
PSCL2 PREFETCH  ACCESS:          0  HIT:          0  MISS:          0  HIT %:       -nan  MISS %:       -nan   MPKI: 0
PSCL2 WRITEBACK ACCESS:          0  HIT:          0  MISS:          0  HIT %:       -nan  MISS %:       -nan   MPKI: 0
LLC TOTAL     ACCESS:    1933245  HIT:     645181  MISS:    1288064  HIT %:     33.373  MISS %:     66.627   MPKI: 6.43993
LLC LOAD      ACCESS:       4965  HIT:          0  MISS:       4965  HIT %:          0  MISS %:        100   MPKI: 0.0248235
LLC RFO       ACCESS:     668175  HIT:          0  MISS:     668175  HIT %:          0  MISS %:        100   MPKI: 3.34067
LLC PREFETCH  ACCESS:     587953  HIT:          6  MISS:     587947  HIT %: 0.00102049  MISS %:     99.999   MPKI: 2.93956
LLC WRITEBACK ACCESS:     669617  HIT:     645168  MISS:      24449  HIT %:    96.3488  MISS %:    3.65119   MPKI: 0.122238

RAW hits: 0
Loads Generated: 37853186
Loads sent to L1D: 37853185
Stores Generated: 5345403
Stores sent to L1D: 5345403

CPU 1 cumulative IPC: 1.10894 instructions: 200000808 cycles: 180352499
ITLB TOTAL     ACCESS:   33166241  HIT:   33166241  MISS:          0  HIT %:        100  MISS %:          0   MPKI: 0
ITLB LOAD      ACCESS:          0  HIT:          0  MISS:          0  HIT %:       -nan  MISS %:       -nan   MPKI: 0
ITLB RFO       ACCESS:          0  HIT:          0  MISS:          0  HIT %:       -nan  MISS %:       -nan   MPKI: 0
ITLB PREFETCH  ACCESS:          0  HIT:          0  MISS:          0  HIT %:       -nan  MISS %:       -nan   MPKI: 0
ITLB WRITEBACK ACCESS:          0  HIT:          0  MISS:          0  HIT %:       -nan  MISS %:       -nan   MPKI: 0
DTLB TOTAL     ACCESS:   20727713  HIT:   20708009  MISS:      19704  HIT %:    99.9049  MISS %:  0.0950611   MPKI: 0.0985196
DTLB LOAD      ACCESS:          0  HIT:          0  MISS:          0  HIT %:       -nan  MISS %:       -nan   MPKI: 0
DTLB RFO       ACCESS:          0  HIT:          0  MISS:          0  HIT %:       -nan  MISS %:       -nan   MPKI: 0
DTLB PREFETCH  ACCESS:          0  HIT:          0  MISS:          0  HIT %:       -nan  MISS %:       -nan   MPKI: 0
DTLB WRITEBACK ACCESS:          0  HIT:          0  MISS:          0  HIT %:       -nan  MISS %:       -nan   MPKI: 0
STLB TOTAL     ACCESS:   10264012  HIT:   10244308  MISS:      19704  HIT %:     99.808  MISS %:   0.191972   MPKI: 0.0985196
STLB LOAD      ACCESS:          0  HIT:          0  MISS:          0  HIT %:       -nan  MISS %:       -nan   MPKI: 0
STLB RFO       ACCESS:          0  HIT:          0  MISS:          0  HIT %:       -nan  MISS %:       -nan   MPKI: 0
STLB PREFETCH  ACCESS:          0  HIT:          0  MISS:          0  HIT %:       -nan  MISS %:       -nan   MPKI: 0
STLB WRITEBACK ACCESS:          0  HIT:          0  MISS:          0  HIT %:       -nan  MISS %:       -nan   MPKI: 0
L1D TOTAL     ACCESS:   75991866  HIT:   74730808  MISS:    1261058  HIT %:    98.3405  MISS %:    1.65946   MPKI: 6.30526
L1D LOAD      ACCESS:   15418323  HIT:   15407641  MISS:      10682  HIT %:    99.9307  MISS %:  0.0692812   MPKI: 0.0534098
L1D RFO       ACCESS:    1360162  HIT:     692027  MISS:     668135  HIT %:    50.8783  MISS %:    49.1217   MPKI: 3.34066
L1D PREFETCH  ACCESS:   59213381  HIT:   58631140  MISS:     582241  HIT %:    99.0167  MISS %:   0.983293   MPKI: 2.91119
L1D WRITEBACK ACCESS:          0  HIT:          0  MISS:          0  HIT %:       -nan  MISS %:       -nan   MPKI: 0
L1I TOTAL     ACCESS:   33184697  HIT:   33184697  MISS:          0  HIT %:        100  MISS %:          0   MPKI: 0
L1I LOAD      ACCESS:   33184697  HIT:   33184697  MISS:          0  HIT %:        100  MISS %:          0   MPKI: 0
L1I RFO       ACCESS:          0  HIT:          0  MISS:          0  HIT %:       -nan  MISS %:       -nan   MPKI: 0
L1I PREFETCH  ACCESS:          0  HIT:          0  MISS:          0  HIT %:       -nan  MISS %:       -nan   MPKI: 0
L1I WRITEBACK ACCESS:          0  HIT:          0  MISS:          0  HIT %:       -nan  MISS %:       -nan   MPKI: 0
L2C TOTAL     ACCESS:    3629765  HIT:    2327580  MISS:    1302185  HIT %:    64.1248  MISS %:    35.8752   MPKI: 6.5109
L2C LOAD      ACCESS:       4999  HIT:          0  MISS:       4999  HIT %:          0  MISS %:        100   MPKI: 0.0249949
L2C RFO       ACCESS:     668135  HIT:          0  MISS:     668135  HIT %:          0  MISS %:        100   MPKI: 3.34066
L2C PREFETCH  ACCESS:    1743372  HIT:    1155499  MISS:     587873  HIT %:    66.2795  MISS %:    33.7205   MPKI: 2.93935
L2C WRITEBACK ACCESS:     668135  HIT:     629495  MISS:      38640  HIT %:    94.2167  MISS %:    5.78326   MPKI: 0.193199
PSCL5 TOTAL     ACCESS:     545058  HIT:     545058  MISS:          0  HIT %:        100  MISS %:          0   MPKI: 0
PSCL5 LOAD      ACCESS:          0  HIT:          0  MISS:          0  HIT %:       -nan  MISS %:       -nan   MPKI: 0
PSCL5 RFO       ACCESS:          0  HIT:          0  MISS:          0  HIT %:       -nan  MISS %:       -nan   MPKI: 0
PSCL5 PREFETCH  ACCESS:          0  HIT:          0  MISS:          0  HIT %:       -nan  MISS %:       -nan   MPKI: 0
PSCL5 WRITEBACK ACCESS:          0  HIT:          0  MISS:          0  HIT %:       -nan  MISS %:       -nan   MPKI: 0
PSCL4 TOTAL     ACCESS:     545058  HIT:     545058  MISS:          0  HIT %:        100  MISS %:          0   MPKI: 0
PSCL4 LOAD      ACCESS:          0  HIT:          0  MISS:          0  HIT %:       -nan  MISS %:       -nan   MPKI: 0
PSCL4 RFO       ACCESS:          0  HIT:          0  MISS:          0  HIT %:       -nan  MISS %:       -nan   MPKI: 0
PSCL4 PREFETCH  ACCESS:          0  HIT:          0  MISS:          0  HIT %:       -nan  MISS %:       -nan   MPKI: 0
PSCL4 WRITEBACK ACCESS:          0  HIT:          0  MISS:          0  HIT %:       -nan  MISS %:       -nan   MPKI: 0
PSCL3 TOTAL     ACCESS:     545058  HIT:     545058  MISS:          0  HIT %:        100  MISS %:          0   MPKI: 0
PSCL3 LOAD      ACCESS:          0  HIT:          0  MISS:          0  HIT %:       -nan  MISS %:       -nan   MPKI: 0
PSCL3 RFO       ACCESS:          0  HIT:          0  MISS:          0  HIT %:       -nan  MISS %:       -nan   MPKI: 0
PSCL3 PREFETCH  ACCESS:          0  HIT:          0  MISS:          0  HIT %:       -nan  MISS %:       -nan   MPKI: 0
PSCL3 WRITEBACK ACCESS:          0  HIT:          0  MISS:          0  HIT %:       -nan  MISS %:       -nan   MPKI: 0
PSCL2 TOTAL     ACCESS:     544178  HIT:     544137  MISS:         41  HIT %:    99.9925  MISS %:  0.0075343   MPKI: 0.000204999
PSCL2 LOAD      ACCESS:          0  HIT:          0  MISS:          0  HIT %:       -nan  MISS %:       -nan   MPKI: 0
PSCL2 RFO       ACCESS:          0  HIT:          0  MISS:          0  HIT %:       -nan  MISS %:       -nan   MPKI: 0
PSCL2 PREFETCH  ACCESS:          0  HIT:          0  MISS:          0  HIT %:       -nan  MISS %:       -nan   MPKI: 0
PSCL2 WRITEBACK ACCESS:          0  HIT:          0  MISS:          0  HIT %:       -nan  MISS %:       -nan   MPKI: 0
LLC TOTAL     ACCESS:    1933243  HIT:     645691  MISS:    1287552  HIT %:    33.3994  MISS %:    66.6006   MPKI: 6.43773
LLC LOAD      ACCESS:       4999  HIT:          0  MISS:       4999  HIT %:          0  MISS %:        100   MPKI: 0.0249949
LLC RFO       ACCESS:     668135  HIT:          0  MISS:     668135  HIT %:          0  MISS %:        100   MPKI: 3.34066
LLC PREFETCH  ACCESS:     587873  HIT:          2  MISS:     587871  HIT %: 0.00034021  MISS %:    99.9997   MPKI: 2.93934
LLC WRITEBACK ACCESS:     669698  HIT:     645684  MISS:      24014  HIT %:    96.4142  MISS %:     3.5858   MPKI: 0.12007

RAW hits: 0
Loads Generated: 37851050
Loads sent to L1D: 37851050
Stores Generated: 5345072
Stores sent to L1D: 5345075

CPU 2 cumulative IPC: 1.10894 instructions: 200000001 cycles: 180352499
ITLB TOTAL     ACCESS:   33166364  HIT:   33166364  MISS:          0  HIT %:        100  MISS %:          0   MPKI: 0
ITLB LOAD      ACCESS:          0  HIT:          0  MISS:          0  HIT %:       -nan  MISS %:       -nan   MPKI: 0
ITLB RFO       ACCESS:          0  HIT:          0  MISS:          0  HIT %:       -nan  MISS %:       -nan   MPKI: 0
ITLB PREFETCH  ACCESS:          0  HIT:          0  MISS:          0  HIT %:       -nan  MISS %:       -nan   MPKI: 0
ITLB WRITEBACK ACCESS:          0  HIT:          0  MISS:          0  HIT %:       -nan  MISS %:       -nan   MPKI: 0
DTLB TOTAL     ACCESS:   20726569  HIT:   20706865  MISS:      19704  HIT %:    99.9049  MISS %:  0.0950664   MPKI: 0.09852
DTLB LOAD      ACCESS:          0  HIT:          0  MISS:          0  HIT %:       -nan  MISS %:       -nan   MPKI: 0
DTLB RFO       ACCESS:          0  HIT:          0  MISS:          0  HIT %:       -nan  MISS %:       -nan   MPKI: 0
DTLB PREFETCH  ACCESS:          0  HIT:          0  MISS:          0  HIT %:       -nan  MISS %:       -nan   MPKI: 0
DTLB WRITEBACK ACCESS:          0  HIT:          0  MISS:          0  HIT %:       -nan  MISS %:       -nan   MPKI: 0
STLB TOTAL     ACCESS:   10265547  HIT:   10245843  MISS:      19704  HIT %:    99.8081  MISS %:   0.191943   MPKI: 0.09852
STLB LOAD      ACCESS:          0  HIT:          0  MISS:          0  HIT %:       -nan  MISS %:       -nan   MPKI: 0
STLB RFO       ACCESS:          0  HIT:          0  MISS:          0  HIT %:       -nan  MISS %:       -nan   MPKI: 0
STLB PREFETCH  ACCESS:          0  HIT:          0  MISS:          0  HIT %:       -nan  MISS %:       -nan   MPKI: 0
STLB WRITEBACK ACCESS:          0  HIT:          0  MISS:          0  HIT %:       -nan  MISS %:       -nan   MPKI: 0
L1D TOTAL     ACCESS:   75982032  HIT:   74720980  MISS:    1261052  HIT %:    98.3403  MISS %:    1.65967   MPKI: 6.30526
L1D LOAD      ACCESS:   15417802  HIT:   15407155  MISS:      10647  HIT %:    99.9309  MISS %:  0.0690565   MPKI: 0.053235
L1D RFO       ACCESS:    1361403  HIT:     693271  MISS:     668132  HIT %:    50.9233  MISS %:    49.0767   MPKI: 3.34066
L1D PREFETCH  ACCESS:   59202827  HIT:   58620554  MISS:     582273  HIT %:    99.0165  MISS %:   0.983522   MPKI: 2.91136
L1D WRITEBACK ACCESS:          0  HIT:          0  MISS:          0  HIT %:       -nan  MISS %:       -nan   MPKI: 0
L1I TOTAL     ACCESS:   33184818  HIT:   33184818  MISS:          0  HIT %:        100  MISS %:          0   MPKI: 0
L1I LOAD      ACCESS:   33184818  HIT:   33184818  MISS:          0  HIT %:        100  MISS %:          0   MPKI: 0
L1I RFO       ACCESS:          0  HIT:          0  MISS:          0  HIT %:       -nan  MISS %:       -nan   MPKI: 0
L1I PREFETCH  ACCESS:          0  HIT:          0  MISS:          0  HIT %:       -nan  MISS %:       -nan   MPKI: 0
L1I WRITEBACK ACCESS:          0  HIT:          0  MISS:          0  HIT %:       -nan  MISS %:       -nan   MPKI: 0
L2C TOTAL     ACCESS:    3625121  HIT:    2320328  MISS:    1304793  HIT %:    64.0069  MISS %:    35.9931   MPKI: 6.52396
L2C LOAD      ACCESS:       4940  HIT:          0  MISS:       4940  HIT %:          0  MISS %:        100   MPKI: 0.0247
L2C RFO       ACCESS:     668132  HIT:          0  MISS:     668132  HIT %:          0  MISS %:        100   MPKI: 3.34066
L2C PREFETCH  ACCESS:    1738406  HIT:    1150475  MISS:     587931  HIT %:    66.1799  MISS %:    33.8201   MPKI: 2.93965
L2C WRITEBACK ACCESS:     668132  HIT:     626878  MISS:      41254  HIT %:    93.8255  MISS %:    6.17453   MPKI: 0.20627
PSCL5 TOTAL     ACCESS:     545444  HIT:     545444  MISS:          0  HIT %:        100  MISS %:          0   MPKI: 0
PSCL5 LOAD      ACCESS:          0  HIT:          0  MISS:          0  HIT %:       -nan  MISS %:       -nan   MPKI: 0
PSCL5 RFO       ACCESS:          0  HIT:          0  MISS:          0  HIT %:       -nan  MISS %:       -nan   MPKI: 0
PSCL5 PREFETCH  ACCESS:          0  HIT:          0  MISS:          0  HIT %:       -nan  MISS %:       -nan   MPKI: 0
PSCL5 WRITEBACK ACCESS:          0  HIT:          0  MISS:          0  HIT %:       -nan  MISS %:       -nan   MPKI: 0
PSCL4 TOTAL     ACCESS:     545444  HIT:     545444  MISS:          0  HIT %:        100  MISS %:          0   MPKI: 0
PSCL4 LOAD      ACCESS:          0  HIT:          0  MISS:          0  HIT %:       -nan  MISS %:       -nan   MPKI: 0
PSCL4 RFO       ACCESS:          0  HIT:          0  MISS:          0  HIT %:       -nan  MISS %:       -nan   MPKI: 0
PSCL4 PREFETCH  ACCESS:          0  HIT:          0  MISS:          0  HIT %:       -nan  MISS %:       -nan   MPKI: 0
PSCL4 WRITEBACK ACCESS:          0  HIT:          0  MISS:          0  HIT %:       -nan  MISS %:       -nan   MPKI: 0
PSCL3 TOTAL     ACCESS:     545444  HIT:     545444  MISS:          0  HIT %:        100  MISS %:          0   MPKI: 0
PSCL3 LOAD      ACCESS:          0  HIT:          0  MISS:          0  HIT %:       -nan  MISS %:       -nan   MPKI: 0
PSCL3 RFO       ACCESS:          0  HIT:          0  MISS:          0  HIT %:       -nan  MISS %:       -nan   MPKI: 0
PSCL3 PREFETCH  ACCESS:          0  HIT:          0  MISS:          0  HIT %:       -nan  MISS %:       -nan   MPKI: 0
PSCL3 WRITEBACK ACCESS:          0  HIT:          0  MISS:          0  HIT %:       -nan  MISS %:       -nan   MPKI: 0
PSCL2 TOTAL     ACCESS:     544544  HIT:     544503  MISS:         41  HIT %:    99.9925  MISS %: 0.00752924   MPKI: 0.000205
PSCL2 LOAD      ACCESS:          0  HIT:          0  MISS:          0  HIT %:       -nan  MISS %:       -nan   MPKI: 0
PSCL2 RFO       ACCESS:          0  HIT:          0  MISS:          0  HIT %:       -nan  MISS %:       -nan   MPKI: 0
PSCL2 PREFETCH  ACCESS:          0  HIT:          0  MISS:          0  HIT %:       -nan  MISS %:       -nan   MPKI: 0
PSCL2 WRITEBACK ACCESS:          0  HIT:          0  MISS:          0  HIT %:       -nan  MISS %:       -nan   MPKI: 0
LLC TOTAL     ACCESS:    1933073  HIT:     644824  MISS:    1288249  HIT %:    33.3575  MISS %:    66.6425   MPKI: 6.44124
LLC LOAD      ACCESS:       4940  HIT:          0  MISS:       4940  HIT %:          0  MISS %:        100   MPKI: 0.0247
LLC RFO       ACCESS:     668132  HIT:          0  MISS:     668132  HIT %:          0  MISS %:        100   MPKI: 3.34066
LLC PREFETCH  ACCESS:     587932  HIT:          7  MISS:     587925  HIT %: 0.00119061  MISS %:    99.9988   MPKI: 2.93962
LLC WRITEBACK ACCESS:     669533  HIT:     644817  MISS:      24716  HIT %:    96.3085  MISS %:    3.69153   MPKI: 0.12358

RAW hits: 0
Loads Generated: 37850904
Loads sent to L1D: 37850902
Stores Generated: 5345054
Stores sent to L1D: 5345053

CPU 3 cumulative IPC: 1.10895 instructions: 200002481 cycles: 180352499
ITLB TOTAL     ACCESS:   33166705  HIT:   33166705  MISS:          0  HIT %:        100  MISS %:          0   MPKI: 0
ITLB LOAD      ACCESS:          0  HIT:          0  MISS:          0  HIT %:       -nan  MISS %:       -nan   MPKI: 0
ITLB RFO       ACCESS:          0  HIT:          0  MISS:          0  HIT %:       -nan  MISS %:       -nan   MPKI: 0
ITLB PREFETCH  ACCESS:          0  HIT:          0  MISS:          0  HIT %:       -nan  MISS %:       -nan   MPKI: 0
ITLB WRITEBACK ACCESS:          0  HIT:          0  MISS:          0  HIT %:       -nan  MISS %:       -nan   MPKI: 0
DTLB TOTAL     ACCESS:   20727016  HIT:   20707311  MISS:      19705  HIT %:    99.9049  MISS %:  0.0950692   MPKI: 0.0985238
DTLB LOAD      ACCESS:          0  HIT:          0  MISS:          0  HIT %:       -nan  MISS %:       -nan   MPKI: 0
DTLB RFO       ACCESS:          0  HIT:          0  MISS:          0  HIT %:       -nan  MISS %:       -nan   MPKI: 0
DTLB PREFETCH  ACCESS:          0  HIT:          0  MISS:          0  HIT %:       -nan  MISS %:       -nan   MPKI: 0
DTLB WRITEBACK ACCESS:          0  HIT:          0  MISS:          0  HIT %:       -nan  MISS %:       -nan   MPKI: 0
STLB TOTAL     ACCESS:   10265495  HIT:   10245790  MISS:      19705  HIT %:     99.808  MISS %:   0.191954   MPKI: 0.0985238
STLB LOAD      ACCESS:          0  HIT:          0  MISS:          0  HIT %:       -nan  MISS %:       -nan   MPKI: 0
STLB RFO       ACCESS:          0  HIT:          0  MISS:          0  HIT %:       -nan  MISS %:       -nan   MPKI: 0
STLB PREFETCH  ACCESS:          0  HIT:          0  MISS:          0  HIT %:       -nan  MISS %:       -nan   MPKI: 0
STLB WRITEBACK ACCESS:          0  HIT:          0  MISS:          0  HIT %:       -nan  MISS %:       -nan   MPKI: 0
L1D TOTAL     ACCESS:   75986899  HIT:   74725835  MISS:    1261064  HIT %:    98.3404  MISS %:    1.65958   MPKI: 6.30524
L1D LOAD      ACCESS:   15417324  HIT:   15406611  MISS:      10713  HIT %:    99.9305  MISS %:  0.0694868   MPKI: 0.0535643
L1D RFO       ACCESS:    1356591  HIT:     688451  MISS:     668140  HIT %:    50.7486  MISS %:    49.2514   MPKI: 3.34066
L1D PREFETCH  ACCESS:   59212984  HIT:   58630773  MISS:     582211  HIT %:    99.0168  MISS %:   0.983249   MPKI: 2.91102
L1D WRITEBACK ACCESS:          0  HIT:          0  MISS:          0  HIT %:       -nan  MISS %:       -nan   MPKI: 0
L1I TOTAL     ACCESS:   33185161  HIT:   33185161  MISS:          0  HIT %:        100  MISS %:          0   MPKI: 0
L1I LOAD      ACCESS:   33185161  HIT:   33185161  MISS:          0  HIT %:        100  MISS %:          0   MPKI: 0
L1I RFO       ACCESS:          0  HIT:          0  MISS:          0  HIT %:       -nan  MISS %:       -nan   MPKI: 0
L1I PREFETCH  ACCESS:          0  HIT:          0  MISS:          0  HIT %:       -nan  MISS %:       -nan   MPKI: 0
L1I WRITEBACK ACCESS:          0  HIT:          0  MISS:          0  HIT %:       -nan  MISS %:       -nan   MPKI: 0
L2C TOTAL     ACCESS:    3621366  HIT:    2320154  MISS:    1301212  HIT %:    64.0685  MISS %:    35.9315   MPKI: 6.50598
L2C LOAD      ACCESS:       4957  HIT:          0  MISS:       4957  HIT %:          0  MISS %:        100   MPKI: 0.0247847
L2C RFO       ACCESS:     668140  HIT:          0  MISS:     668140  HIT %:          0  MISS %:        100   MPKI: 3.34066
L2C PREFETCH  ACCESS:    1734739  HIT:    1146813  MISS:     587926  HIT %:    66.1087  MISS %:    33.8913   MPKI: 2.93959
L2C WRITEBACK ACCESS:     668141  HIT:     630491  MISS:      37650  HIT %:     94.365  MISS %:    5.63504   MPKI: 0.188248
PSCL5 TOTAL     ACCESS:     545322  HIT:     545322  MISS:          0  HIT %:        100  MISS %:          0   MPKI: 0
PSCL5 LOAD      ACCESS:          0  HIT:          0  MISS:          0  HIT %:       -nan  MISS %:       -nan   MPKI: 0
PSCL5 RFO       ACCESS:          0  HIT:          0  MISS:          0  HIT %:       -nan  MISS %:       -nan   MPKI: 0
PSCL5 PREFETCH  ACCESS:          0  HIT:          0  MISS:          0  HIT %:       -nan  MISS %:       -nan   MPKI: 0
PSCL5 WRITEBACK ACCESS:          0  HIT:          0  MISS:          0  HIT %:       -nan  MISS %:       -nan   MPKI: 0
PSCL4 TOTAL     ACCESS:     545322  HIT:     545322  MISS:          0  HIT %:        100  MISS %:          0   MPKI: 0
PSCL4 LOAD      ACCESS:          0  HIT:          0  MISS:          0  HIT %:       -nan  MISS %:       -nan   MPKI: 0
PSCL4 RFO       ACCESS:          0  HIT:          0  MISS:          0  HIT %:       -nan  MISS %:       -nan   MPKI: 0
PSCL4 PREFETCH  ACCESS:          0  HIT:          0  MISS:          0  HIT %:       -nan  MISS %:       -nan   MPKI: 0
PSCL4 WRITEBACK ACCESS:          0  HIT:          0  MISS:          0  HIT %:       -nan  MISS %:       -nan   MPKI: 0
PSCL3 TOTAL     ACCESS:     545322  HIT:     545322  MISS:          0  HIT %:        100  MISS %:          0   MPKI: 0
PSCL3 LOAD      ACCESS:          0  HIT:          0  MISS:          0  HIT %:       -nan  MISS %:       -nan   MPKI: 0
PSCL3 RFO       ACCESS:          0  HIT:          0  MISS:          0  HIT %:       -nan  MISS %:       -nan   MPKI: 0
PSCL3 PREFETCH  ACCESS:          0  HIT:          0  MISS:          0  HIT %:       -nan  MISS %:       -nan   MPKI: 0
PSCL3 WRITEBACK ACCESS:          0  HIT:          0  MISS:          0  HIT %:       -nan  MISS %:       -nan   MPKI: 0
PSCL2 TOTAL     ACCESS:     544390  HIT:     544349  MISS:         41  HIT %:    99.9925  MISS %: 0.00753137   MPKI: 0.000204997
PSCL2 LOAD      ACCESS:          0  HIT:          0  MISS:          0  HIT %:       -nan  MISS %:       -nan   MPKI: 0
PSCL2 RFO       ACCESS:          0  HIT:          0  MISS:          0  HIT %:       -nan  MISS %:       -nan   MPKI: 0
PSCL2 PREFETCH  ACCESS:          0  HIT:          0  MISS:          0  HIT %:       -nan  MISS %:       -nan   MPKI: 0
PSCL2 WRITEBACK ACCESS:          0  HIT:          0  MISS:          0  HIT %:       -nan  MISS %:       -nan   MPKI: 0
LLC TOTAL     ACCESS:    1933238  HIT:     645550  MISS:    1287688  HIT %:    33.3922  MISS %:    66.6078   MPKI: 6.43836
LLC LOAD      ACCESS:       4957  HIT:          0  MISS:       4957  HIT %:          0  MISS %:        100   MPKI: 0.0247847
LLC RFO       ACCESS:     668140  HIT:          0  MISS:     668140  HIT %:          0  MISS %:        100   MPKI: 3.34066
LLC PREFETCH  ACCESS:     587926  HIT:          2  MISS:     587924  HIT %: 0.000340179  MISS %:    99.9997   MPKI: 2.93958
LLC WRITEBACK ACCESS:     669676  HIT:     645547  MISS:      24129  HIT %:    96.3969  MISS %:    3.60309   MPKI: 0.120644

RAW hits: 0
Loads Generated: 37851373
Loads sent to L1D: 37851371
Stores Generated: 5345119
Stores sent to L1D: 5345120

Region of Interest Statistics

CPU 0 cumulative IPC: 1.10901 instructions: 200000002 cycles: 180340888
ITLB TOTAL     ACCESS:   33166664  HIT:   33166664  MISS:          0  HIT %:        100  MISS %:          0   MPKI: 0
ITLB LOAD TRANSLATION ACCESS:   33166664  HIT:   33166664  MISS:          0  HIT %:        100  MISS %:          0   MPKI: 0
ITLB PREFETCH  REQUESTED:          0  ISSUED:          0  USEFUL:          0  USELESS:          0
ITLB USEFUL LOAD PREFETCHES:          0 PREFETCH ISSUED TO LOWER LEVEL:          0  ACCURACY: -nan
ITLB TIMELY PREFETCHES:          0 LATE PREFETCHES: 0 DROPPED PREFETCHES: 0
ITLB PREFETCHES SAME FILL-ORIGIN LEVEL: 0 DIFFERENT FILL-ORIGIN LEVEL: 0
ITLB AVERAGE MISS LATENCY: -nan cycles
ITLB RQ	ACCESS:   33187092	FORWARD:          0	MERGED:      18457	TO_CACHE:   33168635

DTLB TOTAL     ACCESS:   20726559  HIT:   20706855  MISS:      19704  HIT %:    99.9049  MISS %:  0.0950664   MPKI: 0.09852
DTLB LOAD TRANSLATION ACCESS:   20726559  HIT:   20706855  MISS:      19704  HIT %:    99.9049  MISS %:  0.0950664   MPKI: 0.09852
DTLB PREFETCH  REQUESTED:          0  ISSUED:          0  USEFUL:          0  USELESS:          0
DTLB USEFUL LOAD PREFETCHES:          0 PREFETCH ISSUED TO LOWER LEVEL:          0  ACCURACY: -nan
DTLB TIMELY PREFETCHES:          0 LATE PREFETCHES: 0 DROPPED PREFETCHES: 0
DTLB PREFETCHES SAME FILL-ORIGIN LEVEL: 0 DIFFERENT FILL-ORIGIN LEVEL: 0
DTLB AVERAGE MISS LATENCY: 148.654 cycles
DTLB RQ	ACCESS:   20821610	FORWARD:          0	MERGED:      75493	TO_CACHE:   20746117

STLB TOTAL     ACCESS:   10265027  HIT:   10245323  MISS:      19704  HIT %:     99.808  MISS %:   0.191953   MPKI: 0.09852
STLB LOAD TRANSLATION ACCESS:      19704  HIT:          0  MISS:      19704  HIT %:          0  MISS %:        100   MPKI: 0.09852
STLB TRANSLATION FROM L1D PREFETCHER ACCESS:   10245323  HIT:   10245323  MISS:          0  HIT %:        100  MISS %:          0   MPKI: 0
STLB PREFETCH  REQUESTED:          0  ISSUED:          0  USEFUL:          0  USELESS:          0
STLB USEFUL LOAD PREFETCHES:          0 PREFETCH ISSUED TO LOWER LEVEL:          0  ACCURACY: -nan
STLB TIMELY PREFETCHES:          0 LATE PREFETCHES: 1927 DROPPED PREFETCHES: 523559
STLB PREFETCHES SAME FILL-ORIGIN LEVEL: 0 DIFFERENT FILL-ORIGIN LEVEL: 0
STLB AVERAGE MISS LATENCY: 139.057 cycles
STLB RQ	ACCESS:   70825864	FORWARD:          0	MERGED:   59985182	TO_CACHE:   10840682

STLB Hit, L1D data hit: 0
STLB Hit, L2C data hit: 0
STLB Hit, LLC data hit: 0
STLB Hit, LLC data miss: 0
STLB STLB hints to L2: 0
L1D TOTAL     ACCESS:   75983191  HIT:   74722144  MISS:    1261047  HIT %:    98.3404  MISS %:    1.65964   MPKI: 6.30523
L1D LOAD      ACCESS:   15416593  HIT:   15405823  MISS:      10770  HIT %:    99.9301  MISS %:  0.0698598   MPKI: 0.05385
L1D RFO       ACCESS:    1361105  HIT:     692973  MISS:     668132  HIT %:    50.9125  MISS %:    49.0875   MPKI: 3.34066
L1D PREFETCH  ACCESS:   59205493  HIT:   58623348  MISS:     582145  HIT %:    99.0167  MISS %:   0.983262   MPKI: 2.91072
L1D PREFETCH  REQUESTED:  285255708  ISSUED:  285239215  USEFUL:     582128  USELESS:         48
L1D USEFUL LOAD PREFETCHES:     582128 PREFETCH ISSUED TO LOWER LEVEL:    2620621  ACCURACY: 22.2134
L1D TIMELY PREFETCHES:     582128 LATE PREFETCHES: 5806 DROPPED PREFETCHES: 2387203
L1D PREFETCHES SAME FILL-ORIGIN LEVEL: 587993 DIFFERENT FILL-ORIGIN LEVEL: 2032628
L1D AVERAGE MISS LATENCY: 293.416 cycles
L1D RQ	ACCESS:   37853185	FORWARD:          0	MERGED:   22376978	TO_CACHE:   15476207
L1D WQ	ACCESS:    5345403	FORWARD:          0	MERGED:          0	TO_CACHE:    5345403
L1D PQ	ACCESS:  214433056	FORWARD:          0	MERGED:  143626897	TO_CACHE:   70806159

L1D UNIQUE REGIONS ACCESSED: 0
L1D REGIONS CONFLICTS: 0
L1D Cross Page Prefetch Requests: 21994949
L1D Same Page Prefetch Requests: 314823667
L1D ROI Sum of L1D PQ occupancy: 872835490
L1D PREFETCHES PUSHED FROM L2C: 0
L1I TOTAL     ACCESS:   33185119  HIT:   33185119  MISS:          0  HIT %:        100  MISS %:          0   MPKI: 0
L1I LOAD      ACCESS:   33185119  HIT:   33185119  MISS:          0  HIT %:        100  MISS %:          0   MPKI: 0
L1I PREFETCH  REQUESTED:          0  ISSUED:          0  USEFUL:          0  USELESS:          0
L1I USEFUL LOAD PREFETCHES:          0 PREFETCH ISSUED TO LOWER LEVEL:          0  ACCURACY: -nan
L1I TIMELY PREFETCHES:          0 LATE PREFETCHES: 0 DROPPED PREFETCHES: 0
L1I PREFETCHES SAME FILL-ORIGIN LEVEL: 0 DIFFERENT FILL-ORIGIN LEVEL: 0
L1I AVERAGE MISS LATENCY: -nan cycles
L1I RQ	ACCESS:   91521469	FORWARD:          0	MERGED:   58334377	TO_CACHE:   33187092

BTB TOTAL     ACCESS:   75609551  HIT:   75609550  MISS:          1  HIT %:        100  MISS %: 1.32258e-06   MPKI: 5e-06
BTB BRANCH_DIRECT_JUMP	ACCESS:          0  HIT:          0  MISS:          0
BTB BRANCH_INDIRECT	ACCESS:          0  HIT:          0  MISS:          0
BTB BRANCH_CONDITIONAL	ACCESS:   75609551  HIT:   75609550  MISS:          1
BTB BRANCH_DIRECT_CALL	ACCESS:          0  HIT:          0  MISS:          0
BTB BRANCH_INDIRECT_CALL	ACCESS:          0  HIT:          0  MISS:          0
BTB BRANCH_RETURN	ACCESS:          0  HIT:          0  MISS:          0
BTB BRANCH_OTHER ACCESS:          0  HIT:          0  MISS:          0

L2C TOTAL     ACCESS:    3616305  HIT:    2311859  MISS:    1304446  HIT %:    63.9288  MISS %:    36.0712   MPKI: 6.52223
L2C LOAD      ACCESS:       4964  HIT:          0  MISS:       4964  HIT %:          0  MISS %:        100   MPKI: 0.02482
L2C DATA LOAD MPKI: 0.02482
L2C INSTRUCTION LOAD MPKI: 0
L2C RFO       ACCESS:     668132  HIT:          0  MISS:     668132  HIT %:          0  MISS %:        100   MPKI: 3.34066
L2C PREFETCH  ACCESS:    1729820  HIT:    1141910  MISS:     587910  HIT %:    66.0132  MISS %:    33.9868   MPKI: 2.93955
L2C DATA PREFETCH MPKI: 2.93955
L2C INSTRUCTION PREFETCH MPKI: 0
L2C WRITEBACK ACCESS:     668132  HIT:     627226  MISS:      40906  HIT %:    93.8776  MISS %:    6.12244   MPKI: 0.20453
L2C LOAD TRANSLATION ACCESS:      19707  HIT:      18377  MISS:       1330  HIT %:    93.2511  MISS %:    6.74887   MPKI: 0.00665
L2C TRANSLATION FROM L1D PREFETCHER ACCESS:     525550  HIT:     524346  MISS:       1204  HIT %:    99.7709  MISS %:   0.229093   MPKI: 0.00602
L2C PREFETCH  REQUESTED:          0  ISSUED:          0  USEFUL:       1204  USELESS:     586503
L2C USEFUL LOAD PREFETCHES:       1204 PREFETCH ISSUED TO LOWER LEVEL:     587954  ACCURACY: 0.204778
L2C TIMELY PREFETCHES:       1204 LATE PREFETCHES: 0 DROPPED PREFETCHES: 0
L2C PREFETCHES SAME FILL-ORIGIN LEVEL: 68781 DIFFERENT FILL-ORIGIN LEVEL: 0
L2C AVERAGE MISS LATENCY: 288.399 cycles
L2C RQ	ACCESS:    1218399	FORWARD:          0	MERGED:          0	TO_CACHE:    1218399
L2C WQ	ACCESS:     668173	FORWARD:          0	MERGED:          0	TO_CACHE:     668173
L2C PQ	ACCESS:    2620621	FORWARD:          0	MERGED:       3017	TO_CACHE:    2617604

L2C Instructions Evicting Data 0
L2C Translations Evicting Data 2535
L2C Data Evicting Data 1258595
L2C Instructions Evicting Instructions 0
L2C Translations Evicting Instructions 0
L2C Data Evicting Instructions 0
L2C Instructions Evicting Translations 0
L2C Translations Evicting Translations 0
L2C Data Evicting Translations 2497
L2C Dense regions hint from L2: 0
PSCL5 TOTAL     ACCESS:     545190  HIT:     545190  MISS:          0  HIT %:        100  MISS %:          0   MPKI: 0
PSCL5 LOAD TRANSLATION ACCESS:      19704  HIT:      19704  MISS:          0  HIT %:        100  MISS %:          0   MPKI: 0
PSCL5 TRANSLATION FROM L1D PREFETCHER ACCESS:     525486  HIT:     525486  MISS:          0  HIT %:        100  MISS %:          0   MPKI: 0
PSCL5 PREFETCH  REQUESTED:          0  ISSUED:          0  USEFUL:          0  USELESS:          0
PSCL5 USEFUL LOAD PREFETCHES:          0 PREFETCH ISSUED TO LOWER LEVEL:          0  ACCURACY: -nan
PSCL5 TIMELY PREFETCHES:          0 LATE PREFETCHES: 0 DROPPED PREFETCHES: 0
PSCL5 PREFETCHES SAME FILL-ORIGIN LEVEL: 0 DIFFERENT FILL-ORIGIN LEVEL: 0

PSCL4 TOTAL     ACCESS:     545190  HIT:     545190  MISS:          0  HIT %:        100  MISS %:          0   MPKI: 0
PSCL4 LOAD TRANSLATION ACCESS:      19704  HIT:      19704  MISS:          0  HIT %:        100  MISS %:          0   MPKI: 0
PSCL4 TRANSLATION FROM L1D PREFETCHER ACCESS:     525486  HIT:     525486  MISS:          0  HIT %:        100  MISS %:          0   MPKI: 0
PSCL4 PREFETCH  REQUESTED:          0  ISSUED:          0  USEFUL:          0  USELESS:          0
PSCL4 USEFUL LOAD PREFETCHES:          0 PREFETCH ISSUED TO LOWER LEVEL:          0  ACCURACY: -nan
PSCL4 TIMELY PREFETCHES:          0 LATE PREFETCHES: 0 DROPPED PREFETCHES: 0
PSCL4 PREFETCHES SAME FILL-ORIGIN LEVEL: 0 DIFFERENT FILL-ORIGIN LEVEL: 0

PSCL3 TOTAL     ACCESS:     545190  HIT:     545190  MISS:          0  HIT %:        100  MISS %:          0   MPKI: 0
PSCL3 LOAD TRANSLATION ACCESS:      19704  HIT:      19704  MISS:          0  HIT %:        100  MISS %:          0   MPKI: 0
PSCL3 TRANSLATION FROM L1D PREFETCHER ACCESS:     525486  HIT:     525486  MISS:          0  HIT %:        100  MISS %:          0   MPKI: 0
PSCL3 PREFETCH  REQUESTED:          0  ISSUED:          0  USEFUL:          0  USELESS:          0
PSCL3 USEFUL LOAD PREFETCHES:          0 PREFETCH ISSUED TO LOWER LEVEL:          0  ACCURACY: -nan
PSCL3 TIMELY PREFETCHES:          0 LATE PREFETCHES: 0 DROPPED PREFETCHES: 0
PSCL3 PREFETCHES SAME FILL-ORIGIN LEVEL: 0 DIFFERENT FILL-ORIGIN LEVEL: 0

PSCL2 TOTAL     ACCESS:     544263  HIT:     544222  MISS:         41  HIT %:    99.9925  MISS %: 0.00753312   MPKI: 0.000205
PSCL2 LOAD TRANSLATION ACCESS:      19704  HIT:      19663  MISS:         41  HIT %:    99.7919  MISS %:    0.20808   MPKI: 0.000205
PSCL2 TRANSLATION FROM L1D PREFETCHER ACCESS:     524559  HIT:     524559  MISS:          0  HIT %:        100  MISS %:          0   MPKI: 0
PSCL2 PREFETCH  REQUESTED:          0  ISSUED:          0  USEFUL:          0  USELESS:          0
PSCL2 USEFUL LOAD PREFETCHES:          0 PREFETCH ISSUED TO LOWER LEVEL:          0  ACCURACY: -nan
PSCL2 TIMELY PREFETCHES:          0 LATE PREFETCHES: 0 DROPPED PREFETCHES: 0
PSCL2 PREFETCHES SAME FILL-ORIGIN LEVEL: 0 DIFFERENT FILL-ORIGIN LEVEL: 0

LLC TOTAL     ACCESS:    1933116  HIT:     645140  MISS:    1287976  HIT %:    33.3731  MISS %:    66.6269   MPKI: 6.43988
LLC LOAD      ACCESS:       4964  HIT:          0  MISS:       4964  HIT %:          0  MISS %:        100   MPKI: 0.02482
LLC RFO       ACCESS:     668132  HIT:          0  MISS:     668132  HIT %:          0  MISS %:        100   MPKI: 3.34066
LLC PREFETCH  ACCESS:     587910  HIT:          6  MISS:     587904  HIT %: 0.00102056  MISS %:     99.999   MPKI: 2.93952
LLC WRITEBACK ACCESS:     669576  HIT:     645127  MISS:      24449  HIT %:    96.3486  MISS %:    3.65142   MPKI: 0.122245
LLC LOAD TRANSLATION ACCESS:       1330  HIT:          1  MISS:       1329  HIT %:   0.075188  MISS %:    99.9248   MPKI: 0.006645
LLC TRANSLATION FROM L1D PREFETCHER ACCESS:       1204  HIT:          6  MISS:       1198  HIT %:   0.498339  MISS %:    99.5017   MPKI: 0.00599
LLC PREFETCH  REQUESTED:          0  ISSUED:          0  USEFUL:          2  USELESS:    2353952
LLC USEFUL LOAD PREFETCHES:          2 PREFETCH ISSUED TO LOWER LEVEL:    2351674  ACCURACY: 8.50458e-05
LLC TIMELY PREFETCHES:          2 LATE PREFETCHES: 0 DROPPED PREFETCHES: 0
LLC PREFETCHES SAME FILL-ORIGIN LEVEL: 0 DIFFERENT FILL-ORIGIN LEVEL: 0
LLC AVERAGE MISS LATENCY: 1049.56 cycles
LLC RQ	ACCESS:    2702594	FORWARD:          0	MERGED:          0	TO_CACHE:    2702594
LLC WQ	ACCESS:    2678526	FORWARD:          0	MERGED:          0	TO_CACHE:    2678526
LLC PQ	ACCESS:    2351691	FORWARD:          0	MERGED:          0	TO_CACHE:    2351691

LLC Dense regions hint to LLC: 0

RAW hits: 0
Loads Generated: 37850910
Loads sent to L1D: 37850909
Stores Generated: 5345054
Stores sent to L1D: 5345053
Major fault: 0 Minor fault: 24882
Allocated PAGES: 99528

CPU 1 cumulative IPC: 1.10894 instructions: 200000001 cycles: 180351636
ITLB TOTAL     ACCESS:   33166105  HIT:   33166105  MISS:          0  HIT %:        100  MISS %:          0   MPKI: 0
ITLB LOAD TRANSLATION ACCESS:   33166105  HIT:   33166105  MISS:          0  HIT %:        100  MISS %:          0   MPKI: 0
ITLB PREFETCH  REQUESTED:          0  ISSUED:          0  USEFUL:          0  USELESS:          0
ITLB USEFUL LOAD PREFETCHES:          0 PREFETCH ISSUED TO LOWER LEVEL:          0  ACCURACY: -nan
ITLB TIMELY PREFETCHES:          0 LATE PREFETCHES: 0 DROPPED PREFETCHES: 0
ITLB PREFETCHES SAME FILL-ORIGIN LEVEL: 0 DIFFERENT FILL-ORIGIN LEVEL: 0
ITLB AVERAGE MISS LATENCY: -nan cycles
ITLB RQ	ACCESS:   33184698	FORWARD:          0	MERGED:      18456	TO_CACHE:   33166242

DTLB TOTAL     ACCESS:   20727642  HIT:   20707938  MISS:      19704  HIT %:    99.9049  MISS %:  0.0950615   MPKI: 0.09852
DTLB LOAD TRANSLATION ACCESS:   20727642  HIT:   20707938  MISS:      19704  HIT %:    99.9049  MISS %:  0.0950615   MPKI: 0.09852
DTLB PREFETCH  REQUESTED:          0  ISSUED:          0  USEFUL:          0  USELESS:          0
DTLB USEFUL LOAD PREFETCHES:          0 PREFETCH ISSUED TO LOWER LEVEL:          0  ACCURACY: -nan
DTLB TIMELY PREFETCHES:          0 LATE PREFETCHES: 0 DROPPED PREFETCHES: 0
DTLB PREFETCHES SAME FILL-ORIGIN LEVEL: 0 DIFFERENT FILL-ORIGIN LEVEL: 0
DTLB AVERAGE MISS LATENCY: 149.334 cycles
DTLB RQ	ACCESS:   20821831	FORWARD:          0	MERGED:      75446	TO_CACHE:   20746385

STLB TOTAL     ACCESS:   10263972  HIT:   10244268  MISS:      19704  HIT %:     99.808  MISS %:   0.191972   MPKI: 0.09852
STLB LOAD TRANSLATION ACCESS:      19704  HIT:          0  MISS:      19704  HIT %:          0  MISS %:        100   MPKI: 0.09852
STLB TRANSLATION FROM L1D PREFETCHER ACCESS:   10244268  HIT:   10244268  MISS:          0  HIT %:        100  MISS %:          0   MPKI: 0
STLB PREFETCH  REQUESTED:          0  ISSUED:          0  USEFUL:          0  USELESS:          0
STLB USEFUL LOAD PREFETCHES:          0 PREFETCH ISSUED TO LOWER LEVEL:          0  ACCURACY: -nan
STLB TIMELY PREFETCHES:          0 LATE PREFETCHES: 1936 DROPPED PREFETCHES: 523417
STLB PREFETCHES SAME FILL-ORIGIN LEVEL: 0 DIFFERENT FILL-ORIGIN LEVEL: 0
STLB AVERAGE MISS LATENCY: 139.741 cycles
STLB RQ	ACCESS:   70823836	FORWARD:          0	MERGED:   59984762	TO_CACHE:   10839074

STLB Hit, L1D data hit: 0
STLB Hit, L2C data hit: 0
STLB Hit, LLC data hit: 0
STLB Hit, LLC data miss: 0
STLB STLB hints to L2: 0
L1D TOTAL     ACCESS:   75991641  HIT:   74730588  MISS:    1261053  HIT %:    98.3405  MISS %:    1.65946   MPKI: 6.30526
L1D LOAD      ACCESS:   15418273  HIT:   15407591  MISS:      10682  HIT %:    99.9307  MISS %:  0.0692814   MPKI: 0.05341
L1D RFO       ACCESS:    1360159  HIT:     692027  MISS:     668132  HIT %:    50.8784  MISS %:    49.1216   MPKI: 3.34066
L1D PREFETCH  ACCESS:   59213209  HIT:   58630970  MISS:     582239  HIT %:    99.0167  MISS %:   0.983292   MPKI: 2.91119
L1D PREFETCH  REQUESTED:  285272203  ISSUED:  285253441  USEFUL:     582182  USELESS:         54
L1D USEFUL LOAD PREFETCHES:     582182 PREFETCH ISSUED TO LOWER LEVEL:    2632064  ACCURACY: 22.1188
L1D TIMELY PREFETCHES:     582182 LATE PREFETCHES: 5683 DROPPED PREFETCHES: 2386283
L1D PREFETCHES SAME FILL-ORIGIN LEVEL: 587924 DIFFERENT FILL-ORIGIN LEVEL: 2044140
L1D AVERAGE MISS LATENCY: 293.503 cycles
L1D RQ	ACCESS:   37851050	FORWARD:          0	MERGED:   22374294	TO_CACHE:   15476756
L1D WQ	ACCESS:    5345075	FORWARD:          0	MERGED:          0	TO_CACHE:    5345075
L1D PQ	ACCESS:  214449310	FORWARD:          0	MERGED:  143645179	TO_CACHE:   70804131

L1D UNIQUE REGIONS ACCESSED: 0
L1D REGIONS CONFLICTS: 0
L1D Cross Page Prefetch Requests: 22015311
L1D Same Page Prefetch Requests: 314819888
L1D ROI Sum of L1D PQ occupancy: 873055425
L1D PREFETCHES PUSHED FROM L2C: 0
L1I TOTAL     ACCESS:   33184559  HIT:   33184559  MISS:          0  HIT %:        100  MISS %:          0   MPKI: 0
L1I LOAD      ACCESS:   33184559  HIT:   33184559  MISS:          0  HIT %:        100  MISS %:          0   MPKI: 0
L1I PREFETCH  REQUESTED:          0  ISSUED:          0  USEFUL:          0  USELESS:          0
L1I USEFUL LOAD PREFETCHES:          0 PREFETCH ISSUED TO LOWER LEVEL:          0  ACCURACY: -nan
L1I TIMELY PREFETCHES:          0 LATE PREFETCHES: 0 DROPPED PREFETCHES: 0
L1I PREFETCHES SAME FILL-ORIGIN LEVEL: 0 DIFFERENT FILL-ORIGIN LEVEL: 0
L1I AVERAGE MISS LATENCY: -nan cycles
L1I RQ	ACCESS:   91515190	FORWARD:          0	MERGED:   58330492	TO_CACHE:   33184698

BTB TOTAL     ACCESS:   75609548  HIT:   75609547  MISS:          1  HIT %:        100  MISS %: 1.32258e-06   MPKI: 5e-06
BTB BRANCH_DIRECT_JUMP	ACCESS:          0  HIT:          0  MISS:          0
BTB BRANCH_INDIRECT	ACCESS:          0  HIT:          0  MISS:          0
BTB BRANCH_CONDITIONAL	ACCESS:   75609548  HIT:   75609547  MISS:          1
BTB BRANCH_DIRECT_CALL	ACCESS:          0  HIT:          0  MISS:          0
BTB BRANCH_INDIRECT_CALL	ACCESS:          0  HIT:          0  MISS:          0
BTB BRANCH_RETURN	ACCESS:          0  HIT:          0  MISS:          0
BTB BRANCH_OTHER ACCESS:          0  HIT:          0  MISS:          0

L2C TOTAL     ACCESS:    3629757  HIT:    2327577  MISS:    1302180  HIT %:    64.1249  MISS %:    35.8751   MPKI: 6.5109
L2C LOAD      ACCESS:       4999  HIT:          0  MISS:       4999  HIT %:          0  MISS %:        100   MPKI: 0.024995
L2C DATA LOAD MPKI: 0.024995
L2C INSTRUCTION LOAD MPKI: 0
L2C RFO       ACCESS:     668132  HIT:          0  MISS:     668132  HIT %:          0  MISS %:        100   MPKI: 3.34066
L2C PREFETCH  ACCESS:    1743370  HIT:    1155499  MISS:     587871  HIT %:    66.2796  MISS %:    33.7204   MPKI: 2.93935
L2C DATA PREFETCH MPKI: 2.93935
L2C INSTRUCTION PREFETCH MPKI: 0
L2C WRITEBACK ACCESS:     668132  HIT:     629492  MISS:      38640  HIT %:    94.2167  MISS %:    5.78329   MPKI: 0.1932
L2C LOAD TRANSLATION ACCESS:      19707  HIT:      18377  MISS:       1330  HIT %:    93.2511  MISS %:    6.74887   MPKI: 0.00665
L2C TRANSLATION FROM L1D PREFETCHER ACCESS:     525417  HIT:     524209  MISS:       1208  HIT %:    99.7701  MISS %:   0.229913   MPKI: 0.00604
L2C PREFETCH  REQUESTED:          0  ISSUED:          0  USEFUL:       1208  USELESS:     586338
L2C USEFUL LOAD PREFETCHES:       1208 PREFETCH ISSUED TO LOWER LEVEL:     587873  ACCURACY: 0.205487
L2C TIMELY PREFETCHES:       1208 LATE PREFETCHES: 0 DROPPED PREFETCHES: 0
L2C PREFETCHES SAME FILL-ORIGIN LEVEL: 69100 DIFFERENT FILL-ORIGIN LEVEL: 0
L2C AVERAGE MISS LATENCY: 288.96 cycles
L2C RQ	ACCESS:    1218259	FORWARD:          0	MERGED:          0	TO_CACHE:    1218259
L2C WQ	ACCESS:     668135	FORWARD:          0	MERGED:          0	TO_CACHE:     668135
L2C PQ	ACCESS:    2632064	FORWARD:          0	MERGED:       3124	TO_CACHE:    2628940

L2C Instructions Evicting Data 0
L2C Translations Evicting Data 2538
L2C Data Evicting Data 1258543
L2C Instructions Evicting Instructions 0
L2C Translations Evicting Instructions 0
L2C Data Evicting Instructions 0
L2C Instructions Evicting Translations 0
L2C Translations Evicting Translations 0
L2C Data Evicting Translations 2464
L2C Dense regions hint from L2: 0
PSCL5 TOTAL     ACCESS:     545057  HIT:     545057  MISS:          0  HIT %:        100  MISS %:          0   MPKI: 0
PSCL5 LOAD TRANSLATION ACCESS:      19704  HIT:      19704  MISS:          0  HIT %:        100  MISS %:          0   MPKI: 0
PSCL5 TRANSLATION FROM L1D PREFETCHER ACCESS:     525353  HIT:     525353  MISS:          0  HIT %:        100  MISS %:          0   MPKI: 0
PSCL5 PREFETCH  REQUESTED:          0  ISSUED:          0  USEFUL:          0  USELESS:          0
PSCL5 USEFUL LOAD PREFETCHES:          0 PREFETCH ISSUED TO LOWER LEVEL:          0  ACCURACY: -nan
PSCL5 TIMELY PREFETCHES:          0 LATE PREFETCHES: 0 DROPPED PREFETCHES: 0
PSCL5 PREFETCHES SAME FILL-ORIGIN LEVEL: 0 DIFFERENT FILL-ORIGIN LEVEL: 0

PSCL4 TOTAL     ACCESS:     545057  HIT:     545057  MISS:          0  HIT %:        100  MISS %:          0   MPKI: 0
PSCL4 LOAD TRANSLATION ACCESS:      19704  HIT:      19704  MISS:          0  HIT %:        100  MISS %:          0   MPKI: 0
PSCL4 TRANSLATION FROM L1D PREFETCHER ACCESS:     525353  HIT:     525353  MISS:          0  HIT %:        100  MISS %:          0   MPKI: 0
PSCL4 PREFETCH  REQUESTED:          0  ISSUED:          0  USEFUL:          0  USELESS:          0
PSCL4 USEFUL LOAD PREFETCHES:          0 PREFETCH ISSUED TO LOWER LEVEL:          0  ACCURACY: -nan
PSCL4 TIMELY PREFETCHES:          0 LATE PREFETCHES: 0 DROPPED PREFETCHES: 0
PSCL4 PREFETCHES SAME FILL-ORIGIN LEVEL: 0 DIFFERENT FILL-ORIGIN LEVEL: 0

PSCL3 TOTAL     ACCESS:     545057  HIT:     545057  MISS:          0  HIT %:        100  MISS %:          0   MPKI: 0
PSCL3 LOAD TRANSLATION ACCESS:      19704  HIT:      19704  MISS:          0  HIT %:        100  MISS %:          0   MPKI: 0
PSCL3 TRANSLATION FROM L1D PREFETCHER ACCESS:     525353  HIT:     525353  MISS:          0  HIT %:        100  MISS %:          0   MPKI: 0
PSCL3 PREFETCH  REQUESTED:          0  ISSUED:          0  USEFUL:          0  USELESS:          0
PSCL3 USEFUL LOAD PREFETCHES:          0 PREFETCH ISSUED TO LOWER LEVEL:          0  ACCURACY: -nan
PSCL3 TIMELY PREFETCHES:          0 LATE PREFETCHES: 0 DROPPED PREFETCHES: 0
PSCL3 PREFETCHES SAME FILL-ORIGIN LEVEL: 0 DIFFERENT FILL-ORIGIN LEVEL: 0

PSCL2 TOTAL     ACCESS:     544177  HIT:     544136  MISS:         41  HIT %:    99.9925  MISS %: 0.00753431   MPKI: 0.000205
PSCL2 LOAD TRANSLATION ACCESS:      19704  HIT:      19663  MISS:         41  HIT %:    99.7919  MISS %:    0.20808   MPKI: 0.000205
PSCL2 TRANSLATION FROM L1D PREFETCHER ACCESS:     524473  HIT:     524473  MISS:          0  HIT %:        100  MISS %:          0   MPKI: 0
PSCL2 PREFETCH  REQUESTED:          0  ISSUED:          0  USEFUL:          0  USELESS:          0
PSCL2 USEFUL LOAD PREFETCHES:          0 PREFETCH ISSUED TO LOWER LEVEL:          0  ACCURACY: -nan
PSCL2 TIMELY PREFETCHES:          0 LATE PREFETCHES: 0 DROPPED PREFETCHES: 0
PSCL2 PREFETCHES SAME FILL-ORIGIN LEVEL: 0 DIFFERENT FILL-ORIGIN LEVEL: 0

LLC TOTAL     ACCESS:    1933237  HIT:     645690  MISS:    1287547  HIT %:    33.3994  MISS %:    66.6006   MPKI: 6.43773
LLC LOAD      ACCESS:       4999  HIT:          0  MISS:       4999  HIT %:          0  MISS %:        100   MPKI: 0.024995
LLC RFO       ACCESS:     668132  HIT:          0  MISS:     668132  HIT %:          0  MISS %:        100   MPKI: 3.34066
LLC PREFETCH  ACCESS:     587871  HIT:          2  MISS:     587869  HIT %: 0.000340211  MISS %:    99.9997   MPKI: 2.93934
LLC WRITEBACK ACCESS:     669697  HIT:     645683  MISS:      24014  HIT %:    96.4142  MISS %:     3.5858   MPKI: 0.12007
LLC LOAD TRANSLATION ACCESS:       1330  HIT:          1  MISS:       1329  HIT %:   0.075188  MISS %:    99.9248   MPKI: 0.006645
LLC TRANSLATION FROM L1D PREFETCHER ACCESS:       1208  HIT:          4  MISS:       1204  HIT %:   0.331126  MISS %:    99.6689   MPKI: 0.00602
LLC PREFETCH  REQUESTED:          0  ISSUED:          0  USEFUL:          2  USELESS:    2353952
LLC USEFUL LOAD PREFETCHES:          2 PREFETCH ISSUED TO LOWER LEVEL:    2351674  ACCURACY: 8.50458e-05
LLC TIMELY PREFETCHES:          2 LATE PREFETCHES: 0 DROPPED PREFETCHES: 0
LLC PREFETCHES SAME FILL-ORIGIN LEVEL: 0 DIFFERENT FILL-ORIGIN LEVEL: 0
LLC AVERAGE MISS LATENCY: 1049.91 cycles
LLC RQ	ACCESS:    2702594	FORWARD:          0	MERGED:          0	TO_CACHE:    2702594
LLC WQ	ACCESS:    2678526	FORWARD:          0	MERGED:          0	TO_CACHE:    2678526
LLC PQ	ACCESS:    2351691	FORWARD:          0	MERGED:          0	TO_CACHE:    2351691

LLC Dense regions hint to LLC: 0

RAW hits: 0
Loads Generated: 37850905
Loads sent to L1D: 37850904
Stores Generated: 5345054
Stores sent to L1D: 5345053
Major fault: 0 Minor fault: 24882
Allocated PAGES: 99528

CPU 2 cumulative IPC: 1.10894 instructions: 200000001 cycles: 180352499
ITLB TOTAL     ACCESS:   33166364  HIT:   33166364  MISS:          0  HIT %:        100  MISS %:          0   MPKI: 0
ITLB LOAD TRANSLATION ACCESS:   33166364  HIT:   33166364  MISS:          0  HIT %:        100  MISS %:          0   MPKI: 0
ITLB PREFETCH  REQUESTED:          0  ISSUED:          0  USEFUL:          0  USELESS:          0
ITLB USEFUL LOAD PREFETCHES:          0 PREFETCH ISSUED TO LOWER LEVEL:          0  ACCURACY: -nan
ITLB TIMELY PREFETCHES:          0 LATE PREFETCHES: 0 DROPPED PREFETCHES: 0
ITLB PREFETCHES SAME FILL-ORIGIN LEVEL: 0 DIFFERENT FILL-ORIGIN LEVEL: 0
ITLB AVERAGE MISS LATENCY: -nan cycles
ITLB RQ	ACCESS:   33184819	FORWARD:          0	MERGED:      18455	TO_CACHE:   33166364

DTLB TOTAL     ACCESS:   20726569  HIT:   20706865  MISS:      19704  HIT %:    99.9049  MISS %:  0.0950664   MPKI: 0.09852
DTLB LOAD TRANSLATION ACCESS:   20726569  HIT:   20706865  MISS:      19704  HIT %:    99.9049  MISS %:  0.0950664   MPKI: 0.09852
DTLB PREFETCH  REQUESTED:          0  ISSUED:          0  USEFUL:          0  USELESS:          0
DTLB USEFUL LOAD PREFETCHES:          0 PREFETCH ISSUED TO LOWER LEVEL:          0  ACCURACY: -nan
DTLB TIMELY PREFETCHES:          0 LATE PREFETCHES: 0 DROPPED PREFETCHES: 0
DTLB PREFETCHES SAME FILL-ORIGIN LEVEL: 0 DIFFERENT FILL-ORIGIN LEVEL: 0
DTLB AVERAGE MISS LATENCY: 150.146 cycles
DTLB RQ	ACCESS:   20821179	FORWARD:          0	MERGED:      75431	TO_CACHE:   20745748

STLB TOTAL     ACCESS:   10265547  HIT:   10245843  MISS:      19704  HIT %:    99.8081  MISS %:   0.191943   MPKI: 0.09852
STLB LOAD TRANSLATION ACCESS:      19704  HIT:          0  MISS:      19704  HIT %:          0  MISS %:        100   MPKI: 0.09852
STLB TRANSLATION FROM L1D PREFETCHER ACCESS:   10245843  HIT:   10245843  MISS:          0  HIT %:        100  MISS %:          0   MPKI: 0
STLB PREFETCH  REQUESTED:          0  ISSUED:          0  USEFUL:          0  USELESS:          0
STLB USEFUL LOAD PREFETCHES:          0 PREFETCH ISSUED TO LOWER LEVEL:          0  ACCURACY: -nan
STLB TIMELY PREFETCHES:          0 LATE PREFETCHES: 1934 DROPPED PREFETCHES: 523806
STLB PREFETCHES SAME FILL-ORIGIN LEVEL: 0 DIFFERENT FILL-ORIGIN LEVEL: 0
STLB AVERAGE MISS LATENCY: 140.525 cycles
STLB RQ	ACCESS:   70827152	FORWARD:          0	MERGED:   59986351	TO_CACHE:   10840801

STLB Hit, L1D data hit: 0
STLB Hit, L2C data hit: 0
STLB Hit, LLC data hit: 0
STLB Hit, LLC data miss: 0
STLB STLB hints to L2: 0
L1D TOTAL     ACCESS:   75982032  HIT:   74720980  MISS:    1261052  HIT %:    98.3403  MISS %:    1.65967   MPKI: 6.30526
L1D LOAD      ACCESS:   15417802  HIT:   15407155  MISS:      10647  HIT %:    99.9309  MISS %:  0.0690565   MPKI: 0.053235
L1D RFO       ACCESS:    1361403  HIT:     693271  MISS:     668132  HIT %:    50.9233  MISS %:    49.0767   MPKI: 3.34066
L1D PREFETCH  ACCESS:   59202827  HIT:   58620554  MISS:     582273  HIT %:    99.0165  MISS %:   0.983522   MPKI: 2.91136
L1D PREFETCH  REQUESTED:  285257840  ISSUED:  285235818  USEFUL:     582215  USELESS:         57
L1D USEFUL LOAD PREFETCHES:     582215 PREFETCH ISSUED TO LOWER LEVEL:    2626176  ACCURACY: 22.1697
L1D TIMELY PREFETCHES:     582215 LATE PREFETCHES: 5707 DROPPED PREFETCHES: 2387296
L1D PREFETCHES SAME FILL-ORIGIN LEVEL: 587985 DIFFERENT FILL-ORIGIN LEVEL: 2038191
L1D AVERAGE MISS LATENCY: 293.537 cycles
L1D RQ	ACCESS:   37850902	FORWARD:          0	MERGED:   22374776	TO_CACHE:   15476126
L1D WQ	ACCESS:    5345053	FORWARD:          0	MERGED:          0	TO_CACHE:    5345053
L1D PQ	ACCESS:  214428370	FORWARD:          0	MERGED:  143620922	TO_CACHE:   70807448

L1D UNIQUE REGIONS ACCESSED: 0
L1D REGIONS CONFLICTS: 0
L1D Cross Page Prefetch Requests: 22003289
L1D Same Page Prefetch Requests: 314811311
L1D ROI Sum of L1D PQ occupancy: 872855436
L1D PREFETCHES PUSHED FROM L2C: 0
L1I TOTAL     ACCESS:   33184818  HIT:   33184818  MISS:          0  HIT %:        100  MISS %:          0   MPKI: 0
L1I LOAD      ACCESS:   33184818  HIT:   33184818  MISS:          0  HIT %:        100  MISS %:          0   MPKI: 0
L1I PREFETCH  REQUESTED:          0  ISSUED:          0  USEFUL:          0  USELESS:          0
L1I USEFUL LOAD PREFETCHES:          0 PREFETCH ISSUED TO LOWER LEVEL:          0  ACCURACY: -nan
L1I TIMELY PREFETCHES:          0 LATE PREFETCHES: 0 DROPPED PREFETCHES: 0
L1I PREFETCHES SAME FILL-ORIGIN LEVEL: 0 DIFFERENT FILL-ORIGIN LEVEL: 0
L1I AVERAGE MISS LATENCY: -nan cycles
L1I RQ	ACCESS:   91515814	FORWARD:          0	MERGED:   58330995	TO_CACHE:   33184819

BTB TOTAL     ACCESS:   75609544  HIT:   75609542  MISS:          2  HIT %:        100  MISS %: 2.64517e-06   MPKI: 1e-05
BTB BRANCH_DIRECT_JUMP	ACCESS:          0  HIT:          0  MISS:          0
BTB BRANCH_INDIRECT	ACCESS:          0  HIT:          0  MISS:          0
BTB BRANCH_CONDITIONAL	ACCESS:   75609544  HIT:   75609542  MISS:          2
BTB BRANCH_DIRECT_CALL	ACCESS:          0  HIT:          0  MISS:          0
BTB BRANCH_INDIRECT_CALL	ACCESS:          0  HIT:          0  MISS:          0
BTB BRANCH_RETURN	ACCESS:          0  HIT:          0  MISS:          0
BTB BRANCH_OTHER ACCESS:          0  HIT:          0  MISS:          0

L2C TOTAL     ACCESS:    3625121  HIT:    2320328  MISS:    1304793  HIT %:    64.0069  MISS %:    35.9931   MPKI: 6.52396
L2C LOAD      ACCESS:       4940  HIT:          0  MISS:       4940  HIT %:          0  MISS %:        100   MPKI: 0.0247
L2C DATA LOAD MPKI: 0.0247
L2C INSTRUCTION LOAD MPKI: 0
L2C RFO       ACCESS:     668132  HIT:          0  MISS:     668132  HIT %:          0  MISS %:        100   MPKI: 3.34066
L2C PREFETCH  ACCESS:    1738406  HIT:    1150475  MISS:     587931  HIT %:    66.1799  MISS %:    33.8201   MPKI: 2.93965
L2C DATA PREFETCH MPKI: 2.93965
L2C INSTRUCTION PREFETCH MPKI: 0
L2C WRITEBACK ACCESS:     668132  HIT:     626878  MISS:      41254  HIT %:    93.8255  MISS %:    6.17453   MPKI: 0.20627
L2C LOAD TRANSLATION ACCESS:      19707  HIT:      18378  MISS:       1329  HIT %:    93.2562  MISS %:     6.7438   MPKI: 0.006645
L2C TRANSLATION FROM L1D PREFETCHER ACCESS:     525804  HIT:     524597  MISS:       1207  HIT %:    99.7704  MISS %:   0.229553   MPKI: 0.006035
L2C PREFETCH  REQUESTED:          0  ISSUED:          0  USEFUL:       1207  USELESS:     586550
L2C USEFUL LOAD PREFETCHES:       1207 PREFETCH ISSUED TO LOWER LEVEL:     587936  ACCURACY: 0.205294
L2C TIMELY PREFETCHES:       1207 LATE PREFETCHES: 0 DROPPED PREFETCHES: 0
L2C PREFETCHES SAME FILL-ORIGIN LEVEL: 68877 DIFFERENT FILL-ORIGIN LEVEL: 0
L2C AVERAGE MISS LATENCY: 288.407 cycles
L2C RQ	ACCESS:    1218583	FORWARD:          0	MERGED:          0	TO_CACHE:    1218583
L2C WQ	ACCESS:     668132	FORWARD:          0	MERGED:          0	TO_CACHE:     668132
L2C PQ	ACCESS:    2626176	FORWARD:          0	MERGED:       2973	TO_CACHE:    2623203

L2C Instructions Evicting Data 0
L2C Translations Evicting Data 2534
L2C Data Evicting Data 1258555
L2C Instructions Evicting Instructions 0
L2C Translations Evicting Instructions 0
L2C Data Evicting Instructions 0
L2C Instructions Evicting Translations 0
L2C Translations Evicting Translations 2
L2C Data Evicting Translations 2448
L2C Dense regions hint from L2: 0
PSCL5 TOTAL     ACCESS:     545444  HIT:     545444  MISS:          0  HIT %:        100  MISS %:          0   MPKI: 0
PSCL5 LOAD TRANSLATION ACCESS:      19704  HIT:      19704  MISS:          0  HIT %:        100  MISS %:          0   MPKI: 0
PSCL5 TRANSLATION FROM L1D PREFETCHER ACCESS:     525740  HIT:     525740  MISS:          0  HIT %:        100  MISS %:          0   MPKI: 0
PSCL5 PREFETCH  REQUESTED:          0  ISSUED:          0  USEFUL:          0  USELESS:          0
PSCL5 USEFUL LOAD PREFETCHES:          0 PREFETCH ISSUED TO LOWER LEVEL:          0  ACCURACY: -nan
PSCL5 TIMELY PREFETCHES:          0 LATE PREFETCHES: 0 DROPPED PREFETCHES: 0
PSCL5 PREFETCHES SAME FILL-ORIGIN LEVEL: 0 DIFFERENT FILL-ORIGIN LEVEL: 0

PSCL4 TOTAL     ACCESS:     545444  HIT:     545444  MISS:          0  HIT %:        100  MISS %:          0   MPKI: 0
PSCL4 LOAD TRANSLATION ACCESS:      19704  HIT:      19704  MISS:          0  HIT %:        100  MISS %:          0   MPKI: 0
PSCL4 TRANSLATION FROM L1D PREFETCHER ACCESS:     525740  HIT:     525740  MISS:          0  HIT %:        100  MISS %:          0   MPKI: 0
PSCL4 PREFETCH  REQUESTED:          0  ISSUED:          0  USEFUL:          0  USELESS:          0
PSCL4 USEFUL LOAD PREFETCHES:          0 PREFETCH ISSUED TO LOWER LEVEL:          0  ACCURACY: -nan
PSCL4 TIMELY PREFETCHES:          0 LATE PREFETCHES: 0 DROPPED PREFETCHES: 0
PSCL4 PREFETCHES SAME FILL-ORIGIN LEVEL: 0 DIFFERENT FILL-ORIGIN LEVEL: 0

PSCL3 TOTAL     ACCESS:     545444  HIT:     545444  MISS:          0  HIT %:        100  MISS %:          0   MPKI: 0
PSCL3 LOAD TRANSLATION ACCESS:      19704  HIT:      19704  MISS:          0  HIT %:        100  MISS %:          0   MPKI: 0
PSCL3 TRANSLATION FROM L1D PREFETCHER ACCESS:     525740  HIT:     525740  MISS:          0  HIT %:        100  MISS %:          0   MPKI: 0
PSCL3 PREFETCH  REQUESTED:          0  ISSUED:          0  USEFUL:          0  USELESS:          0
PSCL3 USEFUL LOAD PREFETCHES:          0 PREFETCH ISSUED TO LOWER LEVEL:          0  ACCURACY: -nan
PSCL3 TIMELY PREFETCHES:          0 LATE PREFETCHES: 0 DROPPED PREFETCHES: 0
PSCL3 PREFETCHES SAME FILL-ORIGIN LEVEL: 0 DIFFERENT FILL-ORIGIN LEVEL: 0

PSCL2 TOTAL     ACCESS:     544544  HIT:     544503  MISS:         41  HIT %:    99.9925  MISS %: 0.00752924   MPKI: 0.000205
PSCL2 LOAD TRANSLATION ACCESS:      19704  HIT:      19663  MISS:         41  HIT %:    99.7919  MISS %:    0.20808   MPKI: 0.000205
PSCL2 TRANSLATION FROM L1D PREFETCHER ACCESS:     524840  HIT:     524840  MISS:          0  HIT %:        100  MISS %:          0   MPKI: 0
PSCL2 PREFETCH  REQUESTED:          0  ISSUED:          0  USEFUL:          0  USELESS:          0
PSCL2 USEFUL LOAD PREFETCHES:          0 PREFETCH ISSUED TO LOWER LEVEL:          0  ACCURACY: -nan
PSCL2 TIMELY PREFETCHES:          0 LATE PREFETCHES: 0 DROPPED PREFETCHES: 0
PSCL2 PREFETCHES SAME FILL-ORIGIN LEVEL: 0 DIFFERENT FILL-ORIGIN LEVEL: 0

LLC TOTAL     ACCESS:    1933072  HIT:     644823  MISS:    1288249  HIT %:    33.3574  MISS %:    66.6426   MPKI: 6.44124
LLC LOAD      ACCESS:       4940  HIT:          0  MISS:       4940  HIT %:          0  MISS %:        100   MPKI: 0.0247
LLC RFO       ACCESS:     668132  HIT:          0  MISS:     668132  HIT %:          0  MISS %:        100   MPKI: 3.34066
LLC PREFETCH  ACCESS:     587932  HIT:          7  MISS:     587925  HIT %: 0.00119061  MISS %:    99.9988   MPKI: 2.93962
LLC WRITEBACK ACCESS:     669532  HIT:     644816  MISS:      24716  HIT %:    96.3085  MISS %:    3.69153   MPKI: 0.12358
LLC LOAD TRANSLATION ACCESS:       1329  HIT:          0  MISS:       1329  HIT %:          0  MISS %:        100   MPKI: 0.006645
LLC TRANSLATION FROM L1D PREFETCHER ACCESS:       1207  HIT:          0  MISS:       1207  HIT %:          0  MISS %:        100   MPKI: 0.006035
LLC PREFETCH  REQUESTED:          0  ISSUED:          0  USEFUL:          2  USELESS:    2353952
LLC USEFUL LOAD PREFETCHES:          2 PREFETCH ISSUED TO LOWER LEVEL:    2351674  ACCURACY: 8.50458e-05
LLC TIMELY PREFETCHES:          2 LATE PREFETCHES: 0 DROPPED PREFETCHES: 0
LLC PREFETCHES SAME FILL-ORIGIN LEVEL: 0 DIFFERENT FILL-ORIGIN LEVEL: 0
LLC AVERAGE MISS LATENCY: 1049.34 cycles
LLC RQ	ACCESS:    2702594	FORWARD:          0	MERGED:          0	TO_CACHE:    2702594
LLC WQ	ACCESS:    2678526	FORWARD:          0	MERGED:          0	TO_CACHE:    2678526
LLC PQ	ACCESS:    2351691	FORWARD:          0	MERGED:          0	TO_CACHE:    2351691

LLC Dense regions hint to LLC: 0

RAW hits: 0
Loads Generated: 37850904
Loads sent to L1D: 37850902
Stores Generated: 5345054
Stores sent to L1D: 5345053
Major fault: 0 Minor fault: 24882
Allocated PAGES: 99528

CPU 3 cumulative IPC: 1.10897 instructions: 200000000 cycles: 180347202
ITLB TOTAL     ACCESS:   33166251  HIT:   33166251  MISS:          0  HIT %:        100  MISS %:          0   MPKI: 0
ITLB LOAD TRANSLATION ACCESS:   33166251  HIT:   33166251  MISS:          0  HIT %:        100  MISS %:          0   MPKI: 0
ITLB PREFETCH  REQUESTED:          0  ISSUED:          0  USEFUL:          0  USELESS:          0
ITLB USEFUL LOAD PREFETCHES:          0 PREFETCH ISSUED TO LOWER LEVEL:          0  ACCURACY: -nan
ITLB TIMELY PREFETCHES:          0 LATE PREFETCHES: 0 DROPPED PREFETCHES: 0
ITLB PREFETCHES SAME FILL-ORIGIN LEVEL: 0 DIFFERENT FILL-ORIGIN LEVEL: 0
ITLB AVERAGE MISS LATENCY: -nan cycles
ITLB RQ	ACCESS:   33185160	FORWARD:          0	MERGED:      18456	TO_CACHE:   33166704

DTLB TOTAL     ACCESS:   20726794  HIT:   20707092  MISS:      19702  HIT %:    99.9049  MISS %:  0.0950557   MPKI: 0.09851
DTLB LOAD TRANSLATION ACCESS:   20726794  HIT:   20707092  MISS:      19702  HIT %:    99.9049  MISS %:  0.0950557   MPKI: 0.09851
DTLB PREFETCH  REQUESTED:          0  ISSUED:          0  USEFUL:          0  USELESS:          0
DTLB USEFUL LOAD PREFETCHES:          0 PREFETCH ISSUED TO LOWER LEVEL:          0  ACCURACY: -nan
DTLB TIMELY PREFETCHES:          0 LATE PREFETCHES: 0 DROPPED PREFETCHES: 0
DTLB PREFETCHES SAME FILL-ORIGIN LEVEL: 0 DIFFERENT FILL-ORIGIN LEVEL: 0
DTLB AVERAGE MISS LATENCY: 148.953 cycles
DTLB RQ	ACCESS:   20820990	FORWARD:          0	MERGED:      75504	TO_CACHE:   20745486

STLB TOTAL     ACCESS:   10265374  HIT:   10245672  MISS:      19702  HIT %:    99.8081  MISS %:   0.191927   MPKI: 0.09851
STLB LOAD TRANSLATION ACCESS:      19702  HIT:          0  MISS:      19702  HIT %:          0  MISS %:        100   MPKI: 0.09851
STLB TRANSLATION FROM L1D PREFETCHER ACCESS:   10245672  HIT:   10245672  MISS:          0  HIT %:        100  MISS %:          0   MPKI: 0
STLB PREFETCH  REQUESTED:          0  ISSUED:          0  USEFUL:          0  USELESS:          0
STLB USEFUL LOAD PREFETCHES:          0 PREFETCH ISSUED TO LOWER LEVEL:          0  ACCURACY: -nan
STLB TIMELY PREFETCHES:          0 LATE PREFETCHES: 1933 DROPPED PREFETCHES: 523684
STLB PREFETCHES SAME FILL-ORIGIN LEVEL: 0 DIFFERENT FILL-ORIGIN LEVEL: 0
STLB AVERAGE MISS LATENCY: 139.341 cycles
STLB RQ	ACCESS:   70824579	FORWARD:          0	MERGED:   59983895	TO_CACHE:   10840684

STLB Hit, L1D data hit: 0
STLB Hit, L2C data hit: 0
STLB Hit, LLC data hit: 0
STLB Hit, LLC data miss: 0
STLB STLB hints to L2: 0
L1D TOTAL     ACCESS:   75986254  HIT:   74725217  MISS:    1261037  HIT %:    98.3404  MISS %:    1.65956   MPKI: 6.30518
L1D LOAD      ACCESS:   15417168  HIT:   15406457  MISS:      10711  HIT %:    99.9305  MISS %:  0.0694745   MPKI: 0.053555
L1D RFO       ACCESS:    1356575  HIT:     688445  MISS:     668130  HIT %:    50.7488  MISS %:    49.2512   MPKI: 3.34065
L1D PREFETCH  ACCESS:   59212511  HIT:   58630315  MISS:     582196  HIT %:    99.0168  MISS %:   0.983231   MPKI: 2.91098
L1D PREFETCH  REQUESTED:  285251459  ISSUED:  285232167  USEFUL:     582158  USELESS:         46
L1D USEFUL LOAD PREFETCHES:     582158 PREFETCH ISSUED TO LOWER LEVEL:    2629551  ACCURACY: 22.1391
L1D TIMELY PREFETCHES:     582158 LATE PREFETCHES: 5756 DROPPED PREFETCHES: 2387155
L1D PREFETCHES SAME FILL-ORIGIN LEVEL: 587969 DIFFERENT FILL-ORIGIN LEVEL: 2041582
L1D AVERAGE MISS LATENCY: 293.624 cycles
L1D RQ	ACCESS:   37851371	FORWARD:          0	MERGED:   22375501	TO_CACHE:   15475870
L1D WQ	ACCESS:    5345120	FORWARD:          0	MERGED:          0	TO_CACHE:    5345120
L1D PQ	ACCESS:  214427293	FORWARD:          0	MERGED:  143622419	TO_CACHE:   70804874

L1D UNIQUE REGIONS ACCESSED: 0
L1D REGIONS CONFLICTS: 0
L1D Cross Page Prefetch Requests: 22004733
L1D Same Page Prefetch Requests: 314808221
L1D ROI Sum of L1D PQ occupancy: 872898308
L1D PREFETCHES PUSHED FROM L2C: 0
L1I TOTAL     ACCESS:   33184706  HIT:   33184706  MISS:          0  HIT %:        100  MISS %:          0   MPKI: 0
L1I LOAD      ACCESS:   33184706  HIT:   33184706  MISS:          0  HIT %:        100  MISS %:          0   MPKI: 0
L1I PREFETCH  REQUESTED:          0  ISSUED:          0  USEFUL:          0  USELESS:          0
L1I USEFUL LOAD PREFETCHES:          0 PREFETCH ISSUED TO LOWER LEVEL:          0  ACCURACY: -nan
L1I TIMELY PREFETCHES:          0 LATE PREFETCHES: 0 DROPPED PREFETCHES: 0
L1I PREFETCHES SAME FILL-ORIGIN LEVEL: 0 DIFFERENT FILL-ORIGIN LEVEL: 0
L1I AVERAGE MISS LATENCY: -nan cycles
L1I RQ	ACCESS:   91516745	FORWARD:          0	MERGED:   58331585	TO_CACHE:   33185160

BTB TOTAL     ACCESS:   75609394  HIT:   75609391  MISS:          3  HIT %:        100  MISS %: 3.96776e-06   MPKI: 1.5e-05
BTB BRANCH_DIRECT_JUMP	ACCESS:          0  HIT:          0  MISS:          0
BTB BRANCH_INDIRECT	ACCESS:          0  HIT:          0  MISS:          0
BTB BRANCH_CONDITIONAL	ACCESS:   75609394  HIT:   75609391  MISS:          3
BTB BRANCH_DIRECT_CALL	ACCESS:          0  HIT:          0  MISS:          0
BTB BRANCH_INDIRECT_CALL	ACCESS:          0  HIT:          0  MISS:          0
BTB BRANCH_RETURN	ACCESS:          0  HIT:          0  MISS:          0
BTB BRANCH_OTHER ACCESS:          0  HIT:          0  MISS:          0

L2C TOTAL     ACCESS:    3621323  HIT:    2320145  MISS:    1301178  HIT %:     64.069  MISS %:     35.931   MPKI: 6.50589
L2C LOAD      ACCESS:       4955  HIT:          0  MISS:       4955  HIT %:          0  MISS %:        100   MPKI: 0.024775
L2C DATA LOAD MPKI: 0.024775
L2C INSTRUCTION LOAD MPKI: 0
L2C RFO       ACCESS:     668130  HIT:          0  MISS:     668130  HIT %:          0  MISS %:        100   MPKI: 3.34065
L2C PREFETCH  ACCESS:    1734722  HIT:    1146813  MISS:     587909  HIT %:    66.1093  MISS %:    33.8907   MPKI: 2.93954
L2C DATA PREFETCH MPKI: 2.93954
L2C INSTRUCTION PREFETCH MPKI: 0
L2C WRITEBACK ACCESS:     668132  HIT:     630482  MISS:      37650  HIT %:    94.3649  MISS %:    5.63511   MPKI: 0.18825
L2C LOAD TRANSLATION ACCESS:      19703  HIT:      18377  MISS:       1326  HIT %:    93.2701  MISS %:    6.72994   MPKI: 0.00663
L2C TRANSLATION FROM L1D PREFETCHER ACCESS:     525681  HIT:     524473  MISS:       1208  HIT %:    99.7702  MISS %:   0.229797   MPKI: 0.00604
L2C PREFETCH  REQUESTED:          0  ISSUED:          0  USEFUL:       1208  USELESS:     586373
L2C USEFUL LOAD PREFETCHES:       1208 PREFETCH ISSUED TO LOWER LEVEL:     587928  ACCURACY: 0.205467
L2C TIMELY PREFETCHES:       1208 LATE PREFETCHES: 0 DROPPED PREFETCHES: 0
L2C PREFETCHES SAME FILL-ORIGIN LEVEL: 69311 DIFFERENT FILL-ORIGIN LEVEL: 0
L2C AVERAGE MISS LATENCY: 289.399 cycles
L2C RQ	ACCESS:    1218487	FORWARD:          0	MERGED:          0	TO_CACHE:    1218487
L2C WQ	ACCESS:     668141	FORWARD:          0	MERGED:          0	TO_CACHE:     668141
L2C PQ	ACCESS:    2629551	FORWARD:          0	MERGED:       2919	TO_CACHE:    2626632

L2C Instructions Evicting Data 0
L2C Translations Evicting Data 2539
L2C Data Evicting Data 1258520
L2C Instructions Evicting Instructions 0
L2C Translations Evicting Instructions 0
L2C Data Evicting Instructions 0
L2C Instructions Evicting Translations 0
L2C Translations Evicting Translations 0
L2C Data Evicting Translations 2503
L2C Dense regions hint from L2: 0
PSCL5 TOTAL     ACCESS:     545319  HIT:     545319  MISS:          0  HIT %:        100  MISS %:          0   MPKI: 0
PSCL5 LOAD TRANSLATION ACCESS:      19702  HIT:      19702  MISS:          0  HIT %:        100  MISS %:          0   MPKI: 0
PSCL5 TRANSLATION FROM L1D PREFETCHER ACCESS:     525617  HIT:     525617  MISS:          0  HIT %:        100  MISS %:          0   MPKI: 0
PSCL5 PREFETCH  REQUESTED:          0  ISSUED:          0  USEFUL:          0  USELESS:          0
PSCL5 USEFUL LOAD PREFETCHES:          0 PREFETCH ISSUED TO LOWER LEVEL:          0  ACCURACY: -nan
PSCL5 TIMELY PREFETCHES:          0 LATE PREFETCHES: 0 DROPPED PREFETCHES: 0
PSCL5 PREFETCHES SAME FILL-ORIGIN LEVEL: 0 DIFFERENT FILL-ORIGIN LEVEL: 0

PSCL4 TOTAL     ACCESS:     545319  HIT:     545319  MISS:          0  HIT %:        100  MISS %:          0   MPKI: 0
PSCL4 LOAD TRANSLATION ACCESS:      19702  HIT:      19702  MISS:          0  HIT %:        100  MISS %:          0   MPKI: 0
PSCL4 TRANSLATION FROM L1D PREFETCHER ACCESS:     525617  HIT:     525617  MISS:          0  HIT %:        100  MISS %:          0   MPKI: 0
PSCL4 PREFETCH  REQUESTED:          0  ISSUED:          0  USEFUL:          0  USELESS:          0
PSCL4 USEFUL LOAD PREFETCHES:          0 PREFETCH ISSUED TO LOWER LEVEL:          0  ACCURACY: -nan
PSCL4 TIMELY PREFETCHES:          0 LATE PREFETCHES: 0 DROPPED PREFETCHES: 0
PSCL4 PREFETCHES SAME FILL-ORIGIN LEVEL: 0 DIFFERENT FILL-ORIGIN LEVEL: 0

PSCL3 TOTAL     ACCESS:     545319  HIT:     545319  MISS:          0  HIT %:        100  MISS %:          0   MPKI: 0
PSCL3 LOAD TRANSLATION ACCESS:      19702  HIT:      19702  MISS:          0  HIT %:        100  MISS %:          0   MPKI: 0
PSCL3 TRANSLATION FROM L1D PREFETCHER ACCESS:     525617  HIT:     525617  MISS:          0  HIT %:        100  MISS %:          0   MPKI: 0
PSCL3 PREFETCH  REQUESTED:          0  ISSUED:          0  USEFUL:          0  USELESS:          0
PSCL3 USEFUL LOAD PREFETCHES:          0 PREFETCH ISSUED TO LOWER LEVEL:          0  ACCURACY: -nan
PSCL3 TIMELY PREFETCHES:          0 LATE PREFETCHES: 0 DROPPED PREFETCHES: 0
PSCL3 PREFETCHES SAME FILL-ORIGIN LEVEL: 0 DIFFERENT FILL-ORIGIN LEVEL: 0

PSCL2 TOTAL     ACCESS:     544387  HIT:     544348  MISS:         39  HIT %:    99.9928  MISS %: 0.00716402   MPKI: 0.000195
PSCL2 LOAD TRANSLATION ACCESS:      19702  HIT:      19663  MISS:         39  HIT %:    99.8021  MISS %:   0.197949   MPKI: 0.000195
PSCL2 TRANSLATION FROM L1D PREFETCHER ACCESS:     524685  HIT:     524685  MISS:          0  HIT %:        100  MISS %:          0   MPKI: 0
PSCL2 PREFETCH  REQUESTED:          0  ISSUED:          0  USEFUL:          0  USELESS:          0
PSCL2 USEFUL LOAD PREFETCHES:          0 PREFETCH ISSUED TO LOWER LEVEL:          0  ACCURACY: -nan
PSCL2 TIMELY PREFETCHES:          0 LATE PREFETCHES: 0 DROPPED PREFETCHES: 0
PSCL2 PREFETCHES SAME FILL-ORIGIN LEVEL: 0 DIFFERENT FILL-ORIGIN LEVEL: 0

LLC TOTAL     ACCESS:    1933178  HIT:     645524  MISS:    1287654  HIT %:    33.3919  MISS %:    66.6081   MPKI: 6.43827
LLC LOAD      ACCESS:       4955  HIT:          0  MISS:       4955  HIT %:          0  MISS %:        100   MPKI: 0.024775
LLC RFO       ACCESS:     668130  HIT:          0  MISS:     668130  HIT %:          0  MISS %:        100   MPKI: 3.34065
LLC PREFETCH  ACCESS:     587909  HIT:          2  MISS:     587907  HIT %: 0.000340189  MISS %:    99.9997   MPKI: 2.93953
LLC WRITEBACK ACCESS:     669650  HIT:     645521  MISS:      24129  HIT %:    96.3968  MISS %:    3.60323   MPKI: 0.120645
LLC LOAD TRANSLATION ACCESS:       1326  HIT:          1  MISS:       1325  HIT %:  0.0754148  MISS %:    99.9246   MPKI: 0.006625
LLC TRANSLATION FROM L1D PREFETCHER ACCESS:       1208  HIT:          0  MISS:       1208  HIT %:          0  MISS %:        100   MPKI: 0.00604
LLC PREFETCH  REQUESTED:          0  ISSUED:          0  USEFUL:          2  USELESS:    2353952
LLC USEFUL LOAD PREFETCHES:          2 PREFETCH ISSUED TO LOWER LEVEL:    2351674  ACCURACY: 8.50458e-05
LLC TIMELY PREFETCHES:          2 LATE PREFETCHES: 0 DROPPED PREFETCHES: 0
LLC PREFETCHES SAME FILL-ORIGIN LEVEL: 0 DIFFERENT FILL-ORIGIN LEVEL: 0
LLC AVERAGE MISS LATENCY: 1049.83 cycles
LLC RQ	ACCESS:    2702594	FORWARD:          0	MERGED:          0	TO_CACHE:    2702594
LLC WQ	ACCESS:    2678526	FORWARD:          0	MERGED:          0	TO_CACHE:    2678526
LLC PQ	ACCESS:    2351691	FORWARD:          0	MERGED:          0	TO_CACHE:    2351691

LLC Dense regions hint to LLC: 0

RAW hits: 0
Loads Generated: 37850882
Loads sent to L1D: 37850882
Stores Generated: 5345049
Stores sent to L1D: 5345053
Major fault: 0 Minor fault: 24882
Allocated PAGES: 99528

DRAM Statistics
 CHANNEL 0
 RQ ROW_BUFFER_HIT:    2456450  ROW_BUFFER_MISS:    2597795
 DBUS_CONGESTED:         13
 WQ ROW_BUFFER_HIT:     387719  ROW_BUFFER_MISS:    2293701  FULL:          0

 AVG_CONGESTED_CYCLE: 5
 All warmup complete: 5
Channel 0 Bank busy for read cycles: 0
Channel 0 Bank busy for write cycles: 0
Channel 0
Rank 0
0banks busy for read cycles: 114424
0banks busy for write cycles: 0
1banks busy for read cycles: 6831874
1banks busy for write cycles: 301922
2banks busy for read cycles: 14336590
2banks busy for write cycles: 301918
3banks busy for read cycles: 17953023
3banks busy for write cycles: 301917
4banks busy for read cycles: 19465935
4banks busy for write cycles: 301914
5banks busy for read cycles: 21007010
5banks busy for write cycles: 302186
6banks busy for read cycles: 19008674
6banks busy for write cycles: 345834
7banks busy for read cycles: 12616876
7banks busy for write cycles: 3936286
8banks busy for read cycles: 8953224
8banks busy for write cycles: 54272893

CPU 0 Branch Prediction Accuracy: 99.6394% MPKI: 1.36394 Average ROB Occupancy at Mispredict: 57.735
Branch types
NOT_BRANCH: 124360970 62.1767%
BRANCH_DIRECT_JUMP: 0 0%
BRANCH_INDIRECT: 0 0%
BRANCH_CONDITIONAL: 75650918 37.8232%
BRANCH_DIRECT_CALL: 0 0%
BRANCH_INDIRECT_CALL: 0 0%
BRANCH_RETURN: 0 0%
BRANCH_OTHER: 0 0%


CPU 1 Branch Prediction Accuracy: 99.6394% MPKI: 1.36395 Average ROB Occupancy at Mispredict: 57.7263
Branch types
NOT_BRANCH: 124354079 62.1768%
BRANCH_DIRECT_JUMP: 0 0%
BRANCH_INDIRECT: 0 0%
BRANCH_CONDITIONAL: 75646759 37.8232%
BRANCH_DIRECT_CALL: 0 0%
BRANCH_INDIRECT_CALL: 0 0%
BRANCH_RETURN: 0 0%
BRANCH_OTHER: 0 0%


CPU 2 Branch Prediction Accuracy: 99.6394% MPKI: 1.36395 Average ROB Occupancy at Mispredict: 57.7317
Branch types
NOT_BRANCH: 124353563 62.1768%
BRANCH_DIRECT_JUMP: 0 0%
BRANCH_INDIRECT: 0 0%
BRANCH_CONDITIONAL: 75646454 37.8232%
BRANCH_DIRECT_CALL: 0 0%
BRANCH_INDIRECT_CALL: 0 0%
BRANCH_RETURN: 0 0%
BRANCH_OTHER: 0 0%


CPU 3 Branch Prediction Accuracy: 99.6394% MPKI: 1.36394 Average ROB Occupancy at Mispredict: 57.7463
Branch types
NOT_BRANCH: 124355006 62.1767%
BRANCH_DIRECT_JUMP: 0 0%
BRANCH_INDIRECT: 0 0%
BRANCH_CONDITIONAL: 75647324 37.8232%
BRANCH_DIRECT_CALL: 0 0%
BRANCH_INDIRECT_CALL: 0 0%
BRANCH_RETURN: 0 0%
BRANCH_OTHER: 0 0%

DRAM PAGES: 1048576
Allocated PAGES: 99528
