
*** ChampSim Multicore Out-of-Order Simulator ***

Warmup Instructions: 50000000
Simulation Instructions: 200000000
Number of CPUs: 4
LLC sets: 8192
LLC ways: 16
Off-chip DRAM Size: 4096 MB Channels: 1 Width: 64-bit Data Rate: 6400 MT/s
CPU 0 runs ./traces/spec/473.astar-42B.champsimtrace.xz
.xz
CPU 1 runs ./traces/spec/473.astar-42B.champsimtrace.xz
.xz
CPU 2 runs ./traces/spec/473.astar-42B.champsimtrace.xz
.xz
CPU 3 runs ./traces/spec/473.astar-42B.champsimtrace.xz
.xz
BTB has LRU replacement policy
ITLB has LRU replacement policy
DTLB has LRU replacement policy
STLB has LRU replacement policy
L1I has LRU replacement policy
History Sets: 8
History Ways: 16
BERTI Size: 16
BERTI Stride Size: 8
L1D has LRU replacement policy
Initialize SRRIP state for L2C
Initialize DRRIP state for LLC
BTB has LRU replacement policy
ITLB has LRU replacement policy
DTLB has LRU replacement policy
STLB has LRU replacement policy
L1I has LRU replacement policy
History Sets: 8
History Ways: 16
BERTI Size: 16
BERTI Stride Size: 8
L1D has LRU replacement policy
Initialize SRRIP state for L2C
Initialize DRRIP state for LLC
BTB has LRU replacement policy
ITLB has LRU replacement policy
DTLB has LRU replacement policy
STLB has LRU replacement policy
L1I has LRU replacement policy
History Sets: 8
History Ways: 16
BERTI Size: 16
BERTI Stride Size: 8
L1D has LRU replacement policy
Initialize SRRIP state for L2C
Initialize DRRIP state for LLC
BTB has LRU replacement policy
ITLB has LRU replacement policy
DTLB has LRU replacement policy
STLB has LRU replacement policy
L1I has LRU replacement policy
History Sets: 8
History Ways: 16
BERTI Size: 16
BERTI Stride Size: 8
L1D has LRU replacement policy
Initialize SRRIP state for L2C
Initialize DRRIP state for LLC
Heartbeat CPU 0 instructions: 10000002 cycles: 2842169 heartbeat IPC: 3.51844 cumulative IPC: 3.51844 (Simulation time: 0 hr 3 min 40 sec) 
Heartbeat CPU 2 instructions: 10000002 cycles: 2842421 heartbeat IPC: 3.51813 cumulative IPC: 3.51813 (Simulation time: 0 hr 3 min 40 sec) 
Heartbeat CPU 3 instructions: 10000001 cycles: 2842595 heartbeat IPC: 3.51791 cumulative IPC: 3.51791 (Simulation time: 0 hr 3 min 40 sec) 
Heartbeat CPU 1 instructions: 10000001 cycles: 2842779 heartbeat IPC: 3.51768 cumulative IPC: 3.51768 (Simulation time: 0 hr 3 min 40 sec) 
Heartbeat CPU 0 instructions: 20000001 cycles: 5672301 heartbeat IPC: 3.5334 cumulative IPC: 3.52591 (Simulation time: 0 hr 7 min 20 sec) 
Heartbeat CPU 2 instructions: 20000001 cycles: 5672638 heartbeat IPC: 3.5333 cumulative IPC: 3.5257 (Simulation time: 0 hr 7 min 20 sec) 
Heartbeat CPU 1 instructions: 20000001 cycles: 5672749 heartbeat IPC: 3.53361 cumulative IPC: 3.52563 (Simulation time: 0 hr 7 min 20 sec) 
Heartbeat CPU 3 instructions: 20000001 cycles: 5672851 heartbeat IPC: 3.53325 cumulative IPC: 3.52556 (Simulation time: 0 hr 7 min 20 sec) 
Heartbeat CPU 0 instructions: 30000001 cycles: 8505312 heartbeat IPC: 3.52981 cumulative IPC: 3.52721 (Simulation time: 0 hr 10 min 47 sec) 
Heartbeat CPU 1 instructions: 30000001 cycles: 8505691 heartbeat IPC: 3.5299 cumulative IPC: 3.52705 (Simulation time: 0 hr 10 min 47 sec) 
Heartbeat CPU 2 instructions: 30000001 cycles: 8505779 heartbeat IPC: 3.52965 cumulative IPC: 3.52701 (Simulation time: 0 hr 10 min 47 sec) 
Heartbeat CPU 3 instructions: 30000001 cycles: 8506144 heartbeat IPC: 3.52946 cumulative IPC: 3.52686 (Simulation time: 0 hr 10 min 47 sec) 
Heartbeat CPU 0 instructions: 40000001 cycles: 11338186 heartbeat IPC: 3.52998 cumulative IPC: 3.5279 (Simulation time: 0 hr 14 min 17 sec) 
Heartbeat CPU 2 instructions: 40000001 cycles: 11338397 heartbeat IPC: 3.5303 cumulative IPC: 3.52784 (Simulation time: 0 hr 14 min 17 sec) 
Heartbeat CPU 1 instructions: 40000001 cycles: 11338718 heartbeat IPC: 3.52979 cumulative IPC: 3.52774 (Simulation time: 0 hr 14 min 17 sec) 
Heartbeat CPU 3 instructions: 40000000 cycles: 11339093 heartbeat IPC: 3.52989 cumulative IPC: 3.52762 (Simulation time: 0 hr 14 min 17 sec) 
Heartbeat CPU 0 instructions: 50000002 cycles: 14174321 heartbeat IPC: 3.52593 cumulative IPC: 3.52751 (Simulation time: 0 hr 17 min 50 sec) 
Heartbeat CPU 2 instructions: 50000002 cycles: 14175004 heartbeat IPC: 3.52534 cumulative IPC: 3.52734 (Simulation time: 0 hr 17 min 50 sec) 
Heartbeat CPU 1 instructions: 50000002 cycles: 14175424 heartbeat IPC: 3.52522 cumulative IPC: 3.52723 (Simulation time: 0 hr 17 min 50 sec) 
Heartbeat CPU 3 instructions: 50000002 cycles: 14175518 heartbeat IPC: 3.52557 cumulative IPC: 3.52721 (Simulation time: 0 hr 17 min 50 sec) 

Warmup complete CPU 0 instructions: 50002625 cycles: 14175518 (Simulation time: 0 hr 17 min 50 sec) 
Warmup complete CPU 1 instructions: 50000332 cycles: 14175518 (Simulation time: 0 hr 17 min 50 sec) 
Warmup complete CPU 2 instructions: 50001109 cycles: 14175518 (Simulation time: 0 hr 17 min 50 sec) 
Warmup complete CPU 3 instructions: 50000002 cycles: 14175518 (Simulation time: 0 hr 17 min 50 sec) 

Heartbeat CPU 0 instructions: 60000001 cycles: 33695358 heartbeat IPC: 0.512268 cumulative IPC: 0.512165 (Simulation time: 0 hr 21 min 35 sec) 
Heartbeat CPU 2 instructions: 60000001 cycles: 33727693 heartbeat IPC: 0.511439 cumulative IPC: 0.511395 (Simulation time: 0 hr 21 min 36 sec) 
Heartbeat CPU 1 instructions: 60000001 cycles: 33758951 heartbeat IPC: 0.510633 cumulative IPC: 0.510619 (Simulation time: 0 hr 21 min 36 sec) 
Heartbeat CPU 3 instructions: 60000001 cycles: 33798072 heartbeat IPC: 0.509618 cumulative IPC: 0.509618 (Simulation time: 0 hr 21 min 37 sec) 
Heartbeat CPU 0 instructions: 70000002 cycles: 52562475 heartbeat IPC: 0.530023 cumulative IPC: 0.520942 (Simulation time: 0 hr 25 min 10 sec) 
Heartbeat CPU 2 instructions: 70000002 cycles: 52566221 heartbeat IPC: 0.530827 cumulative IPC: 0.520931 (Simulation time: 0 hr 25 min 10 sec) 
Heartbeat CPU 1 instructions: 70000002 cycles: 52597794 heartbeat IPC: 0.530818 cumulative IPC: 0.520523 (Simulation time: 0 hr 25 min 10 sec) 
Heartbeat CPU 3 instructions: 70000002 cycles: 52625524 heartbeat IPC: 0.531139 cumulative IPC: 0.520156 (Simulation time: 0 hr 25 min 11 sec) 
Heartbeat CPU 2 instructions: 80000003 cycles: 72198635 heartbeat IPC: 0.509362 cumulative IPC: 0.517016 (Simulation time: 0 hr 28 min 52 sec) 
Heartbeat CPU 0 instructions: 80000003 cycles: 72252322 heartbeat IPC: 0.507876 cumulative IPC: 0.516512 (Simulation time: 0 hr 28 min 53 sec) 
Heartbeat CPU 1 instructions: 80000003 cycles: 72293568 heartbeat IPC: 0.507723 cumulative IPC: 0.516185 (Simulation time: 0 hr 28 min 53 sec) 
Heartbeat CPU 3 instructions: 80000003 cycles: 72308209 heartbeat IPC: 0.508061 cumulative IPC: 0.516061 (Simulation time: 0 hr 28 min 53 sec) 
Heartbeat CPU 2 instructions: 90000000 cycles: 92537701 heartbeat IPC: 0.491665 cumulative IPC: 0.510436 (Simulation time: 0 hr 32 min 28 sec) 
Heartbeat CPU 0 instructions: 90000000 cycles: 92630279 heartbeat IPC: 0.490726 cumulative IPC: 0.509815 (Simulation time: 0 hr 32 min 29 sec) 
Heartbeat CPU 1 instructions: 90000000 cycles: 92660621 heartbeat IPC: 0.490989 cumulative IPC: 0.509647 (Simulation time: 0 hr 32 min 30 sec) 
Heartbeat CPU 3 instructions: 90000000 cycles: 92707584 heartbeat IPC: 0.490211 cumulative IPC: 0.509346 (Simulation time: 0 hr 32 min 30 sec) 
Heartbeat CPU 2 instructions: 100000000 cycles: 111629465 heartbeat IPC: 0.523786 cumulative IPC: 0.513051 (Simulation time: 0 hr 36 min 6 sec) 
Heartbeat CPU 0 instructions: 100000000 cycles: 111723122 heartbeat IPC: 0.523756 cumulative IPC: 0.512543 (Simulation time: 0 hr 36 min 7 sec) 
Heartbeat CPU 1 instructions: 100000000 cycles: 111748945 heartbeat IPC: 0.52388 cumulative IPC: 0.512431 (Simulation time: 0 hr 36 min 7 sec) 
Heartbeat CPU 3 instructions: 100000000 cycles: 111776220 heartbeat IPC: 0.524421 cumulative IPC: 0.512291 (Simulation time: 0 hr 36 min 8 sec) 
Heartbeat CPU 2 instructions: 110000000 cycles: 130700423 heartbeat IPC: 0.524357 cumulative IPC: 0.514902 (Simulation time: 0 hr 39 min 38 sec) 
Heartbeat CPU 0 instructions: 110000000 cycles: 130777352 heartbeat IPC: 0.524818 cumulative IPC: 0.514549 (Simulation time: 0 hr 39 min 39 sec) 
Heartbeat CPU 1 instructions: 110000000 cycles: 130854270 heartbeat IPC: 0.523414 cumulative IPC: 0.51423 (Simulation time: 0 hr 39 min 40 sec) 
Heartbeat CPU 3 instructions: 110000000 cycles: 130919595 heartbeat IPC: 0.522374 cumulative IPC: 0.513945 (Simulation time: 0 hr 39 min 40 sec) 
Heartbeat CPU 2 instructions: 120000000 cycles: 150863547 heartbeat IPC: 0.495955 cumulative IPC: 0.512107 (Simulation time: 0 hr 43 min 25 sec) 
Heartbeat CPU 0 instructions: 120000000 cycles: 150921548 heartbeat IPC: 0.496421 cumulative IPC: 0.511879 (Simulation time: 0 hr 43 min 25 sec) 
Heartbeat CPU 1 instructions: 120000000 cycles: 151045098 heartbeat IPC: 0.495274 cumulative IPC: 0.511433 (Simulation time: 0 hr 43 min 27 sec) 
Heartbeat CPU 3 instructions: 120000000 cycles: 151082550 heartbeat IPC: 0.495959 cumulative IPC: 0.511296 (Simulation time: 0 hr 43 min 27 sec) 
Heartbeat CPU 2 instructions: 130000001 cycles: 170973986 heartbeat IPC: 0.497254 cumulative IPC: 0.510202 (Simulation time: 0 hr 47 min 37 sec) 
Heartbeat CPU 0 instructions: 130000001 cycles: 171034778 heartbeat IPC: 0.497185 cumulative IPC: 0.509995 (Simulation time: 0 hr 47 min 38 sec) 
Heartbeat CPU 1 instructions: 130000001 cycles: 171166864 heartbeat IPC: 0.496974 cumulative IPC: 0.50958 (Simulation time: 0 hr 47 min 39 sec) 
Heartbeat CPU 3 instructions: 130000001 cycles: 171196714 heartbeat IPC: 0.497162 cumulative IPC: 0.509485 (Simulation time: 0 hr 47 min 39 sec) 
Heartbeat CPU 2 instructions: 140000003 cycles: 189964809 heartbeat IPC: 0.52657 cumulative IPC: 0.51197 (Simulation time: 0 hr 51 min 15 sec) 
Heartbeat CPU 0 instructions: 140000003 cycles: 189997401 heartbeat IPC: 0.527353 cumulative IPC: 0.511867 (Simulation time: 0 hr 51 min 16 sec) 
Heartbeat CPU 1 instructions: 140000003 cycles: 190200461 heartbeat IPC: 0.525387 cumulative IPC: 0.511289 (Simulation time: 0 hr 51 min 18 sec) 
Heartbeat CPU 3 instructions: 140000003 cycles: 190246675 heartbeat IPC: 0.524936 cumulative IPC: 0.511157 (Simulation time: 0 hr 51 min 18 sec) 
Heartbeat CPU 0 instructions: 150000000 cycles: 209205475 heartbeat IPC: 0.520614 cumulative IPC: 0.512728 (Simulation time: 0 hr 54 min 58 sec) 
Heartbeat CPU 2 instructions: 150000000 cycles: 209237145 heartbeat IPC: 0.518878 cumulative IPC: 0.512653 (Simulation time: 0 hr 54 min 58 sec) 
Heartbeat CPU 1 instructions: 150000000 cycles: 209367538 heartbeat IPC: 0.521728 cumulative IPC: 0.512314 (Simulation time: 0 hr 55 min 0 sec) 
Heartbeat CPU 3 instructions: 150000000 cycles: 209433541 heartbeat IPC: 0.52119 cumulative IPC: 0.512143 (Simulation time: 0 hr 55 min 1 sec) 
Heartbeat CPU 0 instructions: 160000003 cycles: 227926983 heartbeat IPC: 0.534145 cumulative IPC: 0.514604 (Simulation time: 0 hr 58 min 59 sec) 
Heartbeat CPU 2 instructions: 160000003 cycles: 227992914 heartbeat IPC: 0.533169 cumulative IPC: 0.514453 (Simulation time: 0 hr 59 min 0 sec) 
Heartbeat CPU 1 instructions: 160000003 cycles: 228153317 heartbeat IPC: 0.532318 cumulative IPC: 0.514071 (Simulation time: 0 hr 59 min 2 sec) 
Heartbeat CPU 3 instructions: 160000003 cycles: 228220842 heartbeat IPC: 0.532275 cumulative IPC: 0.51391 (Simulation time: 0 hr 59 min 3 sec) 
Heartbeat CPU 0 instructions: 170000000 cycles: 247454772 heartbeat IPC: 0.512091 cumulative IPC: 0.514394 (Simulation time: 1 hr 3 min 16 sec) 
Heartbeat CPU 2 instructions: 170000000 cycles: 247548682 heartbeat IPC: 0.511358 cumulative IPC: 0.514193 (Simulation time: 1 hr 3 min 18 sec) 
Heartbeat CPU 1 instructions: 170000000 cycles: 247680520 heartbeat IPC: 0.512106 cumulative IPC: 0.513906 (Simulation time: 1 hr 3 min 20 sec) 
Heartbeat CPU 3 instructions: 170000000 cycles: 247756809 heartbeat IPC: 0.511876 cumulative IPC: 0.51374 (Simulation time: 1 hr 3 min 21 sec) 
Heartbeat CPU 0 instructions: 180000001 cycles: 267295298 heartbeat IPC: 0.504019 cumulative IPC: 0.513581 (Simulation time: 1 hr 7 min 9 sec) 
Heartbeat CPU 2 instructions: 180000003 cycles: 267453180 heartbeat IPC: 0.502399 cumulative IPC: 0.513266 (Simulation time: 1 hr 7 min 10 sec) 
Heartbeat CPU 1 instructions: 180000001 cycles: 267554665 heartbeat IPC: 0.503166 cumulative IPC: 0.513064 (Simulation time: 1 hr 7 min 11 sec) 
Heartbeat CPU 3 instructions: 180000001 cycles: 267610002 heartbeat IPC: 0.503697 cumulative IPC: 0.512953 (Simulation time: 1 hr 7 min 12 sec) 
Heartbeat CPU 0 instructions: 190000000 cycles: 287307161 heartbeat IPC: 0.499704 cumulative IPC: 0.512564 (Simulation time: 1 hr 11 min 2 sec) 
Heartbeat CPU 2 instructions: 190000000 cycles: 287484634 heartbeat IPC: 0.499215 cumulative IPC: 0.512236 (Simulation time: 1 hr 11 min 4 sec) 
Heartbeat CPU 1 instructions: 190000000 cycles: 287573908 heartbeat IPC: 0.499519 cumulative IPC: 0.512072 (Simulation time: 1 hr 11 min 5 sec) 
Heartbeat CPU 3 instructions: 190000000 cycles: 287608922 heartbeat IPC: 0.500027 cumulative IPC: 0.512008 (Simulation time: 1 hr 11 min 5 sec) 
Heartbeat CPU 0 instructions: 200000001 cycles: 306823277 heartbeat IPC: 0.512397 cumulative IPC: 0.512553 (Simulation time: 1 hr 14 min 59 sec) 
Heartbeat CPU 2 instructions: 200000001 cycles: 307114449 heartbeat IPC: 0.509429 cumulative IPC: 0.512048 (Simulation time: 1 hr 15 min 2 sec) 
Heartbeat CPU 1 instructions: 200000001 cycles: 307139645 heartbeat IPC: 0.511098 cumulative IPC: 0.512007 (Simulation time: 1 hr 15 min 3 sec) 
Heartbeat CPU 3 instructions: 200000001 cycles: 307223108 heartbeat IPC: 0.509835 cumulative IPC: 0.511862 (Simulation time: 1 hr 15 min 4 sec) 
Heartbeat CPU 0 instructions: 210000001 cycles: 330227809 heartbeat IPC: 0.427268 cumulative IPC: 0.506237 (Simulation time: 1 hr 18 min 53 sec) 
Heartbeat CPU 1 instructions: 210000001 cycles: 330647213 heartbeat IPC: 0.425395 cumulative IPC: 0.505573 (Simulation time: 1 hr 18 min 57 sec) 
Heartbeat CPU 2 instructions: 210000001 cycles: 330708909 heartbeat IPC: 0.423828 cumulative IPC: 0.505472 (Simulation time: 1 hr 18 min 58 sec) 
Heartbeat CPU 3 instructions: 210000001 cycles: 330739927 heartbeat IPC: 0.425228 cumulative IPC: 0.505426 (Simulation time: 1 hr 18 min 58 sec) 
Heartbeat CPU 0 instructions: 220000000 cycles: 349506388 heartbeat IPC: 0.51871 cumulative IPC: 0.506954 (Simulation time: 1 hr 22 min 35 sec) 
Heartbeat CPU 1 instructions: 220000000 cycles: 349909321 heartbeat IPC: 0.519154 cumulative IPC: 0.506353 (Simulation time: 1 hr 22 min 41 sec) 
Heartbeat CPU 2 instructions: 220000000 cycles: 349935907 heartbeat IPC: 0.520102 cumulative IPC: 0.50631 (Simulation time: 1 hr 22 min 41 sec) 
Heartbeat CPU 3 instructions: 220000000 cycles: 350013189 heartbeat IPC: 0.518853 cumulative IPC: 0.506197 (Simulation time: 1 hr 22 min 42 sec) 
Heartbeat CPU 0 instructions: 230000000 cycles: 368352220 heartbeat IPC: 0.530621 cumulative IPC: 0.508213 (Simulation time: 1 hr 26 min 20 sec) 
Heartbeat CPU 1 instructions: 230000000 cycles: 368863014 heartbeat IPC: 0.527602 cumulative IPC: 0.507488 (Simulation time: 1 hr 26 min 27 sec) 
Heartbeat CPU 2 instructions: 230000000 cycles: 368913406 heartbeat IPC: 0.52694 cumulative IPC: 0.507414 (Simulation time: 1 hr 26 min 28 sec) 
Heartbeat CPU 3 instructions: 230000000 cycles: 368982698 heartbeat IPC: 0.527162 cumulative IPC: 0.507318 (Simulation time: 1 hr 26 min 29 sec) 
Heartbeat CPU 0 instructions: 240000000 cycles: 386985027 heartbeat IPC: 0.536688 cumulative IPC: 0.509637 (Simulation time: 1 hr 30 min 2 sec) 
Heartbeat CPU 1 instructions: 240000000 cycles: 387538814 heartbeat IPC: 0.535452 cumulative IPC: 0.508887 (Simulation time: 1 hr 30 min 9 sec) 
Heartbeat CPU 2 instructions: 240000000 cycles: 387585628 heartbeat IPC: 0.535555 cumulative IPC: 0.508821 (Simulation time: 1 hr 30 min 9 sec) 
Heartbeat CPU 3 instructions: 240000000 cycles: 387651122 heartbeat IPC: 0.535664 cumulative IPC: 0.508735 (Simulation time: 1 hr 30 min 10 sec) 
Heartbeat CPU 0 instructions: 250000003 cycles: 406602001 heartbeat IPC: 0.509763 cumulative IPC: 0.509643 (Simulation time: 1 hr 33 min 52 sec) 
Finished CPU 0 instructions: 200000000 cycles: 392431118 cumulative IPC: 0.509644 (Simulation time: 1 hr 33 min 52 sec) 
Heartbeat CPU 1 instructions: 250000003 cycles: 407168295 heartbeat IPC: 0.509438 cumulative IPC: 0.508914 (Simulation time: 1 hr 34 min 0 sec) 
Finished CPU 1 instructions: 200000000 cycles: 392993038 cumulative IPC: 0.508915 (Simulation time: 1 hr 34 min 0 sec) 
Heartbeat CPU 2 instructions: 250000003 cycles: 407221314 heartbeat IPC: 0.509277 cumulative IPC: 0.508844 (Simulation time: 1 hr 34 min 1 sec) 
Finished CPU 2 instructions: 200000001 cycles: 393047035 cumulative IPC: 0.508845 (Simulation time: 1 hr 34 min 1 sec) 
Heartbeat CPU 3 instructions: 250000003 cycles: 407259365 heartbeat IPC: 0.50999 cumulative IPC: 0.508797 (Simulation time: 1 hr 34 min 1 sec) 
Finished CPU 3 instructions: 200000001 cycles: 393083847 cumulative IPC: 0.508797 (Simulation time: 1 hr 34 min 1 sec) 

ChampSim completed all CPUs

Total Simulation Statistics (not including warmup)

CPU 0 cumulative IPC: 0.509678 instructions: 200346112 cycles: 393083847
ITLB TOTAL     ACCESS:   34540827  HIT:   34540819  MISS:          8  HIT %:        100  MISS %: 2.3161e-05   MPKI: 3.99309e-05
ITLB LOAD      ACCESS:          0  HIT:          0  MISS:          0  HIT %:       -nan  MISS %:       -nan   MPKI: 0
ITLB RFO       ACCESS:          0  HIT:          0  MISS:          0  HIT %:       -nan  MISS %:       -nan   MPKI: 0
ITLB PREFETCH  ACCESS:          0  HIT:          0  MISS:          0  HIT %:       -nan  MISS %:       -nan   MPKI: 0
ITLB WRITEBACK ACCESS:          0  HIT:          0  MISS:          0  HIT %:       -nan  MISS %:       -nan   MPKI: 0
DTLB TOTAL     ACCESS:   42830022  HIT:   38100194  MISS:    4729828  HIT %:    88.9567  MISS %:    11.0433   MPKI: 23.6083
DTLB LOAD      ACCESS:          0  HIT:          0  MISS:          0  HIT %:       -nan  MISS %:       -nan   MPKI: 0
DTLB RFO       ACCESS:          0  HIT:          0  MISS:          0  HIT %:       -nan  MISS %:       -nan   MPKI: 0
DTLB PREFETCH  ACCESS:          0  HIT:          0  MISS:          0  HIT %:       -nan  MISS %:       -nan   MPKI: 0
DTLB WRITEBACK ACCESS:          0  HIT:          0  MISS:          0  HIT %:       -nan  MISS %:       -nan   MPKI: 0
STLB TOTAL     ACCESS:   50023046  HIT:   48207722  MISS:    1815324  HIT %:     96.371  MISS %:    3.62898   MPKI: 9.06094
STLB LOAD      ACCESS:          0  HIT:          0  MISS:          0  HIT %:       -nan  MISS %:       -nan   MPKI: 0
STLB RFO       ACCESS:          0  HIT:          0  MISS:          0  HIT %:       -nan  MISS %:       -nan   MPKI: 0
STLB PREFETCH  ACCESS:          0  HIT:          0  MISS:          0  HIT %:       -nan  MISS %:       -nan   MPKI: 0
STLB WRITEBACK ACCESS:          0  HIT:          0  MISS:          0  HIT %:       -nan  MISS %:       -nan   MPKI: 0
L1D TOTAL     ACCESS:   69818817  HIT:   63434889  MISS:    6383928  HIT %:    90.8564  MISS %:    9.14356   MPKI: 31.8645
L1D LOAD      ACCESS:   38254808  HIT:   34100760  MISS:    4154048  HIT %:    89.1411  MISS %:    10.8589   MPKI: 20.7344
L1D RFO       ACCESS:    8505476  HIT:    8417235  MISS:      88241  HIT %:    98.9625  MISS %:    1.03746   MPKI: 0.440443
L1D PREFETCH  ACCESS:   23058533  HIT:   20916894  MISS:    2141639  HIT %:    90.7122  MISS %:    9.28784   MPKI: 10.6897
L1D WRITEBACK ACCESS:          0  HIT:          0  MISS:          0  HIT %:       -nan  MISS %:       -nan   MPKI: 0
L1I TOTAL     ACCESS:   38010618  HIT:   38010504  MISS:        114  HIT %:    99.9997  MISS %: 0.000299916   MPKI: 0.000569015
L1I LOAD      ACCESS:   38010618  HIT:   38010504  MISS:        114  HIT %:    99.9997  MISS %: 0.000299916   MPKI: 0.000569015
L1I RFO       ACCESS:          0  HIT:          0  MISS:          0  HIT %:       -nan  MISS %:       -nan   MPKI: 0
L1I PREFETCH  ACCESS:          0  HIT:          0  MISS:          0  HIT %:       -nan  MISS %:       -nan   MPKI: 0
L1I WRITEBACK ACCESS:          0  HIT:          0  MISS:          0  HIT %:       -nan  MISS %:       -nan   MPKI: 0
L2C TOTAL     ACCESS:   43715117  HIT:   39395942  MISS:    4319175  HIT %:    90.1197  MISS %:    9.88028   MPKI: 21.5586
L2C LOAD      ACCESS:    4128011  HIT:    3644851  MISS:     483160  HIT %:    88.2956  MISS %:    11.7044   MPKI: 2.41163
L2C RFO       ACCESS:      88154  HIT:      67105  MISS:      21049  HIT %:    76.1225  MISS %:    23.8775   MPKI: 0.105063
L2C PREFETCH  ACCESS:   35642867  HIT:   31993934  MISS:    3648933  HIT %:    89.7625  MISS %:    10.2375   MPKI: 18.2131
L2C WRITEBACK ACCESS:    1914822  HIT:    1820157  MISS:      94665  HIT %:    95.0562  MISS %:     4.9438   MPKI: 0.472507
PSCL5 TOTAL     ACCESS:    1941238  HIT:    1941238  MISS:          0  HIT %:        100  MISS %:          0   MPKI: 0
PSCL5 LOAD      ACCESS:          0  HIT:          0  MISS:          0  HIT %:       -nan  MISS %:       -nan   MPKI: 0
PSCL5 RFO       ACCESS:          0  HIT:          0  MISS:          0  HIT %:       -nan  MISS %:       -nan   MPKI: 0
PSCL5 PREFETCH  ACCESS:          0  HIT:          0  MISS:          0  HIT %:       -nan  MISS %:       -nan   MPKI: 0
PSCL5 WRITEBACK ACCESS:          0  HIT:          0  MISS:          0  HIT %:       -nan  MISS %:       -nan   MPKI: 0
PSCL4 TOTAL     ACCESS:    1941238  HIT:    1941238  MISS:          0  HIT %:        100  MISS %:          0   MPKI: 0
PSCL4 LOAD      ACCESS:          0  HIT:          0  MISS:          0  HIT %:       -nan  MISS %:       -nan   MPKI: 0
PSCL4 RFO       ACCESS:          0  HIT:          0  MISS:          0  HIT %:       -nan  MISS %:       -nan   MPKI: 0
PSCL4 PREFETCH  ACCESS:          0  HIT:          0  MISS:          0  HIT %:       -nan  MISS %:       -nan   MPKI: 0
PSCL4 WRITEBACK ACCESS:          0  HIT:          0  MISS:          0  HIT %:       -nan  MISS %:       -nan   MPKI: 0
PSCL3 TOTAL     ACCESS:    1941238  HIT:    1941238  MISS:          0  HIT %:        100  MISS %:          0   MPKI: 0
PSCL3 LOAD      ACCESS:          0  HIT:          0  MISS:          0  HIT %:       -nan  MISS %:       -nan   MPKI: 0
PSCL3 RFO       ACCESS:          0  HIT:          0  MISS:          0  HIT %:       -nan  MISS %:       -nan   MPKI: 0
PSCL3 PREFETCH  ACCESS:          0  HIT:          0  MISS:          0  HIT %:       -nan  MISS %:       -nan   MPKI: 0
PSCL3 WRITEBACK ACCESS:          0  HIT:          0  MISS:          0  HIT %:       -nan  MISS %:       -nan   MPKI: 0
PSCL2 TOTAL     ACCESS:    1939992  HIT:    1939972  MISS:         20  HIT %:     99.999  MISS %: 0.00103093   MPKI: 9.98272e-05
PSCL2 LOAD      ACCESS:          0  HIT:          0  MISS:          0  HIT %:       -nan  MISS %:       -nan   MPKI: 0
PSCL2 RFO       ACCESS:          0  HIT:          0  MISS:          0  HIT %:       -nan  MISS %:       -nan   MPKI: 0
PSCL2 PREFETCH  ACCESS:          0  HIT:          0  MISS:          0  HIT %:       -nan  MISS %:       -nan   MPKI: 0
PSCL2 WRITEBACK ACCESS:          0  HIT:          0  MISS:          0  HIT %:       -nan  MISS %:       -nan   MPKI: 0
LLC TOTAL     ACCESS:    5237192  HIT:    4571107  MISS:     666085  HIT %:    87.2816  MISS %:    12.7184   MPKI: 3.32467
LLC LOAD      ACCESS:     442037  HIT:     309486  MISS:     132551  HIT %:    70.0136  MISS %:    29.9864   MPKI: 0.66161
LLC RFO       ACCESS:      21049  HIT:      20518  MISS:        531  HIT %:    97.4773  MISS %:    2.52269   MPKI: 0.00265041
LLC PREFETCH  ACCESS:    3688479  HIT:    3179168  MISS:     509311  HIT %:    86.1918  MISS %:    13.8082   MPKI: 2.54216
LLC WRITEBACK ACCESS:    1014259  HIT:     994254  MISS:      20005  HIT %:    98.0276  MISS %:    1.97238   MPKI: 0.0998522

RAW hits: 690187
Loads Generated: 60720927
Loads sent to L1D: 60030739
Stores Generated: 8519174
Stores sent to L1D: 8519174

CPU 1 cumulative IPC: 0.508922 instructions: 200049197 cycles: 393083847
ITLB TOTAL     ACCESS:   34489222  HIT:   34489214  MISS:          8  HIT %:        100  MISS %: 2.31957e-05   MPKI: 3.99902e-05
ITLB LOAD      ACCESS:          0  HIT:          0  MISS:          0  HIT %:       -nan  MISS %:       -nan   MPKI: 0
ITLB RFO       ACCESS:          0  HIT:          0  MISS:          0  HIT %:       -nan  MISS %:       -nan   MPKI: 0
ITLB PREFETCH  ACCESS:          0  HIT:          0  MISS:          0  HIT %:       -nan  MISS %:       -nan   MPKI: 0
ITLB WRITEBACK ACCESS:          0  HIT:          0  MISS:          0  HIT %:       -nan  MISS %:       -nan   MPKI: 0
DTLB TOTAL     ACCESS:   42766702  HIT:   38043548  MISS:    4723154  HIT %:     88.956  MISS %:     11.044   MPKI: 23.61
DTLB LOAD      ACCESS:          0  HIT:          0  MISS:          0  HIT %:       -nan  MISS %:       -nan   MPKI: 0
DTLB RFO       ACCESS:          0  HIT:          0  MISS:          0  HIT %:       -nan  MISS %:       -nan   MPKI: 0
DTLB PREFETCH  ACCESS:          0  HIT:          0  MISS:          0  HIT %:       -nan  MISS %:       -nan   MPKI: 0
DTLB WRITEBACK ACCESS:          0  HIT:          0  MISS:          0  HIT %:       -nan  MISS %:       -nan   MPKI: 0
STLB TOTAL     ACCESS:   49964399  HIT:   48151605  MISS:    1812794  HIT %:    96.3718  MISS %:    3.62817   MPKI: 9.06174
STLB LOAD      ACCESS:          0  HIT:          0  MISS:          0  HIT %:       -nan  MISS %:       -nan   MPKI: 0
STLB RFO       ACCESS:          0  HIT:          0  MISS:          0  HIT %:       -nan  MISS %:       -nan   MPKI: 0
STLB PREFETCH  ACCESS:          0  HIT:          0  MISS:          0  HIT %:       -nan  MISS %:       -nan   MPKI: 0
STLB WRITEBACK ACCESS:          0  HIT:          0  MISS:          0  HIT %:       -nan  MISS %:       -nan   MPKI: 0
L1D TOTAL     ACCESS:   69692124  HIT:   63319567  MISS:    6372557  HIT %:    90.8561  MISS %:    9.14387   MPKI: 31.8549
L1D LOAD      ACCESS:   38198565  HIT:   34049283  MISS:    4149282  HIT %:    89.1376  MISS %:    10.8624   MPKI: 20.7413
L1D RFO       ACCESS:    8492481  HIT:    8404538  MISS:      87943  HIT %:    98.9645  MISS %:    1.03554   MPKI: 0.439607
L1D PREFETCH  ACCESS:   23001078  HIT:   20865746  MISS:    2135332  HIT %:    90.7164  MISS %:    9.28362   MPKI: 10.674
L1D WRITEBACK ACCESS:          0  HIT:          0  MISS:          0  HIT %:       -nan  MISS %:       -nan   MPKI: 0
L1I TOTAL     ACCESS:   37953667  HIT:   37953553  MISS:        114  HIT %:    99.9997  MISS %: 0.000300366   MPKI: 0.00056986
L1I LOAD      ACCESS:   37953667  HIT:   37953553  MISS:        114  HIT %:    99.9997  MISS %: 0.000300366   MPKI: 0.00056986
L1I RFO       ACCESS:          0  HIT:          0  MISS:          0  HIT %:       -nan  MISS %:       -nan   MPKI: 0
L1I PREFETCH  ACCESS:          0  HIT:          0  MISS:          0  HIT %:       -nan  MISS %:       -nan   MPKI: 0
L1I WRITEBACK ACCESS:          0  HIT:          0  MISS:          0  HIT %:       -nan  MISS %:       -nan   MPKI: 0
L2C TOTAL     ACCESS:   43682148  HIT:   39398655  MISS:    4283493  HIT %:     90.194  MISS %:    9.80605   MPKI: 21.4122
L2C LOAD      ACCESS:    4123139  HIT:    3640322  MISS:     482817  HIT %:    88.2901  MISS %:    11.7099   MPKI: 2.41349
L2C RFO       ACCESS:      87851  HIT:      66669  MISS:      21182  HIT %:    75.8887  MISS %:    24.1113   MPKI: 0.105884
L2C PREFETCH  ACCESS:   35616259  HIT:   31997609  MISS:    3618650  HIT %:    89.8399  MISS %:    10.1601   MPKI: 18.0888
L2C WRITEBACK ACCESS:    1911930  HIT:    1825894  MISS:      86036  HIT %:       95.5  MISS %:    4.49996   MPKI: 0.430074
PSCL5 TOTAL     ACCESS:    1942946  HIT:    1942946  MISS:          0  HIT %:        100  MISS %:          0   MPKI: 0
PSCL5 LOAD      ACCESS:          0  HIT:          0  MISS:          0  HIT %:       -nan  MISS %:       -nan   MPKI: 0
PSCL5 RFO       ACCESS:          0  HIT:          0  MISS:          0  HIT %:       -nan  MISS %:       -nan   MPKI: 0
PSCL5 PREFETCH  ACCESS:          0  HIT:          0  MISS:          0  HIT %:       -nan  MISS %:       -nan   MPKI: 0
PSCL5 WRITEBACK ACCESS:          0  HIT:          0  MISS:          0  HIT %:       -nan  MISS %:       -nan   MPKI: 0
PSCL4 TOTAL     ACCESS:    1942946  HIT:    1942946  MISS:          0  HIT %:        100  MISS %:          0   MPKI: 0
PSCL4 LOAD      ACCESS:          0  HIT:          0  MISS:          0  HIT %:       -nan  MISS %:       -nan   MPKI: 0
PSCL4 RFO       ACCESS:          0  HIT:          0  MISS:          0  HIT %:       -nan  MISS %:       -nan   MPKI: 0
PSCL4 PREFETCH  ACCESS:          0  HIT:          0  MISS:          0  HIT %:       -nan  MISS %:       -nan   MPKI: 0
PSCL4 WRITEBACK ACCESS:          0  HIT:          0  MISS:          0  HIT %:       -nan  MISS %:       -nan   MPKI: 0
PSCL3 TOTAL     ACCESS:    1942946  HIT:    1942946  MISS:          0  HIT %:        100  MISS %:          0   MPKI: 0
PSCL3 LOAD      ACCESS:          0  HIT:          0  MISS:          0  HIT %:       -nan  MISS %:       -nan   MPKI: 0
PSCL3 RFO       ACCESS:          0  HIT:          0  MISS:          0  HIT %:       -nan  MISS %:       -nan   MPKI: 0
PSCL3 PREFETCH  ACCESS:          0  HIT:          0  MISS:          0  HIT %:       -nan  MISS %:       -nan   MPKI: 0
PSCL3 WRITEBACK ACCESS:          0  HIT:          0  MISS:          0  HIT %:       -nan  MISS %:       -nan   MPKI: 0
PSCL2 TOTAL     ACCESS:    1941576  HIT:    1941556  MISS:         20  HIT %:     99.999  MISS %: 0.00103009   MPKI: 9.99754e-05
PSCL2 LOAD      ACCESS:          0  HIT:          0  MISS:          0  HIT %:       -nan  MISS %:       -nan   MPKI: 0
PSCL2 RFO       ACCESS:          0  HIT:          0  MISS:          0  HIT %:       -nan  MISS %:       -nan   MPKI: 0
PSCL2 PREFETCH  ACCESS:          0  HIT:          0  MISS:          0  HIT %:       -nan  MISS %:       -nan   MPKI: 0
PSCL2 WRITEBACK ACCESS:          0  HIT:          0  MISS:          0  HIT %:       -nan  MISS %:       -nan   MPKI: 0
LLC TOTAL     ACCESS:    5197253  HIT:    4529479  MISS:     667774  HIT %:    87.1514  MISS %:    12.8486   MPKI: 3.33805
LLC LOAD      ACCESS:     441199  HIT:     308600  MISS:     132599  HIT %:    69.9458  MISS %:    30.0542   MPKI: 0.662832
LLC RFO       ACCESS:      21181  HIT:      20652  MISS:        529  HIT %:    97.5025  MISS %:    2.49752   MPKI: 0.00264435
LLC PREFETCH  ACCESS:    3658769  HIT:    3147760  MISS:     511009  HIT %:    86.0333  MISS %:    13.9667   MPKI: 2.55442
LLC WRITEBACK ACCESS:    1001296  HIT:     981072  MISS:      20224  HIT %:    97.9802  MISS %:    2.01978   MPKI: 0.101095

RAW hits: 689352
Loads Generated: 60631201
Loads sent to L1D: 59941849
Stores Generated: 8506479
Stores sent to L1D: 8506485

CPU 2 cumulative IPC: 0.508845 instructions: 200018591 cycles: 393083847
ITLB TOTAL     ACCESS:   34483870  HIT:   34483862  MISS:          8  HIT %:        100  MISS %: 2.31993e-05   MPKI: 3.99963e-05
ITLB LOAD      ACCESS:          0  HIT:          0  MISS:          0  HIT %:       -nan  MISS %:       -nan   MPKI: 0
ITLB RFO       ACCESS:          0  HIT:          0  MISS:          0  HIT %:       -nan  MISS %:       -nan   MPKI: 0
ITLB PREFETCH  ACCESS:          0  HIT:          0  MISS:          0  HIT %:       -nan  MISS %:       -nan   MPKI: 0
ITLB WRITEBACK ACCESS:          0  HIT:          0  MISS:          0  HIT %:       -nan  MISS %:       -nan   MPKI: 0
DTLB TOTAL     ACCESS:   42759893  HIT:   38037294  MISS:    4722599  HIT %:    88.9555  MISS %:    11.0445   MPKI: 23.6108
DTLB LOAD      ACCESS:          0  HIT:          0  MISS:          0  HIT %:       -nan  MISS %:       -nan   MPKI: 0
DTLB RFO       ACCESS:          0  HIT:          0  MISS:          0  HIT %:       -nan  MISS %:       -nan   MPKI: 0
DTLB PREFETCH  ACCESS:          0  HIT:          0  MISS:          0  HIT %:       -nan  MISS %:       -nan   MPKI: 0
DTLB WRITEBACK ACCESS:          0  HIT:          0  MISS:          0  HIT %:       -nan  MISS %:       -nan   MPKI: 0
STLB TOTAL     ACCESS:   49954395  HIT:   48143376  MISS:    1811019  HIT %:    96.3747  MISS %:    3.62534   MPKI: 9.05425
STLB LOAD      ACCESS:          0  HIT:          0  MISS:          0  HIT %:       -nan  MISS %:       -nan   MPKI: 0
STLB RFO       ACCESS:          0  HIT:          0  MISS:          0  HIT %:       -nan  MISS %:       -nan   MPKI: 0
STLB PREFETCH  ACCESS:          0  HIT:          0  MISS:          0  HIT %:       -nan  MISS %:       -nan   MPKI: 0
STLB WRITEBACK ACCESS:          0  HIT:          0  MISS:          0  HIT %:       -nan  MISS %:       -nan   MPKI: 0
L1D TOTAL     ACCESS:   69784684  HIT:   63409922  MISS:    6374762  HIT %:    90.8651  MISS %:     9.1349   MPKI: 31.8708
L1D LOAD      ACCESS:   38193383  HIT:   34048388  MISS:    4144995  HIT %:    89.1473  MISS %:    10.8527   MPKI: 20.723
L1D RFO       ACCESS:    8491954  HIT:    8403957  MISS:      87997  HIT %:    98.9638  MISS %:    1.03624   MPKI: 0.439944
L1D PREFETCH  ACCESS:   23099347  HIT:   20957577  MISS:    2141770  HIT %:     90.728  MISS %:    9.27199   MPKI: 10.7079
L1D WRITEBACK ACCESS:          0  HIT:          0  MISS:          0  HIT %:       -nan  MISS %:       -nan   MPKI: 0
L1I TOTAL     ACCESS:   37947707  HIT:   37947593  MISS:        114  HIT %:    99.9997  MISS %: 0.000300413   MPKI: 0.000569947
L1I LOAD      ACCESS:   37947707  HIT:   37947593  MISS:        114  HIT %:    99.9997  MISS %: 0.000300413   MPKI: 0.000569947
L1I RFO       ACCESS:          0  HIT:          0  MISS:          0  HIT %:       -nan  MISS %:       -nan   MPKI: 0
L1I PREFETCH  ACCESS:          0  HIT:          0  MISS:          0  HIT %:       -nan  MISS %:       -nan   MPKI: 0
L1I WRITEBACK ACCESS:          0  HIT:          0  MISS:          0  HIT %:       -nan  MISS %:       -nan   MPKI: 0
L2C TOTAL     ACCESS:   43651295  HIT:   39426683  MISS:    4224612  HIT %:    90.3219  MISS %:    9.67809   MPKI: 21.1211
L2C LOAD      ACCESS:    4118849  HIT:    3639574  MISS:     479275  HIT %:    88.3639  MISS %:    11.6361   MPKI: 2.39615
L2C RFO       ACCESS:      87923  HIT:      69562  MISS:      18361  HIT %:     79.117  MISS %:     20.883   MPKI: 0.0917965
L2C PREFETCH  ACCESS:   35595478  HIT:   32019219  MISS:    3576259  HIT %:    89.9531  MISS %:    10.0469   MPKI: 17.8796
L2C WRITEBACK ACCESS:    1911941  HIT:    1833497  MISS:      78444  HIT %:    95.8972  MISS %:    4.10285   MPKI: 0.392184
PSCL5 TOTAL     ACCESS:    1937077  HIT:    1937077  MISS:          0  HIT %:        100  MISS %:          0   MPKI: 0
PSCL5 LOAD      ACCESS:          0  HIT:          0  MISS:          0  HIT %:       -nan  MISS %:       -nan   MPKI: 0
PSCL5 RFO       ACCESS:          0  HIT:          0  MISS:          0  HIT %:       -nan  MISS %:       -nan   MPKI: 0
PSCL5 PREFETCH  ACCESS:          0  HIT:          0  MISS:          0  HIT %:       -nan  MISS %:       -nan   MPKI: 0
PSCL5 WRITEBACK ACCESS:          0  HIT:          0  MISS:          0  HIT %:       -nan  MISS %:       -nan   MPKI: 0
PSCL4 TOTAL     ACCESS:    1937077  HIT:    1937077  MISS:          0  HIT %:        100  MISS %:          0   MPKI: 0
PSCL4 LOAD      ACCESS:          0  HIT:          0  MISS:          0  HIT %:       -nan  MISS %:       -nan   MPKI: 0
PSCL4 RFO       ACCESS:          0  HIT:          0  MISS:          0  HIT %:       -nan  MISS %:       -nan   MPKI: 0
PSCL4 PREFETCH  ACCESS:          0  HIT:          0  MISS:          0  HIT %:       -nan  MISS %:       -nan   MPKI: 0
PSCL4 WRITEBACK ACCESS:          0  HIT:          0  MISS:          0  HIT %:       -nan  MISS %:       -nan   MPKI: 0
PSCL3 TOTAL     ACCESS:    1937077  HIT:    1937077  MISS:          0  HIT %:        100  MISS %:          0   MPKI: 0
PSCL3 LOAD      ACCESS:          0  HIT:          0  MISS:          0  HIT %:       -nan  MISS %:       -nan   MPKI: 0
PSCL3 RFO       ACCESS:          0  HIT:          0  MISS:          0  HIT %:       -nan  MISS %:       -nan   MPKI: 0
PSCL3 PREFETCH  ACCESS:          0  HIT:          0  MISS:          0  HIT %:       -nan  MISS %:       -nan   MPKI: 0
PSCL3 WRITEBACK ACCESS:          0  HIT:          0  MISS:          0  HIT %:       -nan  MISS %:       -nan   MPKI: 0
PSCL2 TOTAL     ACCESS:    1935870  HIT:    1935850  MISS:         20  HIT %:     99.999  MISS %: 0.00103313   MPKI: 9.99907e-05
PSCL2 LOAD      ACCESS:          0  HIT:          0  MISS:          0  HIT %:       -nan  MISS %:       -nan   MPKI: 0
PSCL2 RFO       ACCESS:          0  HIT:          0  MISS:          0  HIT %:       -nan  MISS %:       -nan   MPKI: 0
PSCL2 PREFETCH  ACCESS:          0  HIT:          0  MISS:          0  HIT %:       -nan  MISS %:       -nan   MPKI: 0
PSCL2 WRITEBACK ACCESS:          0  HIT:          0  MISS:          0  HIT %:       -nan  MISS %:       -nan   MPKI: 0
LLC TOTAL     ACCESS:    5139423  HIT:    4473262  MISS:     666161  HIT %:    87.0382  MISS %:    12.9618   MPKI: 3.3305
LLC LOAD      ACCESS:     437567  HIT:     304660  MISS:     132907  HIT %:    69.6259  MISS %:    30.3741   MPKI: 0.664473
LLC RFO       ACCESS:      18359  HIT:      17812  MISS:        547  HIT %:    97.0205  MISS %:    2.97947   MPKI: 0.00273475
LLC PREFETCH  ACCESS:    3616352  HIT:    3107149  MISS:     509203  HIT %:    85.9194  MISS %:    14.0806   MPKI: 2.54578
LLC WRITEBACK ACCESS:     994872  HIT:     974775  MISS:      20097  HIT %:    97.9799  MISS %:    2.02006   MPKI: 0.100476

RAW hits: 689090
Loads Generated: 60622118
Loads sent to L1D: 59933028
Stores Generated: 8505177
Stores sent to L1D: 8505174

CPU 3 cumulative IPC: 0.508797 instructions: 200000001 cycles: 393083847
ITLB TOTAL     ACCESS:   34480511  HIT:   34480503  MISS:          8  HIT %:        100  MISS %: 2.32015e-05   MPKI: 4e-05
ITLB LOAD      ACCESS:          0  HIT:          0  MISS:          0  HIT %:       -nan  MISS %:       -nan   MPKI: 0
ITLB RFO       ACCESS:          0  HIT:          0  MISS:          0  HIT %:       -nan  MISS %:       -nan   MPKI: 0
ITLB PREFETCH  ACCESS:          0  HIT:          0  MISS:          0  HIT %:       -nan  MISS %:       -nan   MPKI: 0
ITLB WRITEBACK ACCESS:          0  HIT:          0  MISS:          0  HIT %:       -nan  MISS %:       -nan   MPKI: 0
DTLB TOTAL     ACCESS:   42756168  HIT:   38033919  MISS:    4722249  HIT %:    88.9554  MISS %:    11.0446   MPKI: 23.6112
DTLB LOAD      ACCESS:          0  HIT:          0  MISS:          0  HIT %:       -nan  MISS %:       -nan   MPKI: 0
DTLB RFO       ACCESS:          0  HIT:          0  MISS:          0  HIT %:       -nan  MISS %:       -nan   MPKI: 0
DTLB PREFETCH  ACCESS:          0  HIT:          0  MISS:          0  HIT %:       -nan  MISS %:       -nan   MPKI: 0
DTLB WRITEBACK ACCESS:          0  HIT:          0  MISS:          0  HIT %:       -nan  MISS %:       -nan   MPKI: 0
STLB TOTAL     ACCESS:   49898478  HIT:   48087076  MISS:    1811402  HIT %:    96.3698  MISS %:    3.63017   MPKI: 9.05701
STLB LOAD      ACCESS:          0  HIT:          0  MISS:          0  HIT %:       -nan  MISS %:       -nan   MPKI: 0
STLB RFO       ACCESS:          0  HIT:          0  MISS:          0  HIT %:       -nan  MISS %:       -nan   MPKI: 0
STLB PREFETCH  ACCESS:          0  HIT:          0  MISS:          0  HIT %:       -nan  MISS %:       -nan   MPKI: 0
STLB WRITEBACK ACCESS:          0  HIT:          0  MISS:          0  HIT %:       -nan  MISS %:       -nan   MPKI: 0
L1D TOTAL     ACCESS:   69689681  HIT:   63317532  MISS:    6372149  HIT %:    90.8564  MISS %:     9.1436   MPKI: 31.8607
L1D LOAD      ACCESS:   38189361  HIT:   34041104  MISS:    4148257  HIT %:    89.1377  MISS %:    10.8623   MPKI: 20.7413
L1D RFO       ACCESS:    8490814  HIT:    8402821  MISS:      87993  HIT %:    98.9637  MISS %:    1.03633   MPKI: 0.439965
L1D PREFETCH  ACCESS:   23009506  HIT:   20873607  MISS:    2135899  HIT %:    90.7173  MISS %:    9.28268   MPKI: 10.6795
L1D WRITEBACK ACCESS:          0  HIT:          0  MISS:          0  HIT %:       -nan  MISS %:       -nan   MPKI: 0
L1I TOTAL     ACCESS:   37944005  HIT:   37943891  MISS:        114  HIT %:    99.9997  MISS %: 0.000300443   MPKI: 0.00057
L1I LOAD      ACCESS:   37944005  HIT:   37943891  MISS:        114  HIT %:    99.9997  MISS %: 0.000300443   MPKI: 0.00057
L1I RFO       ACCESS:          0  HIT:          0  MISS:          0  HIT %:       -nan  MISS %:       -nan   MPKI: 0
L1I PREFETCH  ACCESS:          0  HIT:          0  MISS:          0  HIT %:       -nan  MISS %:       -nan   MPKI: 0
L1I WRITEBACK ACCESS:          0  HIT:          0  MISS:          0  HIT %:       -nan  MISS %:       -nan   MPKI: 0
L2C TOTAL     ACCESS:   43610310  HIT:   39314073  MISS:    4296237  HIT %:    90.1486  MISS %:    9.85143   MPKI: 21.4812
L2C LOAD      ACCESS:    4121780  HIT:    3636746  MISS:     485034  HIT %:    88.2324  MISS %:    11.7676   MPKI: 2.42517
L2C RFO       ACCESS:      87912  HIT:      68265  MISS:      19647  HIT %:    77.6515  MISS %:    22.3485   MPKI: 0.098235
L2C PREFETCH  ACCESS:   35550772  HIT:   31916019  MISS:    3634753  HIT %:    89.7759  MISS %:    10.2241   MPKI: 18.1738
L2C WRITEBACK ACCESS:    1911795  HIT:    1823544  MISS:      88251  HIT %:    95.3839  MISS %:    4.61613   MPKI: 0.441255
PSCL5 TOTAL     ACCESS:    1938031  HIT:    1938031  MISS:          0  HIT %:        100  MISS %:          0   MPKI: 0
PSCL5 LOAD      ACCESS:          0  HIT:          0  MISS:          0  HIT %:       -nan  MISS %:       -nan   MPKI: 0
PSCL5 RFO       ACCESS:          0  HIT:          0  MISS:          0  HIT %:       -nan  MISS %:       -nan   MPKI: 0
PSCL5 PREFETCH  ACCESS:          0  HIT:          0  MISS:          0  HIT %:       -nan  MISS %:       -nan   MPKI: 0
PSCL5 WRITEBACK ACCESS:          0  HIT:          0  MISS:          0  HIT %:       -nan  MISS %:       -nan   MPKI: 0
PSCL4 TOTAL     ACCESS:    1938031  HIT:    1938031  MISS:          0  HIT %:        100  MISS %:          0   MPKI: 0
PSCL4 LOAD      ACCESS:          0  HIT:          0  MISS:          0  HIT %:       -nan  MISS %:       -nan   MPKI: 0
PSCL4 RFO       ACCESS:          0  HIT:          0  MISS:          0  HIT %:       -nan  MISS %:       -nan   MPKI: 0
PSCL4 PREFETCH  ACCESS:          0  HIT:          0  MISS:          0  HIT %:       -nan  MISS %:       -nan   MPKI: 0
PSCL4 WRITEBACK ACCESS:          0  HIT:          0  MISS:          0  HIT %:       -nan  MISS %:       -nan   MPKI: 0
PSCL3 TOTAL     ACCESS:    1938031  HIT:    1938031  MISS:          0  HIT %:        100  MISS %:          0   MPKI: 0
PSCL3 LOAD      ACCESS:          0  HIT:          0  MISS:          0  HIT %:       -nan  MISS %:       -nan   MPKI: 0
PSCL3 RFO       ACCESS:          0  HIT:          0  MISS:          0  HIT %:       -nan  MISS %:       -nan   MPKI: 0
PSCL3 PREFETCH  ACCESS:          0  HIT:          0  MISS:          0  HIT %:       -nan  MISS %:       -nan   MPKI: 0
PSCL3 WRITEBACK ACCESS:          0  HIT:          0  MISS:          0  HIT %:       -nan  MISS %:       -nan   MPKI: 0
PSCL2 TOTAL     ACCESS:    1936740  HIT:    1936720  MISS:         20  HIT %:     99.999  MISS %: 0.00103266   MPKI: 0.0001
PSCL2 LOAD      ACCESS:          0  HIT:          0  MISS:          0  HIT %:       -nan  MISS %:       -nan   MPKI: 0
PSCL2 RFO       ACCESS:          0  HIT:          0  MISS:          0  HIT %:       -nan  MISS %:       -nan   MPKI: 0
PSCL2 PREFETCH  ACCESS:          0  HIT:          0  MISS:          0  HIT %:       -nan  MISS %:       -nan   MPKI: 0
PSCL2 WRITEBACK ACCESS:          0  HIT:          0  MISS:          0  HIT %:       -nan  MISS %:       -nan   MPKI: 0
LLC TOTAL     ACCESS:    5222176  HIT:    4552688  MISS:     669488  HIT %:    87.1799  MISS %:    12.8201   MPKI: 3.34744
LLC LOAD      ACCESS:     443122  HIT:     310311  MISS:     132811  HIT %:    70.0283  MISS %:    29.9717   MPKI: 0.664055
LLC RFO       ACCESS:      19646  HIT:      19103  MISS:        543  HIT %:    97.2361  MISS %:    2.76392   MPKI: 0.002715
LLC PREFETCH  ACCESS:    3675016  HIT:    3162984  MISS:     512032  HIT %:    86.0672  MISS %:    13.9328   MPKI: 2.56016
LLC WRITEBACK ACCESS:    1015840  HIT:     995109  MISS:      20731  HIT %:    97.9592  MISS %:    2.04077   MPKI: 0.103655

RAW hits: 689418
Loads Generated: 60616556
Loads sent to L1D: 59927138
Stores Generated: 8504451
Stores sent to L1D: 8504456

Region of Interest Statistics

CPU 0 cumulative IPC: 0.509644 instructions: 200000000 cycles: 392431118
ITLB TOTAL     ACCESS:   34480554  HIT:   34480546  MISS:          8  HIT %:        100  MISS %: 2.32015e-05   MPKI: 4e-05
ITLB LOAD TRANSLATION ACCESS:   34480554  HIT:   34480546  MISS:          8  HIT %:        100  MISS %: 2.32015e-05   MPKI: 4e-05
ITLB PREFETCH  REQUESTED:          0  ISSUED:          0  USEFUL:          0  USELESS:          0
ITLB USEFUL LOAD PREFETCHES:          0 PREFETCH ISSUED TO LOWER LEVEL:          0  ACCURACY: -nan
ITLB TIMELY PREFETCHES:          0 LATE PREFETCHES: 0 DROPPED PREFETCHES: 0
ITLB PREFETCHES SAME FILL-ORIGIN LEVEL: 0 DIFFERENT FILL-ORIGIN LEVEL: 0
ITLB AVERAGE MISS LATENCY: 599.25 cycles
ITLB RQ	ACCESS:   38010642	FORWARD:          0	MERGED:    3469813	TO_CACHE:   34540829

DTLB TOTAL     ACCESS:   42756320  HIT:   38034072  MISS:    4722248  HIT %:    88.9554  MISS %:    11.0446   MPKI: 23.6112
DTLB LOAD TRANSLATION ACCESS:   42756320  HIT:   38034072  MISS:    4722248  HIT %:    88.9554  MISS %:    11.0446   MPKI: 23.6112
DTLB PREFETCH  REQUESTED:          0  ISSUED:          0  USEFUL:          0  USELESS:          0
DTLB USEFUL LOAD PREFETCHES:          0 PREFETCH ISSUED TO LOWER LEVEL:          0  ACCURACY: -nan
DTLB TIMELY PREFETCHES:          0 LATE PREFETCHES: 0 DROPPED PREFETCHES: 0
DTLB PREFETCHES SAME FILL-ORIGIN LEVEL: 0 DIFFERENT FILL-ORIGIN LEVEL: 0
DTLB AVERAGE MISS LATENCY: 10.0569 cycles
DTLB RQ	ACCESS:   46945059	FORWARD:          0	MERGED:    4071248	TO_CACHE:   42873811

STLB TOTAL     ACCESS:   49934673  HIT:   48124023  MISS:    1810650  HIT %:     96.374  MISS %:    3.62604   MPKI: 9.05325
STLB LOAD TRANSLATION ACCESS:    4722256  HIT:    4551508  MISS:     170748  HIT %:    96.3842  MISS %:    3.61581   MPKI: 0.85374
STLB TRANSLATION FROM L1D PREFETCHER ACCESS:   45212417  HIT:   43572515  MISS:    1639902  HIT %:    96.3729  MISS %:    3.62711   MPKI: 8.19951
STLB PREFETCH  REQUESTED:          0  ISSUED:          0  USEFUL:    1572087  USELESS:      72038
STLB USEFUL LOAD PREFETCHES:    1572087 PREFETCH ISSUED TO LOWER LEVEL:          0  ACCURACY: inf
STLB TIMELY PREFETCHES:    1572087 LATE PREFETCHES: 5273 DROPPED PREFETCHES: 125908
STLB PREFETCHES SAME FILL-ORIGIN LEVEL: 0 DIFFERENT FILL-ORIGIN LEVEL: 0
STLB AVERAGE MISS LATENCY: 30.5229 cycles
STLB RQ	ACCESS:   62312041	FORWARD:          0	MERGED:   12152177	TO_CACHE:   50159864

STLB Hit, L1D data hit: 0
STLB Hit, L2C data hit: 0
STLB Hit, LLC data hit: 0
STLB Hit, LLC data miss: 0
STLB STLB hints to L2: 0
L1D TOTAL     ACCESS:   69696305  HIT:   63322692  MISS:    6373613  HIT %:    90.8552  MISS %:    9.14484   MPKI: 31.8681
L1D LOAD      ACCESS:   38189235  HIT:   34041989  MISS:    4147246  HIT %:    89.1403  MISS %:    10.8597   MPKI: 20.7362
L1D RFO       ACCESS:    8490744  HIT:    8402698  MISS:      88046  HIT %:     98.963  MISS %:    1.03696   MPKI: 0.44023
L1D PREFETCH  ACCESS:   23016326  HIT:   20878005  MISS:    2138321  HIT %:    90.7095  MISS %:    9.29045   MPKI: 10.6916
L1D PREFETCH  REQUESTED:  132264279  ISSUED:  126973964  USEFUL:    1573717  USELESS:     567906
L1D USEFUL LOAD PREFETCHES:    1573717 PREFETCH ISSUED TO LOWER LEVEL:   36243453  ACCURACY: 4.34207
L1D TIMELY PREFETCHES:    1573717 LATE PREFETCHES: 25736 DROPPED PREFETCHES: 129941
L1D PREFETCHES SAME FILL-ORIGIN LEVEL: 2167763 DIFFERENT FILL-ORIGIN LEVEL: 34075690
L1D AVERAGE MISS LATENCY: 25.1006 cycles
L1D RQ	ACCESS:   60030739	FORWARD:          0	MERGED:   21575160	TO_CACHE:   38428706
L1D WQ	ACCESS:    8519174	FORWARD:      28970	MERGED:       2821	TO_CACHE:    8516353
L1D PQ	ACCESS:   69391758	FORWARD:          0	MERGED:   11807455	TO_CACHE:   57582206

L1D UNIQUE REGIONS ACCESSED: 0
L1D REGIONS CONFLICTS: 0
L1D Cross Page Prefetch Requests: 60349973
L1D Same Page Prefetch Requests: 20992611
L1D ROI Sum of L1D PQ occupancy: 952737465
L1D PREFETCHES PUSHED FROM L2C: 0
L1I TOTAL     ACCESS:   37944076  HIT:   37943962  MISS:        114  HIT %:    99.9997  MISS %: 0.000300442   MPKI: 0.00057
L1I LOAD      ACCESS:   37944076  HIT:   37943962  MISS:        114  HIT %:    99.9997  MISS %: 0.000300442   MPKI: 0.00057
L1I PREFETCH  REQUESTED:          0  ISSUED:          0  USEFUL:          0  USELESS:          0
L1I USEFUL LOAD PREFETCHES:          0 PREFETCH ISSUED TO LOWER LEVEL:          0  ACCURACY: -nan
L1I TIMELY PREFETCHES:          0 LATE PREFETCHES: 0 DROPPED PREFETCHES: 0
L1I PREFETCHES SAME FILL-ORIGIN LEVEL: 0 DIFFERENT FILL-ORIGIN LEVEL: 0
L1I AVERAGE MISS LATENCY: 424.781 cycles
L1I RQ	ACCESS:   58458083	FORWARD:          0	MERGED:   20447441	TO_CACHE:   38010642

BTB TOTAL     ACCESS:   35701409  HIT:   35696821  MISS:       4588  HIT %:    99.9871  MISS %:   0.012851   MPKI: 0.02294
BTB BRANCH_DIRECT_JUMP	ACCESS:      26872  HIT:      26845  MISS:         27
BTB BRANCH_INDIRECT	ACCESS:          0  HIT:          0  MISS:          0
BTB BRANCH_CONDITIONAL	ACCESS:   35665559  HIT:   35665468  MISS:         91
BTB BRANCH_DIRECT_CALL	ACCESS:       4489  HIT:       4469  MISS:         20
BTB BRANCH_INDIRECT_CALL	ACCESS:          0  HIT:          0  MISS:          0
BTB BRANCH_RETURN	ACCESS:       4489  HIT:         39  MISS:       4450
BTB BRANCH_OTHER ACCESS:          0  HIT:          0  MISS:          0

L2C TOTAL     ACCESS:   43634330  HIT:   39322217  MISS:    4312113  HIT %:    90.1176  MISS %:    9.88239   MPKI: 21.5606
L2C LOAD      ACCESS:    4121265  HIT:    3638778  MISS:     482487  HIT %:    88.2927  MISS %:    11.7073   MPKI: 2.41243
L2C DATA LOAD MPKI: 2.41187
L2C INSTRUCTION LOAD MPKI: 0.00057
L2C RFO       ACCESS:      87959  HIT:      66952  MISS:      21007  HIT %:    76.1173  MISS %:    23.8827   MPKI: 0.105035
L2C PREFETCH  ACCESS:   35576959  HIT:   31934053  MISS:    3642906  HIT %:    89.7605  MISS %:    10.2395   MPKI: 18.2145
L2C DATA PREFETCH MPKI: 18.2145
L2C INSTRUCTION PREFETCH MPKI: 0
L2C WRITEBACK ACCESS:    1911645  HIT:    1817150  MISS:      94495  HIT %:    95.0569  MISS %:    4.94312   MPKI: 0.472475
L2C LOAD TRANSLATION ACCESS:     165498  HIT:     156012  MISS:       9486  HIT %:    94.2682  MISS %:    5.73179   MPKI: 0.04743
L2C TRANSLATION FROM L1D PREFETCHER ACCESS:    1771004  HIT:    1709272  MISS:      61732  HIT %:    96.5143  MISS %:    3.48571   MPKI: 0.30866
L2C PREFETCH  REQUESTED:          0  ISSUED:          0  USEFUL:    1677716  USELESS:    2032241
L2C USEFUL LOAD PREFETCHES:    1677716 PREFETCH ISSUED TO LOWER LEVEL:    3689981  ACCURACY: 45.4668
L2C TIMELY PREFETCHES:    1677716 LATE PREFETCHES: 41046 DROPPED PREFETCHES: 0
L2C PREFETCHES SAME FILL-ORIGIN LEVEL: 3326171 DIFFERENT FILL-ORIGIN LEVEL: 0
L2C AVERAGE MISS LATENCY: 79.6995 cycles
L2C RQ	ACCESS:    6157930	FORWARD:          0	MERGED:          0	TO_CACHE:    6157428
L2C WQ	ACCESS:    1914822	FORWARD:       8485	MERGED:          0	TO_CACHE:    1914822
L2C PQ	ACCESS:   36239787	FORWARD:          0	MERGED:       8927	TO_CACHE:   36222877

L2C Instructions Evicting Data 112
L2C Translations Evicting Data 69791
L2C Data Evicting Data 4084664
L2C Instructions Evicting Instructions 0
L2C Translations Evicting Instructions 1
L2C Data Evicting Instructions 111
L2C Instructions Evicting Translations 2
L2C Translations Evicting Translations 1576
L2C Data Evicting Translations 68253
L2C Dense regions hint from L2: 0
PSCL5 TOTAL     ACCESS:    1936478  HIT:    1936478  MISS:          0  HIT %:        100  MISS %:          0   MPKI: 0
PSCL5 LOAD TRANSLATION ACCESS:     165493  HIT:     165493  MISS:          0  HIT %:        100  MISS %:          0   MPKI: 0
PSCL5 TRANSLATION FROM L1D PREFETCHER ACCESS:    1770985  HIT:    1770985  MISS:          0  HIT %:        100  MISS %:          0   MPKI: 0
PSCL5 PREFETCH  REQUESTED:          0  ISSUED:          0  USEFUL:          0  USELESS:          0
PSCL5 USEFUL LOAD PREFETCHES:          0 PREFETCH ISSUED TO LOWER LEVEL:          0  ACCURACY: -nan
PSCL5 TIMELY PREFETCHES:          0 LATE PREFETCHES: 0 DROPPED PREFETCHES: 0
PSCL5 PREFETCHES SAME FILL-ORIGIN LEVEL: 0 DIFFERENT FILL-ORIGIN LEVEL: 0

PSCL4 TOTAL     ACCESS:    1936478  HIT:    1936478  MISS:          0  HIT %:        100  MISS %:          0   MPKI: 0
PSCL4 LOAD TRANSLATION ACCESS:     165493  HIT:     165493  MISS:          0  HIT %:        100  MISS %:          0   MPKI: 0
PSCL4 TRANSLATION FROM L1D PREFETCHER ACCESS:    1770985  HIT:    1770985  MISS:          0  HIT %:        100  MISS %:          0   MPKI: 0
PSCL4 PREFETCH  REQUESTED:          0  ISSUED:          0  USEFUL:          0  USELESS:          0
PSCL4 USEFUL LOAD PREFETCHES:          0 PREFETCH ISSUED TO LOWER LEVEL:          0  ACCURACY: -nan
PSCL4 TIMELY PREFETCHES:          0 LATE PREFETCHES: 0 DROPPED PREFETCHES: 0
PSCL4 PREFETCHES SAME FILL-ORIGIN LEVEL: 0 DIFFERENT FILL-ORIGIN LEVEL: 0

PSCL3 TOTAL     ACCESS:    1936478  HIT:    1936478  MISS:          0  HIT %:        100  MISS %:          0   MPKI: 0
PSCL3 LOAD TRANSLATION ACCESS:     165493  HIT:     165493  MISS:          0  HIT %:        100  MISS %:          0   MPKI: 0
PSCL3 TRANSLATION FROM L1D PREFETCHER ACCESS:    1770985  HIT:    1770985  MISS:          0  HIT %:        100  MISS %:          0   MPKI: 0
PSCL3 PREFETCH  REQUESTED:          0  ISSUED:          0  USEFUL:          0  USELESS:          0
PSCL3 USEFUL LOAD PREFETCHES:          0 PREFETCH ISSUED TO LOWER LEVEL:          0  ACCURACY: -nan
PSCL3 TIMELY PREFETCHES:          0 LATE PREFETCHES: 0 DROPPED PREFETCHES: 0
PSCL3 PREFETCHES SAME FILL-ORIGIN LEVEL: 0 DIFFERENT FILL-ORIGIN LEVEL: 0

PSCL2 TOTAL     ACCESS:    1935232  HIT:    1935212  MISS:         20  HIT %:     99.999  MISS %: 0.00103347   MPKI: 0.0001
PSCL2 LOAD TRANSLATION ACCESS:     165495  HIT:     165475  MISS:         20  HIT %:    99.9879  MISS %:   0.012085   MPKI: 0.0001
PSCL2 TRANSLATION FROM L1D PREFETCHER ACCESS:    1769737  HIT:    1769737  MISS:          0  HIT %:        100  MISS %:          0   MPKI: 0
PSCL2 PREFETCH  REQUESTED:          0  ISSUED:          0  USEFUL:          0  USELESS:          0
PSCL2 USEFUL LOAD PREFETCHES:          0 PREFETCH ISSUED TO LOWER LEVEL:          0  ACCURACY: -nan
PSCL2 TIMELY PREFETCHES:          0 LATE PREFETCHES: 0 DROPPED PREFETCHES: 0
PSCL2 PREFETCHES SAME FILL-ORIGIN LEVEL: 0 DIFFERENT FILL-ORIGIN LEVEL: 0

LLC TOTAL     ACCESS:    5228544  HIT:    4563333  MISS:     665211  HIT %:    87.2773  MISS %:    12.7227   MPKI: 3.32606
LLC LOAD      ACCESS:     441402  HIT:     308983  MISS:     132419  HIT %:    70.0004  MISS %:    29.9996   MPKI: 0.662095
LLC RFO       ACCESS:      21007  HIT:      20476  MISS:        531  HIT %:    97.4723  MISS %:    2.52773   MPKI: 0.002655
LLC PREFETCH  ACCESS:    3682416  HIT:    3173819  MISS:     508597  HIT %:    86.1885  MISS %:    13.8115   MPKI: 2.54298
LLC WRITEBACK ACCESS:    1012501  HIT:     992523  MISS:      19978  HIT %:    98.0269  MISS %:    1.97313   MPKI: 0.09989
LLC LOAD TRANSLATION ACCESS:       9486  HIT:       8422  MISS:       1064  HIT %:    88.7835  MISS %:    11.2165   MPKI: 0.00532
LLC TRANSLATION FROM L1D PREFETCHER ACCESS:      61732  HIT:      59110  MISS:       2622  HIT %:    95.7526  MISS %:    4.24739   MPKI: 0.01311
LLC PREFETCH  REQUESTED:          0  ISSUED:          0  USEFUL:     388279  USELESS:    1650075
LLC USEFUL LOAD PREFETCHES:     388279 PREFETCH ISSUED TO LOWER LEVEL:    2041558  ACCURACY: 19.0188
LLC TIMELY PREFETCHES:     388279 LATE PREFETCHES: 0 DROPPED PREFETCHES: 0
LLC PREFETCHES SAME FILL-ORIGIN LEVEL: 0 DIFFERENT FILL-ORIGIN LEVEL: 0
LLC AVERAGE MISS LATENCY: 1405.1 cycles
LLC RQ	ACCESS:    2131463	FORWARD:          0	MERGED:          0	TO_CACHE:    2131161
LLC WQ	ACCESS:    4026270	FORWARD:       6345	MERGED:          3	TO_CACHE:    4026267
LLC PQ	ACCESS:   14644663	FORWARD:          0	MERGED:          0	TO_CACHE:   14638620

LLC Dense regions hint to LLC: 0

RAW hits: 689148
Loads Generated: 60616559
Loads sent to L1D: 59927411
Stores Generated: 8504427
Stores sent to L1D: 8504422
Major fault: 0 Minor fault: 5974
Allocated PAGES: 23896

CPU 1 cumulative IPC: 0.508915 instructions: 200000000 cycles: 392993038
ITLB TOTAL     ACCESS:   34480550  HIT:   34480542  MISS:          8  HIT %:        100  MISS %: 2.32015e-05   MPKI: 4e-05
ITLB LOAD TRANSLATION ACCESS:   34480550  HIT:   34480542  MISS:          8  HIT %:        100  MISS %: 2.32015e-05   MPKI: 4e-05
ITLB PREFETCH  REQUESTED:          0  ISSUED:          0  USEFUL:          0  USELESS:          0
ITLB USEFUL LOAD PREFETCHES:          0 PREFETCH ISSUED TO LOWER LEVEL:          0  ACCURACY: -nan
ITLB TIMELY PREFETCHES:          0 LATE PREFETCHES: 0 DROPPED PREFETCHES: 0
ITLB PREFETCHES SAME FILL-ORIGIN LEVEL: 0 DIFFERENT FILL-ORIGIN LEVEL: 0
ITLB AVERAGE MISS LATENCY: 256.875 cycles
ITLB RQ	ACCESS:   37953690	FORWARD:          0	MERGED:    3464466	TO_CACHE:   34489224

DTLB TOTAL     ACCESS:   42756371  HIT:   38034123  MISS:    4722248  HIT %:    88.9555  MISS %:    11.0445   MPKI: 23.6112
DTLB LOAD TRANSLATION ACCESS:   42756371  HIT:   38034123  MISS:    4722248  HIT %:    88.9555  MISS %:    11.0445   MPKI: 23.6112
DTLB PREFETCH  REQUESTED:          0  ISSUED:          0  USEFUL:          0  USELESS:          0
DTLB USEFUL LOAD PREFETCHES:          0 PREFETCH ISSUED TO LOWER LEVEL:          0  ACCURACY: -nan
DTLB TIMELY PREFETCHES:          0 LATE PREFETCHES: 0 DROPPED PREFETCHES: 0
DTLB PREFETCHES SAME FILL-ORIGIN LEVEL: 0 DIFFERENT FILL-ORIGIN LEVEL: 0
DTLB AVERAGE MISS LATENCY: 10.0446 cycles
DTLB RQ	ACCESS:   46875781	FORWARD:          0	MERGED:    4065173	TO_CACHE:   42810608

STLB TOTAL     ACCESS:   49951782  HIT:   48139593  MISS:    1812189  HIT %:    96.3721  MISS %:    3.62788   MPKI: 9.06095
STLB LOAD TRANSLATION ACCESS:    4722256  HIT:    4551704  MISS:     170552  HIT %:    96.3883  MISS %:    3.61166   MPKI: 0.85276
STLB TRANSLATION FROM L1D PREFETCHER ACCESS:   45229526  HIT:   43587889  MISS:    1641637  HIT %:    96.3704  MISS %:    3.62957   MPKI: 8.20819
STLB PREFETCH  REQUESTED:          0  ISSUED:          0  USEFUL:    1569815  USELESS:      72342
STLB USEFUL LOAD PREFETCHES:    1569815 PREFETCH ISSUED TO LOWER LEVEL:          0  ACCURACY: inf
STLB TIMELY PREFETCHES:    1569815 LATE PREFETCHES: 5153 DROPPED PREFETCHES: 130150
STLB PREFETCHES SAME FILL-ORIGIN LEVEL: 0 DIFFERENT FILL-ORIGIN LEVEL: 0
STLB AVERAGE MISS LATENCY: 30.5233 cycles
STLB RQ	ACCESS:   62235354	FORWARD:          0	MERGED:   12129966	TO_CACHE:   50105388

STLB Hit, L1D data hit: 0
STLB Hit, L2C data hit: 0
STLB Hit, LLC data hit: 0
STLB Hit, LLC data miss: 0
STLB STLB hints to L2: 0
L1D TOTAL     ACCESS:   69674417  HIT:   63303169  MISS:    6371248  HIT %:    90.8557  MISS %:    9.14431   MPKI: 31.8562
L1D LOAD      ACCESS:   38189353  HIT:   34041012  MISS:    4148341  HIT %:    89.1374  MISS %:    10.8626   MPKI: 20.7417
L1D RFO       ACCESS:    8490456  HIT:    8402545  MISS:      87911  HIT %:    98.9646  MISS %:    1.03541   MPKI: 0.439555
L1D PREFETCH  ACCESS:   22994608  HIT:   20859612  MISS:    2134996  HIT %:    90.7152  MISS %:    9.28477   MPKI: 10.675
L1D PREFETCH  REQUESTED:  132069886  ISSUED:  126790241  USEFUL:    1570343  USELESS:     564970
L1D USEFUL LOAD PREFETCHES:    1570343 PREFETCH ISSUED TO LOWER LEVEL:   36222195  ACCURACY: 4.33531
L1D TIMELY PREFETCHES:    1570343 LATE PREFETCHES: 25851 DROPPED PREFETCHES: 135910
L1D PREFETCHES SAME FILL-ORIGIN LEVEL: 2162147 DIFFERENT FILL-ORIGIN LEVEL: 34060048
L1D AVERAGE MISS LATENCY: 25.2735 cycles
L1D RQ	ACCESS:   59941849	FORWARD:          0	MERGED:   21542914	TO_CACHE:   38372117
L1D WQ	ACCESS:    8506485	FORWARD:      28939	MERGED:       2821	TO_CACHE:    8503664
L1D PQ	ACCESS:   69278049	FORWARD:          0	MERGED:   11763736	TO_CACHE:   57512192

L1D UNIQUE REGIONS ACCESSED: 0
L1D REGIONS CONFLICTS: 0
L1D Cross Page Prefetch Requests: 60321587
L1D Same Page Prefetch Requests: 20897893
L1D ROI Sum of L1D PQ occupancy: 951496955
L1D PREFETCHES PUSHED FROM L2C: 0
L1I TOTAL     ACCESS:   37944056  HIT:   37943942  MISS:        114  HIT %:    99.9997  MISS %: 0.000300442   MPKI: 0.00057
L1I LOAD      ACCESS:   37944056  HIT:   37943942  MISS:        114  HIT %:    99.9997  MISS %: 0.000300442   MPKI: 0.00057
L1I PREFETCH  REQUESTED:          0  ISSUED:          0  USEFUL:          0  USELESS:          0
L1I USEFUL LOAD PREFETCHES:          0 PREFETCH ISSUED TO LOWER LEVEL:          0  ACCURACY: -nan
L1I TIMELY PREFETCHES:          0 LATE PREFETCHES: 0 DROPPED PREFETCHES: 0
L1I PREFETCHES SAME FILL-ORIGIN LEVEL: 0 DIFFERENT FILL-ORIGIN LEVEL: 0
L1I AVERAGE MISS LATENCY: 298.754 cycles
L1I RQ	ACCESS:   58371460	FORWARD:          0	MERGED:   20417770	TO_CACHE:   37953690

BTB TOTAL     ACCESS:   35701368  HIT:   35696773  MISS:       4595  HIT %:    99.9871  MISS %:  0.0128707   MPKI: 0.022975
BTB BRANCH_DIRECT_JUMP	ACCESS:      26872  HIT:      26845  MISS:         27
BTB BRANCH_INDIRECT	ACCESS:          0  HIT:          0  MISS:          0
BTB BRANCH_CONDITIONAL	ACCESS:   35665518  HIT:   35665420  MISS:         98
BTB BRANCH_DIRECT_CALL	ACCESS:       4489  HIT:       4469  MISS:         20
BTB BRANCH_INDIRECT_CALL	ACCESS:          0  HIT:          0  MISS:          0
BTB BRANCH_RETURN	ACCESS:       4489  HIT:         39  MISS:       4450
BTB BRANCH_OTHER ACCESS:          0  HIT:          0  MISS:          0

L2C TOTAL     ACCESS:   43669130  HIT:   39386459  MISS:    4282671  HIT %:    90.1929  MISS %:    9.80709   MPKI: 21.4134
L2C LOAD      ACCESS:    4122202  HIT:    3639480  MISS:     482722  HIT %:    88.2897  MISS %:    11.7103   MPKI: 2.41361
L2C DATA LOAD MPKI: 2.41304
L2C INSTRUCTION LOAD MPKI: 0.00057
L2C RFO       ACCESS:      87819  HIT:      66649  MISS:      21170  HIT %:    75.8936  MISS %:    24.1064   MPKI: 0.10585
L2C PREFETCH  ACCESS:   35605194  HIT:   31987229  MISS:    3617965  HIT %:    89.8387  MISS %:    10.1613   MPKI: 18.0898
L2C DATA PREFETCH MPKI: 18.0898
L2C INSTRUCTION PREFETCH MPKI: 0
L2C WRITEBACK ACCESS:    1911551  HIT:    1825529  MISS:      86022  HIT %:    95.4999  MISS %:    4.50012   MPKI: 0.43011
L2C LOAD TRANSLATION ACCESS:     165410  HIT:     155249  MISS:      10161  HIT %:    93.8571  MISS %:    6.14292   MPKI: 0.050805
L2C TRANSLATION FROM L1D PREFETCHER ACCESS:    1776954  HIT:    1712323  MISS:      64631  HIT %:    96.3628  MISS %:    3.63718   MPKI: 0.323155
L2C PREFETCH  REQUESTED:          0  ISSUED:          0  USEFUL:    1664406  USELESS:    2018084
L2C USEFUL LOAD PREFETCHES:    1664406 PREFETCH ISSUED TO LOWER LEVEL:    3660204  ACCURACY: 45.473
L2C TIMELY PREFETCHES:    1664406 LATE PREFETCHES: 41554 DROPPED PREFETCHES: 0
L2C PREFETCHES SAME FILL-ORIGIN LEVEL: 3301552 DIFFERENT FILL-ORIGIN LEVEL: 0
L2C AVERAGE MISS LATENCY: 81.2676 cycles
L2C RQ	ACCESS:    6154457	FORWARD:          0	MERGED:          0	TO_CACHE:    6153959
L2C WQ	ACCESS:    1911930	FORWARD:       8581	MERGED:          0	TO_CACHE:    1911930
L2C PQ	ACCESS:   36215124	FORWARD:          0	MERGED:       8997	TO_CACHE:   36198044

L2C Instructions Evicting Data 113
L2C Translations Evicting Data 73167
L2C Data Evicting Data 4050979
L2C Instructions Evicting Instructions 0
L2C Translations Evicting Instructions 6
L2C Data Evicting Instructions 105
L2C Instructions Evicting Translations 1
L2C Translations Evicting Translations 1635
L2C Data Evicting Translations 71451
L2C Dense regions hint from L2: 0
PSCL5 TOTAL     ACCESS:    1942341  HIT:    1942341  MISS:          0  HIT %:        100  MISS %:          0   MPKI: 0
PSCL5 LOAD TRANSLATION ACCESS:     165404  HIT:     165404  MISS:          0  HIT %:        100  MISS %:          0   MPKI: 0
PSCL5 TRANSLATION FROM L1D PREFETCHER ACCESS:    1776937  HIT:    1776937  MISS:          0  HIT %:        100  MISS %:          0   MPKI: 0
PSCL5 PREFETCH  REQUESTED:          0  ISSUED:          0  USEFUL:          0  USELESS:          0
PSCL5 USEFUL LOAD PREFETCHES:          0 PREFETCH ISSUED TO LOWER LEVEL:          0  ACCURACY: -nan
PSCL5 TIMELY PREFETCHES:          0 LATE PREFETCHES: 0 DROPPED PREFETCHES: 0
PSCL5 PREFETCHES SAME FILL-ORIGIN LEVEL: 0 DIFFERENT FILL-ORIGIN LEVEL: 0

PSCL4 TOTAL     ACCESS:    1942341  HIT:    1942341  MISS:          0  HIT %:        100  MISS %:          0   MPKI: 0
PSCL4 LOAD TRANSLATION ACCESS:     165404  HIT:     165404  MISS:          0  HIT %:        100  MISS %:          0   MPKI: 0
PSCL4 TRANSLATION FROM L1D PREFETCHER ACCESS:    1776937  HIT:    1776937  MISS:          0  HIT %:        100  MISS %:          0   MPKI: 0
PSCL4 PREFETCH  REQUESTED:          0  ISSUED:          0  USEFUL:          0  USELESS:          0
PSCL4 USEFUL LOAD PREFETCHES:          0 PREFETCH ISSUED TO LOWER LEVEL:          0  ACCURACY: -nan
PSCL4 TIMELY PREFETCHES:          0 LATE PREFETCHES: 0 DROPPED PREFETCHES: 0
PSCL4 PREFETCHES SAME FILL-ORIGIN LEVEL: 0 DIFFERENT FILL-ORIGIN LEVEL: 0

PSCL3 TOTAL     ACCESS:    1942341  HIT:    1942341  MISS:          0  HIT %:        100  MISS %:          0   MPKI: 0
PSCL3 LOAD TRANSLATION ACCESS:     165404  HIT:     165404  MISS:          0  HIT %:        100  MISS %:          0   MPKI: 0
PSCL3 TRANSLATION FROM L1D PREFETCHER ACCESS:    1776937  HIT:    1776937  MISS:          0  HIT %:        100  MISS %:          0   MPKI: 0
PSCL3 PREFETCH  REQUESTED:          0  ISSUED:          0  USEFUL:          0  USELESS:          0
PSCL3 USEFUL LOAD PREFETCHES:          0 PREFETCH ISSUED TO LOWER LEVEL:          0  ACCURACY: -nan
PSCL3 TIMELY PREFETCHES:          0 LATE PREFETCHES: 0 DROPPED PREFETCHES: 0
PSCL3 PREFETCHES SAME FILL-ORIGIN LEVEL: 0 DIFFERENT FILL-ORIGIN LEVEL: 0

PSCL2 TOTAL     ACCESS:    1940971  HIT:    1940951  MISS:         20  HIT %:     99.999  MISS %: 0.00103041   MPKI: 0.0001
PSCL2 LOAD TRANSLATION ACCESS:     165405  HIT:     165385  MISS:         20  HIT %:    99.9879  MISS %:  0.0120915   MPKI: 0.0001
PSCL2 TRANSLATION FROM L1D PREFETCHER ACCESS:    1775566  HIT:    1775566  MISS:          0  HIT %:        100  MISS %:          0   MPKI: 0
PSCL2 PREFETCH  REQUESTED:          0  ISSUED:          0  USEFUL:          0  USELESS:          0
PSCL2 USEFUL LOAD PREFETCHES:          0 PREFETCH ISSUED TO LOWER LEVEL:          0  ACCURACY: -nan
PSCL2 TIMELY PREFETCHES:          0 LATE PREFETCHES: 0 DROPPED PREFETCHES: 0
PSCL2 PREFETCHES SAME FILL-ORIGIN LEVEL: 0 DIFFERENT FILL-ORIGIN LEVEL: 0

LLC TOTAL     ACCESS:    5196244  HIT:    4528587  MISS:     667657  HIT %:    87.1512  MISS %:    12.8488   MPKI: 3.33828
LLC LOAD      ACCESS:     441106  HIT:     308517  MISS:     132589  HIT %:    69.9417  MISS %:    30.0583   MPKI: 0.662945
LLC RFO       ACCESS:      21169  HIT:      20640  MISS:        529  HIT %:    97.5011  MISS %:    2.49894   MPKI: 0.002645
LLC PREFETCH  ACCESS:    3658082  HIT:    3147175  MISS:     510907  HIT %:    86.0335  MISS %:    13.9665   MPKI: 2.55454
LLC WRITEBACK ACCESS:    1001095  HIT:     980876  MISS:      20219  HIT %:    97.9803  MISS %:    2.01969   MPKI: 0.101095
LLC LOAD TRANSLATION ACCESS:      10161  HIT:       9158  MISS:       1003  HIT %:    90.1289  MISS %:    9.87108   MPKI: 0.005015
LLC TRANSLATION FROM L1D PREFETCHER ACCESS:      64631  HIT:      62221  MISS:       2410  HIT %:    96.2711  MISS %:    3.72886   MPKI: 0.01205
LLC PREFETCH  REQUESTED:          0  ISSUED:          0  USEFUL:     388279  USELESS:    1650075
LLC USEFUL LOAD PREFETCHES:     388279 PREFETCH ISSUED TO LOWER LEVEL:    2041558  ACCURACY: 19.0188
LLC TIMELY PREFETCHES:     388279 LATE PREFETCHES: 0 DROPPED PREFETCHES: 0
LLC PREFETCHES SAME FILL-ORIGIN LEVEL: 0 DIFFERENT FILL-ORIGIN LEVEL: 0
LLC AVERAGE MISS LATENCY: 1399.95 cycles
LLC RQ	ACCESS:    2131463	FORWARD:          0	MERGED:          0	TO_CACHE:    2131161
LLC WQ	ACCESS:    4026270	FORWARD:       6345	MERGED:          3	TO_CACHE:    4026267
LLC PQ	ACCESS:   14644663	FORWARD:          0	MERGED:          0	TO_CACHE:   14638620

LLC Dense regions hint to LLC: 0

RAW hits: 689217
Loads Generated: 60616563
Loads sent to L1D: 59927346
Stores Generated: 8504457
Stores sent to L1D: 8504457
Major fault: 0 Minor fault: 5974
Allocated PAGES: 23896

CPU 2 cumulative IPC: 0.508845 instructions: 200000001 cycles: 393047035
ITLB TOTAL     ACCESS:   34480556  HIT:   34480548  MISS:          8  HIT %:        100  MISS %: 2.32015e-05   MPKI: 4e-05
ITLB LOAD TRANSLATION ACCESS:   34480556  HIT:   34480548  MISS:          8  HIT %:        100  MISS %: 2.32015e-05   MPKI: 4e-05
ITLB PREFETCH  REQUESTED:          0  ISSUED:          0  USEFUL:          0  USELESS:          0
ITLB USEFUL LOAD PREFETCHES:          0 PREFETCH ISSUED TO LOWER LEVEL:          0  ACCURACY: -nan
ITLB TIMELY PREFETCHES:          0 LATE PREFETCHES: 0 DROPPED PREFETCHES: 0
ITLB PREFETCHES SAME FILL-ORIGIN LEVEL: 0 DIFFERENT FILL-ORIGIN LEVEL: 0
ITLB AVERAGE MISS LATENCY: 635.625 cycles
ITLB RQ	ACCESS:   37947729	FORWARD:          0	MERGED:    3463857	TO_CACHE:   34483872

DTLB TOTAL     ACCESS:   42755954  HIT:   38033698  MISS:    4722256  HIT %:    88.9553  MISS %:    11.0447   MPKI: 23.6113
DTLB LOAD TRANSLATION ACCESS:   42755954  HIT:   38033698  MISS:    4722256  HIT %:    88.9553  MISS %:    11.0447   MPKI: 23.6113
DTLB PREFETCH  REQUESTED:          0  ISSUED:          0  USEFUL:          0  USELESS:          0
DTLB USEFUL LOAD PREFETCHES:          0 PREFETCH ISSUED TO LOWER LEVEL:          0  ACCURACY: -nan
DTLB TIMELY PREFETCHES:          0 LATE PREFETCHES: 0 DROPPED PREFETCHES: 0
DTLB PREFETCHES SAME FILL-ORIGIN LEVEL: 0 DIFFERENT FILL-ORIGIN LEVEL: 0
DTLB AVERAGE MISS LATENCY: 10.0305 cycles
DTLB RQ	ACCESS:   46868965	FORWARD:          0	MERGED:    4065234	TO_CACHE:   42803731

STLB TOTAL     ACCESS:   49948960  HIT:   48138182  MISS:    1810778  HIT %:    96.3747  MISS %:    3.62526   MPKI: 9.05389
STLB LOAD TRANSLATION ACCESS:    4722264  HIT:    4551400  MISS:     170864  HIT %:    96.3817  MISS %:    3.61826   MPKI: 0.85432
STLB TRANSLATION FROM L1D PREFETCHER ACCESS:   45226696  HIT:   43586782  MISS:    1639914  HIT %:     96.374  MISS %:    3.62599   MPKI: 8.19957
STLB PREFETCH  REQUESTED:          0  ISSUED:          0  USEFUL:    1568577  USELESS:      71544
STLB USEFUL LOAD PREFETCHES:    1568577 PREFETCH ISSUED TO LOWER LEVEL:          0  ACCURACY: inf
STLB TIMELY PREFETCHES:    1568577 LATE PREFETCHES: 5125 DROPPED PREFETCHES: 126055
STLB PREFETCHES SAME FILL-ORIGIN LEVEL: 0 DIFFERENT FILL-ORIGIN LEVEL: 0
STLB AVERAGE MISS LATENCY: 30.462 cycles
STLB RQ	ACCESS:   62297564	FORWARD:          0	MERGED:   12206478	TO_CACHE:   50091086

STLB Hit, L1D data hit: 0
STLB Hit, L2C data hit: 0
STLB Hit, LLC data hit: 0
STLB Hit, LLC data miss: 0
STLB STLB hints to L2: 0
L1D TOTAL     ACCESS:   69777398  HIT:   63403128  MISS:    6374270  HIT %:    90.8648  MISS %:    9.13515   MPKI: 31.8713
L1D LOAD      ACCESS:   38189834  HIT:   34045181  MISS:    4144653  HIT %:    89.1472  MISS %:    10.8528   MPKI: 20.7233
L1D RFO       ACCESS:    8491249  HIT:    8403263  MISS:      87986  HIT %:    98.9638  MISS %:     1.0362   MPKI: 0.43993
L1D PREFETCH  ACCESS:   23096315  HIT:   20954684  MISS:    2141631  HIT %:    90.7274  MISS %:    9.27261   MPKI: 10.7082
L1D PREFETCH  REQUESTED:  132215108  ISSUED:  126930445  USEFUL:    1574842  USELESS:     566936
L1D USEFUL LOAD PREFETCHES:    1574842 PREFETCH ISSUED TO LOWER LEVEL:   36193246  ACCURACY: 4.3512
L1D TIMELY PREFETCHES:    1574842 LATE PREFETCHES: 25846 DROPPED PREFETCHES: 129972
L1D PREFETCHES SAME FILL-ORIGIN LEVEL: 2167617 DIFFERENT FILL-ORIGIN LEVEL: 34025629
L1D AVERAGE MISS LATENCY: 25.2522 cycles
L1D RQ	ACCESS:   59933028	FORWARD:          0	MERGED:   21539607	TO_CACHE:   38366612
L1D WQ	ACCESS:    8505174	FORWARD:      28894	MERGED:       2821	TO_CACHE:    8502353
L1D PQ	ACCESS:   69355488	FORWARD:          0	MERGED:   11778446	TO_CACHE:   57574957

L1D UNIQUE REGIONS ACCESSED: 0
L1D REGIONS CONFLICTS: 0
L1D Cross Page Prefetch Requests: 60263347
L1D Same Page Prefetch Requests: 21042910
L1D ROI Sum of L1D PQ occupancy: 951967277
L1D PREFETCHES PUSHED FROM L2C: 0
L1I TOTAL     ACCESS:   37944060  HIT:   37943946  MISS:        114  HIT %:    99.9997  MISS %: 0.000300442   MPKI: 0.00057
L1I LOAD      ACCESS:   37944060  HIT:   37943946  MISS:        114  HIT %:    99.9997  MISS %: 0.000300442   MPKI: 0.00057
L1I PREFETCH  REQUESTED:          0  ISSUED:          0  USEFUL:          0  USELESS:          0
L1I USEFUL LOAD PREFETCHES:          0 PREFETCH ISSUED TO LOWER LEVEL:          0  ACCURACY: -nan
L1I TIMELY PREFETCHES:          0 LATE PREFETCHES: 0 DROPPED PREFETCHES: 0
L1I PREFETCHES SAME FILL-ORIGIN LEVEL: 0 DIFFERENT FILL-ORIGIN LEVEL: 0
L1I AVERAGE MISS LATENCY: 351.64 cycles
L1I RQ	ACCESS:   58362523	FORWARD:          0	MERGED:   20414794	TO_CACHE:   37947729

BTB TOTAL     ACCESS:   35701366  HIT:   35696778  MISS:       4588  HIT %:    99.9871  MISS %:   0.012851   MPKI: 0.02294
BTB BRANCH_DIRECT_JUMP	ACCESS:      26872  HIT:      26845  MISS:         27
BTB BRANCH_INDIRECT	ACCESS:          0  HIT:          0  MISS:          0
BTB BRANCH_CONDITIONAL	ACCESS:   35665516  HIT:   35665425  MISS:         91
BTB BRANCH_DIRECT_CALL	ACCESS:       4489  HIT:       4469  MISS:         20
BTB BRANCH_INDIRECT_CALL	ACCESS:          0  HIT:          0  MISS:          0
BTB BRANCH_RETURN	ACCESS:       4489  HIT:         39  MISS:       4450
BTB BRANCH_OTHER ACCESS:          0  HIT:          0  MISS:          0

L2C TOTAL     ACCESS:   43646101  HIT:   39421798  MISS:    4224303  HIT %:    90.3215  MISS %:    9.67853   MPKI: 21.1215
L2C LOAD      ACCESS:    4118508  HIT:    3639266  MISS:     479242  HIT %:    88.3637  MISS %:    11.6363   MPKI: 2.39621
L2C DATA LOAD MPKI: 2.39564
L2C INSTRUCTION LOAD MPKI: 0.00057
L2C RFO       ACCESS:      87912  HIT:      69556  MISS:      18356  HIT %:      79.12  MISS %:      20.88   MPKI: 0.09178
L2C PREFETCH  ACCESS:   35591005  HIT:   32015003  MISS:    3576002  HIT %:    89.9525  MISS %:    10.0475   MPKI: 17.88
L2C DATA PREFETCH MPKI: 17.88
L2C INSTRUCTION PREFETCH MPKI: 0
L2C WRITEBACK ACCESS:    1911813  HIT:    1833373  MISS:      78440  HIT %:    95.8971  MISS %:    4.10291   MPKI: 0.3922
L2C LOAD TRANSLATION ACCESS:     165748  HIT:     156011  MISS:       9737  HIT %:    94.1254  MISS %:    5.87458   MPKI: 0.048685
L2C TRANSLATION FROM L1D PREFETCHER ACCESS:    1771115  HIT:    1708589  MISS:      62526  HIT %:    96.4697  MISS %:    3.53032   MPKI: 0.31263
L2C PREFETCH  REQUESTED:          0  ISSUED:          0  USEFUL:    1652195  USELESS:    1985894
L2C USEFUL LOAD PREFETCHES:    1652195 PREFETCH ISSUED TO LOWER LEVEL:    3617894  ACCURACY: 45.6673
L2C TIMELY PREFETCHES:    1652195 LATE PREFETCHES: 41635 DROPPED PREFETCHES: 0
L2C PREFETCHES SAME FILL-ORIGIN LEVEL: 3261273 DIFFERENT FILL-ORIGIN LEVEL: 0
L2C AVERAGE MISS LATENCY: 81.7061 cycles
L2C RQ	ACCESS:    6144365	FORWARD:          0	MERGED:          0	TO_CACHE:    6143877
L2C WQ	ACCESS:    1911942	FORWARD:       8455	MERGED:          0	TO_CACHE:    1911942
L2C PQ	ACCESS:   36191925	FORWARD:          0	MERGED:       9051	TO_CACHE:   36174907

L2C Instructions Evicting Data 112
L2C Translations Evicting Data 70888
L2C Data Evicting Data 4004083
L2C Instructions Evicting Instructions 0
L2C Translations Evicting Instructions 5
L2C Data Evicting Instructions 109
L2C Instructions Evicting Translations 2
L2C Translations Evicting Translations 1380
L2C Data Evicting Translations 69589
L2C Dense regions hint from L2: 0
PSCL5 TOTAL     ACCESS:    1936835  HIT:    1936835  MISS:          0  HIT %:        100  MISS %:          0   MPKI: 0
PSCL5 LOAD TRANSLATION ACCESS:     165743  HIT:     165743  MISS:          0  HIT %:        100  MISS %:          0   MPKI: 0
PSCL5 TRANSLATION FROM L1D PREFETCHER ACCESS:    1771092  HIT:    1771092  MISS:          0  HIT %:        100  MISS %:          0   MPKI: 0
PSCL5 PREFETCH  REQUESTED:          0  ISSUED:          0  USEFUL:          0  USELESS:          0
PSCL5 USEFUL LOAD PREFETCHES:          0 PREFETCH ISSUED TO LOWER LEVEL:          0  ACCURACY: -nan
PSCL5 TIMELY PREFETCHES:          0 LATE PREFETCHES: 0 DROPPED PREFETCHES: 0
PSCL5 PREFETCHES SAME FILL-ORIGIN LEVEL: 0 DIFFERENT FILL-ORIGIN LEVEL: 0

PSCL4 TOTAL     ACCESS:    1936835  HIT:    1936835  MISS:          0  HIT %:        100  MISS %:          0   MPKI: 0
PSCL4 LOAD TRANSLATION ACCESS:     165743  HIT:     165743  MISS:          0  HIT %:        100  MISS %:          0   MPKI: 0
PSCL4 TRANSLATION FROM L1D PREFETCHER ACCESS:    1771092  HIT:    1771092  MISS:          0  HIT %:        100  MISS %:          0   MPKI: 0
PSCL4 PREFETCH  REQUESTED:          0  ISSUED:          0  USEFUL:          0  USELESS:          0
PSCL4 USEFUL LOAD PREFETCHES:          0 PREFETCH ISSUED TO LOWER LEVEL:          0  ACCURACY: -nan
PSCL4 TIMELY PREFETCHES:          0 LATE PREFETCHES: 0 DROPPED PREFETCHES: 0
PSCL4 PREFETCHES SAME FILL-ORIGIN LEVEL: 0 DIFFERENT FILL-ORIGIN LEVEL: 0

PSCL3 TOTAL     ACCESS:    1936835  HIT:    1936835  MISS:          0  HIT %:        100  MISS %:          0   MPKI: 0
PSCL3 LOAD TRANSLATION ACCESS:     165743  HIT:     165743  MISS:          0  HIT %:        100  MISS %:          0   MPKI: 0
PSCL3 TRANSLATION FROM L1D PREFETCHER ACCESS:    1771092  HIT:    1771092  MISS:          0  HIT %:        100  MISS %:          0   MPKI: 0
PSCL3 PREFETCH  REQUESTED:          0  ISSUED:          0  USEFUL:          0  USELESS:          0
PSCL3 USEFUL LOAD PREFETCHES:          0 PREFETCH ISSUED TO LOWER LEVEL:          0  ACCURACY: -nan
PSCL3 TIMELY PREFETCHES:          0 LATE PREFETCHES: 0 DROPPED PREFETCHES: 0
PSCL3 PREFETCHES SAME FILL-ORIGIN LEVEL: 0 DIFFERENT FILL-ORIGIN LEVEL: 0

PSCL2 TOTAL     ACCESS:    1935628  HIT:    1935608  MISS:         20  HIT %:     99.999  MISS %: 0.00103326   MPKI: 0.0001
PSCL2 LOAD TRANSLATION ACCESS:     165745  HIT:     165725  MISS:         20  HIT %:    99.9879  MISS %:  0.0120667   MPKI: 0.0001
PSCL2 TRANSLATION FROM L1D PREFETCHER ACCESS:    1769883  HIT:    1769883  MISS:          0  HIT %:        100  MISS %:          0   MPKI: 0
PSCL2 PREFETCH  REQUESTED:          0  ISSUED:          0  USEFUL:          0  USELESS:          0
PSCL2 USEFUL LOAD PREFETCHES:          0 PREFETCH ISSUED TO LOWER LEVEL:          0  ACCURACY: -nan
PSCL2 TIMELY PREFETCHES:          0 LATE PREFETCHES: 0 DROPPED PREFETCHES: 0
PSCL2 PREFETCHES SAME FILL-ORIGIN LEVEL: 0 DIFFERENT FILL-ORIGIN LEVEL: 0

LLC TOTAL     ACCESS:    5139052  HIT:    4472905  MISS:     666147  HIT %:    87.0376  MISS %:    12.9624   MPKI: 3.33073
LLC LOAD      ACCESS:     437535  HIT:     304629  MISS:     132906  HIT %:    69.6239  MISS %:    30.3761   MPKI: 0.66453
LLC RFO       ACCESS:      18354  HIT:      17807  MISS:        547  HIT %:    97.0197  MISS %:    2.98028   MPKI: 0.002735
LLC PREFETCH  ACCESS:    3616094  HIT:    3106904  MISS:     509190  HIT %:    85.9188  MISS %:    14.0812   MPKI: 2.54595
LLC WRITEBACK ACCESS:     994806  HIT:     974709  MISS:      20097  HIT %:    97.9798  MISS %:    2.02019   MPKI: 0.100485
LLC LOAD TRANSLATION ACCESS:       9737  HIT:       8750  MISS:        987  HIT %:    89.8634  MISS %:    10.1366   MPKI: 0.004935
LLC TRANSLATION FROM L1D PREFETCHER ACCESS:      62526  HIT:      60106  MISS:       2420  HIT %:    96.1296  MISS %:    3.87039   MPKI: 0.0121
LLC PREFETCH  REQUESTED:          0  ISSUED:          0  USEFUL:     388279  USELESS:    1650075
LLC USEFUL LOAD PREFETCHES:     388279 PREFETCH ISSUED TO LOWER LEVEL:    2041558  ACCURACY: 19.0188
LLC TIMELY PREFETCHES:     388279 LATE PREFETCHES: 0 DROPPED PREFETCHES: 0
LLC PREFETCHES SAME FILL-ORIGIN LEVEL: 0 DIFFERENT FILL-ORIGIN LEVEL: 0
LLC AVERAGE MISS LATENCY: 1403.12 cycles
LLC RQ	ACCESS:    2131463	FORWARD:          0	MERGED:          0	TO_CACHE:    2131161
LLC WQ	ACCESS:    4026270	FORWARD:       6345	MERGED:          3	TO_CACHE:    4026267
LLC PQ	ACCESS:   14644663	FORWARD:          0	MERGED:          0	TO_CACHE:   14638620

LLC Dense regions hint to LLC: 0

RAW hits: 689052
Loads Generated: 60616556
Loads sent to L1D: 59927504
Stores Generated: 8504466
Stores sent to L1D: 8504466
Major fault: 0 Minor fault: 5974
Allocated PAGES: 23896

CPU 3 cumulative IPC: 0.508797 instructions: 200000001 cycles: 393083847
ITLB TOTAL     ACCESS:   34480511  HIT:   34480503  MISS:          8  HIT %:        100  MISS %: 2.32015e-05   MPKI: 4e-05
ITLB LOAD TRANSLATION ACCESS:   34480511  HIT:   34480503  MISS:          8  HIT %:        100  MISS %: 2.32015e-05   MPKI: 4e-05
ITLB PREFETCH  REQUESTED:          0  ISSUED:          0  USEFUL:          0  USELESS:          0
ITLB USEFUL LOAD PREFETCHES:          0 PREFETCH ISSUED TO LOWER LEVEL:          0  ACCURACY: -nan
ITLB TIMELY PREFETCHES:          0 LATE PREFETCHES: 0 DROPPED PREFETCHES: 0
ITLB PREFETCHES SAME FILL-ORIGIN LEVEL: 0 DIFFERENT FILL-ORIGIN LEVEL: 0
ITLB AVERAGE MISS LATENCY: 345 cycles
ITLB RQ	ACCESS:   37944027	FORWARD:          0	MERGED:    3463514	TO_CACHE:   34480513

DTLB TOTAL     ACCESS:   42756168  HIT:   38033919  MISS:    4722249  HIT %:    88.9554  MISS %:    11.0446   MPKI: 23.6112
DTLB LOAD TRANSLATION ACCESS:   42756168  HIT:   38033919  MISS:    4722249  HIT %:    88.9554  MISS %:    11.0446   MPKI: 23.6112
DTLB PREFETCH  REQUESTED:          0  ISSUED:          0  USEFUL:          0  USELESS:          0
DTLB USEFUL LOAD PREFETCHES:          0 PREFETCH ISSUED TO LOWER LEVEL:          0  ACCURACY: -nan
DTLB TIMELY PREFETCHES:          0 LATE PREFETCHES: 0 DROPPED PREFETCHES: 0
DTLB PREFETCHES SAME FILL-ORIGIN LEVEL: 0 DIFFERENT FILL-ORIGIN LEVEL: 0
DTLB AVERAGE MISS LATENCY: 10.0306 cycles
DTLB RQ	ACCESS:   46864430	FORWARD:          0	MERGED:    4064439	TO_CACHE:   42799991

STLB TOTAL     ACCESS:   49898478  HIT:   48087076  MISS:    1811402  HIT %:    96.3698  MISS %:    3.63017   MPKI: 9.05701
STLB LOAD TRANSLATION ACCESS:    4722258  HIT:    4551383  MISS:     170875  HIT %:    96.3815  MISS %:     3.6185   MPKI: 0.854375
STLB TRANSLATION FROM L1D PREFETCHER ACCESS:   45176220  HIT:   43535693  MISS:    1640527  HIT %:    96.3686  MISS %:     3.6314   MPKI: 8.20263
STLB PREFETCH  REQUESTED:          0  ISSUED:          0  USEFUL:    1567912  USELESS:      72593
STLB USEFUL LOAD PREFETCHES:    1567912 PREFETCH ISSUED TO LOWER LEVEL:          0  ACCURACY: inf
STLB TIMELY PREFETCHES:    1567912 LATE PREFETCHES: 5135 DROPPED PREFETCHES: 126625
STLB PREFETCHES SAME FILL-ORIGIN LEVEL: 0 DIFFERENT FILL-ORIGIN LEVEL: 0
STLB AVERAGE MISS LATENCY: 30.1631 cycles
STLB RQ	ACCESS:   62175751	FORWARD:          0	MERGED:   12140075	TO_CACHE:   50035676

STLB Hit, L1D data hit: 0
STLB Hit, L2C data hit: 0
STLB Hit, LLC data hit: 0
STLB Hit, LLC data miss: 0
STLB STLB hints to L2: 0
L1D TOTAL     ACCESS:   69689681  HIT:   63317532  MISS:    6372149  HIT %:    90.8564  MISS %:     9.1436   MPKI: 31.8607
L1D LOAD      ACCESS:   38189361  HIT:   34041104  MISS:    4148257  HIT %:    89.1377  MISS %:    10.8623   MPKI: 20.7413
L1D RFO       ACCESS:    8490814  HIT:    8402821  MISS:      87993  HIT %:    98.9637  MISS %:    1.03633   MPKI: 0.439965
L1D PREFETCH  ACCESS:   23009506  HIT:   20873607  MISS:    2135899  HIT %:    90.7173  MISS %:    9.28268   MPKI: 10.6795
L1D PREFETCH  REQUESTED:  131908645  ISSUED:  126662705  USEFUL:    1570798  USELESS:     565091
L1D USEFUL LOAD PREFETCHES:    1570798 PREFETCH ISSUED TO LOWER LEVEL:   36151404  ACCURACY: 4.34505
L1D TIMELY PREFETCHES:    1570798 LATE PREFETCHES: 26153 DROPPED PREFETCHES: 131903
L1D PREFETCHES SAME FILL-ORIGIN LEVEL: 2162270 DIFFERENT FILL-ORIGIN LEVEL: 33989134
L1D AVERAGE MISS LATENCY: 25.3349 cycles
L1D RQ	ACCESS:   59927138	FORWARD:          0	MERGED:   21537682	TO_CACHE:   38362795
L1D WQ	ACCESS:    8504456	FORWARD:      28704	MERGED:       2821	TO_CACHE:    8501635
L1D PQ	ACCESS:   69209212	FORWARD:          0	MERGED:   11753676	TO_CACHE:   57453493

L1D UNIQUE REGIONS ACCESSED: 0
L1D REGIONS CONFLICTS: 0
L1D Cross Page Prefetch Requests: 60228482
L1D Same Page Prefetch Requests: 20933242
L1D ROI Sum of L1D PQ occupancy: 948186938
L1D PREFETCHES PUSHED FROM L2C: 0
L1I TOTAL     ACCESS:   37944005  HIT:   37943891  MISS:        114  HIT %:    99.9997  MISS %: 0.000300443   MPKI: 0.00057
L1I LOAD      ACCESS:   37944005  HIT:   37943891  MISS:        114  HIT %:    99.9997  MISS %: 0.000300443   MPKI: 0.00057
L1I PREFETCH  REQUESTED:          0  ISSUED:          0  USEFUL:          0  USELESS:          0
L1I USEFUL LOAD PREFETCHES:          0 PREFETCH ISSUED TO LOWER LEVEL:          0  ACCURACY: -nan
L1I TIMELY PREFETCHES:          0 LATE PREFETCHES: 0 DROPPED PREFETCHES: 0
L1I PREFETCHES SAME FILL-ORIGIN LEVEL: 0 DIFFERENT FILL-ORIGIN LEVEL: 0
L1I AVERAGE MISS LATENCY: 332.904 cycles
L1I RQ	ACCESS:   58356971	FORWARD:          0	MERGED:   20412944	TO_CACHE:   37944027

BTB TOTAL     ACCESS:   35701299  HIT:   35696694  MISS:       4605  HIT %:    99.9871  MISS %:  0.0128987   MPKI: 0.023025
BTB BRANCH_DIRECT_JUMP	ACCESS:      26872  HIT:      26845  MISS:         27
BTB BRANCH_INDIRECT	ACCESS:          0  HIT:          0  MISS:          0
BTB BRANCH_CONDITIONAL	ACCESS:   35665449  HIT:   35665341  MISS:        108
BTB BRANCH_DIRECT_CALL	ACCESS:       4489  HIT:       4469  MISS:         20
BTB BRANCH_INDIRECT_CALL	ACCESS:          0  HIT:          0  MISS:          0
BTB BRANCH_RETURN	ACCESS:       4489  HIT:         39  MISS:       4450
BTB BRANCH_OTHER ACCESS:          0  HIT:          0  MISS:          0

L2C TOTAL     ACCESS:   43610310  HIT:   39314073  MISS:    4296237  HIT %:    90.1486  MISS %:    9.85143   MPKI: 21.4812
L2C LOAD      ACCESS:    4121780  HIT:    3636746  MISS:     485034  HIT %:    88.2324  MISS %:    11.7676   MPKI: 2.42517
L2C DATA LOAD MPKI: 2.4246
L2C INSTRUCTION LOAD MPKI: 0.00057
L2C RFO       ACCESS:      87912  HIT:      68265  MISS:      19647  HIT %:    77.6515  MISS %:    22.3485   MPKI: 0.098235
L2C PREFETCH  ACCESS:   35550772  HIT:   31916019  MISS:    3634753  HIT %:    89.7759  MISS %:    10.2241   MPKI: 18.1738
L2C DATA PREFETCH MPKI: 18.1738
L2C INSTRUCTION PREFETCH MPKI: 0
L2C WRITEBACK ACCESS:    1911795  HIT:    1823544  MISS:      88251  HIT %:    95.3839  MISS %:    4.61613   MPKI: 0.441255
L2C LOAD TRANSLATION ACCESS:     165748  HIT:     156296  MISS:       9452  HIT %:    94.2974  MISS %:    5.70263   MPKI: 0.04726
L2C TRANSLATION FROM L1D PREFETCHER ACCESS:    1772303  HIT:    1713203  MISS:      59100  HIT %:    96.6654  MISS %:    3.33464   MPKI: 0.2955
L2C PREFETCH  REQUESTED:          0  ISSUED:          0  USEFUL:    1665380  USELESS:    2027602
L2C USEFUL LOAD PREFETCHES:    1665380 PREFETCH ISSUED TO LOWER LEVEL:    3676584  ACCURACY: 45.2969
L2C TIMELY PREFETCHES:    1665380 LATE PREFETCHES: 41828 DROPPED PREFETCHES: 0
L2C PREFETCHES SAME FILL-ORIGIN LEVEL: 3312802 DIFFERENT FILL-ORIGIN LEVEL: 0
L2C AVERAGE MISS LATENCY: 81.1023 cycles
L2C RQ	ACCESS:    6148263	FORWARD:          0	MERGED:          0	TO_CACHE:    6147744
L2C WQ	ACCESS:    1911795	FORWARD:       8405	MERGED:          0	TO_CACHE:    1911795
L2C PQ	ACCESS:   36150195	FORWARD:          0	MERGED:       8921	TO_CACHE:   36133388

L2C Instructions Evicting Data 110
L2C Translations Evicting Data 66869
L2C Data Evicting Data 4073569
L2C Instructions Evicting Instructions 1
L2C Translations Evicting Instructions 1
L2C Data Evicting Instructions 110
L2C Instructions Evicting Translations 3
L2C Translations Evicting Translations 1682
L2C Data Evicting Translations 65641
L2C Dense regions hint from L2: 0
PSCL5 TOTAL     ACCESS:    1938031  HIT:    1938031  MISS:          0  HIT %:        100  MISS %:          0   MPKI: 0
PSCL5 LOAD TRANSLATION ACCESS:     165743  HIT:     165743  MISS:          0  HIT %:        100  MISS %:          0   MPKI: 0
PSCL5 TRANSLATION FROM L1D PREFETCHER ACCESS:    1772288  HIT:    1772288  MISS:          0  HIT %:        100  MISS %:          0   MPKI: 0
PSCL5 PREFETCH  REQUESTED:          0  ISSUED:          0  USEFUL:          0  USELESS:          0
PSCL5 USEFUL LOAD PREFETCHES:          0 PREFETCH ISSUED TO LOWER LEVEL:          0  ACCURACY: -nan
PSCL5 TIMELY PREFETCHES:          0 LATE PREFETCHES: 0 DROPPED PREFETCHES: 0
PSCL5 PREFETCHES SAME FILL-ORIGIN LEVEL: 0 DIFFERENT FILL-ORIGIN LEVEL: 0

PSCL4 TOTAL     ACCESS:    1938031  HIT:    1938031  MISS:          0  HIT %:        100  MISS %:          0   MPKI: 0
PSCL4 LOAD TRANSLATION ACCESS:     165743  HIT:     165743  MISS:          0  HIT %:        100  MISS %:          0   MPKI: 0
PSCL4 TRANSLATION FROM L1D PREFETCHER ACCESS:    1772288  HIT:    1772288  MISS:          0  HIT %:        100  MISS %:          0   MPKI: 0
PSCL4 PREFETCH  REQUESTED:          0  ISSUED:          0  USEFUL:          0  USELESS:          0
PSCL4 USEFUL LOAD PREFETCHES:          0 PREFETCH ISSUED TO LOWER LEVEL:          0  ACCURACY: -nan
PSCL4 TIMELY PREFETCHES:          0 LATE PREFETCHES: 0 DROPPED PREFETCHES: 0
PSCL4 PREFETCHES SAME FILL-ORIGIN LEVEL: 0 DIFFERENT FILL-ORIGIN LEVEL: 0

PSCL3 TOTAL     ACCESS:    1938031  HIT:    1938031  MISS:          0  HIT %:        100  MISS %:          0   MPKI: 0
PSCL3 LOAD TRANSLATION ACCESS:     165743  HIT:     165743  MISS:          0  HIT %:        100  MISS %:          0   MPKI: 0
PSCL3 TRANSLATION FROM L1D PREFETCHER ACCESS:    1772288  HIT:    1772288  MISS:          0  HIT %:        100  MISS %:          0   MPKI: 0
PSCL3 PREFETCH  REQUESTED:          0  ISSUED:          0  USEFUL:          0  USELESS:          0
PSCL3 USEFUL LOAD PREFETCHES:          0 PREFETCH ISSUED TO LOWER LEVEL:          0  ACCURACY: -nan
PSCL3 TIMELY PREFETCHES:          0 LATE PREFETCHES: 0 DROPPED PREFETCHES: 0
PSCL3 PREFETCHES SAME FILL-ORIGIN LEVEL: 0 DIFFERENT FILL-ORIGIN LEVEL: 0

PSCL2 TOTAL     ACCESS:    1936740  HIT:    1936720  MISS:         20  HIT %:     99.999  MISS %: 0.00103266   MPKI: 0.0001
PSCL2 LOAD TRANSLATION ACCESS:     165745  HIT:     165725  MISS:         20  HIT %:    99.9879  MISS %:  0.0120667   MPKI: 0.0001
PSCL2 TRANSLATION FROM L1D PREFETCHER ACCESS:    1770995  HIT:    1770995  MISS:          0  HIT %:        100  MISS %:          0   MPKI: 0
PSCL2 PREFETCH  REQUESTED:          0  ISSUED:          0  USEFUL:          0  USELESS:          0
PSCL2 USEFUL LOAD PREFETCHES:          0 PREFETCH ISSUED TO LOWER LEVEL:          0  ACCURACY: -nan
PSCL2 TIMELY PREFETCHES:          0 LATE PREFETCHES: 0 DROPPED PREFETCHES: 0
PSCL2 PREFETCHES SAME FILL-ORIGIN LEVEL: 0 DIFFERENT FILL-ORIGIN LEVEL: 0

LLC TOTAL     ACCESS:    5222176  HIT:    4552688  MISS:     669488  HIT %:    87.1799  MISS %:    12.8201   MPKI: 3.34744
LLC LOAD      ACCESS:     443122  HIT:     310311  MISS:     132811  HIT %:    70.0283  MISS %:    29.9717   MPKI: 0.664055
LLC RFO       ACCESS:      19646  HIT:      19103  MISS:        543  HIT %:    97.2361  MISS %:    2.76392   MPKI: 0.002715
LLC PREFETCH  ACCESS:    3675016  HIT:    3162984  MISS:     512032  HIT %:    86.0672  MISS %:    13.9328   MPKI: 2.56016
LLC WRITEBACK ACCESS:    1015840  HIT:     995109  MISS:      20731  HIT %:    97.9592  MISS %:    2.04077   MPKI: 0.103655
LLC LOAD TRANSLATION ACCESS:       9452  HIT:       8465  MISS:        987  HIT %:    89.5578  MISS %:    10.4422   MPKI: 0.004935
LLC TRANSLATION FROM L1D PREFETCHER ACCESS:      59100  HIT:      56716  MISS:       2384  HIT %:    95.9662  MISS %:    4.03384   MPKI: 0.01192
LLC PREFETCH  REQUESTED:          0  ISSUED:          0  USEFUL:     388279  USELESS:    1650075
LLC USEFUL LOAD PREFETCHES:     388279 PREFETCH ISSUED TO LOWER LEVEL:    2041558  ACCURACY: 19.0188
LLC TIMELY PREFETCHES:     388279 LATE PREFETCHES: 0 DROPPED PREFETCHES: 0
LLC PREFETCHES SAME FILL-ORIGIN LEVEL: 0 DIFFERENT FILL-ORIGIN LEVEL: 0
LLC AVERAGE MISS LATENCY: 1396.12 cycles
LLC RQ	ACCESS:    2131463	FORWARD:          0	MERGED:          0	TO_CACHE:    2131161
LLC WQ	ACCESS:    4026270	FORWARD:       6345	MERGED:          3	TO_CACHE:    4026267
LLC PQ	ACCESS:   14644663	FORWARD:          0	MERGED:          0	TO_CACHE:   14638620

LLC Dense regions hint to LLC: 0

RAW hits: 689418
Loads Generated: 60616556
Loads sent to L1D: 59927138
Stores Generated: 8504451
Stores sent to L1D: 8504456
Major fault: 0 Minor fault: 5974
Allocated PAGES: 23896

DRAM Statistics
 CHANNEL 0
 RQ ROW_BUFFER_HIT:     340488  ROW_BUFFER_MISS:    2240672
 DBUS_CONGESTED:        632
 WQ ROW_BUFFER_HIT:     189038  ROW_BUFFER_MISS:     995194  FULL:          0

 AVG_CONGESTED_CYCLE: 5
 All warmup complete: 5
Channel 0 Bank busy for read cycles: 0
Channel 0 Bank busy for write cycles: 0
Channel 0
Rank 0
0banks busy for read cycles: 65381378
0banks busy for write cycles: 252097
1banks busy for read cycles: 142469202
1banks busy for write cycles: 39758384
2banks busy for read cycles: 63720408
2banks busy for write cycles: 23045228
3banks busy for read cycles: 19465445
3banks busy for write cycles: 13921733
4banks busy for read cycles: 4809752
4banks busy for write cycles: 8426359
5banks busy for read cycles: 1094597
5banks busy for write cycles: 5157500
6banks busy for read cycles: 236673
6banks busy for write cycles: 3036603
7banks busy for read cycles: 44956
7banks busy for write cycles: 1635655
8banks busy for read cycles: 6557
8banks busy for write cycles: 621321

CPU 0 Branch Prediction Accuracy: 84.4283% MPKI: 29.3941 Average ROB Occupancy at Mispredict: 15.0462
Branch types
NOT_BRANCH: 162527086 81.1232%
BRANCH_DIRECT_JUMP: 26872 0.0134128%
BRANCH_INDIRECT: 0 0%
BRANCH_CONDITIONAL: 37783168 18.8589%
BRANCH_DIRECT_CALL: 4493 0.00224262%
BRANCH_INDIRECT_CALL: 0 0%
BRANCH_RETURN: 4493 0.00224262%
BRANCH_OTHER: 0 0%


CPU 1 Branch Prediction Accuracy: 84.4287% MPKI: 29.3936 Average ROB Occupancy at Mispredict: 15.0471
Branch types
NOT_BRANCH: 162286088 81.1231%
BRANCH_DIRECT_JUMP: 26872 0.0134327%
BRANCH_INDIRECT: 0 0%
BRANCH_CONDITIONAL: 37727128 18.8589%
BRANCH_DIRECT_CALL: 4489 0.00224395%
BRANCH_INDIRECT_CALL: 0 0%
BRANCH_RETURN: 4489 0.00224395%
BRANCH_OTHER: 0 0%


CPU 2 Branch Prediction Accuracy: 84.4287% MPKI: 29.3936 Average ROB Occupancy at Mispredict: 15.0454
Branch types
NOT_BRANCH: 162261344 81.1231%
BRANCH_DIRECT_JUMP: 26872 0.0134348%
BRANCH_INDIRECT: 0 0%
BRANCH_CONDITIONAL: 37721390 18.8589%
BRANCH_DIRECT_CALL: 4489 0.00224429%
BRANCH_INDIRECT_CALL: 0 0%
BRANCH_RETURN: 4489 0.00224429%
BRANCH_OTHER: 0 0%


CPU 3 Branch Prediction Accuracy: 84.4288% MPKI: 29.3935 Average ROB Occupancy at Mispredict: 15.0496
Branch types
NOT_BRANCH: 162246023 81.123%
BRANCH_DIRECT_JUMP: 26872 0.013436%
BRANCH_INDIRECT: 0 0%
BRANCH_CONDITIONAL: 37717802 18.8589%
BRANCH_DIRECT_CALL: 4489 0.0022445%
BRANCH_INDIRECT_CALL: 0 0%
BRANCH_RETURN: 4489 0.0022445%
BRANCH_OTHER: 0 0%

DRAM PAGES: 1048576
Allocated PAGES: 23896
