
*** ChampSim Multicore Out-of-Order Simulator ***

Warmup Instructions: 50000000
Simulation Instructions: 200000000
Number of CPUs: 4
LLC sets: 8192
LLC ways: 16
Off-chip DRAM Size: 4096 MB Channels: 1 Width: 64-bit Data Rate: 6400 MT/s
CPU 0 runs ./traces/gap/bc-12.trace.gz
.gz
CPU 1 runs ./traces/gap/bc-12.trace.gz
.gz
CPU 2 runs ./traces/gap/bc-12.trace.gz
.gz
CPU 3 runs ./traces/gap/bc-12.trace.gz
.gz
BTB has LRU replacement policy
ITLB has LRU replacement policy
DTLB has LRU replacement policy
STLB has LRU replacement policy
L1I has LRU replacement policy
History Sets: 8
History Ways: 16
BERTI Size: 16
BERTI Stride Size: 8
L1D has LRU replacement policy
Initialize SRRIP state for L2C
Initialize DRRIP state for LLC
BTB has LRU replacement policy
ITLB has LRU replacement policy
DTLB has LRU replacement policy
STLB has LRU replacement policy
L1I has LRU replacement policy
History Sets: 8
History Ways: 16
BERTI Size: 16
BERTI Stride Size: 8
L1D has LRU replacement policy
Initialize SRRIP state for L2C
Initialize DRRIP state for LLC
BTB has LRU replacement policy
ITLB has LRU replacement policy
DTLB has LRU replacement policy
STLB has LRU replacement policy
L1I has LRU replacement policy
History Sets: 8
History Ways: 16
BERTI Size: 16
BERTI Stride Size: 8
L1D has LRU replacement policy
Initialize SRRIP state for L2C
Initialize DRRIP state for LLC
BTB has LRU replacement policy
ITLB has LRU replacement policy
DTLB has LRU replacement policy
STLB has LRU replacement policy
L1I has LRU replacement policy
History Sets: 8
History Ways: 16
BERTI Size: 16
BERTI Stride Size: 8
L1D has LRU replacement policy
Initialize SRRIP state for L2C
Initialize DRRIP state for LLC
Heartbeat CPU 0 instructions: 10000001 cycles: 3854263 heartbeat IPC: 2.59453 cumulative IPC: 2.59453 (Simulation time: 0 hr 4 min 32 sec) 
Heartbeat CPU 1 instructions: 10000001 cycles: 3856948 heartbeat IPC: 2.59272 cumulative IPC: 2.59272 (Simulation time: 0 hr 4 min 32 sec) 
Heartbeat CPU 2 instructions: 10000000 cycles: 3882187 heartbeat IPC: 2.57587 cumulative IPC: 2.57587 (Simulation time: 0 hr 4 min 34 sec) 
Heartbeat CPU 3 instructions: 10000001 cycles: 4035847 heartbeat IPC: 2.47779 cumulative IPC: 2.47779 (Simulation time: 0 hr 4 min 44 sec) 
Heartbeat CPU 0 instructions: 20000000 cycles: 7104545 heartbeat IPC: 3.07666 cumulative IPC: 2.8151 (Simulation time: 0 hr 8 min 43 sec) 
Heartbeat CPU 1 instructions: 20000000 cycles: 7109473 heartbeat IPC: 3.07453 cumulative IPC: 2.81315 (Simulation time: 0 hr 8 min 43 sec) 
Heartbeat CPU 2 instructions: 20000000 cycles: 7135331 heartbeat IPC: 3.07395 cumulative IPC: 2.80295 (Simulation time: 0 hr 8 min 45 sec) 
Heartbeat CPU 3 instructions: 20000000 cycles: 7271181 heartbeat IPC: 3.09087 cumulative IPC: 2.75058 (Simulation time: 0 hr 8 min 55 sec) 
Heartbeat CPU 0 instructions: 30000002 cycles: 10273286 heartbeat IPC: 3.15583 cumulative IPC: 2.9202 (Simulation time: 0 hr 12 min 50 sec) 
Heartbeat CPU 1 instructions: 30000001 cycles: 10281785 heartbeat IPC: 3.15228 cumulative IPC: 2.91778 (Simulation time: 0 hr 12 min 50 sec) 
Heartbeat CPU 2 instructions: 30000001 cycles: 10309540 heartbeat IPC: 3.15039 cumulative IPC: 2.90993 (Simulation time: 0 hr 12 min 52 sec) 
Heartbeat CPU 3 instructions: 30000001 cycles: 10460968 heartbeat IPC: 3.13501 cumulative IPC: 2.8678 (Simulation time: 0 hr 13 min 5 sec) 
Heartbeat CPU 0 instructions: 40000001 cycles: 13585533 heartbeat IPC: 3.0191 cumulative IPC: 2.94431 (Simulation time: 0 hr 17 min 26 sec) 
Heartbeat CPU 1 instructions: 40000001 cycles: 13601596 heartbeat IPC: 3.01222 cumulative IPC: 2.94083 (Simulation time: 0 hr 17 min 27 sec) 
Heartbeat CPU 2 instructions: 40000001 cycles: 13648461 heartbeat IPC: 2.99498 cumulative IPC: 2.93073 (Simulation time: 0 hr 17 min 29 sec) 
Heartbeat CPU 3 instructions: 40000000 cycles: 13899782 heartbeat IPC: 2.90798 cumulative IPC: 2.87774 (Simulation time: 0 hr 17 min 44 sec) 
Heartbeat CPU 0 instructions: 50000001 cycles: 17190138 heartbeat IPC: 2.77423 cumulative IPC: 2.90864 (Simulation time: 0 hr 21 min 41 sec) 
Heartbeat CPU 1 instructions: 50000001 cycles: 17201245 heartbeat IPC: 2.77805 cumulative IPC: 2.90677 (Simulation time: 0 hr 21 min 42 sec) 
Heartbeat CPU 2 instructions: 50000001 cycles: 17236381 heartbeat IPC: 2.78713 cumulative IPC: 2.90084 (Simulation time: 0 hr 21 min 44 sec) 
Heartbeat CPU 3 instructions: 50000001 cycles: 17407336 heartbeat IPC: 2.85099 cumulative IPC: 2.87235 (Simulation time: 0 hr 21 min 52 sec) 

Warmup complete CPU 0 instructions: 50323503 cycles: 17407336 (Simulation time: 0 hr 21 min 52 sec) 
Warmup complete CPU 1 instructions: 50309673 cycles: 17407336 (Simulation time: 0 hr 21 min 52 sec) 
Warmup complete CPU 2 instructions: 50257965 cycles: 17407336 (Simulation time: 0 hr 21 min 52 sec) 
Warmup complete CPU 3 instructions: 50000001 cycles: 17407336 (Simulation time: 0 hr 21 min 52 sec) 

Heartbeat CPU 1 instructions: 60000000 cycles: 134222999 heartbeat IPC: 0.0854542 cumulative IPC: 0.082954 (Simulation time: 0 hr 29 min 39 sec) 
Heartbeat CPU 2 instructions: 60000000 cycles: 134263501 heartbeat IPC: 0.0854503 cumulative IPC: 0.0833677 (Simulation time: 0 hr 29 min 40 sec) 
Heartbeat CPU 3 instructions: 60000000 cycles: 134403181 heartbeat IPC: 0.0854731 cumulative IPC: 0.0854731 (Simulation time: 0 hr 29 min 40 sec) 
Heartbeat CPU 0 instructions: 60000000 cycles: 134448962 heartbeat IPC: 0.0852814 cumulative IPC: 0.0826757 (Simulation time: 0 hr 29 min 40 sec) 
Heartbeat CPU 0 instructions: 70000000 cycles: 250415035 heartbeat IPC: 0.0862321 cumulative IPC: 0.0844457 (Simulation time: 0 hr 36 min 52 sec) 
Heartbeat CPU 3 instructions: 70000000 cycles: 250417194 heartbeat IPC: 0.0861965 cumulative IPC: 0.0858333 (Simulation time: 0 hr 36 min 52 sec) 
Heartbeat CPU 2 instructions: 70000000 cycles: 250446429 heartbeat IPC: 0.0860712 cumulative IPC: 0.0847156 (Simulation time: 0 hr 36 min 52 sec) 
Heartbeat CPU 1 instructions: 70000000 cycles: 250527442 heartbeat IPC: 0.0859812 cumulative IPC: 0.0844643 (Simulation time: 0 hr 36 min 52 sec) 
Heartbeat CPU 2 instructions: 80000002 cycles: 361437844 heartbeat IPC: 0.0900971 cumulative IPC: 0.0864517 (Simulation time: 0 hr 43 min 45 sec) 
Heartbeat CPU 0 instructions: 80000002 cycles: 361574791 heartbeat IPC: 0.0899606 cumulative IPC: 0.0862269 (Simulation time: 0 hr 43 min 45 sec) 
Heartbeat CPU 1 instructions: 80000002 cycles: 361602883 heartbeat IPC: 0.0900289 cumulative IPC: 0.0862601 (Simulation time: 0 hr 43 min 46 sec) 
Heartbeat CPU 3 instructions: 80000002 cycles: 361610667 heartbeat IPC: 0.0899334 cumulative IPC: 0.0871578 (Simulation time: 0 hr 43 min 46 sec) 
Heartbeat CPU 1 instructions: 90000001 cycles: 475366888 heartbeat IPC: 0.0879013 cumulative IPC: 0.0866678 (Simulation time: 0 hr 51 min 2 sec) 
Heartbeat CPU 0 instructions: 90000001 cycles: 475413130 heartbeat IPC: 0.0878439 cumulative IPC: 0.0866288 (Simulation time: 0 hr 51 min 2 sec) 
Heartbeat CPU 2 instructions: 90000001 cycles: 475466313 heartbeat IPC: 0.0876974 cumulative IPC: 0.0867618 (Simulation time: 0 hr 51 min 2 sec) 
Heartbeat CPU 3 instructions: 90000002 cycles: 475475642 heartbeat IPC: 0.0878233 cumulative IPC: 0.0873232 (Simulation time: 0 hr 51 min 2 sec) 
Heartbeat CPU 1 instructions: 100000001 cycles: 590236268 heartbeat IPC: 0.0870554 cumulative IPC: 0.0867455 (Simulation time: 0 hr 58 min 38 sec) 
Heartbeat CPU 2 instructions: 100000001 cycles: 590260899 heartbeat IPC: 0.0871121 cumulative IPC: 0.086832 (Simulation time: 0 hr 58 min 38 sec) 
Heartbeat CPU 3 instructions: 100000000 cycles: 590299300 heartbeat IPC: 0.0870901 cumulative IPC: 0.0872765 (Simulation time: 0 hr 58 min 38 sec) 
Heartbeat CPU 0 instructions: 100000001 cycles: 590385836 heartbeat IPC: 0.0869772 cumulative IPC: 0.0866987 (Simulation time: 0 hr 58 min 39 sec) 
Heartbeat CPU 0 instructions: 110000000 cycles: 703663458 heartbeat IPC: 0.0882787 cumulative IPC: 0.0869595 (Simulation time: 1 hr 5 min 55 sec) 
Heartbeat CPU 3 instructions: 110000000 cycles: 703780986 heartbeat IPC: 0.0881199 cumulative IPC: 0.0874159 (Simulation time: 1 hr 5 min 56 sec) 
Heartbeat CPU 2 instructions: 110000000 cycles: 703832760 heartbeat IPC: 0.08805 cumulative IPC: 0.0870335 (Simulation time: 1 hr 5 min 56 sec) 
Heartbeat CPU 1 instructions: 110000000 cycles: 703872485 heartbeat IPC: 0.0880001 cumulative IPC: 0.0869532 (Simulation time: 1 hr 5 min 56 sec) 
Heartbeat CPU 1 instructions: 120000001 cycles: 819970776 heartbeat IPC: 0.0861339 cumulative IPC: 0.0868347 (Simulation time: 1 hr 12 min 59 sec) 
Heartbeat CPU 2 instructions: 120000001 cycles: 819992633 heartbeat IPC: 0.0860883 cumulative IPC: 0.0868967 (Simulation time: 1 hr 12 min 59 sec) 
Heartbeat CPU 0 instructions: 120000001 cycles: 819996538 heartbeat IPC: 0.0859601 cumulative IPC: 0.0868146 (Simulation time: 1 hr 12 min 59 sec) 
Heartbeat CPU 3 instructions: 120000001 cycles: 820006460 heartbeat IPC: 0.0860397 cumulative IPC: 0.0872166 (Simulation time: 1 hr 12 min 59 sec) 
Heartbeat CPU 0 instructions: 130000000 cycles: 931790830 heartbeat IPC: 0.08945 cumulative IPC: 0.0871368 (Simulation time: 1 hr 20 min 30 sec) 
Heartbeat CPU 3 instructions: 130000000 cycles: 931862408 heartbeat IPC: 0.0894007 cumulative IPC: 0.0874838 (Simulation time: 1 hr 20 min 30 sec) 
Heartbeat CPU 1 instructions: 130000003 cycles: 931910791 heartbeat IPC: 0.0893336 cumulative IPC: 0.0871405 (Simulation time: 1 hr 20 min 30 sec) 
Heartbeat CPU 2 instructions: 130000003 cycles: 932004533 heartbeat IPC: 0.0892762 cumulative IPC: 0.0871881 (Simulation time: 1 hr 20 min 31 sec) 
Heartbeat CPU 0 instructions: 140000000 cycles: 1049455218 heartbeat IPC: 0.0849875 cumulative IPC: 0.0868918 (Simulation time: 1 hr 28 min 51 sec) 
Heartbeat CPU 3 instructions: 140000000 cycles: 1049469468 heartbeat IPC: 0.0850289 cumulative IPC: 0.0872041 (Simulation time: 1 hr 28 min 51 sec) 
Heartbeat CPU 1 instructions: 140000000 cycles: 1049472313 heartbeat IPC: 0.0850618 cumulative IPC: 0.0869038 (Simulation time: 1 hr 28 min 51 sec) 
Heartbeat CPU 2 instructions: 140000000 cycles: 1049495123 heartbeat IPC: 0.0851132 cumulative IPC: 0.0869519 (Simulation time: 1 hr 28 min 51 sec) 
Heartbeat CPU 1 instructions: 150000001 cycles: 1162566713 heartbeat IPC: 0.0884217 cumulative IPC: 0.0870537 (Simulation time: 1 hr 35 min 43 sec) 
Heartbeat CPU 3 instructions: 150000000 cycles: 1162575978 heartbeat IPC: 0.0884122 cumulative IPC: 0.0873234 (Simulation time: 1 hr 35 min 43 sec) 
Heartbeat CPU 2 instructions: 150000000 cycles: 1162615686 heartbeat IPC: 0.0884013 cumulative IPC: 0.0870951 (Simulation time: 1 hr 35 min 43 sec) 
Heartbeat CPU 0 instructions: 150000000 cycles: 1162660885 heartbeat IPC: 0.0883348 cumulative IPC: 0.0870344 (Simulation time: 1 hr 35 min 43 sec) 
Heartbeat CPU 3 instructions: 160000001 cycles: 1282030697 heartbeat IPC: 0.0837137 cumulative IPC: 0.0869824 (Simulation time: 1 hr 43 min 31 sec) 
Heartbeat CPU 1 instructions: 160000001 cycles: 1282032666 heartbeat IPC: 0.0837059 cumulative IPC: 0.0867374 (Simulation time: 1 hr 43 min 31 sec) 
Heartbeat CPU 0 instructions: 160000001 cycles: 1282055736 heartbeat IPC: 0.0837557 cumulative IPC: 0.0867249 (Simulation time: 1 hr 43 min 31 sec) 
Heartbeat CPU 2 instructions: 160000001 cycles: 1282078879 heartbeat IPC: 0.0837078 cumulative IPC: 0.0867751 (Simulation time: 1 hr 43 min 31 sec) 
Heartbeat CPU 3 instructions: 170000003 cycles: 1403684056 heartbeat IPC: 0.0822008 cumulative IPC: 0.0865628 (Simulation time: 1 hr 52 min 15 sec) 
Heartbeat CPU 2 instructions: 170000003 cycles: 1403698310 heartbeat IPC: 0.0822237 cumulative IPC: 0.0863758 (Simulation time: 1 hr 52 min 15 sec) 
Heartbeat CPU 0 instructions: 170000003 cycles: 1403702094 heartbeat IPC: 0.0822055 cumulative IPC: 0.0863283 (Simulation time: 1 hr 52 min 15 sec) 
Heartbeat CPU 1 instructions: 170000003 cycles: 1403751861 heartbeat IPC: 0.0821563 cumulative IPC: 0.0863352 (Simulation time: 1 hr 52 min 15 sec) 
Heartbeat CPU 1 instructions: 180000001 cycles: 1519795623 heartbeat IPC: 0.0861744 cumulative IPC: 0.0863228 (Simulation time: 2 hr 0 min 8 sec) 
Heartbeat CPU 0 instructions: 180000001 cycles: 1519946231 heartbeat IPC: 0.0860258 cumulative IPC: 0.0863049 (Simulation time: 2 hr 0 min 9 sec) 
Heartbeat CPU 3 instructions: 180000001 cycles: 1519986654 heartbeat IPC: 0.0859826 cumulative IPC: 0.0865179 (Simulation time: 2 hr 0 min 9 sec) 
Heartbeat CPU 2 instructions: 180000001 cycles: 1520109274 heartbeat IPC: 0.0859025 cumulative IPC: 0.0863392 (Simulation time: 2 hr 0 min 10 sec) 
Heartbeat CPU 3 instructions: 190000003 cycles: 1633352889 heartbeat IPC: 0.0882097 cumulative IPC: 0.0866366 (Simulation time: 2 hr 8 min 33 sec) 
Heartbeat CPU 2 instructions: 190000003 cycles: 1633482304 heartbeat IPC: 0.0882044 cumulative IPC: 0.08647 (Simulation time: 2 hr 8 min 33 sec) 
Heartbeat CPU 0 instructions: 190000003 cycles: 1633493519 heartbeat IPC: 0.0880691 cumulative IPC: 0.0864289 (Simulation time: 2 hr 8 min 33 sec) 
Heartbeat CPU 1 instructions: 190000003 cycles: 1633561372 heartbeat IPC: 0.0878999 cumulative IPC: 0.0864338 (Simulation time: 2 hr 8 min 33 sec) 
Heartbeat CPU 3 instructions: 200000000 cycles: 1734358164 heartbeat IPC: 0.0990047 cumulative IPC: 0.0873642 (Simulation time: 2 hr 15 min 58 sec) 
Heartbeat CPU 1 instructions: 200000000 cycles: 1734772276 heartbeat IPC: 0.0988036 cumulative IPC: 0.0871628 (Simulation time: 2 hr 16 min 0 sec) 
Heartbeat CPU 2 instructions: 200000000 cycles: 1734782612 heartbeat IPC: 0.0987164 cumulative IPC: 0.0871924 (Simulation time: 2 hr 16 min 0 sec) 
Heartbeat CPU 0 instructions: 200000000 cycles: 1734856825 heartbeat IPC: 0.098655 cumulative IPC: 0.0871504 (Simulation time: 2 hr 16 min 0 sec) 
Heartbeat CPU 3 instructions: 210000002 cycles: 1835772241 heartbeat IPC: 0.0986057 cumulative IPC: 0.0879911 (Simulation time: 2 hr 22 min 41 sec) 
Heartbeat CPU 1 instructions: 210000002 cycles: 1836382175 heartbeat IPC: 0.0984156 cumulative IPC: 0.0877914 (Simulation time: 2 hr 22 min 43 sec) 
Heartbeat CPU 0 instructions: 210000002 cycles: 1836483676 heartbeat IPC: 0.0983992 cumulative IPC: 0.0877789 (Simulation time: 2 hr 22 min 43 sec) 
Heartbeat CPU 2 instructions: 210000002 cycles: 1836604305 heartbeat IPC: 0.0982109 cumulative IPC: 0.0878091 (Simulation time: 2 hr 22 min 44 sec) 
Heartbeat CPU 3 instructions: 220000000 cycles: 1936521973 heartbeat IPC: 0.0992558 cumulative IPC: 0.0885825 (Simulation time: 2 hr 29 min 2 sec) 
Heartbeat CPU 0 instructions: 220000000 cycles: 1937210460 heartbeat IPC: 0.0992784 cumulative IPC: 0.0883822 (Simulation time: 2 hr 29 min 5 sec) 
Heartbeat CPU 1 instructions: 220000000 cycles: 1937312569 heartbeat IPC: 0.0990782 cumulative IPC: 0.0883847 (Simulation time: 2 hr 29 min 5 sec) 
Heartbeat CPU 2 instructions: 220000000 cycles: 1937595080 heartbeat IPC: 0.0990189 cumulative IPC: 0.0883987 (Simulation time: 2 hr 29 min 6 sec) 
Heartbeat CPU 3 instructions: 230000000 cycles: 2036471632 heartbeat IPC: 0.10005 cumulative IPC: 0.0891502 (Simulation time: 2 hr 35 min 56 sec) 
Heartbeat CPU 0 instructions: 230000001 cycles: 2037077335 heartbeat IPC: 0.100133 cumulative IPC: 0.0889633 (Simulation time: 2 hr 35 min 59 sec) 
Heartbeat CPU 1 instructions: 230000001 cycles: 2037319331 heartbeat IPC: 0.0999933 cumulative IPC: 0.0889595 (Simulation time: 2 hr 36 min 0 sec) 
Heartbeat CPU 2 instructions: 230000000 cycles: 2037641571 heartbeat IPC: 0.0999535 cumulative IPC: 0.0889709 (Simulation time: 2 hr 36 min 1 sec) 
Heartbeat CPU 3 instructions: 240000001 cycles: 2137139368 heartbeat IPC: 0.0993367 cumulative IPC: 0.089634 (Simulation time: 2 hr 42 min 4 sec) 
Heartbeat CPU 0 instructions: 240000001 cycles: 2137804553 heartbeat IPC: 0.099278 cumulative IPC: 0.0894533 (Simulation time: 2 hr 42 min 6 sec) 
Heartbeat CPU 1 instructions: 240000001 cycles: 2138126630 heartbeat IPC: 0.0991992 cumulative IPC: 0.0894462 (Simulation time: 2 hr 42 min 7 sec) 
Heartbeat CPU 2 instructions: 240000001 cycles: 2138447359 heartbeat IPC: 0.0992007 cumulative IPC: 0.0894571 (Simulation time: 2 hr 42 min 9 sec) 
Heartbeat CPU 3 instructions: 250000003 cycles: 2236403029 heartbeat IPC: 0.100742 cumulative IPC: 0.0901309 (Simulation time: 2 hr 48 min 31 sec) 
Finished CPU 3 instructions: 200000002 cycles: 2218995693 cumulative IPC: 0.0901309 (Simulation time: 2 hr 48 min 31 sec) 
Heartbeat CPU 0 instructions: 250000003 cycles: 2237164685 heartbeat IPC: 0.100644 cumulative IPC: 0.0899542 (Simulation time: 2 hr 48 min 35 sec) 
Heartbeat CPU 1 instructions: 250000003 cycles: 2237304770 heartbeat IPC: 0.100829 cumulative IPC: 0.0899548 (Simulation time: 2 hr 48 min 36 sec) 
Heartbeat CPU 2 instructions: 250000000 cycles: 2238004878 heartbeat IPC: 0.100444 cumulative IPC: 0.0899497 (Simulation time: 2 hr 48 min 39 sec) 
Finished CPU 1 instructions: 200000000 cycles: 2222869540 cumulative IPC: 0.0899738 (Simulation time: 2 hr 48 min 49 sec) 
Finished CPU 0 instructions: 200000000 cycles: 2222907003 cumulative IPC: 0.0899723 (Simulation time: 2 hr 48 min 49 sec) 
Finished CPU 2 instructions: 200000001 cycles: 2223109954 cumulative IPC: 0.0899641 (Simulation time: 2 hr 48 min 50 sec) 

ChampSim completed all CPUs

Total Simulation Statistics (not including warmup)

CPU 0 cumulative IPC: 0.0899736 instructions: 200021220 cycles: 2223109954
ITLB TOTAL     ACCESS:   36652692  HIT:   36652692  MISS:          0  HIT %:        100  MISS %:          0   MPKI: 0
ITLB LOAD      ACCESS:          0  HIT:          0  MISS:          0  HIT %:       -nan  MISS %:       -nan   MPKI: 0
ITLB RFO       ACCESS:          0  HIT:          0  MISS:          0  HIT %:       -nan  MISS %:       -nan   MPKI: 0
ITLB PREFETCH  ACCESS:          0  HIT:          0  MISS:          0  HIT %:       -nan  MISS %:       -nan   MPKI: 0
ITLB WRITEBACK ACCESS:          0  HIT:          0  MISS:          0  HIT %:       -nan  MISS %:       -nan   MPKI: 0
DTLB TOTAL     ACCESS:   55986452  HIT:   47469445  MISS:    8517007  HIT %:    84.7874  MISS %:    15.2126   MPKI: 42.5805
DTLB LOAD      ACCESS:          0  HIT:          0  MISS:          0  HIT %:       -nan  MISS %:       -nan   MPKI: 0
DTLB RFO       ACCESS:          0  HIT:          0  MISS:          0  HIT %:       -nan  MISS %:       -nan   MPKI: 0
DTLB PREFETCH  ACCESS:          0  HIT:          0  MISS:          0  HIT %:       -nan  MISS %:       -nan   MPKI: 0
DTLB WRITEBACK ACCESS:          0  HIT:          0  MISS:          0  HIT %:       -nan  MISS %:       -nan   MPKI: 0
STLB TOTAL     ACCESS:   26886036  HIT:   23509520  MISS:    3376516  HIT %:    87.4414  MISS %:    12.5586   MPKI: 16.8808
STLB LOAD      ACCESS:          0  HIT:          0  MISS:          0  HIT %:       -nan  MISS %:       -nan   MPKI: 0
STLB RFO       ACCESS:          0  HIT:          0  MISS:          0  HIT %:       -nan  MISS %:       -nan   MPKI: 0
STLB PREFETCH  ACCESS:          0  HIT:          0  MISS:          0  HIT %:       -nan  MISS %:       -nan   MPKI: 0
STLB WRITEBACK ACCESS:          0  HIT:          0  MISS:          0  HIT %:       -nan  MISS %:       -nan   MPKI: 0
L1D TOTAL     ACCESS:  100488366  HIT:   83150546  MISS:   17337820  HIT %:    82.7464  MISS %:    17.2536   MPKI: 86.6799
L1D LOAD      ACCESS:   51712710  HIT:   35228641  MISS:   16484069  HIT %:    68.1238  MISS %:    31.8762   MPKI: 82.4116
L1D RFO       ACCESS:   10875314  HIT:   10845569  MISS:      29745  HIT %:    99.7265  MISS %:   0.273509   MPKI: 0.148709
L1D PREFETCH  ACCESS:   37900342  HIT:   37076336  MISS:     824006  HIT %:    97.8259  MISS %:    2.17414   MPKI: 4.11959
L1D WRITEBACK ACCESS:          0  HIT:          0  MISS:          0  HIT %:       -nan  MISS %:       -nan   MPKI: 0
L1I TOTAL     ACCESS:   36958798  HIT:   36958798  MISS:          0  HIT %:        100  MISS %:          0   MPKI: 0
L1I LOAD      ACCESS:   36958798  HIT:   36958798  MISS:          0  HIT %:        100  MISS %:          0   MPKI: 0
L1I RFO       ACCESS:          0  HIT:          0  MISS:          0  HIT %:       -nan  MISS %:       -nan   MPKI: 0
L1I PREFETCH  ACCESS:          0  HIT:          0  MISS:          0  HIT %:       -nan  MISS %:       -nan   MPKI: 0
L1I WRITEBACK ACCESS:          0  HIT:          0  MISS:          0  HIT %:       -nan  MISS %:       -nan   MPKI: 0
L2C TOTAL     ACCESS:   65538772  HIT:   44461095  MISS:   21077677  HIT %:    67.8394  MISS %:    32.1606   MPKI: 105.377
L2C LOAD      ACCESS:   16472541  HIT:    2710344  MISS:   13762197  HIT %:    16.4537  MISS %:    83.5463   MPKI: 68.8037
L2C RFO       ACCESS:      29745  HIT:        711  MISS:      29034  HIT %:    2.39032  MISS %:    97.6097   MPKI: 0.145155
L2C PREFETCH  ACCESS:   39434089  HIT:   32985462  MISS:    6448627  HIT %:    83.6471  MISS %:    16.3529   MPKI: 32.2397
L2C WRITEBACK ACCESS:    5542959  HIT:    4979611  MISS:     563348  HIT %:    89.8367  MISS %:    10.1633   MPKI: 2.81644
PSCL5 TOTAL     ACCESS:    4058378  HIT:    4058378  MISS:          0  HIT %:        100  MISS %:          0   MPKI: 0
PSCL5 LOAD      ACCESS:          0  HIT:          0  MISS:          0  HIT %:       -nan  MISS %:       -nan   MPKI: 0
PSCL5 RFO       ACCESS:          0  HIT:          0  MISS:          0  HIT %:       -nan  MISS %:       -nan   MPKI: 0
PSCL5 PREFETCH  ACCESS:          0  HIT:          0  MISS:          0  HIT %:       -nan  MISS %:       -nan   MPKI: 0
PSCL5 WRITEBACK ACCESS:          0  HIT:          0  MISS:          0  HIT %:       -nan  MISS %:       -nan   MPKI: 0
PSCL4 TOTAL     ACCESS:    4058378  HIT:    4058378  MISS:          0  HIT %:        100  MISS %:          0   MPKI: 0
PSCL4 LOAD      ACCESS:          0  HIT:          0  MISS:          0  HIT %:       -nan  MISS %:       -nan   MPKI: 0
PSCL4 RFO       ACCESS:          0  HIT:          0  MISS:          0  HIT %:       -nan  MISS %:       -nan   MPKI: 0
PSCL4 PREFETCH  ACCESS:          0  HIT:          0  MISS:          0  HIT %:       -nan  MISS %:       -nan   MPKI: 0
PSCL4 WRITEBACK ACCESS:          0  HIT:          0  MISS:          0  HIT %:       -nan  MISS %:       -nan   MPKI: 0
PSCL3 TOTAL     ACCESS:    4058378  HIT:    4058378  MISS:          0  HIT %:        100  MISS %:          0   MPKI: 0
PSCL3 LOAD      ACCESS:          0  HIT:          0  MISS:          0  HIT %:       -nan  MISS %:       -nan   MPKI: 0
PSCL3 RFO       ACCESS:          0  HIT:          0  MISS:          0  HIT %:       -nan  MISS %:       -nan   MPKI: 0
PSCL3 PREFETCH  ACCESS:          0  HIT:          0  MISS:          0  HIT %:       -nan  MISS %:       -nan   MPKI: 0
PSCL3 WRITEBACK ACCESS:          0  HIT:          0  MISS:          0  HIT %:       -nan  MISS %:       -nan   MPKI: 0
PSCL2 TOTAL     ACCESS:    4056706  HIT:    4056102  MISS:        604  HIT %:    99.9851  MISS %:  0.0148889   MPKI: 0.00301968
PSCL2 LOAD      ACCESS:          0  HIT:          0  MISS:          0  HIT %:       -nan  MISS %:       -nan   MPKI: 0
PSCL2 RFO       ACCESS:          0  HIT:          0  MISS:          0  HIT %:       -nan  MISS %:       -nan   MPKI: 0
PSCL2 PREFETCH  ACCESS:          0  HIT:          0  MISS:          0  HIT %:       -nan  MISS %:       -nan   MPKI: 0
PSCL2 WRITEBACK ACCESS:          0  HIT:          0  MISS:          0  HIT %:       -nan  MISS %:       -nan   MPKI: 0
LLC TOTAL     ACCESS:   25790228  HIT:   11564604  MISS:   14225624  HIT %:     44.841  MISS %:     55.159   MPKI: 71.1206
LLC LOAD      ACCESS:   13532570  HIT:    5367315  MISS:    8165255  HIT %:    39.6622  MISS %:    60.3378   MPKI: 40.8219
LLC RFO       ACCESS:      29034  HIT:        304  MISS:      28730  HIT %:    1.04705  MISS %:     98.953   MPKI: 0.143635
LLC PREFETCH  ACCESS:    6678250  HIT:     921945  MISS:    5756305  HIT %:    13.8052  MISS %:    86.1948   MPKI: 28.7785
LLC WRITEBACK ACCESS:    5275903  HIT:    5020795  MISS:     255108  HIT %:    95.1647  MISS %:    4.83534   MPKI: 1.2754

RAW hits: 1194943
Loads Generated: 56340507
Loads sent to L1D: 55145565
Stores Generated: 11244172
Stores sent to L1D: 11244173

CPU 1 cumulative IPC: 0.0899755 instructions: 200025391 cycles: 2223109954
ITLB TOTAL     ACCESS:   36653267  HIT:   36653267  MISS:          0  HIT %:        100  MISS %:          0   MPKI: 0
ITLB LOAD      ACCESS:          0  HIT:          0  MISS:          0  HIT %:       -nan  MISS %:       -nan   MPKI: 0
ITLB RFO       ACCESS:          0  HIT:          0  MISS:          0  HIT %:       -nan  MISS %:       -nan   MPKI: 0
ITLB PREFETCH  ACCESS:          0  HIT:          0  MISS:          0  HIT %:       -nan  MISS %:       -nan   MPKI: 0
ITLB WRITEBACK ACCESS:          0  HIT:          0  MISS:          0  HIT %:       -nan  MISS %:       -nan   MPKI: 0
DTLB TOTAL     ACCESS:   55982355  HIT:   47465582  MISS:    8516773  HIT %:    84.7867  MISS %:    15.2133   MPKI: 42.5785
DTLB LOAD      ACCESS:          0  HIT:          0  MISS:          0  HIT %:       -nan  MISS %:       -nan   MPKI: 0
DTLB RFO       ACCESS:          0  HIT:          0  MISS:          0  HIT %:       -nan  MISS %:       -nan   MPKI: 0
DTLB PREFETCH  ACCESS:          0  HIT:          0  MISS:          0  HIT %:       -nan  MISS %:       -nan   MPKI: 0
DTLB WRITEBACK ACCESS:          0  HIT:          0  MISS:          0  HIT %:       -nan  MISS %:       -nan   MPKI: 0
STLB TOTAL     ACCESS:   26935575  HIT:   23558326  MISS:    3377249  HIT %:    87.4618  MISS %:    12.5382   MPKI: 16.8841
STLB LOAD      ACCESS:          0  HIT:          0  MISS:          0  HIT %:       -nan  MISS %:       -nan   MPKI: 0
STLB RFO       ACCESS:          0  HIT:          0  MISS:          0  HIT %:       -nan  MISS %:       -nan   MPKI: 0
STLB PREFETCH  ACCESS:          0  HIT:          0  MISS:          0  HIT %:       -nan  MISS %:       -nan   MPKI: 0
STLB WRITEBACK ACCESS:          0  HIT:          0  MISS:          0  HIT %:       -nan  MISS %:       -nan   MPKI: 0
L1D TOTAL     ACCESS:  100362819  HIT:   83024391  MISS:   17338428  HIT %:    82.7243  MISS %:    17.2757   MPKI: 86.6811
L1D LOAD      ACCESS:   51710087  HIT:   35226033  MISS:   16484054  HIT %:    68.1222  MISS %:    31.8778   MPKI: 82.4098
L1D RFO       ACCESS:   10875042  HIT:   10845296  MISS:      29746  HIT %:    99.7265  MISS %:   0.273525   MPKI: 0.148711
L1D PREFETCH  ACCESS:   37777690  HIT:   36953062  MISS:     824628  HIT %:    97.8172  MISS %:    2.18284   MPKI: 4.12262
L1D WRITEBACK ACCESS:          0  HIT:          0  MISS:          0  HIT %:       -nan  MISS %:       -nan   MPKI: 0
L1I TOTAL     ACCESS:   36959456  HIT:   36959456  MISS:          0  HIT %:        100  MISS %:          0   MPKI: 0
L1I LOAD      ACCESS:   36959456  HIT:   36959456  MISS:          0  HIT %:        100  MISS %:          0   MPKI: 0
L1I RFO       ACCESS:          0  HIT:          0  MISS:          0  HIT %:       -nan  MISS %:       -nan   MPKI: 0
L1I PREFETCH  ACCESS:          0  HIT:          0  MISS:          0  HIT %:       -nan  MISS %:       -nan   MPKI: 0
L1I WRITEBACK ACCESS:          0  HIT:          0  MISS:          0  HIT %:       -nan  MISS %:       -nan   MPKI: 0
L2C TOTAL     ACCESS:   65593417  HIT:   44491218  MISS:   21102199  HIT %:    67.8288  MISS %:    32.1712   MPKI: 105.498
L2C LOAD      ACCESS:   16472521  HIT:    2709630  MISS:   13762891  HIT %:    16.4494  MISS %:    83.5506   MPKI: 68.8057
L2C RFO       ACCESS:      29746  HIT:        685  MISS:      29061  HIT %:    2.30283  MISS %:    97.6972   MPKI: 0.145287
L2C PREFETCH  ACCESS:   39490814  HIT:   33049845  MISS:    6440969  HIT %:      83.69  MISS %:      16.31   MPKI: 32.2008
L2C WRITEBACK ACCESS:    5543088  HIT:    4967161  MISS:     575927  HIT %:      89.61  MISS %:      10.39   MPKI: 2.87927
PSCL5 TOTAL     ACCESS:    4056213  HIT:    4056213  MISS:          0  HIT %:        100  MISS %:          0   MPKI: 0
PSCL5 LOAD      ACCESS:          0  HIT:          0  MISS:          0  HIT %:       -nan  MISS %:       -nan   MPKI: 0
PSCL5 RFO       ACCESS:          0  HIT:          0  MISS:          0  HIT %:       -nan  MISS %:       -nan   MPKI: 0
PSCL5 PREFETCH  ACCESS:          0  HIT:          0  MISS:          0  HIT %:       -nan  MISS %:       -nan   MPKI: 0
PSCL5 WRITEBACK ACCESS:          0  HIT:          0  MISS:          0  HIT %:       -nan  MISS %:       -nan   MPKI: 0
PSCL4 TOTAL     ACCESS:    4056213  HIT:    4056213  MISS:          0  HIT %:        100  MISS %:          0   MPKI: 0
PSCL4 LOAD      ACCESS:          0  HIT:          0  MISS:          0  HIT %:       -nan  MISS %:       -nan   MPKI: 0
PSCL4 RFO       ACCESS:          0  HIT:          0  MISS:          0  HIT %:       -nan  MISS %:       -nan   MPKI: 0
PSCL4 PREFETCH  ACCESS:          0  HIT:          0  MISS:          0  HIT %:       -nan  MISS %:       -nan   MPKI: 0
PSCL4 WRITEBACK ACCESS:          0  HIT:          0  MISS:          0  HIT %:       -nan  MISS %:       -nan   MPKI: 0
PSCL3 TOTAL     ACCESS:    4056213  HIT:    4056213  MISS:          0  HIT %:        100  MISS %:          0   MPKI: 0
PSCL3 LOAD      ACCESS:          0  HIT:          0  MISS:          0  HIT %:       -nan  MISS %:       -nan   MPKI: 0
PSCL3 RFO       ACCESS:          0  HIT:          0  MISS:          0  HIT %:       -nan  MISS %:       -nan   MPKI: 0
PSCL3 PREFETCH  ACCESS:          0  HIT:          0  MISS:          0  HIT %:       -nan  MISS %:       -nan   MPKI: 0
PSCL3 WRITEBACK ACCESS:          0  HIT:          0  MISS:          0  HIT %:       -nan  MISS %:       -nan   MPKI: 0
PSCL2 TOTAL     ACCESS:    4054553  HIT:    4053948  MISS:        605  HIT %:    99.9851  MISS %:  0.0149215   MPKI: 0.00302462
PSCL2 LOAD      ACCESS:          0  HIT:          0  MISS:          0  HIT %:       -nan  MISS %:       -nan   MPKI: 0
PSCL2 RFO       ACCESS:          0  HIT:          0  MISS:          0  HIT %:       -nan  MISS %:       -nan   MPKI: 0
PSCL2 PREFETCH  ACCESS:          0  HIT:          0  MISS:          0  HIT %:       -nan  MISS %:       -nan   MPKI: 0
PSCL2 WRITEBACK ACCESS:          0  HIT:          0  MISS:          0  HIT %:       -nan  MISS %:       -nan   MPKI: 0
LLC TOTAL     ACCESS:   25807006  HIT:   11580061  MISS:   14226945  HIT %:    44.8718  MISS %:    55.1282   MPKI: 71.1257
LLC LOAD      ACCESS:   13533583  HIT:    5363289  MISS:    8170294  HIT %:    39.6295  MISS %:    60.3705   MPKI: 40.8463
LLC RFO       ACCESS:      29061  HIT:        291  MISS:      28770  HIT %:    1.00134  MISS %:    98.9987   MPKI: 0.143832
LLC PREFETCH  ACCESS:    6670274  HIT:     921462  MISS:    5748812  HIT %:    13.8145  MISS %:    86.1855   MPKI: 28.7404
LLC WRITEBACK ACCESS:    5280737  HIT:    5022444  MISS:     258293  HIT %:    95.1088  MISS %:    4.89123   MPKI: 1.2913

RAW hits: 1198362
Loads Generated: 56341861
Loads sent to L1D: 55143499
Stores Generated: 11244529
Stores sent to L1D: 11244530

CPU 2 cumulative IPC: 0.0899641 instructions: 200000001 cycles: 2223109954
ITLB TOTAL     ACCESS:   36647756  HIT:   36647756  MISS:          0  HIT %:        100  MISS %:          0   MPKI: 0
ITLB LOAD      ACCESS:          0  HIT:          0  MISS:          0  HIT %:       -nan  MISS %:       -nan   MPKI: 0
ITLB RFO       ACCESS:          0  HIT:          0  MISS:          0  HIT %:       -nan  MISS %:       -nan   MPKI: 0
ITLB PREFETCH  ACCESS:          0  HIT:          0  MISS:          0  HIT %:       -nan  MISS %:       -nan   MPKI: 0
ITLB WRITEBACK ACCESS:          0  HIT:          0  MISS:          0  HIT %:       -nan  MISS %:       -nan   MPKI: 0
DTLB TOTAL     ACCESS:   55976664  HIT:   47462450  MISS:    8514214  HIT %:    84.7897  MISS %:    15.2103   MPKI: 42.5711
DTLB LOAD      ACCESS:          0  HIT:          0  MISS:          0  HIT %:       -nan  MISS %:       -nan   MPKI: 0
DTLB RFO       ACCESS:          0  HIT:          0  MISS:          0  HIT %:       -nan  MISS %:       -nan   MPKI: 0
DTLB PREFETCH  ACCESS:          0  HIT:          0  MISS:          0  HIT %:       -nan  MISS %:       -nan   MPKI: 0
DTLB WRITEBACK ACCESS:          0  HIT:          0  MISS:          0  HIT %:       -nan  MISS %:       -nan   MPKI: 0
STLB TOTAL     ACCESS:   27070859  HIT:   23693828  MISS:    3377031  HIT %:    87.5252  MISS %:    12.4748   MPKI: 16.8852
STLB LOAD      ACCESS:          0  HIT:          0  MISS:          0  HIT %:       -nan  MISS %:       -nan   MPKI: 0
STLB RFO       ACCESS:          0  HIT:          0  MISS:          0  HIT %:       -nan  MISS %:       -nan   MPKI: 0
STLB PREFETCH  ACCESS:          0  HIT:          0  MISS:          0  HIT %:       -nan  MISS %:       -nan   MPKI: 0
STLB WRITEBACK ACCESS:          0  HIT:          0  MISS:          0  HIT %:       -nan  MISS %:       -nan   MPKI: 0
L1D TOTAL     ACCESS:  100285042  HIT:   82950282  MISS:   17334760  HIT %:    82.7145  MISS %:    17.2855   MPKI: 86.6738
L1D LOAD      ACCESS:   51704309  HIT:   35222120  MISS:   16482189  HIT %:    68.1222  MISS %:    31.8778   MPKI: 82.4109
L1D RFO       ACCESS:   10874446  HIT:   10844692  MISS:      29754  HIT %:    99.7264  MISS %:   0.273614   MPKI: 0.14877
L1D PREFETCH  ACCESS:   37706287  HIT:   36883470  MISS:     822817  HIT %:    97.8178  MISS %:    2.18217   MPKI: 4.11408
L1D WRITEBACK ACCESS:          0  HIT:          0  MISS:          0  HIT %:       -nan  MISS %:       -nan   MPKI: 0
L1I TOTAL     ACCESS:   36953974  HIT:   36953974  MISS:          0  HIT %:        100  MISS %:          0   MPKI: 0
L1I LOAD      ACCESS:   36953974  HIT:   36953974  MISS:          0  HIT %:        100  MISS %:          0   MPKI: 0
L1I RFO       ACCESS:          0  HIT:          0  MISS:          0  HIT %:       -nan  MISS %:       -nan   MPKI: 0
L1I PREFETCH  ACCESS:          0  HIT:          0  MISS:          0  HIT %:       -nan  MISS %:       -nan   MPKI: 0
L1I WRITEBACK ACCESS:          0  HIT:          0  MISS:          0  HIT %:       -nan  MISS %:       -nan   MPKI: 0
L2C TOTAL     ACCESS:   65779033  HIT:   44688119  MISS:   21090914  HIT %:    67.9367  MISS %:    32.0633   MPKI: 105.455
L2C LOAD      ACCESS:   16470610  HIT:    2692558  MISS:   13778052  HIT %:    16.3477  MISS %:    83.6523   MPKI: 68.8903
L2C RFO       ACCESS:      29754  HIT:        708  MISS:      29046  HIT %:    2.37951  MISS %:    97.6205   MPKI: 0.14523
L2C PREFETCH  ACCESS:   39679789  HIT:   33267160  MISS:    6412629  HIT %:    83.8391  MISS %:    16.1609   MPKI: 32.0631
L2C WRITEBACK ACCESS:    5542567  HIT:    4950160  MISS:     592407  HIT %:    89.3117  MISS %:    10.6883   MPKI: 2.96203
PSCL5 TOTAL     ACCESS:    4055251  HIT:    4055251  MISS:          0  HIT %:        100  MISS %:          0   MPKI: 0
PSCL5 LOAD      ACCESS:          0  HIT:          0  MISS:          0  HIT %:       -nan  MISS %:       -nan   MPKI: 0
PSCL5 RFO       ACCESS:          0  HIT:          0  MISS:          0  HIT %:       -nan  MISS %:       -nan   MPKI: 0
PSCL5 PREFETCH  ACCESS:          0  HIT:          0  MISS:          0  HIT %:       -nan  MISS %:       -nan   MPKI: 0
PSCL5 WRITEBACK ACCESS:          0  HIT:          0  MISS:          0  HIT %:       -nan  MISS %:       -nan   MPKI: 0
PSCL4 TOTAL     ACCESS:    4055251  HIT:    4055251  MISS:          0  HIT %:        100  MISS %:          0   MPKI: 0
PSCL4 LOAD      ACCESS:          0  HIT:          0  MISS:          0  HIT %:       -nan  MISS %:       -nan   MPKI: 0
PSCL4 RFO       ACCESS:          0  HIT:          0  MISS:          0  HIT %:       -nan  MISS %:       -nan   MPKI: 0
PSCL4 PREFETCH  ACCESS:          0  HIT:          0  MISS:          0  HIT %:       -nan  MISS %:       -nan   MPKI: 0
PSCL4 WRITEBACK ACCESS:          0  HIT:          0  MISS:          0  HIT %:       -nan  MISS %:       -nan   MPKI: 0
PSCL3 TOTAL     ACCESS:    4055251  HIT:    4055251  MISS:          0  HIT %:        100  MISS %:          0   MPKI: 0
PSCL3 LOAD      ACCESS:          0  HIT:          0  MISS:          0  HIT %:       -nan  MISS %:       -nan   MPKI: 0
PSCL3 RFO       ACCESS:          0  HIT:          0  MISS:          0  HIT %:       -nan  MISS %:       -nan   MPKI: 0
PSCL3 PREFETCH  ACCESS:          0  HIT:          0  MISS:          0  HIT %:       -nan  MISS %:       -nan   MPKI: 0
PSCL3 WRITEBACK ACCESS:          0  HIT:          0  MISS:          0  HIT %:       -nan  MISS %:       -nan   MPKI: 0
PSCL2 TOTAL     ACCESS:    4053690  HIT:    4053085  MISS:        605  HIT %:    99.9851  MISS %:  0.0149247   MPKI: 0.003025
PSCL2 LOAD      ACCESS:          0  HIT:          0  MISS:          0  HIT %:       -nan  MISS %:       -nan   MPKI: 0
PSCL2 RFO       ACCESS:          0  HIT:          0  MISS:          0  HIT %:       -nan  MISS %:       -nan   MPKI: 0
PSCL2 PREFETCH  ACCESS:          0  HIT:          0  MISS:          0  HIT %:       -nan  MISS %:       -nan   MPKI: 0
PSCL2 WRITEBACK ACCESS:          0  HIT:          0  MISS:          0  HIT %:       -nan  MISS %:       -nan   MPKI: 0
LLC TOTAL     ACCESS:   25774519  HIT:   11554530  MISS:   14219989  HIT %:    44.8293  MISS %:    55.1707   MPKI: 71.0999
LLC LOAD      ACCESS:   13549763  HIT:    5392275  MISS:    8157488  HIT %:    39.7961  MISS %:    60.2039   MPKI: 40.7874
LLC RFO       ACCESS:      29046  HIT:        268  MISS:      28778  HIT %:   0.922674  MISS %:    99.0773   MPKI: 0.14389
LLC PREFETCH  ACCESS:    6640918  HIT:     890106  MISS:    5750812  HIT %:    13.4034  MISS %:    86.5966   MPKI: 28.7541
LLC WRITEBACK ACCESS:    5276012  HIT:    5013636  MISS:     262376  HIT %:     95.027  MISS %:      4.973   MPKI: 1.31188

RAW hits: 1197847
Loads Generated: 56335064
Loads sent to L1D: 55137217
Stores Generated: 11243415
Stores sent to L1D: 11243414

CPU 3 cumulative IPC: 0.0901553 instructions: 200425164 cycles: 2223109954
ITLB TOTAL     ACCESS:   36730286  HIT:   36730286  MISS:          0  HIT %:        100  MISS %:          0   MPKI: 0
ITLB LOAD      ACCESS:          0  HIT:          0  MISS:          0  HIT %:       -nan  MISS %:       -nan   MPKI: 0
ITLB RFO       ACCESS:          0  HIT:          0  MISS:          0  HIT %:       -nan  MISS %:       -nan   MPKI: 0
ITLB PREFETCH  ACCESS:          0  HIT:          0  MISS:          0  HIT %:       -nan  MISS %:       -nan   MPKI: 0
ITLB WRITEBACK ACCESS:          0  HIT:          0  MISS:          0  HIT %:       -nan  MISS %:       -nan   MPKI: 0
DTLB TOTAL     ACCESS:   56089667  HIT:   47555011  MISS:    8534656  HIT %:    84.7839  MISS %:    15.2161   MPKI: 42.5828
DTLB LOAD      ACCESS:          0  HIT:          0  MISS:          0  HIT %:       -nan  MISS %:       -nan   MPKI: 0
DTLB RFO       ACCESS:          0  HIT:          0  MISS:          0  HIT %:       -nan  MISS %:       -nan   MPKI: 0
DTLB PREFETCH  ACCESS:          0  HIT:          0  MISS:          0  HIT %:       -nan  MISS %:       -nan   MPKI: 0
DTLB WRITEBACK ACCESS:          0  HIT:          0  MISS:          0  HIT %:       -nan  MISS %:       -nan   MPKI: 0
STLB TOTAL     ACCESS:   27085426  HIT:   23700633  MISS:    3384793  HIT %:    87.5033  MISS %:    12.4967   MPKI: 16.8881
STLB LOAD      ACCESS:          0  HIT:          0  MISS:          0  HIT %:       -nan  MISS %:       -nan   MPKI: 0
STLB RFO       ACCESS:          0  HIT:          0  MISS:          0  HIT %:       -nan  MISS %:       -nan   MPKI: 0
STLB PREFETCH  ACCESS:          0  HIT:          0  MISS:          0  HIT %:       -nan  MISS %:       -nan   MPKI: 0
STLB WRITEBACK ACCESS:          0  HIT:          0  MISS:          0  HIT %:       -nan  MISS %:       -nan   MPKI: 0
L1D TOTAL     ACCESS:  100604601  HIT:   83231435  MISS:   17373166  HIT %:    82.7312  MISS %:    17.2688   MPKI: 86.6816
L1D LOAD      ACCESS:   51808886  HIT:   35291172  MISS:   16517714  HIT %:     68.118  MISS %:     31.882   MPKI: 82.4134
L1D RFO       ACCESS:   10895886  HIT:   10866093  MISS:      29793  HIT %:    99.7266  MISS %:   0.273433   MPKI: 0.148649
L1D PREFETCH  ACCESS:   37899829  HIT:   37074170  MISS:     825659  HIT %:    97.8215  MISS %:    2.17853   MPKI: 4.11954
L1D WRITEBACK ACCESS:          0  HIT:          0  MISS:          0  HIT %:       -nan  MISS %:       -nan   MPKI: 0
L1I TOTAL     ACCESS:   37037302  HIT:   37037302  MISS:          0  HIT %:        100  MISS %:          0   MPKI: 0
L1I LOAD      ACCESS:   37037302  HIT:   37037302  MISS:          0  HIT %:        100  MISS %:          0   MPKI: 0
L1I RFO       ACCESS:          0  HIT:          0  MISS:          0  HIT %:       -nan  MISS %:       -nan   MPKI: 0
L1I PREFETCH  ACCESS:          0  HIT:          0  MISS:          0  HIT %:       -nan  MISS %:       -nan   MPKI: 0
L1I WRITEBACK ACCESS:          0  HIT:          0  MISS:          0  HIT %:       -nan  MISS %:       -nan   MPKI: 0
L2C TOTAL     ACCESS:   65931911  HIT:   44872089  MISS:   21059822  HIT %:    68.0582  MISS %:    31.9418   MPKI: 105.076
L2C LOAD      ACCESS:   16506272  HIT:    2711994  MISS:   13794278  HIT %:    16.4301  MISS %:    83.5699   MPKI: 68.8251
L2C RFO       ACCESS:      29793  HIT:        689  MISS:      29104  HIT %:    2.31262  MISS %:    97.6874   MPKI: 0.145211
L2C PREFETCH  ACCESS:   39774246  HIT:   33339396  MISS:    6434850  HIT %:    83.8216  MISS %:    16.1784   MPKI: 32.106
L2C WRITEBACK ACCESS:    5554303  HIT:    5004954  MISS:     549349  HIT %:    90.1095  MISS %:    9.89051   MPKI: 2.74092
PSCL5 TOTAL     ACCESS:    4066001  HIT:    4066001  MISS:          0  HIT %:        100  MISS %:          0   MPKI: 0
PSCL5 LOAD      ACCESS:          0  HIT:          0  MISS:          0  HIT %:       -nan  MISS %:       -nan   MPKI: 0
PSCL5 RFO       ACCESS:          0  HIT:          0  MISS:          0  HIT %:       -nan  MISS %:       -nan   MPKI: 0
PSCL5 PREFETCH  ACCESS:          0  HIT:          0  MISS:          0  HIT %:       -nan  MISS %:       -nan   MPKI: 0
PSCL5 WRITEBACK ACCESS:          0  HIT:          0  MISS:          0  HIT %:       -nan  MISS %:       -nan   MPKI: 0
PSCL4 TOTAL     ACCESS:    4066001  HIT:    4066001  MISS:          0  HIT %:        100  MISS %:          0   MPKI: 0
PSCL4 LOAD      ACCESS:          0  HIT:          0  MISS:          0  HIT %:       -nan  MISS %:       -nan   MPKI: 0
PSCL4 RFO       ACCESS:          0  HIT:          0  MISS:          0  HIT %:       -nan  MISS %:       -nan   MPKI: 0
PSCL4 PREFETCH  ACCESS:          0  HIT:          0  MISS:          0  HIT %:       -nan  MISS %:       -nan   MPKI: 0
PSCL4 WRITEBACK ACCESS:          0  HIT:          0  MISS:          0  HIT %:       -nan  MISS %:       -nan   MPKI: 0
PSCL3 TOTAL     ACCESS:    4066001  HIT:    4066001  MISS:          0  HIT %:        100  MISS %:          0   MPKI: 0
PSCL3 LOAD      ACCESS:          0  HIT:          0  MISS:          0  HIT %:       -nan  MISS %:       -nan   MPKI: 0
PSCL3 RFO       ACCESS:          0  HIT:          0  MISS:          0  HIT %:       -nan  MISS %:       -nan   MPKI: 0
PSCL3 PREFETCH  ACCESS:          0  HIT:          0  MISS:          0  HIT %:       -nan  MISS %:       -nan   MPKI: 0
PSCL3 WRITEBACK ACCESS:          0  HIT:          0  MISS:          0  HIT %:       -nan  MISS %:       -nan   MPKI: 0
PSCL2 TOTAL     ACCESS:    4064306  HIT:    4063701  MISS:        605  HIT %:    99.9851  MISS %:  0.0148857   MPKI: 0.00301858
PSCL2 LOAD      ACCESS:          0  HIT:          0  MISS:          0  HIT %:       -nan  MISS %:       -nan   MPKI: 0
PSCL2 RFO       ACCESS:          0  HIT:          0  MISS:          0  HIT %:       -nan  MISS %:       -nan   MPKI: 0
PSCL2 PREFETCH  ACCESS:          0  HIT:          0  MISS:          0  HIT %:       -nan  MISS %:       -nan   MPKI: 0
PSCL2 WRITEBACK ACCESS:          0  HIT:          0  MISS:          0  HIT %:       -nan  MISS %:       -nan   MPKI: 0
LLC TOTAL     ACCESS:   25800134  HIT:   11566406  MISS:   14233728  HIT %:    44.8308  MISS %:    55.1692   MPKI: 71.0177
LLC LOAD      ACCESS:   13566203  HIT:    5399505  MISS:    8166698  HIT %:    39.8012  MISS %:    60.1988   MPKI: 40.7469
LLC RFO       ACCESS:      29104  HIT:        312  MISS:      28792  HIT %:    1.07202  MISS %:     98.928   MPKI: 0.143655
LLC PREFETCH  ACCESS:    6662924  HIT:     908207  MISS:    5754717  HIT %:    13.6308  MISS %:    86.3692   MPKI: 28.7125
LLC WRITEBACK ACCESS:    5289662  HIT:    5027189  MISS:     262473  HIT %:     95.038  MISS %:      4.962   MPKI: 1.30958

RAW hits: 1205078
Loads Generated: 56453771
Loads sent to L1D: 55248693
Stores Generated: 11266903
Stores sent to L1D: 11266908

Region of Interest Statistics

CPU 0 cumulative IPC: 0.0899723 instructions: 200000000 cycles: 2222907003
ITLB TOTAL     ACCESS:   36648444  HIT:   36648444  MISS:          0  HIT %:        100  MISS %:          0   MPKI: 0
ITLB LOAD TRANSLATION ACCESS:   36648444  HIT:   36648444  MISS:          0  HIT %:        100  MISS %:          0   MPKI: 0
ITLB PREFETCH  REQUESTED:          0  ISSUED:          0  USEFUL:          0  USELESS:          0
ITLB USEFUL LOAD PREFETCHES:          0 PREFETCH ISSUED TO LOWER LEVEL:          0  ACCURACY: -nan
ITLB TIMELY PREFETCHES:          0 LATE PREFETCHES: 0 DROPPED PREFETCHES: 0
ITLB PREFETCHES SAME FILL-ORIGIN LEVEL: 0 DIFFERENT FILL-ORIGIN LEVEL: 0
ITLB AVERAGE MISS LATENCY: -nan cycles
ITLB RQ	ACCESS:   36958797	FORWARD:          0	MERGED:     306106	TO_CACHE:   36652691

DTLB TOTAL     ACCESS:   55980597  HIT:   47464840  MISS:    8515757  HIT %:     84.788  MISS %:     15.212   MPKI: 42.5788
DTLB LOAD TRANSLATION ACCESS:   55980597  HIT:   47464840  MISS:    8515757  HIT %:     84.788  MISS %:     15.212   MPKI: 42.5788
DTLB PREFETCH  REQUESTED:          0  ISSUED:          0  USEFUL:          0  USELESS:          0
DTLB USEFUL LOAD PREFETCHES:          0 PREFETCH ISSUED TO LOWER LEVEL:          0  ACCURACY: -nan
DTLB TIMELY PREFETCHES:          0 LATE PREFETCHES: 0 DROPPED PREFETCHES: 0
DTLB PREFETCHES SAME FILL-ORIGIN LEVEL: 0 DIFFERENT FILL-ORIGIN LEVEL: 0
DTLB AVERAGE MISS LATENCY: 18.8772 cycles
DTLB RQ	ACCESS:   62775449	FORWARD:          0	MERGED:    6224458	TO_CACHE:   56550991

STLB TOTAL     ACCESS:   26883137  HIT:   23506977  MISS:    3376160  HIT %:    87.4413  MISS %:    12.5587   MPKI: 16.8808
STLB LOAD TRANSLATION ACCESS:    8515757  HIT:    5431100  MISS:    3084657  HIT %:    63.7771  MISS %:    36.2229   MPKI: 15.4233
STLB TRANSLATION FROM L1D PREFETCHER ACCESS:   18367380  HIT:   18075877  MISS:     291503  HIT %:    98.4129  MISS %:    1.58707   MPKI: 1.45751
STLB PREFETCH  REQUESTED:          0  ISSUED:          0  USEFUL:     287990  USELESS:       3517
STLB USEFUL LOAD PREFETCHES:     287990 PREFETCH ISSUED TO LOWER LEVEL:          0  ACCURACY: inf
STLB TIMELY PREFETCHES:     287990 LATE PREFETCHES: 10272 DROPPED PREFETCHES: 680491
STLB PREFETCHES SAME FILL-ORIGIN LEVEL: 0 DIFFERENT FILL-ORIGIN LEVEL: 0
STLB AVERAGE MISS LATENCY: 27.5013 cycles
STLB RQ	ACCESS:   90272863	FORWARD:          0	MERGED:   62619437	TO_CACHE:   27653426

STLB Hit, L1D data hit: 0
STLB Hit, L2C data hit: 0
STLB Hit, LLC data hit: 0
STLB Hit, LLC data miss: 0
STLB STLB hints to L2: 0
L1D TOTAL     ACCESS:  100478184  HIT:   83142254  MISS:   17335930  HIT %:    82.7466  MISS %:    17.2534   MPKI: 86.6796
L1D LOAD      ACCESS:   51707242  HIT:   35224969  MISS:   16482273  HIT %:    68.1239  MISS %:    31.8761   MPKI: 82.4114
L1D RFO       ACCESS:   10874229  HIT:   10844485  MISS:      29744  HIT %:    99.7265  MISS %:   0.273527   MPKI: 0.14872
L1D PREFETCH  ACCESS:   37896713  HIT:   37072800  MISS:     823913  HIT %:    97.8259  MISS %:     2.1741   MPKI: 4.11956
L1D PREFETCH  REQUESTED:  238216910  ISSUED:  232492301  USEFUL:     723792  USELESS:     100216
L1D USEFUL LOAD PREFETCHES:     723792 PREFETCH ISSUED TO LOWER LEVEL:   42615856  ACCURACY: 1.69841
L1D TIMELY PREFETCHES:     723792 LATE PREFETCHES: 11527 DROPPED PREFETCHES: 2811341
L1D PREFETCHES SAME FILL-ORIGIN LEVEL: 836064 DIFFERENT FILL-ORIGIN LEVEL: 41779792
L1D AVERAGE MISS LATENCY: 246.4 cycles
L1D RQ	ACCESS:   55145565	FORWARD:          0	MERGED:    3285126	TO_CACHE:   51857083
L1D WQ	ACCESS:   11244173	FORWARD:       3356	MERGED:     325807	TO_CACHE:   10918366
L1D PQ	ACCESS:  150736444	FORWARD:          0	MERGED:   68980587	TO_CACHE:   81755857

L1D UNIQUE REGIONS ACCESSED: 0
L1D REGIONS CONFLICTS: 0
L1D Cross Page Prefetch Requests: 15209493
L1D Same Page Prefetch Requests: 164150987
L1D ROI Sum of L1D PQ occupancy: 1178456686
L1D PREFETCHES PUSHED FROM L2C: 0
L1I TOTAL     ACCESS:   36954536  HIT:   36954536  MISS:          0  HIT %:        100  MISS %:          0   MPKI: 0
L1I LOAD      ACCESS:   36954536  HIT:   36954536  MISS:          0  HIT %:        100  MISS %:          0   MPKI: 0
L1I PREFETCH  REQUESTED:          0  ISSUED:          0  USEFUL:          0  USELESS:          0
L1I USEFUL LOAD PREFETCHES:          0 PREFETCH ISSUED TO LOWER LEVEL:          0  ACCURACY: -nan
L1I TIMELY PREFETCHES:          0 LATE PREFETCHES: 0 DROPPED PREFETCHES: 0
L1I PREFETCHES SAME FILL-ORIGIN LEVEL: 0 DIFFERENT FILL-ORIGIN LEVEL: 0
L1I AVERAGE MISS LATENCY: -nan cycles
L1I RQ	ACCESS:   48247934	FORWARD:          0	MERGED:   11289137	TO_CACHE:   36958797

BTB TOTAL     ACCESS:   35192790  HIT:   35192782  MISS:          8  HIT %:        100  MISS %: 2.27319e-05   MPKI: 4e-05
BTB BRANCH_DIRECT_JUMP	ACCESS:     253376  HIT:     253374  MISS:          2
BTB BRANCH_INDIRECT	ACCESS:          0  HIT:          0  MISS:          0
BTB BRANCH_CONDITIONAL	ACCESS:   34939386  HIT:   34939382  MISS:          4
BTB BRANCH_DIRECT_CALL	ACCESS:         14  HIT:         13  MISS:          1
BTB BRANCH_INDIRECT_CALL	ACCESS:          0  HIT:          0  MISS:          0
BTB BRANCH_RETURN	ACCESS:         14  HIT:         13  MISS:          1
BTB BRANCH_OTHER ACCESS:          0  HIT:          0  MISS:          0

L2C TOTAL     ACCESS:   65534256  HIT:   44458226  MISS:   21076030  HIT %:    67.8397  MISS %:    32.1603   MPKI: 105.38
L2C LOAD      ACCESS:   16470745  HIT:    2710019  MISS:   13760726  HIT %:    16.4535  MISS %:    83.5465   MPKI: 68.8036
L2C DATA LOAD MPKI: 68.8036
L2C INSTRUCTION LOAD MPKI: 0
L2C RFO       ACCESS:      29744  HIT:        711  MISS:      29033  HIT %:     2.3904  MISS %:    97.6096   MPKI: 0.145165
L2C PREFETCH  ACCESS:   39432340  HIT:   32983824  MISS:    6448516  HIT %:    83.6466  MISS %:    16.3534   MPKI: 32.2426
L2C DATA PREFETCH MPKI: 32.2426
L2C INSTRUCTION PREFETCH MPKI: 0
L2C WRITEBACK ACCESS:    5542405  HIT:    4979100  MISS:     563305  HIT %:    89.8365  MISS %:    10.1635   MPKI: 2.81652
L2C LOAD TRANSLATION ACCESS:    3076310  HIT:    2846877  MISS:     229433  HIT %:    92.5419  MISS %:    7.45806   MPKI: 1.14716
L2C TRANSLATION FROM L1D PREFETCHER ACCESS:     982712  HIT:     937695  MISS:      45017  HIT %:    95.4191  MISS %:    4.58089   MPKI: 0.225085
L2C PREFETCH  REQUESTED:          0  ISSUED:          0  USEFUL:     864742  USELESS:    5630640
L2C USEFUL LOAD PREFETCHES:     864742 PREFETCH ISSUED TO LOWER LEVEL:    6678251  ACCURACY: 12.9486
L2C TIMELY PREFETCHES:     864742 LATE PREFETCHES: 229624 DROPPED PREFETCHES: 0
L2C PREFETCHES SAME FILL-ORIGIN LEVEL: 6438828 DIFFERENT FILL-ORIGIN LEVEL: 0
L2C AVERAGE MISS LATENCY: 393.21 cycles
L2C RQ	ACCESS:   20561729	FORWARD:          0	MERGED:          0	TO_CACHE:   20561728
L2C WQ	ACCESS:    5542959	FORWARD:          1	MERGED:          0	TO_CACHE:    5542959
L2C PQ	ACCESS:   41604288	FORWARD:          0	MERGED:      94287	TO_CACHE:   41510001

L2C Instructions Evicting Data 0
L2C Translations Evicting Data 265171
L2C Data Evicting Data 19980476
L2C Instructions Evicting Instructions 0
L2C Translations Evicting Instructions 0
L2C Data Evicting Instructions 0
L2C Instructions Evicting Translations 0
L2C Translations Evicting Translations 9300
L2C Data Evicting Translations 259382
L2C Dense regions hint from L2: 0
PSCL5 TOTAL     ACCESS:    4057962  HIT:    4057962  MISS:          0  HIT %:        100  MISS %:          0   MPKI: 0
PSCL5 LOAD TRANSLATION ACCESS:    3075756  HIT:    3075756  MISS:          0  HIT %:        100  MISS %:          0   MPKI: 0
PSCL5 TRANSLATION FROM L1D PREFETCHER ACCESS:     982206  HIT:     982206  MISS:          0  HIT %:        100  MISS %:          0   MPKI: 0
PSCL5 PREFETCH  REQUESTED:          0  ISSUED:          0  USEFUL:          0  USELESS:          0
PSCL5 USEFUL LOAD PREFETCHES:          0 PREFETCH ISSUED TO LOWER LEVEL:          0  ACCURACY: -nan
PSCL5 TIMELY PREFETCHES:          0 LATE PREFETCHES: 0 DROPPED PREFETCHES: 0
PSCL5 PREFETCHES SAME FILL-ORIGIN LEVEL: 0 DIFFERENT FILL-ORIGIN LEVEL: 0

PSCL4 TOTAL     ACCESS:    4057962  HIT:    4057962  MISS:          0  HIT %:        100  MISS %:          0   MPKI: 0
PSCL4 LOAD TRANSLATION ACCESS:    3075756  HIT:    3075756  MISS:          0  HIT %:        100  MISS %:          0   MPKI: 0
PSCL4 TRANSLATION FROM L1D PREFETCHER ACCESS:     982206  HIT:     982206  MISS:          0  HIT %:        100  MISS %:          0   MPKI: 0
PSCL4 PREFETCH  REQUESTED:          0  ISSUED:          0  USEFUL:          0  USELESS:          0
PSCL4 USEFUL LOAD PREFETCHES:          0 PREFETCH ISSUED TO LOWER LEVEL:          0  ACCURACY: -nan
PSCL4 TIMELY PREFETCHES:          0 LATE PREFETCHES: 0 DROPPED PREFETCHES: 0
PSCL4 PREFETCHES SAME FILL-ORIGIN LEVEL: 0 DIFFERENT FILL-ORIGIN LEVEL: 0

PSCL3 TOTAL     ACCESS:    4057962  HIT:    4057962  MISS:          0  HIT %:        100  MISS %:          0   MPKI: 0
PSCL3 LOAD TRANSLATION ACCESS:    3075756  HIT:    3075756  MISS:          0  HIT %:        100  MISS %:          0   MPKI: 0
PSCL3 TRANSLATION FROM L1D PREFETCHER ACCESS:     982206  HIT:     982206  MISS:          0  HIT %:        100  MISS %:          0   MPKI: 0
PSCL3 PREFETCH  REQUESTED:          0  ISSUED:          0  USEFUL:          0  USELESS:          0
PSCL3 USEFUL LOAD PREFETCHES:          0 PREFETCH ISSUED TO LOWER LEVEL:          0  ACCURACY: -nan
PSCL3 TIMELY PREFETCHES:          0 LATE PREFETCHES: 0 DROPPED PREFETCHES: 0
PSCL3 PREFETCHES SAME FILL-ORIGIN LEVEL: 0 DIFFERENT FILL-ORIGIN LEVEL: 0

PSCL2 TOTAL     ACCESS:    4056290  HIT:    4055686  MISS:        604  HIT %:    99.9851  MISS %:  0.0148905   MPKI: 0.00302
PSCL2 LOAD TRANSLATION ACCESS:    3075769  HIT:    3075165  MISS:        604  HIT %:    99.9804  MISS %:  0.0196374   MPKI: 0.00302
PSCL2 TRANSLATION FROM L1D PREFETCHER ACCESS:     980521  HIT:     980521  MISS:          0  HIT %:        100  MISS %:          0   MPKI: 0
PSCL2 PREFETCH  REQUESTED:          0  ISSUED:          0  USEFUL:          0  USELESS:          0
PSCL2 USEFUL LOAD PREFETCHES:          0 PREFETCH ISSUED TO LOWER LEVEL:          0  ACCURACY: -nan
PSCL2 TIMELY PREFETCHES:          0 LATE PREFETCHES: 0 DROPPED PREFETCHES: 0
PSCL2 PREFETCHES SAME FILL-ORIGIN LEVEL: 0 DIFFERENT FILL-ORIGIN LEVEL: 0

LLC TOTAL     ACCESS:   25788115  HIT:   11563436  MISS:   14224679  HIT %:    44.8402  MISS %:    55.1598   MPKI: 71.1234
LLC LOAD      ACCESS:   13531099  HIT:    5366656  MISS:    8164443  HIT %:    39.6616  MISS %:    60.3384   MPKI: 40.8222
LLC RFO       ACCESS:      29033  HIT:        304  MISS:      28729  HIT %:    1.04708  MISS %:    98.9529   MPKI: 0.143645
LLC PREFETCH  ACCESS:    6678139  HIT:     921944  MISS:    5756195  HIT %:    13.8054  MISS %:    86.1946   MPKI: 28.781
LLC WRITEBACK ACCESS:    5275394  HIT:    5020307  MISS:     255087  HIT %:    95.1646  MISS %:    4.83541   MPKI: 1.27544
LLC LOAD TRANSLATION ACCESS:     229433  HIT:     214117  MISS:      15316  HIT %:    93.3244  MISS %:    6.67559   MPKI: 0.07658
LLC TRANSLATION FROM L1D PREFETCHER ACCESS:      45017  HIT:      40108  MISS:       4909  HIT %:    89.0952  MISS %:    10.9048   MPKI: 0.024545
LLC PREFETCH  REQUESTED:          0  ISSUED:          0  USEFUL:    1071607  USELESS:   21982017
LLC USEFUL LOAD PREFETCHES:    1071607 PREFETCH ISSUED TO LOWER LEVEL:  177599012  ACCURACY: 0.603386
LLC TIMELY PREFETCHES:    1071607 LATE PREFETCHES: 0 DROPPED PREFETCHES: 0
LLC PREFETCHES SAME FILL-ORIGIN LEVEL: 0 DIFFERENT FILL-ORIGIN LEVEL: 0
LLC AVERAGE MISS LATENCY: 2148.7 cycles
LLC RQ	ACCESS:   55397220	FORWARD:          0	MERGED:          0	TO_CACHE:   55397214
LLC WQ	ACCESS:   21122314	FORWARD:          8	MERGED:          0	TO_CACHE:   21122314
LLC PQ	ACCESS:   26652369	FORWARD:          0	MERGED:          0	TO_CACHE:   26652367

LLC Dense regions hint to LLC: 0

RAW hits: 1194883
Loads Generated: 56334682
Loads sent to L1D: 55139800
Stores Generated: 11243077
Stores sent to L1D: 11243074
Major fault: 0 Minor fault: 31031
Allocated PAGES: 124123

CPU 1 cumulative IPC: 0.0899738 instructions: 200000000 cycles: 2222869540
ITLB TOTAL     ACCESS:   36648179  HIT:   36648179  MISS:          0  HIT %:        100  MISS %:          0   MPKI: 0
ITLB LOAD TRANSLATION ACCESS:   36648179  HIT:   36648179  MISS:          0  HIT %:        100  MISS %:          0   MPKI: 0
ITLB PREFETCH  REQUESTED:          0  ISSUED:          0  USEFUL:          0  USELESS:          0
ITLB USEFUL LOAD PREFETCHES:          0 PREFETCH ISSUED TO LOWER LEVEL:          0  ACCURACY: -nan
ITLB TIMELY PREFETCHES:          0 LATE PREFETCHES: 0 DROPPED PREFETCHES: 0
ITLB PREFETCHES SAME FILL-ORIGIN LEVEL: 0 DIFFERENT FILL-ORIGIN LEVEL: 0
ITLB AVERAGE MISS LATENCY: -nan cycles
ITLB RQ	ACCESS:   36959456	FORWARD:          0	MERGED:     306190	TO_CACHE:   36653266

DTLB TOTAL     ACCESS:   55975325  HIT:   47460389  MISS:    8514936  HIT %:    84.7881  MISS %:    15.2119   MPKI: 42.5747
DTLB LOAD TRANSLATION ACCESS:   55975325  HIT:   47460389  MISS:    8514936  HIT %:    84.7881  MISS %:    15.2119   MPKI: 42.5747
DTLB PREFETCH  REQUESTED:          0  ISSUED:          0  USEFUL:          0  USELESS:          0
DTLB USEFUL LOAD PREFETCHES:          0 PREFETCH ISSUED TO LOWER LEVEL:          0  ACCURACY: -nan
DTLB TIMELY PREFETCHES:          0 LATE PREFETCHES: 0 DROPPED PREFETCHES: 0
DTLB PREFETCHES SAME FILL-ORIGIN LEVEL: 0 DIFFERENT FILL-ORIGIN LEVEL: 0
DTLB AVERAGE MISS LATENCY: 19.001 cycles
DTLB RQ	ACCESS:   62772504	FORWARD:          0	MERGED:    6225243	TO_CACHE:   56547261

STLB TOTAL     ACCESS:   26931761  HIT:   23554944  MISS:    3376817  HIT %:    87.4616  MISS %:    12.5384   MPKI: 16.8841
STLB LOAD TRANSLATION ACCESS:    8514936  HIT:    5429803  MISS:    3085133  HIT %:     63.768  MISS %:     36.232   MPKI: 15.4257
STLB TRANSLATION FROM L1D PREFETCHER ACCESS:   18416825  HIT:   18125141  MISS:     291684  HIT %:    98.4162  MISS %:    1.58379   MPKI: 1.45842
STLB PREFETCH  REQUESTED:          0  ISSUED:          0  USEFUL:     287974  USELESS:       3717
STLB USEFUL LOAD PREFETCHES:     287974 PREFETCH ISSUED TO LOWER LEVEL:          0  ACCURACY: inf
STLB TIMELY PREFETCHES:     287974 LATE PREFETCHES: 10376 DROPPED PREFETCHES: 677579
STLB PREFETCHES SAME FILL-ORIGIN LEVEL: 0 DIFFERENT FILL-ORIGIN LEVEL: 0
STLB AVERAGE MISS LATENCY: 27.8506 cycles
STLB RQ	ACCESS:   90168859	FORWARD:          0	MERGED:   62469171	TO_CACHE:   27699688

STLB Hit, L1D data hit: 0
STLB Hit, L2C data hit: 0
STLB Hit, LLC data hit: 0
STLB Hit, LLC data miss: 0
STLB STLB hints to L2: 0
L1D TOTAL     ACCESS:  100352148  HIT:   83015979  MISS:   17336169  HIT %:    82.7247  MISS %:    17.2753   MPKI: 86.6808
L1D LOAD      ACCESS:   51703608  HIT:   35221693  MISS:   16481915  HIT %:    68.1223  MISS %:    31.8777   MPKI: 82.4096
L1D RFO       ACCESS:   10873772  HIT:   10844027  MISS:      29745  HIT %:    99.7265  MISS %:   0.273548   MPKI: 0.148725
L1D PREFETCH  ACCESS:   37774768  HIT:   36950259  MISS:     824509  HIT %:    97.8173  MISS %:     2.1827   MPKI: 4.12254
L1D PREFETCH  REQUESTED:  238139868  ISSUED:  232247023  USEFUL:     724131  USELESS:     100502
L1D USEFUL LOAD PREFETCHES:     724131 PREFETCH ISSUED TO LOWER LEVEL:   42588459  ACCURACY: 1.7003
L1D TIMELY PREFETCHES:     724131 LATE PREFETCHES: 11532 DROPPED PREFETCHES: 2804667
L1D PREFETCHES SAME FILL-ORIGIN LEVEL: 837546 DIFFERENT FILL-ORIGIN LEVEL: 41750913
L1D AVERAGE MISS LATENCY: 246.603 cycles
L1D RQ	ACCESS:   55143499	FORWARD:          0	MERGED:    3285709	TO_CACHE:   51854391
L1D WQ	ACCESS:   11244530	FORWARD:       3399	MERGED:     326417	TO_CACHE:   10918113
L1D PQ	ACCESS:  150594937	FORWARD:          0	MERGED:   68942851	TO_CACHE:   81652086

L1D UNIQUE REGIONS ACCESSED: 0
L1D REGIONS CONFLICTS: 0
L1D Cross Page Prefetch Requests: 15168712
L1D Same Page Prefetch Requests: 164026647
L1D ROI Sum of L1D PQ occupancy: 1180463334
L1D PREFETCHES PUSHED FROM L2C: 0
L1I TOTAL     ACCESS:   36954343  HIT:   36954343  MISS:          0  HIT %:        100  MISS %:          0   MPKI: 0
L1I LOAD      ACCESS:   36954343  HIT:   36954343  MISS:          0  HIT %:        100  MISS %:          0   MPKI: 0
L1I PREFETCH  REQUESTED:          0  ISSUED:          0  USEFUL:          0  USELESS:          0
L1I USEFUL LOAD PREFETCHES:          0 PREFETCH ISSUED TO LOWER LEVEL:          0  ACCURACY: -nan
L1I TIMELY PREFETCHES:          0 LATE PREFETCHES: 0 DROPPED PREFETCHES: 0
L1I PREFETCHES SAME FILL-ORIGIN LEVEL: 0 DIFFERENT FILL-ORIGIN LEVEL: 0
L1I AVERAGE MISS LATENCY: -nan cycles
L1I RQ	ACCESS:   48248787	FORWARD:          0	MERGED:   11289331	TO_CACHE:   36959456

BTB TOTAL     ACCESS:   35192511  HIT:   35192503  MISS:          8  HIT %:        100  MISS %: 2.27321e-05   MPKI: 4e-05
BTB BRANCH_DIRECT_JUMP	ACCESS:     253396  HIT:     253394  MISS:          2
BTB BRANCH_INDIRECT	ACCESS:          0  HIT:          0  MISS:          0
BTB BRANCH_CONDITIONAL	ACCESS:   34939087  HIT:   34939083  MISS:          4
BTB BRANCH_DIRECT_CALL	ACCESS:         14  HIT:         13  MISS:          1
BTB BRANCH_INDIRECT_CALL	ACCESS:          0  HIT:          0  MISS:          0
BTB BRANCH_RETURN	ACCESS:         14  HIT:         13  MISS:          1
BTB BRANCH_OTHER ACCESS:          0  HIT:          0  MISS:          0

L2C TOTAL     ACCESS:   65586713  HIT:   44486503  MISS:   21100210  HIT %:    67.8285  MISS %:    32.1715   MPKI: 105.501
L2C LOAD      ACCESS:   16470382  HIT:    2709245  MISS:   13761137  HIT %:    16.4492  MISS %:    83.5508   MPKI: 68.8057
L2C DATA LOAD MPKI: 68.8057
L2C INSTRUCTION LOAD MPKI: 0
L2C RFO       ACCESS:      29745  HIT:        685  MISS:      29060  HIT %:    2.30291  MISS %:    97.6971   MPKI: 0.1453
L2C PREFETCH  ACCESS:   39487435  HIT:   33046638  MISS:    6440797  HIT %:     83.689  MISS %:     16.311   MPKI: 32.204
L2C DATA PREFETCH MPKI: 32.204
L2C INSTRUCTION PREFETCH MPKI: 0
L2C WRITEBACK ACCESS:    5542446  HIT:    4966558  MISS:     575888  HIT %:    89.6095  MISS %:    10.3905   MPKI: 2.87944
L2C LOAD TRANSLATION ACCESS:    3076695  HIT:    2827110  MISS:     249585  HIT %:    91.8879  MISS %:    8.11211   MPKI: 1.24792
L2C TRANSLATION FROM L1D PREFETCHER ACCESS:     980010  HIT:     936267  MISS:      43743  HIT %:    95.5365  MISS %:    4.46353   MPKI: 0.218715
L2C PREFETCH  REQUESTED:          0  ISSUED:          0  USEFUL:     862105  USELESS:    5623394
L2C USEFUL LOAD PREFETCHES:     862105 PREFETCH ISSUED TO LOWER LEVEL:    6670275  ACCURACY: 12.9246
L2C TIMELY PREFETCHES:     862105 LATE PREFETCHES: 229306 DROPPED PREFETCHES: 0
L2C PREFETCHES SAME FILL-ORIGIN LEVEL: 6430679 DIFFERENT FILL-ORIGIN LEVEL: 0
L2C AVERAGE MISS LATENCY: 392.174 cycles
L2C RQ	ACCESS:   20559517	FORWARD:          0	MERGED:          0	TO_CACHE:   20559516
L2C WQ	ACCESS:    5543088	FORWARD:          1	MERGED:          0	TO_CACHE:    5543088
L2C PQ	ACCESS:   41633186	FORWARD:          0	MERGED:      92303	TO_CACHE:   41540883

L2C Instructions Evicting Data 0
L2C Translations Evicting Data 282518
L2C Data Evicting Data 19961683
L2C Instructions Evicting Instructions 0
L2C Translations Evicting Instructions 0
L2C Data Evicting Instructions 0
L2C Instructions Evicting Translations 0
L2C Translations Evicting Translations 10833
L2C Data Evicting Translations 271238
L2C Dense regions hint from L2: 0
PSCL5 TOTAL     ACCESS:    4055670  HIT:    4055670  MISS:          0  HIT %:        100  MISS %:          0   MPKI: 0
PSCL5 LOAD TRANSLATION ACCESS:    3076142  HIT:    3076142  MISS:          0  HIT %:        100  MISS %:          0   MPKI: 0
PSCL5 TRANSLATION FROM L1D PREFETCHER ACCESS:     979528  HIT:     979528  MISS:          0  HIT %:        100  MISS %:          0   MPKI: 0
PSCL5 PREFETCH  REQUESTED:          0  ISSUED:          0  USEFUL:          0  USELESS:          0
PSCL5 USEFUL LOAD PREFETCHES:          0 PREFETCH ISSUED TO LOWER LEVEL:          0  ACCURACY: -nan
PSCL5 TIMELY PREFETCHES:          0 LATE PREFETCHES: 0 DROPPED PREFETCHES: 0
PSCL5 PREFETCHES SAME FILL-ORIGIN LEVEL: 0 DIFFERENT FILL-ORIGIN LEVEL: 0

PSCL4 TOTAL     ACCESS:    4055670  HIT:    4055670  MISS:          0  HIT %:        100  MISS %:          0   MPKI: 0
PSCL4 LOAD TRANSLATION ACCESS:    3076142  HIT:    3076142  MISS:          0  HIT %:        100  MISS %:          0   MPKI: 0
PSCL4 TRANSLATION FROM L1D PREFETCHER ACCESS:     979528  HIT:     979528  MISS:          0  HIT %:        100  MISS %:          0   MPKI: 0
PSCL4 PREFETCH  REQUESTED:          0  ISSUED:          0  USEFUL:          0  USELESS:          0
PSCL4 USEFUL LOAD PREFETCHES:          0 PREFETCH ISSUED TO LOWER LEVEL:          0  ACCURACY: -nan
PSCL4 TIMELY PREFETCHES:          0 LATE PREFETCHES: 0 DROPPED PREFETCHES: 0
PSCL4 PREFETCHES SAME FILL-ORIGIN LEVEL: 0 DIFFERENT FILL-ORIGIN LEVEL: 0

PSCL3 TOTAL     ACCESS:    4055670  HIT:    4055670  MISS:          0  HIT %:        100  MISS %:          0   MPKI: 0
PSCL3 LOAD TRANSLATION ACCESS:    3076142  HIT:    3076142  MISS:          0  HIT %:        100  MISS %:          0   MPKI: 0
PSCL3 TRANSLATION FROM L1D PREFETCHER ACCESS:     979528  HIT:     979528  MISS:          0  HIT %:        100  MISS %:          0   MPKI: 0
PSCL3 PREFETCH  REQUESTED:          0  ISSUED:          0  USEFUL:          0  USELESS:          0
PSCL3 USEFUL LOAD PREFETCHES:          0 PREFETCH ISSUED TO LOWER LEVEL:          0  ACCURACY: -nan
PSCL3 TIMELY PREFETCHES:          0 LATE PREFETCHES: 0 DROPPED PREFETCHES: 0
PSCL3 PREFETCHES SAME FILL-ORIGIN LEVEL: 0 DIFFERENT FILL-ORIGIN LEVEL: 0

PSCL2 TOTAL     ACCESS:    4054010  HIT:    4053405  MISS:        605  HIT %:    99.9851  MISS %:  0.0149235   MPKI: 0.003025
PSCL2 LOAD TRANSLATION ACCESS:    3076157  HIT:    3075552  MISS:        605  HIT %:    99.9803  MISS %:  0.0196674   MPKI: 0.003025
PSCL2 TRANSLATION FROM L1D PREFETCHER ACCESS:     977853  HIT:     977853  MISS:          0  HIT %:        100  MISS %:          0   MPKI: 0
PSCL2 PREFETCH  REQUESTED:          0  ISSUED:          0  USEFUL:          0  USELESS:          0
PSCL2 USEFUL LOAD PREFETCHES:          0 PREFETCH ISSUED TO LOWER LEVEL:          0  ACCURACY: -nan
PSCL2 TIMELY PREFETCHES:          0 LATE PREFETCHES: 0 DROPPED PREFETCHES: 0
PSCL2 PREFETCHES SAME FILL-ORIGIN LEVEL: 0 DIFFERENT FILL-ORIGIN LEVEL: 0

LLC TOTAL     ACCESS:   25804452  HIT:   11578652  MISS:   14225800  HIT %:    44.8708  MISS %:    55.1292   MPKI: 71.129
LLC LOAD      ACCESS:   13531829  HIT:    5362487  MISS:    8169342  HIT %:    39.6287  MISS %:    60.3713   MPKI: 40.8467
LLC RFO       ACCESS:      29060  HIT:        291  MISS:      28769  HIT %:    1.00138  MISS %:    98.9986   MPKI: 0.143845
LLC PREFETCH  ACCESS:    6670102  HIT:     921460  MISS:    5748642  HIT %:    13.8148  MISS %:    86.1852   MPKI: 28.7432
LLC WRITEBACK ACCESS:    5280133  HIT:    5021857  MISS:     258276  HIT %:    95.1085  MISS %:    4.89147   MPKI: 1.29138
LLC LOAD TRANSLATION ACCESS:     249585  HIT:     233970  MISS:      15615  HIT %:    93.7436  MISS %:    6.25639   MPKI: 0.078075
LLC TRANSLATION FROM L1D PREFETCHER ACCESS:      43743  HIT:      38587  MISS:       5156  HIT %:     88.213  MISS %:     11.787   MPKI: 0.02578
LLC PREFETCH  REQUESTED:          0  ISSUED:          0  USEFUL:    1071607  USELESS:   21982017
LLC USEFUL LOAD PREFETCHES:    1071607 PREFETCH ISSUED TO LOWER LEVEL:  177599012  ACCURACY: 0.603386
LLC TIMELY PREFETCHES:    1071607 LATE PREFETCHES: 0 DROPPED PREFETCHES: 0
LLC PREFETCHES SAME FILL-ORIGIN LEVEL: 0 DIFFERENT FILL-ORIGIN LEVEL: 0
LLC AVERAGE MISS LATENCY: 2148.53 cycles
LLC RQ	ACCESS:   55397220	FORWARD:          0	MERGED:          0	TO_CACHE:   55397214
LLC WQ	ACCESS:   21122314	FORWARD:          8	MERGED:          0	TO_CACHE:   21122314
LLC PQ	ACCESS:   26652369	FORWARD:          0	MERGED:          0	TO_CACHE:   26652367

LLC Dense regions hint to LLC: 0

RAW hits: 1198285
Loads Generated: 56334919
Loads sent to L1D: 55136633
Stores Generated: 11243243
Stores sent to L1D: 11243244
Major fault: 0 Minor fault: 31031
Allocated PAGES: 124123

CPU 2 cumulative IPC: 0.0899641 instructions: 200000001 cycles: 2223109954
ITLB TOTAL     ACCESS:   36647756  HIT:   36647756  MISS:          0  HIT %:        100  MISS %:          0   MPKI: 0
ITLB LOAD TRANSLATION ACCESS:   36647756  HIT:   36647756  MISS:          0  HIT %:        100  MISS %:          0   MPKI: 0
ITLB PREFETCH  REQUESTED:          0  ISSUED:          0  USEFUL:          0  USELESS:          0
ITLB USEFUL LOAD PREFETCHES:          0 PREFETCH ISSUED TO LOWER LEVEL:          0  ACCURACY: -nan
ITLB TIMELY PREFETCHES:          0 LATE PREFETCHES: 0 DROPPED PREFETCHES: 0
ITLB PREFETCHES SAME FILL-ORIGIN LEVEL: 0 DIFFERENT FILL-ORIGIN LEVEL: 0
ITLB AVERAGE MISS LATENCY: -nan cycles
ITLB RQ	ACCESS:   36953974	FORWARD:          0	MERGED:     306218	TO_CACHE:   36647756

DTLB TOTAL     ACCESS:   55976664  HIT:   47462450  MISS:    8514214  HIT %:    84.7897  MISS %:    15.2103   MPKI: 42.5711
DTLB LOAD TRANSLATION ACCESS:   55976664  HIT:   47462450  MISS:    8514214  HIT %:    84.7897  MISS %:    15.2103   MPKI: 42.5711
DTLB PREFETCH  REQUESTED:          0  ISSUED:          0  USEFUL:          0  USELESS:          0
DTLB USEFUL LOAD PREFETCHES:          0 PREFETCH ISSUED TO LOWER LEVEL:          0  ACCURACY: -nan
DTLB TIMELY PREFETCHES:          0 LATE PREFETCHES: 0 DROPPED PREFETCHES: 0
DTLB PREFETCHES SAME FILL-ORIGIN LEVEL: 0 DIFFERENT FILL-ORIGIN LEVEL: 0
DTLB AVERAGE MISS LATENCY: 18.8315 cycles
DTLB RQ	ACCESS:   62766104	FORWARD:          0	MERGED:    6224417	TO_CACHE:   56541687

STLB TOTAL     ACCESS:   27070859  HIT:   23693828  MISS:    3377031  HIT %:    87.5252  MISS %:    12.4748   MPKI: 16.8852
STLB LOAD TRANSLATION ACCESS:    8514214  HIT:    5429117  MISS:    3085097  HIT %:    63.7653  MISS %:    36.2347   MPKI: 15.4255
STLB TRANSLATION FROM L1D PREFETCHER ACCESS:   18556645  HIT:   18264711  MISS:     291934  HIT %:    98.4268  MISS %:     1.5732   MPKI: 1.45967
STLB PREFETCH  REQUESTED:          0  ISSUED:          0  USEFUL:     288307  USELESS:       3630
STLB USEFUL LOAD PREFETCHES:     288307 PREFETCH ISSUED TO LOWER LEVEL:          0  ACCURACY: inf
STLB TIMELY PREFETCHES:     288307 LATE PREFETCHES: 10463 DROPPED PREFETCHES: 676836
STLB PREFETCHES SAME FILL-ORIGIN LEVEL: 0 DIFFERENT FILL-ORIGIN LEVEL: 0
STLB AVERAGE MISS LATENCY: 27.3395 cycles
STLB RQ	ACCESS:   90265912	FORWARD:          0	MERGED:   62431061	TO_CACHE:   27834851

STLB Hit, L1D data hit: 0
STLB Hit, L2C data hit: 0
STLB Hit, LLC data hit: 0
STLB Hit, LLC data miss: 0
STLB STLB hints to L2: 0
L1D TOTAL     ACCESS:  100285042  HIT:   82950282  MISS:   17334760  HIT %:    82.7145  MISS %:    17.2855   MPKI: 86.6738
L1D LOAD      ACCESS:   51704309  HIT:   35222120  MISS:   16482189  HIT %:    68.1222  MISS %:    31.8778   MPKI: 82.4109
L1D RFO       ACCESS:   10874446  HIT:   10844692  MISS:      29754  HIT %:    99.7264  MISS %:   0.273614   MPKI: 0.14877
L1D PREFETCH  ACCESS:   37706287  HIT:   36883470  MISS:     822817  HIT %:    97.8178  MISS %:    2.18217   MPKI: 4.11408
L1D PREFETCH  REQUESTED:  238338622  ISSUED:  232299520  USEFUL:     723620  USELESS:      99200
L1D USEFUL LOAD PREFETCHES:     723620 PREFETCH ISSUED TO LOWER LEVEL:   42751720  ACCURACY: 1.69261
L1D TIMELY PREFETCHES:     723620 LATE PREFETCHES: 11578 DROPPED PREFETCHES: 2803797
L1D PREFETCHES SAME FILL-ORIGIN LEVEL: 835056 DIFFERENT FILL-ORIGIN LEVEL: 41916664
L1D AVERAGE MISS LATENCY: 246.177 cycles
L1D RQ	ACCESS:   55137217	FORWARD:          0	MERGED:    3285127	TO_CACHE:   51848613
L1D WQ	ACCESS:   11243414	FORWARD:       3478	MERGED:     325923	TO_CACHE:   10917491
L1D PQ	ACCESS:  150547822	FORWARD:          0	MERGED:   68796123	TO_CACHE:   81751698

L1D UNIQUE REGIONS ACCESSED: 0
L1D REGIONS CONFLICTS: 0
L1D Cross Page Prefetch Requests: 15264670
L1D Same Page Prefetch Requests: 163743672
L1D ROI Sum of L1D PQ occupancy: 1177982152
L1D PREFETCHES PUSHED FROM L2C: 0
L1I TOTAL     ACCESS:   36953974  HIT:   36953974  MISS:          0  HIT %:        100  MISS %:          0   MPKI: 0
L1I LOAD      ACCESS:   36953974  HIT:   36953974  MISS:          0  HIT %:        100  MISS %:          0   MPKI: 0
L1I PREFETCH  REQUESTED:          0  ISSUED:          0  USEFUL:          0  USELESS:          0
L1I USEFUL LOAD PREFETCHES:          0 PREFETCH ISSUED TO LOWER LEVEL:          0  ACCURACY: -nan
L1I TIMELY PREFETCHES:          0 LATE PREFETCHES: 0 DROPPED PREFETCHES: 0
L1I PREFETCHES SAME FILL-ORIGIN LEVEL: 0 DIFFERENT FILL-ORIGIN LEVEL: 0
L1I AVERAGE MISS LATENCY: -nan cycles
L1I RQ	ACCESS:   48242242	FORWARD:          0	MERGED:   11288268	TO_CACHE:   36953974

BTB TOTAL     ACCESS:   35192299  HIT:   35192291  MISS:          8  HIT %:        100  MISS %: 2.27322e-05   MPKI: 4e-05
BTB BRANCH_DIRECT_JUMP	ACCESS:     253484  HIT:     253482  MISS:          2
BTB BRANCH_INDIRECT	ACCESS:          0  HIT:          0  MISS:          0
BTB BRANCH_CONDITIONAL	ACCESS:   34938787  HIT:   34938783  MISS:          4
BTB BRANCH_DIRECT_CALL	ACCESS:         14  HIT:         13  MISS:          1
BTB BRANCH_INDIRECT_CALL	ACCESS:          0  HIT:          0  MISS:          0
BTB BRANCH_RETURN	ACCESS:         14  HIT:         13  MISS:          1
BTB BRANCH_OTHER ACCESS:          0  HIT:          0  MISS:          0

L2C TOTAL     ACCESS:   65779033  HIT:   44688119  MISS:   21090914  HIT %:    67.9367  MISS %:    32.0633   MPKI: 105.455
L2C LOAD      ACCESS:   16470610  HIT:    2692558  MISS:   13778052  HIT %:    16.3477  MISS %:    83.6523   MPKI: 68.8903
L2C DATA LOAD MPKI: 68.8903
L2C INSTRUCTION LOAD MPKI: 0
L2C RFO       ACCESS:      29754  HIT:        708  MISS:      29046  HIT %:    2.37951  MISS %:    97.6205   MPKI: 0.14523
L2C PREFETCH  ACCESS:   39679789  HIT:   33267160  MISS:    6412629  HIT %:    83.8391  MISS %:    16.1609   MPKI: 32.0631
L2C DATA PREFETCH MPKI: 32.0631
L2C INSTRUCTION PREFETCH MPKI: 0
L2C WRITEBACK ACCESS:    5542567  HIT:    4950160  MISS:     592407  HIT %:    89.3117  MISS %:    10.6883   MPKI: 2.96203
L2C LOAD TRANSLATION ACCESS:    3076574  HIT:    2841178  MISS:     235396  HIT %:    92.3488  MISS %:    7.65124   MPKI: 1.17698
L2C TRANSLATION FROM L1D PREFETCHER ACCESS:     979739  HIT:     936355  MISS:      43384  HIT %:    95.5719  MISS %:    4.42812   MPKI: 0.21692
L2C PREFETCH  REQUESTED:          0  ISSUED:          0  USEFUL:     857764  USELESS:    5599396
L2C USEFUL LOAD PREFETCHES:     857764 PREFETCH ISSUED TO LOWER LEVEL:    6640918  ACCURACY: 12.9163
L2C TIMELY PREFETCHES:     857764 LATE PREFETCHES: 228289 DROPPED PREFETCHES: 0
L2C PREFETCHES SAME FILL-ORIGIN LEVEL: 6401639 DIFFERENT FILL-ORIGIN LEVEL: 0
L2C AVERAGE MISS LATENCY: 390.838 cycles
L2C RQ	ACCESS:   20556679	FORWARD:          0	MERGED:          0	TO_CACHE:   20556678
L2C WQ	ACCESS:    5542567	FORWARD:          1	MERGED:          0	TO_CACHE:    5542567
L2C PQ	ACCESS:   41804629	FORWARD:          0	MERGED:      89421	TO_CACHE:   41715208

L2C Instructions Evicting Data 0
L2C Translations Evicting Data 277877
L2C Data Evicting Data 19952105
L2C Instructions Evicting Instructions 0
L2C Translations Evicting Instructions 0
L2C Data Evicting Instructions 0
L2C Instructions Evicting Translations 0
L2C Translations Evicting Translations 903
L2C Data Evicting Translations 267622
L2C Dense regions hint from L2: 0
PSCL5 TOTAL     ACCESS:    4055251  HIT:    4055251  MISS:          0  HIT %:        100  MISS %:          0   MPKI: 0
PSCL5 LOAD TRANSLATION ACCESS:    3076018  HIT:    3076018  MISS:          0  HIT %:        100  MISS %:          0   MPKI: 0
PSCL5 TRANSLATION FROM L1D PREFETCHER ACCESS:     979233  HIT:     979233  MISS:          0  HIT %:        100  MISS %:          0   MPKI: 0
PSCL5 PREFETCH  REQUESTED:          0  ISSUED:          0  USEFUL:          0  USELESS:          0
PSCL5 USEFUL LOAD PREFETCHES:          0 PREFETCH ISSUED TO LOWER LEVEL:          0  ACCURACY: -nan
PSCL5 TIMELY PREFETCHES:          0 LATE PREFETCHES: 0 DROPPED PREFETCHES: 0
PSCL5 PREFETCHES SAME FILL-ORIGIN LEVEL: 0 DIFFERENT FILL-ORIGIN LEVEL: 0

PSCL4 TOTAL     ACCESS:    4055251  HIT:    4055251  MISS:          0  HIT %:        100  MISS %:          0   MPKI: 0
PSCL4 LOAD TRANSLATION ACCESS:    3076018  HIT:    3076018  MISS:          0  HIT %:        100  MISS %:          0   MPKI: 0
PSCL4 TRANSLATION FROM L1D PREFETCHER ACCESS:     979233  HIT:     979233  MISS:          0  HIT %:        100  MISS %:          0   MPKI: 0
PSCL4 PREFETCH  REQUESTED:          0  ISSUED:          0  USEFUL:          0  USELESS:          0
PSCL4 USEFUL LOAD PREFETCHES:          0 PREFETCH ISSUED TO LOWER LEVEL:          0  ACCURACY: -nan
PSCL4 TIMELY PREFETCHES:          0 LATE PREFETCHES: 0 DROPPED PREFETCHES: 0
PSCL4 PREFETCHES SAME FILL-ORIGIN LEVEL: 0 DIFFERENT FILL-ORIGIN LEVEL: 0

PSCL3 TOTAL     ACCESS:    4055251  HIT:    4055251  MISS:          0  HIT %:        100  MISS %:          0   MPKI: 0
PSCL3 LOAD TRANSLATION ACCESS:    3076018  HIT:    3076018  MISS:          0  HIT %:        100  MISS %:          0   MPKI: 0
PSCL3 TRANSLATION FROM L1D PREFETCHER ACCESS:     979233  HIT:     979233  MISS:          0  HIT %:        100  MISS %:          0   MPKI: 0
PSCL3 PREFETCH  REQUESTED:          0  ISSUED:          0  USEFUL:          0  USELESS:          0
PSCL3 USEFUL LOAD PREFETCHES:          0 PREFETCH ISSUED TO LOWER LEVEL:          0  ACCURACY: -nan
PSCL3 TIMELY PREFETCHES:          0 LATE PREFETCHES: 0 DROPPED PREFETCHES: 0
PSCL3 PREFETCHES SAME FILL-ORIGIN LEVEL: 0 DIFFERENT FILL-ORIGIN LEVEL: 0

PSCL2 TOTAL     ACCESS:    4053690  HIT:    4053085  MISS:        605  HIT %:    99.9851  MISS %:  0.0149247   MPKI: 0.003025
PSCL2 LOAD TRANSLATION ACCESS:    3076030  HIT:    3075425  MISS:        605  HIT %:    99.9803  MISS %:  0.0196682   MPKI: 0.003025
PSCL2 TRANSLATION FROM L1D PREFETCHER ACCESS:     977660  HIT:     977660  MISS:          0  HIT %:        100  MISS %:          0   MPKI: 0
PSCL2 PREFETCH  REQUESTED:          0  ISSUED:          0  USEFUL:          0  USELESS:          0
PSCL2 USEFUL LOAD PREFETCHES:          0 PREFETCH ISSUED TO LOWER LEVEL:          0  ACCURACY: -nan
PSCL2 TIMELY PREFETCHES:          0 LATE PREFETCHES: 0 DROPPED PREFETCHES: 0
PSCL2 PREFETCHES SAME FILL-ORIGIN LEVEL: 0 DIFFERENT FILL-ORIGIN LEVEL: 0

LLC TOTAL     ACCESS:   25774519  HIT:   11554530  MISS:   14219989  HIT %:    44.8293  MISS %:    55.1707   MPKI: 71.0999
LLC LOAD      ACCESS:   13549763  HIT:    5392275  MISS:    8157488  HIT %:    39.7961  MISS %:    60.2039   MPKI: 40.7874
LLC RFO       ACCESS:      29046  HIT:        268  MISS:      28778  HIT %:   0.922674  MISS %:    99.0773   MPKI: 0.14389
LLC PREFETCH  ACCESS:    6640918  HIT:     890106  MISS:    5750812  HIT %:    13.4034  MISS %:    86.5966   MPKI: 28.7541
LLC WRITEBACK ACCESS:    5276012  HIT:    5013636  MISS:     262376  HIT %:     95.027  MISS %:      4.973   MPKI: 1.31188
LLC LOAD TRANSLATION ACCESS:     235396  HIT:     219888  MISS:      15508  HIT %:     93.412  MISS %:    6.58805   MPKI: 0.07754
LLC TRANSLATION FROM L1D PREFETCHER ACCESS:      43384  HIT:      38357  MISS:       5027  HIT %:    88.4128  MISS %:    11.5872   MPKI: 0.025135
LLC PREFETCH  REQUESTED:          0  ISSUED:          0  USEFUL:    1071607  USELESS:   21982017
LLC USEFUL LOAD PREFETCHES:    1071607 PREFETCH ISSUED TO LOWER LEVEL:  177599012  ACCURACY: 0.603386
LLC TIMELY PREFETCHES:    1071607 LATE PREFETCHES: 0 DROPPED PREFETCHES: 0
LLC PREFETCHES SAME FILL-ORIGIN LEVEL: 0 DIFFERENT FILL-ORIGIN LEVEL: 0
LLC AVERAGE MISS LATENCY: 2149.41 cycles
LLC RQ	ACCESS:   55397220	FORWARD:          0	MERGED:          0	TO_CACHE:   55397214
LLC WQ	ACCESS:   21122314	FORWARD:          8	MERGED:          0	TO_CACHE:   21122314
LLC PQ	ACCESS:   26652369	FORWARD:          0	MERGED:          0	TO_CACHE:   26652367

LLC Dense regions hint to LLC: 0

RAW hits: 1197847
Loads Generated: 56335064
Loads sent to L1D: 55137217
Stores Generated: 11243415
Stores sent to L1D: 11243414
Major fault: 0 Minor fault: 31023
Allocated PAGES: 124123

CPU 3 cumulative IPC: 0.0901309 instructions: 200000002 cycles: 2218995693
ITLB TOTAL     ACCESS:   36645147  HIT:   36645147  MISS:          0  HIT %:        100  MISS %:          0   MPKI: 0
ITLB LOAD TRANSLATION ACCESS:   36645147  HIT:   36645147  MISS:          0  HIT %:        100  MISS %:          0   MPKI: 0
ITLB PREFETCH  REQUESTED:          0  ISSUED:          0  USEFUL:          0  USELESS:          0
ITLB USEFUL LOAD PREFETCHES:          0 PREFETCH ISSUED TO LOWER LEVEL:          0  ACCURACY: -nan
ITLB TIMELY PREFETCHES:          0 LATE PREFETCHES: 0 DROPPED PREFETCHES: 0
ITLB PREFETCHES SAME FILL-ORIGIN LEVEL: 0 DIFFERENT FILL-ORIGIN LEVEL: 0
ITLB AVERAGE MISS LATENCY: -nan cycles
ITLB RQ	ACCESS:   37037302	FORWARD:          0	MERGED:     307016	TO_CACHE:   36730286

DTLB TOTAL     ACCESS:   55971689  HIT:   47464885  MISS:    8506804  HIT %:    84.8016  MISS %:    15.1984   MPKI: 42.534
DTLB LOAD TRANSLATION ACCESS:   55971689  HIT:   47464885  MISS:    8506804  HIT %:    84.8016  MISS %:    15.1984   MPKI: 42.534
DTLB PREFETCH  REQUESTED:          0  ISSUED:          0  USEFUL:          0  USELESS:          0
DTLB USEFUL LOAD PREFETCHES:          0 PREFETCH ISSUED TO LOWER LEVEL:          0  ACCURACY: -nan
DTLB TIMELY PREFETCHES:          0 LATE PREFETCHES: 0 DROPPED PREFETCHES: 0
DTLB PREFETCHES SAME FILL-ORIGIN LEVEL: 0 DIFFERENT FILL-ORIGIN LEVEL: 0
DTLB AVERAGE MISS LATENCY: 18.8543 cycles
DTLB RQ	ACCESS:   62892780	FORWARD:          0	MERGED:    6237305	TO_CACHE:   56655475

STLB TOTAL     ACCESS:   27024599  HIT:   23647281  MISS:    3377318  HIT %:    87.5028  MISS %:    12.4972   MPKI: 16.8866
STLB LOAD TRANSLATION ACCESS:    8506804  HIT:    5421690  MISS:    3085114  HIT %:    63.7336  MISS %:    36.2664   MPKI: 15.4256
STLB TRANSLATION FROM L1D PREFETCHER ACCESS:   18517795  HIT:   18225591  MISS:     292204  HIT %:     98.422  MISS %:    1.57796   MPKI: 1.46102
STLB PREFETCH  REQUESTED:          0  ISSUED:          0  USEFUL:     288532  USELESS:       3705
STLB USEFUL LOAD PREFETCHES:     288532 PREFETCH ISSUED TO LOWER LEVEL:          0  ACCURACY: inf
STLB TIMELY PREFETCHES:     288532 LATE PREFETCHES: 10397 DROPPED PREFETCHES: 679833
STLB PREFETCHES SAME FILL-ORIGIN LEVEL: 0 DIFFERENT FILL-ORIGIN LEVEL: 0
STLB AVERAGE MISS LATENCY: 27.2815 cycles
STLB RQ	ACCESS:   90592812	FORWARD:          0	MERGED:   62740097	TO_CACHE:   27852715

STLB Hit, L1D data hit: 0
STLB Hit, L2C data hit: 0
STLB Hit, LLC data hit: 0
STLB Hit, LLC data miss: 0
STLB STLB hints to L2: 0
L1D TOTAL     ACCESS:  100401077  HIT:   83065847  MISS:   17335230  HIT %:     82.734  MISS %:     17.266   MPKI: 86.6761
L1D LOAD      ACCESS:   51699410  HIT:   35217721  MISS:   16481689  HIT %:    68.1202  MISS %:    31.8798   MPKI: 82.4084
L1D RFO       ACCESS:   10874306  HIT:   10844530  MISS:      29776  HIT %:    99.7262  MISS %:    0.27382   MPKI: 0.14888
L1D PREFETCH  ACCESS:   37827361  HIT:   37003596  MISS:     823765  HIT %:    97.8223  MISS %:     2.1777   MPKI: 4.11882
L1D PREFETCH  REQUESTED:  239094117  ISSUED:  233114882  USEFUL:     724957  USELESS:     100706
L1D USEFUL LOAD PREFETCHES:     724957 PREFETCH ISSUED TO LOWER LEVEL:   42851953  ACCURACY: 1.69177
L1D TIMELY PREFETCHES:     724957 LATE PREFETCHES: 11440 DROPPED PREFETCHES: 2811109
L1D PREFETCHES SAME FILL-ORIGIN LEVEL: 838690 DIFFERENT FILL-ORIGIN LEVEL: 42013263
L1D AVERAGE MISS LATENCY: 246.652 cycles
L1D RQ	ACCESS:   55248693	FORWARD:          0	MERGED:    3291384	TO_CACHE:   51953846
L1D WQ	ACCESS:   11266908	FORWARD:       3463	MERGED:     327974	TO_CACHE:   10938934
L1D PQ	ACCESS:  151056726	FORWARD:          0	MERGED:   68998570	TO_CACHE:   82058156

L1D UNIQUE REGIONS ACCESSED: 0
L1D REGIONS CONFLICTS: 0
L1D Cross Page Prefetch Requests: 15314986
L1D Same Page Prefetch Requests: 163820382
L1D ROI Sum of L1D PQ occupancy: 1181509891
L1D PREFETCHES PUSHED FROM L2C: 0
L1I TOTAL     ACCESS:   36951856  HIT:   36951856  MISS:          0  HIT %:        100  MISS %:          0   MPKI: 0
L1I LOAD      ACCESS:   36951856  HIT:   36951856  MISS:          0  HIT %:        100  MISS %:          0   MPKI: 0
L1I PREFETCH  REQUESTED:          0  ISSUED:          0  USEFUL:          0  USELESS:          0
L1I USEFUL LOAD PREFETCHES:          0 PREFETCH ISSUED TO LOWER LEVEL:          0  ACCURACY: -nan
L1I TIMELY PREFETCHES:          0 LATE PREFETCHES: 0 DROPPED PREFETCHES: 0
L1I PREFETCHES SAME FILL-ORIGIN LEVEL: 0 DIFFERENT FILL-ORIGIN LEVEL: 0
L1I AVERAGE MISS LATENCY: -nan cycles
L1I RQ	ACCESS:   48347223	FORWARD:          0	MERGED:   11309921	TO_CACHE:   37037302

BTB TOTAL     ACCESS:   35189020  HIT:   35189006  MISS:         14  HIT %:        100  MISS %: 3.97851e-05   MPKI: 7e-05
BTB BRANCH_DIRECT_JUMP	ACCESS:     253973  HIT:     253969  MISS:          4
BTB BRANCH_INDIRECT	ACCESS:          0  HIT:          0  MISS:          0
BTB BRANCH_CONDITIONAL	ACCESS:   34935019  HIT:   34935011  MISS:          8
BTB BRANCH_DIRECT_CALL	ACCESS:         14  HIT:         13  MISS:          1
BTB BRANCH_INDIRECT_CALL	ACCESS:          0  HIT:          0  MISS:          0
BTB BRANCH_RETURN	ACCESS:         14  HIT:         13  MISS:          1
BTB BRANCH_OTHER ACCESS:          0  HIT:          0  MISS:          0

L2C TOTAL     ACCESS:   65818939  HIT:   44792276  MISS:   21026663  HIT %:    68.0538  MISS %:    31.9462   MPKI: 105.133
L2C LOAD      ACCESS:   16470253  HIT:    2705577  MISS:   13764676  HIT %:    16.4271  MISS %:    83.5729   MPKI: 68.8234
L2C DATA LOAD MPKI: 68.8234
L2C INSTRUCTION LOAD MPKI: 0
L2C RFO       ACCESS:      29776  HIT:        687  MISS:      29089  HIT %:    2.30723  MISS %:    97.6928   MPKI: 0.145445
L2C PREFETCH  ACCESS:   39716626  HIT:   33284181  MISS:    6432445  HIT %:    83.8042  MISS %:    16.1958   MPKI: 32.1622
L2C DATA PREFETCH MPKI: 32.1622
L2C INSTRUCTION PREFETCH MPKI: 0
L2C WRITEBACK ACCESS:    5543253  HIT:    4994658  MISS:     548595  HIT %:    90.1034  MISS %:    9.89663   MPKI: 2.74297
L2C LOAD TRANSLATION ACCESS:    3076650  HIT:    2866029  MISS:     210621  HIT %:    93.1542  MISS %:    6.84579   MPKI: 1.0531
L2C TRANSLATION FROM L1D PREFETCHER ACCESS:     982381  HIT:     941144  MISS:      41237  HIT %:    95.8023  MISS %:    4.19766   MPKI: 0.206185
L2C PREFETCH  REQUESTED:          0  ISSUED:          0  USEFUL:     860190  USELESS:    5616758
L2C USEFUL LOAD PREFETCHES:     860190 PREFETCH ISSUED TO LOWER LEVEL:    6662925  ACCURACY: 12.9101
L2C TIMELY PREFETCHES:     860190 LATE PREFETCHES: 228074 DROPPED PREFETCHES: 0
L2C PREFETCHES SAME FILL-ORIGIN LEVEL: 6419586 DIFFERENT FILL-ORIGIN LEVEL: 0
L2C AVERAGE MISS LATENCY: 390.608 cycles
L2C RQ	ACCESS:   20603364	FORWARD:          0	MERGED:          0	TO_CACHE:   20603363
L2C WQ	ACCESS:    5554303	FORWARD:          1	MERGED:          0	TO_CACHE:    5554303
L2C PQ	ACCESS:   41908629	FORWARD:          0	MERGED:      92937	TO_CACHE:   41815692

L2C Instructions Evicting Data 0
L2C Translations Evicting Data 251873
L2C Data Evicting Data 20012540
L2C Instructions Evicting Instructions 0
L2C Translations Evicting Instructions 0
L2C Data Evicting Instructions 0
L2C Instructions Evicting Translations 0
L2C Translations Evicting Translations 368
L2C Data Evicting Translations 245692
L2C Dense regions hint from L2: 0
PSCL5 TOTAL     ACCESS:    4057735  HIT:    4057735  MISS:          0  HIT %:        100  MISS %:          0   MPKI: 0
PSCL5 LOAD TRANSLATION ACCESS:    3076093  HIT:    3076093  MISS:          0  HIT %:        100  MISS %:          0   MPKI: 0
PSCL5 TRANSLATION FROM L1D PREFETCHER ACCESS:     981642  HIT:     981642  MISS:          0  HIT %:        100  MISS %:          0   MPKI: 0
PSCL5 PREFETCH  REQUESTED:          0  ISSUED:          0  USEFUL:          0  USELESS:          0
PSCL5 USEFUL LOAD PREFETCHES:          0 PREFETCH ISSUED TO LOWER LEVEL:          0  ACCURACY: -nan
PSCL5 TIMELY PREFETCHES:          0 LATE PREFETCHES: 0 DROPPED PREFETCHES: 0
PSCL5 PREFETCHES SAME FILL-ORIGIN LEVEL: 0 DIFFERENT FILL-ORIGIN LEVEL: 0

PSCL4 TOTAL     ACCESS:    4057735  HIT:    4057735  MISS:          0  HIT %:        100  MISS %:          0   MPKI: 0
PSCL4 LOAD TRANSLATION ACCESS:    3076093  HIT:    3076093  MISS:          0  HIT %:        100  MISS %:          0   MPKI: 0
PSCL4 TRANSLATION FROM L1D PREFETCHER ACCESS:     981642  HIT:     981642  MISS:          0  HIT %:        100  MISS %:          0   MPKI: 0
PSCL4 PREFETCH  REQUESTED:          0  ISSUED:          0  USEFUL:          0  USELESS:          0
PSCL4 USEFUL LOAD PREFETCHES:          0 PREFETCH ISSUED TO LOWER LEVEL:          0  ACCURACY: -nan
PSCL4 TIMELY PREFETCHES:          0 LATE PREFETCHES: 0 DROPPED PREFETCHES: 0
PSCL4 PREFETCHES SAME FILL-ORIGIN LEVEL: 0 DIFFERENT FILL-ORIGIN LEVEL: 0

PSCL3 TOTAL     ACCESS:    4057735  HIT:    4057735  MISS:          0  HIT %:        100  MISS %:          0   MPKI: 0
PSCL3 LOAD TRANSLATION ACCESS:    3076093  HIT:    3076093  MISS:          0  HIT %:        100  MISS %:          0   MPKI: 0
PSCL3 TRANSLATION FROM L1D PREFETCHER ACCESS:     981642  HIT:     981642  MISS:          0  HIT %:        100  MISS %:          0   MPKI: 0
PSCL3 PREFETCH  REQUESTED:          0  ISSUED:          0  USEFUL:          0  USELESS:          0
PSCL3 USEFUL LOAD PREFETCHES:          0 PREFETCH ISSUED TO LOWER LEVEL:          0  ACCURACY: -nan
PSCL3 TIMELY PREFETCHES:          0 LATE PREFETCHES: 0 DROPPED PREFETCHES: 0
PSCL3 PREFETCHES SAME FILL-ORIGIN LEVEL: 0 DIFFERENT FILL-ORIGIN LEVEL: 0

PSCL2 TOTAL     ACCESS:    4056040  HIT:    4055435  MISS:        605  HIT %:    99.9851  MISS %:   0.014916   MPKI: 0.003025
PSCL2 LOAD TRANSLATION ACCESS:    3076104  HIT:    3075499  MISS:        605  HIT %:    99.9803  MISS %:  0.0196677   MPKI: 0.003025
PSCL2 TRANSLATION FROM L1D PREFETCHER ACCESS:     979936  HIT:     979936  MISS:          0  HIT %:        100  MISS %:          0   MPKI: 0
PSCL2 PREFETCH  REQUESTED:          0  ISSUED:          0  USEFUL:          0  USELESS:          0
PSCL2 USEFUL LOAD PREFETCHES:          0 PREFETCH ISSUED TO LOWER LEVEL:          0  ACCURACY: -nan
PSCL2 TIMELY PREFETCHES:          0 LATE PREFETCHES: 0 DROPPED PREFETCHES: 0
PSCL2 PREFETCHES SAME FILL-ORIGIN LEVEL: 0 DIFFERENT FILL-ORIGIN LEVEL: 0

LLC TOTAL     ACCESS:   25757484  HIT:   11543073  MISS:   14214411  HIT %:    44.8144  MISS %:    55.1856   MPKI: 71.0721
LLC LOAD      ACCESS:   13536603  HIT:    5386314  MISS:    8150289  HIT %:    39.7907  MISS %:    60.2093   MPKI: 40.7514
LLC RFO       ACCESS:      29089  HIT:        312  MISS:      28777  HIT %:    1.07257  MISS %:    98.9274   MPKI: 0.143885
LLC PREFETCH  ACCESS:    6660517  HIT:     908184  MISS:    5752333  HIT %:    13.6353  MISS %:    86.3647   MPKI: 28.7617
LLC WRITEBACK ACCESS:    5279417  HIT:    5017392  MISS:     262025  HIT %:    95.0369  MISS %:    4.96314   MPKI: 1.31012
LLC LOAD TRANSLATION ACCESS:     210621  HIT:     194720  MISS:      15901  HIT %:    92.4504  MISS %:    7.54958   MPKI: 0.079505
LLC TRANSLATION FROM L1D PREFETCHER ACCESS:      41237  HIT:      36151  MISS:       5086  HIT %:    87.6664  MISS %:    12.3336   MPKI: 0.02543
LLC PREFETCH  REQUESTED:          0  ISSUED:          0  USEFUL:    1071607  USELESS:   21982017
LLC USEFUL LOAD PREFETCHES:    1071607 PREFETCH ISSUED TO LOWER LEVEL:  177599012  ACCURACY: 0.603386
LLC TIMELY PREFETCHES:    1071607 LATE PREFETCHES: 0 DROPPED PREFETCHES: 0
LLC PREFETCHES SAME FILL-ORIGIN LEVEL: 0 DIFFERENT FILL-ORIGIN LEVEL: 0
LLC AVERAGE MISS LATENCY: 2150.25 cycles
LLC RQ	ACCESS:   55397220	FORWARD:          0	MERGED:          0	TO_CACHE:   55397214
LLC WQ	ACCESS:   21122314	FORWARD:          8	MERGED:          0	TO_CACHE:   21122314
LLC PQ	ACCESS:   26652369	FORWARD:          0	MERGED:          0	TO_CACHE:   26652367

LLC Dense regions hint to LLC: 0

RAW hits: 1203711
Loads Generated: 56336781
Loads sent to L1D: 55133070
Stores Generated: 11244935
Stores sent to L1D: 11244938
Major fault: 0 Minor fault: 31038
Allocated PAGES: 124123

DRAM Statistics
 CHANNEL 0
 RQ ROW_BUFFER_HIT:    9518056  ROW_BUFFER_MISS:   46343403
 DBUS_CONGESTED:          2
 WQ ROW_BUFFER_HIT:     630797  ROW_BUFFER_MISS:   17094185  FULL:          0

 AVG_CONGESTED_CYCLE: 5
 All warmup complete: 5
Channel 0 Bank busy for read cycles: 0
Channel 0 Bank busy for write cycles: 0
Channel 0
Rank 0
0banks busy for read cycles: 217146
0banks busy for write cycles: 0
1banks busy for read cycles: 53957463
1banks busy for write cycles: 1943595
2banks busy for read cycles: 179748425
2banks busy for write cycles: 1943498
3banks busy for read cycles: 296241707
3banks busy for write cycles: 1943491
4banks busy for read cycles: 315611547
4banks busy for write cycles: 1950659
5banks busy for read cycles: 256764146
5banks busy for write cycles: 2347998
6banks busy for read cycles: 184872362
6banks busy for write cycles: 12998275
7banks busy for read cycles: 156660982
7banks busy for write cycles: 115032595
8banks busy for read cycles: 240234059
8banks busy for write cycles: 400642007

CPU 0 Branch Prediction Accuracy: 85.1869% MPKI: 26.0464 Average ROB Occupancy at Mispredict: 34.8726
Branch types
NOT_BRANCH: 164793850 82.3882%
BRANCH_DIRECT_JUMP: 253390 0.126682%
BRANCH_INDIRECT: 0 0%
BRANCH_CONDITIONAL: 34973969 17.4851%
BRANCH_DIRECT_CALL: 14 6.99926e-06%
BRANCH_INDIRECT_CALL: 0 0%
BRANCH_RETURN: 14 6.99926e-06%
BRANCH_OTHER: 0 0%


CPU 1 Branch Prediction Accuracy: 85.1868% MPKI: 26.0484 Average ROB Occupancy at Mispredict: 34.9254
Branch types
NOT_BRANCH: 164797460 82.3883%
BRANCH_DIRECT_JUMP: 253420 0.126694%
BRANCH_INDIRECT: 0 0%
BRANCH_CONDITIONAL: 34974508 17.485%
BRANCH_DIRECT_CALL: 14 6.99911e-06%
BRANCH_INDIRECT_CALL: 0 0%
BRANCH_RETURN: 14 6.99911e-06%
BRANCH_OTHER: 0 0%


CPU 2 Branch Prediction Accuracy: 85.1866% MPKI: 26.0552 Average ROB Occupancy at Mispredict: 34.8876
Branch types
NOT_BRANCH: 164776850 82.3884%
BRANCH_DIRECT_JUMP: 253484 0.126742%
BRANCH_INDIRECT: 0 0%
BRANCH_CONDITIONAL: 34969662 17.4848%
BRANCH_DIRECT_CALL: 14 7e-06%
BRANCH_INDIRECT_CALL: 0 0%
BRANCH_RETURN: 14 7e-06%
BRANCH_OTHER: 0 0%


CPU 3 Branch Prediction Accuracy: 85.1873% MPKI: 26.0884 Average ROB Occupancy at Mispredict: 35.0345
Branch types
NOT_BRANCH: 165125644 82.3877%
BRANCH_DIRECT_JUMP: 254280 0.12687%
BRANCH_INDIRECT: 0 0%
BRANCH_CONDITIONAL: 35044835 17.4852%
BRANCH_DIRECT_CALL: 14 6.98515e-06%
BRANCH_INDIRECT_CALL: 0 0%
BRANCH_RETURN: 14 6.98515e-06%
BRANCH_OTHER: 0 0%

DRAM PAGES: 1048576
Allocated PAGES: 124123
