
*** ChampSim Multicore Out-of-Order Simulator ***

Warmup Instructions: 50000000
Simulation Instructions: 200000000
Number of CPUs: 4
LLC sets: 8192
LLC ways: 16
Off-chip DRAM Size: 4096 MB Channels: 1 Width: 64-bit Data Rate: 6400 MT/s
CPU 0 runs ./traces/spec/429.mcf-22B.champsimtrace.xz
.xz
CPU 1 runs ./traces/spec/429.mcf-22B.champsimtrace.xz
.xz
CPU 2 runs ./traces/spec/429.mcf-22B.champsimtrace.xz
.xz
CPU 3 runs ./traces/spec/429.mcf-22B.champsimtrace.xz
.xz
BTB has LRU replacement policy
ITLB has LRU replacement policy
DTLB has LRU replacement policy
STLB has LRU replacement policy
L1I has LRU replacement policy
History Sets: 8
History Ways: 16
BERTI Size: 16
BERTI Stride Size: 8
L1D has LRU replacement policy
Initialize SRRIP state for L2C
Initialize DRRIP state for LLC
BTB has LRU replacement policy
ITLB has LRU replacement policy
DTLB has LRU replacement policy
STLB has LRU replacement policy
L1I has LRU replacement policy
History Sets: 8
History Ways: 16
BERTI Size: 16
BERTI Stride Size: 8
L1D has LRU replacement policy
Initialize SRRIP state for L2C
Initialize DRRIP state for LLC
BTB has LRU replacement policy
ITLB has LRU replacement policy
DTLB has LRU replacement policy
STLB has LRU replacement policy
L1I has LRU replacement policy
History Sets: 8
History Ways: 16
BERTI Size: 16
BERTI Stride Size: 8
L1D has LRU replacement policy
Initialize SRRIP state for L2C
Initialize DRRIP state for LLC
BTB has LRU replacement policy
ITLB has LRU replacement policy
DTLB has LRU replacement policy
STLB has LRU replacement policy
L1I has LRU replacement policy
History Sets: 8
History Ways: 16
BERTI Size: 16
BERTI Stride Size: 8
L1D has LRU replacement policy
Initialize SRRIP state for L2C
Initialize DRRIP state for LLC
Heartbeat CPU 0 instructions: 10000001 cycles: 2721528 heartbeat IPC: 3.67441 cumulative IPC: 3.67441 (Simulation time: 0 hr 3 min 24 sec) 
Heartbeat CPU 1 instructions: 10000001 cycles: 2722280 heartbeat IPC: 3.67339 cumulative IPC: 3.67339 (Simulation time: 0 hr 3 min 24 sec) 
Heartbeat CPU 3 instructions: 10000001 cycles: 2723485 heartbeat IPC: 3.67177 cumulative IPC: 3.67177 (Simulation time: 0 hr 3 min 24 sec) 
Heartbeat CPU 2 instructions: 10000001 cycles: 2724013 heartbeat IPC: 3.67105 cumulative IPC: 3.67105 (Simulation time: 0 hr 3 min 24 sec) 
Heartbeat CPU 0 instructions: 20000002 cycles: 5934385 heartbeat IPC: 3.11249 cumulative IPC: 3.37019 (Simulation time: 0 hr 7 min 26 sec) 
Heartbeat CPU 1 instructions: 20000002 cycles: 5937283 heartbeat IPC: 3.11042 cumulative IPC: 3.36854 (Simulation time: 0 hr 7 min 26 sec) 
Heartbeat CPU 3 instructions: 20000002 cycles: 5942195 heartbeat IPC: 3.10684 cumulative IPC: 3.36576 (Simulation time: 0 hr 7 min 27 sec) 
Heartbeat CPU 2 instructions: 20000002 cycles: 5942383 heartbeat IPC: 3.10716 cumulative IPC: 3.36565 (Simulation time: 0 hr 7 min 27 sec) 
Heartbeat CPU 0 instructions: 30000001 cycles: 8636077 heartbeat IPC: 3.70138 cumulative IPC: 3.4738 (Simulation time: 0 hr 11 min 20 sec) 
Heartbeat CPU 1 instructions: 30000001 cycles: 8638501 heartbeat IPC: 3.70203 cumulative IPC: 3.47282 (Simulation time: 0 hr 11 min 20 sec) 
Heartbeat CPU 2 instructions: 30000001 cycles: 8644499 heartbeat IPC: 3.7008 cumulative IPC: 3.47042 (Simulation time: 0 hr 11 min 20 sec) 
Heartbeat CPU 3 instructions: 30000001 cycles: 8646164 heartbeat IPC: 3.69827 cumulative IPC: 3.46975 (Simulation time: 0 hr 11 min 21 sec) 
Heartbeat CPU 0 instructions: 40000001 cycles: 11334390 heartbeat IPC: 3.70602 cumulative IPC: 3.52908 (Simulation time: 0 hr 15 min 14 sec) 
Heartbeat CPU 1 instructions: 40000001 cycles: 11336994 heartbeat IPC: 3.70577 cumulative IPC: 3.52827 (Simulation time: 0 hr 15 min 14 sec) 
Heartbeat CPU 2 instructions: 40000001 cycles: 11342158 heartbeat IPC: 3.70692 cumulative IPC: 3.52667 (Simulation time: 0 hr 15 min 14 sec) 
Heartbeat CPU 3 instructions: 40000001 cycles: 11345054 heartbeat IPC: 3.70523 cumulative IPC: 3.52577 (Simulation time: 0 hr 15 min 14 sec) 
Heartbeat CPU 0 instructions: 50000002 cycles: 14179734 heartbeat IPC: 3.51451 cumulative IPC: 3.52616 (Simulation time: 0 hr 19 min 19 sec) 
Heartbeat CPU 1 instructions: 50000002 cycles: 14184531 heartbeat IPC: 3.51181 cumulative IPC: 3.52497 (Simulation time: 0 hr 19 min 19 sec) 
Heartbeat CPU 2 instructions: 50000002 cycles: 14191248 heartbeat IPC: 3.50989 cumulative IPC: 3.5233 (Simulation time: 0 hr 19 min 20 sec) 
Heartbeat CPU 3 instructions: 50000002 cycles: 14195311 heartbeat IPC: 3.50846 cumulative IPC: 3.52229 (Simulation time: 0 hr 19 min 20 sec) 

Warmup complete CPU 0 instructions: 50052402 cycles: 14195311 (Simulation time: 0 hr 19 min 20 sec) 
Warmup complete CPU 1 instructions: 50036292 cycles: 14195311 (Simulation time: 0 hr 19 min 20 sec) 
Warmup complete CPU 2 instructions: 50013689 cycles: 14195311 (Simulation time: 0 hr 19 min 20 sec) 
Warmup complete CPU 3 instructions: 50000002 cycles: 14195311 (Simulation time: 0 hr 19 min 20 sec) 

Heartbeat CPU 1 instructions: 60000000 cycles: 60033520 heartbeat IPC: 0.218107 cumulative IPC: 0.217367 (Simulation time: 0 hr 25 min 32 sec) 
Heartbeat CPU 0 instructions: 60000000 cycles: 60192409 heartbeat IPC: 0.217331 cumulative IPC: 0.216266 (Simulation time: 0 hr 25 min 33 sec) 
Heartbeat CPU 3 instructions: 60000002 cycles: 60231637 heartbeat IPC: 0.21722 cumulative IPC: 0.21722 (Simulation time: 0 hr 25 min 34 sec) 
Heartbeat CPU 2 instructions: 60000000 cycles: 60255266 heartbeat IPC: 0.217089 cumulative IPC: 0.216811 (Simulation time: 0 hr 25 min 34 sec) 
Heartbeat CPU 1 instructions: 70000001 cycles: 104167608 heartbeat IPC: 0.226582 cumulative IPC: 0.221887 (Simulation time: 0 hr 31 min 22 sec) 
Heartbeat CPU 0 instructions: 70000001 cycles: 104289001 heartbeat IPC: 0.226775 cumulative IPC: 0.221409 (Simulation time: 0 hr 31 min 23 sec) 
Heartbeat CPU 2 instructions: 70000001 cycles: 104398106 heartbeat IPC: 0.226537 cumulative IPC: 0.221571 (Simulation time: 0 hr 31 min 24 sec) 
Heartbeat CPU 3 instructions: 70000001 cycles: 104499965 heartbeat IPC: 0.225895 cumulative IPC: 0.221473 (Simulation time: 0 hr 31 min 25 sec) 
Heartbeat CPU 1 instructions: 80000000 cycles: 157557710 heartbeat IPC: 0.187301 cumulative IPC: 0.209007 (Simulation time: 0 hr 38 min 34 sec) 
Heartbeat CPU 0 instructions: 80000003 cycles: 157598196 heartbeat IPC: 0.187585 cumulative IPC: 0.208835 (Simulation time: 0 hr 38 min 34 sec) 
Heartbeat CPU 2 instructions: 80000001 cycles: 157943613 heartbeat IPC: 0.186757 cumulative IPC: 0.208603 (Simulation time: 0 hr 38 min 36 sec) 
Heartbeat CPU 3 instructions: 80000001 cycles: 158217027 heartbeat IPC: 0.186161 cumulative IPC: 0.208302 (Simulation time: 0 hr 38 min 37 sec) 
Heartbeat CPU 0 instructions: 90000001 cycles: 204920236 heartbeat IPC: 0.211318 cumulative IPC: 0.209451 (Simulation time: 0 hr 44 min 46 sec) 
Heartbeat CPU 1 instructions: 90000001 cycles: 205050824 heartbeat IPC: 0.210557 cumulative IPC: 0.209392 (Simulation time: 0 hr 44 min 48 sec) 
Heartbeat CPU 2 instructions: 90000001 cycles: 206113460 heartbeat IPC: 0.207599 cumulative IPC: 0.208351 (Simulation time: 0 hr 45 min 10 sec) 
Heartbeat CPU 3 instructions: 90000001 cycles: 206204261 heartbeat IPC: 0.208389 cumulative IPC: 0.208324 (Simulation time: 0 hr 45 min 12 sec) 
Heartbeat CPU 0 instructions: 100000002 cycles: 237734635 heartbeat IPC: 0.304744 cumulative IPC: 0.22344 (Simulation time: 0 hr 50 min 18 sec) 
Heartbeat CPU 1 instructions: 100000002 cycles: 237874075 heartbeat IPC: 0.304662 cumulative IPC: 0.223373 (Simulation time: 0 hr 50 min 20 sec) 
Heartbeat CPU 3 instructions: 100000003 cycles: 238419593 heartbeat IPC: 0.310411 cumulative IPC: 0.222991 (Simulation time: 0 hr 50 min 30 sec) 
Heartbeat CPU 2 instructions: 100000002 cycles: 238482393 heartbeat IPC: 0.308938 cumulative IPC: 0.222868 (Simulation time: 0 hr 50 min 30 sec) 
Heartbeat CPU 0 instructions: 110000000 cycles: 279001410 heartbeat IPC: 0.242326 cumulative IPC: 0.226383 (Simulation time: 0 hr 56 min 36 sec) 
Heartbeat CPU 1 instructions: 110000000 cycles: 279152863 heartbeat IPC: 0.242255 cumulative IPC: 0.226314 (Simulation time: 0 hr 56 min 39 sec) 
Heartbeat CPU 3 instructions: 110000000 cycles: 279491455 heartbeat IPC: 0.243476 cumulative IPC: 0.226162 (Simulation time: 0 hr 56 min 44 sec) 
Heartbeat CPU 2 instructions: 110000000 cycles: 279857929 heartbeat IPC: 0.241689 cumulative IPC: 0.225799 (Simulation time: 0 hr 56 min 49 sec) 
Heartbeat CPU 0 instructions: 120000003 cycles: 316669899 heartbeat IPC: 0.265474 cumulative IPC: 0.231251 (Simulation time: 1 hr 2 min 27 sec) 
Heartbeat CPU 1 instructions: 120000003 cycles: 316886632 heartbeat IPC: 0.265015 cumulative IPC: 0.231139 (Simulation time: 1 hr 2 min 29 sec) 
Heartbeat CPU 3 instructions: 120000003 cycles: 317326232 heartbeat IPC: 0.264307 cumulative IPC: 0.230923 (Simulation time: 1 hr 2 min 31 sec) 
Heartbeat CPU 2 instructions: 120000003 cycles: 318064503 heartbeat IPC: 0.261735 cumulative IPC: 0.230317 (Simulation time: 1 hr 2 min 36 sec) 
Heartbeat CPU 0 instructions: 130000002 cycles: 377205033 heartbeat IPC: 0.165193 cumulative IPC: 0.220235 (Simulation time: 1 hr 9 min 27 sec) 
Heartbeat CPU 1 instructions: 130000002 cycles: 377374805 heartbeat IPC: 0.165322 cumulative IPC: 0.220177 (Simulation time: 1 hr 9 min 28 sec) 
Heartbeat CPU 3 instructions: 130000002 cycles: 377883143 heartbeat IPC: 0.165134 cumulative IPC: 0.219969 (Simulation time: 1 hr 9 min 31 sec) 
Heartbeat CPU 2 instructions: 130000002 cycles: 378351228 heartbeat IPC: 0.165874 cumulative IPC: 0.219649 (Simulation time: 1 hr 9 min 34 sec) 
Heartbeat CPU 0 instructions: 140000003 cycles: 442830814 heartbeat IPC: 0.152379 cumulative IPC: 0.209846 (Simulation time: 1 hr 17 min 37 sec) 
Heartbeat CPU 1 instructions: 140000003 cycles: 443244615 heartbeat IPC: 0.151815 cumulative IPC: 0.209682 (Simulation time: 1 hr 17 min 40 sec) 
Heartbeat CPU 3 instructions: 140000003 cycles: 443843354 heartbeat IPC: 0.151607 cumulative IPC: 0.209474 (Simulation time: 1 hr 17 min 43 sec) 
Heartbeat CPU 2 instructions: 140000003 cycles: 444563238 heartbeat IPC: 0.15103 cumulative IPC: 0.209092 (Simulation time: 1 hr 17 min 48 sec) 
Heartbeat CPU 0 instructions: 150000000 cycles: 494100308 heartbeat IPC: 0.195048 cumulative IPC: 0.208265 (Simulation time: 1 hr 24 min 37 sec) 
Heartbeat CPU 1 instructions: 150000000 cycles: 494532146 heartbeat IPC: 0.194979 cumulative IPC: 0.208112 (Simulation time: 1 hr 24 min 40 sec) 
Heartbeat CPU 3 instructions: 150000001 cycles: 495422799 heartbeat IPC: 0.193876 cumulative IPC: 0.207802 (Simulation time: 1 hr 24 min 47 sec) 
Heartbeat CPU 2 instructions: 150000000 cycles: 496408882 heartbeat IPC: 0.19288 cumulative IPC: 0.207349 (Simulation time: 1 hr 24 min 55 sec) 
Heartbeat CPU 0 instructions: 160000000 cycles: 543703430 heartbeat IPC: 0.2016 cumulative IPC: 0.207641 (Simulation time: 1 hr 31 min 14 sec) 
Heartbeat CPU 1 instructions: 160000000 cycles: 543983687 heartbeat IPC: 0.202218 cumulative IPC: 0.207562 (Simulation time: 1 hr 31 min 17 sec) 
Heartbeat CPU 3 instructions: 160000000 cycles: 544565804 heartbeat IPC: 0.203488 cumulative IPC: 0.207402 (Simulation time: 1 hr 31 min 22 sec) 
Heartbeat CPU 2 instructions: 160000001 cycles: 545348929 heartbeat IPC: 0.204332 cumulative IPC: 0.207071 (Simulation time: 1 hr 31 min 30 sec) 
Heartbeat CPU 0 instructions: 170000000 cycles: 582890990 heartbeat IPC: 0.255183 cumulative IPC: 0.210917 (Simulation time: 1 hr 37 min 0 sec) 
Heartbeat CPU 1 instructions: 170000000 cycles: 583474917 heartbeat IPC: 0.253221 cumulative IPC: 0.210729 (Simulation time: 1 hr 37 min 6 sec) 
Heartbeat CPU 3 instructions: 170000000 cycles: 584585873 heartbeat IPC: 0.249875 cumulative IPC: 0.210382 (Simulation time: 1 hr 37 min 21 sec) 
Heartbeat CPU 2 instructions: 170000000 cycles: 585739242 heartbeat IPC: 0.247584 cumulative IPC: 0.209934 (Simulation time: 1 hr 37 min 34 sec) 
Heartbeat CPU 0 instructions: 180000003 cycles: 621266614 heartbeat IPC: 0.260582 cumulative IPC: 0.214057 (Simulation time: 1 hr 43 min 5 sec) 
Heartbeat CPU 1 instructions: 180000003 cycles: 621816369 heartbeat IPC: 0.260814 cumulative IPC: 0.213889 (Simulation time: 1 hr 43 min 10 sec) 
Heartbeat CPU 3 instructions: 180000003 cycles: 622686218 heartbeat IPC: 0.262465 cumulative IPC: 0.213643 (Simulation time: 1 hr 43 min 17 sec) 
Heartbeat CPU 2 instructions: 180000003 cycles: 623512066 heartbeat IPC: 0.264741 cumulative IPC: 0.213331 (Simulation time: 1 hr 43 min 24 sec) 
Heartbeat CPU 0 instructions: 190000000 cycles: 670090363 heartbeat IPC: 0.204818 cumulative IPC: 0.213369 (Simulation time: 1 hr 49 min 51 sec) 
Heartbeat CPU 1 instructions: 190000000 cycles: 670859030 heartbeat IPC: 0.203904 cumulative IPC: 0.213144 (Simulation time: 1 hr 49 min 58 sec) 
Heartbeat CPU 3 instructions: 190000000 cycles: 671876728 heartbeat IPC: 0.203291 cumulative IPC: 0.212869 (Simulation time: 1 hr 50 min 9 sec) 
Heartbeat CPU 2 instructions: 190000000 cycles: 673055726 heartbeat IPC: 0.201842 cumulative IPC: 0.212467 (Simulation time: 1 hr 50 min 21 sec) 
Heartbeat CPU 0 instructions: 200000001 cycles: 704478628 heartbeat IPC: 0.290797 cumulative IPC: 0.217226 (Simulation time: 1 hr 55 min 28 sec) 
Heartbeat CPU 1 instructions: 200000003 cycles: 705066039 heartbeat IPC: 0.292338 cumulative IPC: 0.217065 (Simulation time: 1 hr 55 min 33 sec) 
Heartbeat CPU 3 instructions: 200000000 cycles: 705903407 heartbeat IPC: 0.293887 cumulative IPC: 0.216854 (Simulation time: 1 hr 55 min 41 sec) 
Heartbeat CPU 2 instructions: 200000001 cycles: 707525999 heartbeat IPC: 0.290105 cumulative IPC: 0.216327 (Simulation time: 1 hr 55 min 54 sec) 
Heartbeat CPU 0 instructions: 210000002 cycles: 745981187 heartbeat IPC: 0.240949 cumulative IPC: 0.218572 (Simulation time: 2 hr 1 min 12 sec) 
Heartbeat CPU 1 instructions: 210000002 cycles: 746645061 heartbeat IPC: 0.240506 cumulative IPC: 0.218395 (Simulation time: 2 hr 1 min 17 sec) 
Heartbeat CPU 3 instructions: 210000002 cycles: 747404427 heartbeat IPC: 0.240958 cumulative IPC: 0.218219 (Simulation time: 2 hr 1 min 23 sec) 
Heartbeat CPU 2 instructions: 210000002 cycles: 749010159 heartbeat IPC: 0.241056 cumulative IPC: 0.217723 (Simulation time: 2 hr 1 min 34 sec) 
Heartbeat CPU 0 instructions: 220000000 cycles: 810453021 heartbeat IPC: 0.155106 cumulative IPC: 0.213433 (Simulation time: 2 hr 8 min 56 sec) 
Heartbeat CPU 1 instructions: 220000000 cycles: 811170529 heartbeat IPC: 0.154978 cumulative IPC: 0.213261 (Simulation time: 2 hr 9 min 1 sec) 
Heartbeat CPU 3 instructions: 220000000 cycles: 812428216 heartbeat IPC: 0.15379 cumulative IPC: 0.21297 (Simulation time: 2 hr 9 min 11 sec) 
Heartbeat CPU 2 instructions: 220000000 cycles: 814193726 heartbeat IPC: 0.153413 cumulative IPC: 0.212483 (Simulation time: 2 hr 9 min 24 sec) 
Heartbeat CPU 0 instructions: 230000003 cycles: 858161943 heartbeat IPC: 0.209604 cumulative IPC: 0.213216 (Simulation time: 2 hr 15 min 6 sec) 
Heartbeat CPU 1 instructions: 230000003 cycles: 859042282 heartbeat IPC: 0.208892 cumulative IPC: 0.213013 (Simulation time: 2 hr 15 min 15 sec) 
Heartbeat CPU 3 instructions: 230000003 cycles: 860746245 heartbeat IPC: 0.206962 cumulative IPC: 0.212627 (Simulation time: 2 hr 15 min 30 sec) 
Heartbeat CPU 2 instructions: 230000003 cycles: 885187345 heartbeat IPC: 0.140858 cumulative IPC: 0.206645 (Simulation time: 2 hr 15 min 45 sec) 
Heartbeat CPU 0 instructions: 240000001 cycles: 1486080096 heartbeat IPC: 0.0159256 cumulative IPC: 0.129051 (Simulation time: 2 hr 20 min 44 sec) 
Heartbeat CPU 1 instructions: 240000001 cycles: 1497274859 heartbeat IPC: 0.0156683 cumulative IPC: 0.128087 (Simulation time: 2 hr 20 min 56 sec) 
Heartbeat CPU 3 instructions: 240000001 cycles: 1521888205 heartbeat IPC: 0.0151253 cumulative IPC: 0.12602 (Simulation time: 2 hr 21 min 10 sec) 
Heartbeat CPU 2 instructions: 240000001 cycles: 1549503548 heartbeat IPC: 0.0150531 cumulative IPC: 0.123745 (Simulation time: 2 hr 21 min 26 sec) 
Heartbeat CPU 0 instructions: 250000002 cycles: 1885818435 heartbeat IPC: 0.0250164 cumulative IPC: 0.106831 (Simulation time: 2 hr 25 min 18 sec) 
Finished CPU 0 instructions: 200000002 cycles: 1875103817 cumulative IPC: 0.106661 (Simulation time: 2 hr 25 min 23 sec) 
Heartbeat CPU 1 instructions: 250000000 cycles: 1897457904 heartbeat IPC: 0.0249886 cumulative IPC: 0.106179 (Simulation time: 2 hr 25 min 29 sec) 
Finished CPU 1 instructions: 200000003 cycles: 1886315779 cumulative IPC: 0.106027 (Simulation time: 2 hr 25 min 30 sec) 
Heartbeat CPU 3 instructions: 250000002 cycles: 1921517859 heartbeat IPC: 0.0250232 cumulative IPC: 0.104859 (Simulation time: 2 hr 25 min 39 sec) 
Finished CPU 3 instructions: 200000000 cycles: 1907322548 cumulative IPC: 0.104859 (Simulation time: 2 hr 25 min 39 sec) 
Heartbeat CPU 2 instructions: 250000002 cycles: 1949102817 heartbeat IPC: 0.0250251 cumulative IPC: 0.103357 (Simulation time: 2 hr 25 min 51 sec) 
Finished CPU 2 instructions: 200000002 cycles: 1936126321 cumulative IPC: 0.103299 (Simulation time: 2 hr 25 min 51 sec) 

ChampSim completed all CPUs

Total Simulation Statistics (not including warmup)

CPU 0 cumulative IPC: 0.103684 instructions: 200746243 cycles: 1936126321
ITLB TOTAL     ACCESS:   27323914  HIT:   27323913  MISS:          1  HIT %:        100  MISS %: 3.6598e-06   MPKI: 4.98141e-06
ITLB LOAD      ACCESS:          0  HIT:          0  MISS:          0  HIT %:       -nan  MISS %:       -nan   MPKI: 0
ITLB RFO       ACCESS:          0  HIT:          0  MISS:          0  HIT %:       -nan  MISS %:       -nan   MPKI: 0
ITLB PREFETCH  ACCESS:          0  HIT:          0  MISS:          0  HIT %:       -nan  MISS %:       -nan   MPKI: 0
ITLB WRITEBACK ACCESS:          0  HIT:          0  MISS:          0  HIT %:       -nan  MISS %:       -nan   MPKI: 0
DTLB TOTAL     ACCESS:   36312351  HIT:   35377700  MISS:     934651  HIT %:    97.4261  MISS %:    2.57392   MPKI: 4.65588
DTLB LOAD      ACCESS:          0  HIT:          0  MISS:          0  HIT %:       -nan  MISS %:       -nan   MPKI: 0
DTLB RFO       ACCESS:          0  HIT:          0  MISS:          0  HIT %:       -nan  MISS %:       -nan   MPKI: 0
DTLB PREFETCH  ACCESS:          0  HIT:          0  MISS:          0  HIT %:       -nan  MISS %:       -nan   MPKI: 0
DTLB WRITEBACK ACCESS:          0  HIT:          0  MISS:          0  HIT %:       -nan  MISS %:       -nan   MPKI: 0
STLB TOTAL     ACCESS:    8923192  HIT:    8321293  MISS:     601899  HIT %:    93.2547  MISS %:    6.74533   MPKI: 2.99831
STLB LOAD      ACCESS:          0  HIT:          0  MISS:          0  HIT %:       -nan  MISS %:       -nan   MPKI: 0
STLB RFO       ACCESS:          0  HIT:          0  MISS:          0  HIT %:       -nan  MISS %:       -nan   MPKI: 0
STLB PREFETCH  ACCESS:          0  HIT:          0  MISS:          0  HIT %:       -nan  MISS %:       -nan   MPKI: 0
STLB WRITEBACK ACCESS:          0  HIT:          0  MISS:          0  HIT %:       -nan  MISS %:       -nan   MPKI: 0
L1D TOTAL     ACCESS:   93271350  HIT:   87046554  MISS:    6224796  HIT %:    93.3261  MISS %:    6.67386   MPKI: 31.0083
L1D LOAD      ACCESS:   27106919  HIT:   23501619  MISS:    3605300  HIT %:    86.6997  MISS %:    13.3003   MPKI: 17.9595
L1D RFO       ACCESS:   46034910  HIT:   46034359  MISS:        551  HIT %:    99.9988  MISS %: 0.00119692   MPKI: 0.00274476
L1D PREFETCH  ACCESS:   20129521  HIT:   17510576  MISS:    2618945  HIT %:    86.9895  MISS %:    13.0105   MPKI: 13.046
L1D WRITEBACK ACCESS:          0  HIT:          0  MISS:          0  HIT %:       -nan  MISS %:       -nan   MPKI: 0
L1I TOTAL     ACCESS:   41895280  HIT:   41895271  MISS:          9  HIT %:        100  MISS %: 2.14821e-05   MPKI: 4.48327e-05
L1I LOAD      ACCESS:   41895280  HIT:   41895271  MISS:          9  HIT %:        100  MISS %: 2.14821e-05   MPKI: 4.48327e-05
L1I RFO       ACCESS:          0  HIT:          0  MISS:          0  HIT %:       -nan  MISS %:       -nan   MPKI: 0
L1I PREFETCH  ACCESS:          0  HIT:          0  MISS:          0  HIT %:       -nan  MISS %:       -nan   MPKI: 0
L1I WRITEBACK ACCESS:          0  HIT:          0  MISS:          0  HIT %:       -nan  MISS %:       -nan   MPKI: 0
L2C TOTAL     ACCESS:   24775168  HIT:   16521306  MISS:    8253862  HIT %:    66.6849  MISS %:    33.3151   MPKI: 41.1159
L2C LOAD      ACCESS:    3429599  HIT:     855298  MISS:    2574301  HIT %:    24.9387  MISS %:    75.0613   MPKI: 12.8237
L2C RFO       ACCESS:        550  HIT:        450  MISS:        100  HIT %:    81.8182  MISS %:    18.1818   MPKI: 0.000498141
L2C PREFETCH  ACCESS:   18045968  HIT:   12903682  MISS:    5142286  HIT %:    71.5045  MISS %:    28.4955   MPKI: 25.6159
L2C WRITEBACK ACCESS:    2607645  HIT:    2318479  MISS:     289166  HIT %:    88.9108  MISS %:    11.0892   MPKI: 1.44046
PSCL5 TOTAL     ACCESS:     646309  HIT:     646309  MISS:          0  HIT %:        100  MISS %:          0   MPKI: 0
PSCL5 LOAD      ACCESS:          0  HIT:          0  MISS:          0  HIT %:       -nan  MISS %:       -nan   MPKI: 0
PSCL5 RFO       ACCESS:          0  HIT:          0  MISS:          0  HIT %:       -nan  MISS %:       -nan   MPKI: 0
PSCL5 PREFETCH  ACCESS:          0  HIT:          0  MISS:          0  HIT %:       -nan  MISS %:       -nan   MPKI: 0
PSCL5 WRITEBACK ACCESS:          0  HIT:          0  MISS:          0  HIT %:       -nan  MISS %:       -nan   MPKI: 0
PSCL4 TOTAL     ACCESS:     646309  HIT:     646309  MISS:          0  HIT %:        100  MISS %:          0   MPKI: 0
PSCL4 LOAD      ACCESS:          0  HIT:          0  MISS:          0  HIT %:       -nan  MISS %:       -nan   MPKI: 0
PSCL4 RFO       ACCESS:          0  HIT:          0  MISS:          0  HIT %:       -nan  MISS %:       -nan   MPKI: 0
PSCL4 PREFETCH  ACCESS:          0  HIT:          0  MISS:          0  HIT %:       -nan  MISS %:       -nan   MPKI: 0
PSCL4 WRITEBACK ACCESS:          0  HIT:          0  MISS:          0  HIT %:       -nan  MISS %:       -nan   MPKI: 0
PSCL3 TOTAL     ACCESS:     646309  HIT:     646309  MISS:          0  HIT %:        100  MISS %:          0   MPKI: 0
PSCL3 LOAD      ACCESS:          0  HIT:          0  MISS:          0  HIT %:       -nan  MISS %:       -nan   MPKI: 0
PSCL3 RFO       ACCESS:          0  HIT:          0  MISS:          0  HIT %:       -nan  MISS %:       -nan   MPKI: 0
PSCL3 PREFETCH  ACCESS:          0  HIT:          0  MISS:          0  HIT %:       -nan  MISS %:       -nan   MPKI: 0
PSCL3 WRITEBACK ACCESS:          0  HIT:          0  MISS:          0  HIT %:       -nan  MISS %:       -nan   MPKI: 0
PSCL2 TOTAL     ACCESS:     642514  HIT:     601211  MISS:      41303  HIT %:    93.5717  MISS %:    6.42834   MPKI: 0.205747
PSCL2 LOAD      ACCESS:          0  HIT:          0  MISS:          0  HIT %:       -nan  MISS %:       -nan   MPKI: 0
PSCL2 RFO       ACCESS:          0  HIT:          0  MISS:          0  HIT %:       -nan  MISS %:       -nan   MPKI: 0
PSCL2 PREFETCH  ACCESS:          0  HIT:          0  MISS:          0  HIT %:       -nan  MISS %:       -nan   MPKI: 0
PSCL2 WRITEBACK ACCESS:          0  HIT:          0  MISS:          0  HIT %:       -nan  MISS %:       -nan   MPKI: 0
LLC TOTAL     ACCESS:   10479556  HIT:    2908727  MISS:    7570829  HIT %:    27.7562  MISS %:    72.2438   MPKI: 37.7134
LLC LOAD      ACCESS:    2523789  HIT:      74153  MISS:    2449636  HIT %:    2.93816  MISS %:    97.0618   MPKI: 12.2026
LLC RFO       ACCESS:         99  HIT:         38  MISS:         61  HIT %:    38.3838  MISS %:    61.6162   MPKI: 0.000303866
LLC PREFETCH  ACCESS:    5192795  HIT:     406868  MISS:    4785927  HIT %:    7.83524  MISS %:    92.1648   MPKI: 23.8407
LLC WRITEBACK ACCESS:    2514864  HIT:    2394679  MISS:     120185  HIT %:     95.221  MISS %:    4.77899   MPKI: 0.598691

RAW hits: 59
Loads Generated: 50382171
Loads sent to L1D: 50382112
Stores Generated: 48866355
Stores sent to L1D: 48866361

CPU 1 cumulative IPC: 0.103627 instructions: 200634201 cycles: 1936126321
ITLB TOTAL     ACCESS:   27312605  HIT:   27312604  MISS:          1  HIT %:        100  MISS %: 3.66131e-06   MPKI: 4.9842e-06
ITLB LOAD      ACCESS:          0  HIT:          0  MISS:          0  HIT %:       -nan  MISS %:       -nan   MPKI: 0
ITLB RFO       ACCESS:          0  HIT:          0  MISS:          0  HIT %:       -nan  MISS %:       -nan   MPKI: 0
ITLB PREFETCH  ACCESS:          0  HIT:          0  MISS:          0  HIT %:       -nan  MISS %:       -nan   MPKI: 0
ITLB WRITEBACK ACCESS:          0  HIT:          0  MISS:          0  HIT %:       -nan  MISS %:       -nan   MPKI: 0
DTLB TOTAL     ACCESS:   36296867  HIT:   35363279  MISS:     933588  HIT %:    97.4279  MISS %:    2.57209   MPKI: 4.65318
DTLB LOAD      ACCESS:          0  HIT:          0  MISS:          0  HIT %:       -nan  MISS %:       -nan   MPKI: 0
DTLB RFO       ACCESS:          0  HIT:          0  MISS:          0  HIT %:       -nan  MISS %:       -nan   MPKI: 0
DTLB PREFETCH  ACCESS:          0  HIT:          0  MISS:          0  HIT %:       -nan  MISS %:       -nan   MPKI: 0
DTLB WRITEBACK ACCESS:          0  HIT:          0  MISS:          0  HIT %:       -nan  MISS %:       -nan   MPKI: 0
STLB TOTAL     ACCESS:    9032338  HIT:    8430922  MISS:     601416  HIT %:    93.3415  MISS %:    6.65848   MPKI: 2.99757
STLB LOAD      ACCESS:          0  HIT:          0  MISS:          0  HIT %:       -nan  MISS %:       -nan   MPKI: 0
STLB RFO       ACCESS:          0  HIT:          0  MISS:          0  HIT %:       -nan  MISS %:       -nan   MPKI: 0
STLB PREFETCH  ACCESS:          0  HIT:          0  MISS:          0  HIT %:       -nan  MISS %:       -nan   MPKI: 0
STLB WRITEBACK ACCESS:          0  HIT:          0  MISS:          0  HIT %:       -nan  MISS %:       -nan   MPKI: 0
L1D TOTAL     ACCESS:   91770271  HIT:   85566017  MISS:    6204254  HIT %:    93.2394  MISS %:    6.76064   MPKI: 30.9232
L1D LOAD      ACCESS:   27098574  HIT:   23334797  MISS:    3763777  HIT %:    86.1108  MISS %:    13.8892   MPKI: 18.7594
L1D RFO       ACCESS:   46006019  HIT:   46005457  MISS:        562  HIT %:    99.9988  MISS %: 0.00122158   MPKI: 0.00280112
L1D PREFETCH  ACCESS:   18665678  HIT:   16225763  MISS:    2439915  HIT %:    86.9283  MISS %:    13.0717   MPKI: 12.161
L1D WRITEBACK ACCESS:          0  HIT:          0  MISS:          0  HIT %:       -nan  MISS %:       -nan   MPKI: 0
L1I TOTAL     ACCESS:   41874334  HIT:   41874325  MISS:          9  HIT %:        100  MISS %: 2.14929e-05   MPKI: 4.48578e-05
L1I LOAD      ACCESS:   41874334  HIT:   41874325  MISS:          9  HIT %:        100  MISS %: 2.14929e-05   MPKI: 4.48578e-05
L1I RFO       ACCESS:          0  HIT:          0  MISS:          0  HIT %:       -nan  MISS %:       -nan   MPKI: 0
L1I PREFETCH  ACCESS:          0  HIT:          0  MISS:          0  HIT %:       -nan  MISS %:       -nan   MPKI: 0
L1I WRITEBACK ACCESS:          0  HIT:          0  MISS:          0  HIT %:       -nan  MISS %:       -nan   MPKI: 0
L2C TOTAL     ACCESS:   25789026  HIT:   17543788  MISS:    8245238  HIT %:    68.0281  MISS %:    31.9719   MPKI: 41.0959
L2C LOAD      ACCESS:    3592418  HIT:    1017714  MISS:    2574704  HIT %:    28.3295  MISS %:    71.6705   MPKI: 12.8328
L2C RFO       ACCESS:        562  HIT:        471  MISS:         91  HIT %:    83.8078  MISS %:    16.1922   MPKI: 0.000453562
L2C PREFETCH  ACCESS:   18899242  HIT:   13765040  MISS:    5134202  HIT %:    72.8338  MISS %:    27.1662   MPKI: 25.5899
L2C WRITEBACK ACCESS:    2604916  HIT:    2315938  MISS:     288978  HIT %:    88.9064  MISS %:    11.0936   MPKI: 1.44032
PSCL5 TOTAL     ACCESS:     645776  HIT:     645776  MISS:          0  HIT %:        100  MISS %:          0   MPKI: 0
PSCL5 LOAD      ACCESS:          0  HIT:          0  MISS:          0  HIT %:       -nan  MISS %:       -nan   MPKI: 0
PSCL5 RFO       ACCESS:          0  HIT:          0  MISS:          0  HIT %:       -nan  MISS %:       -nan   MPKI: 0
PSCL5 PREFETCH  ACCESS:          0  HIT:          0  MISS:          0  HIT %:       -nan  MISS %:       -nan   MPKI: 0
PSCL5 WRITEBACK ACCESS:          0  HIT:          0  MISS:          0  HIT %:       -nan  MISS %:       -nan   MPKI: 0
PSCL4 TOTAL     ACCESS:     645776  HIT:     645776  MISS:          0  HIT %:        100  MISS %:          0   MPKI: 0
PSCL4 LOAD      ACCESS:          0  HIT:          0  MISS:          0  HIT %:       -nan  MISS %:       -nan   MPKI: 0
PSCL4 RFO       ACCESS:          0  HIT:          0  MISS:          0  HIT %:       -nan  MISS %:       -nan   MPKI: 0
PSCL4 PREFETCH  ACCESS:          0  HIT:          0  MISS:          0  HIT %:       -nan  MISS %:       -nan   MPKI: 0
PSCL4 WRITEBACK ACCESS:          0  HIT:          0  MISS:          0  HIT %:       -nan  MISS %:       -nan   MPKI: 0
PSCL3 TOTAL     ACCESS:     645776  HIT:     645776  MISS:          0  HIT %:        100  MISS %:          0   MPKI: 0
PSCL3 LOAD      ACCESS:          0  HIT:          0  MISS:          0  HIT %:       -nan  MISS %:       -nan   MPKI: 0
PSCL3 RFO       ACCESS:          0  HIT:          0  MISS:          0  HIT %:       -nan  MISS %:       -nan   MPKI: 0
PSCL3 PREFETCH  ACCESS:          0  HIT:          0  MISS:          0  HIT %:       -nan  MISS %:       -nan   MPKI: 0
PSCL3 WRITEBACK ACCESS:          0  HIT:          0  MISS:          0  HIT %:       -nan  MISS %:       -nan   MPKI: 0
PSCL2 TOTAL     ACCESS:     640959  HIT:     599663  MISS:      41296  HIT %:    93.5572  MISS %:    6.44285   MPKI: 0.205827
PSCL2 LOAD      ACCESS:          0  HIT:          0  MISS:          0  HIT %:       -nan  MISS %:       -nan   MPKI: 0
PSCL2 RFO       ACCESS:          0  HIT:          0  MISS:          0  HIT %:       -nan  MISS %:       -nan   MPKI: 0
PSCL2 PREFETCH  ACCESS:          0  HIT:          0  MISS:          0  HIT %:       -nan  MISS %:       -nan   MPKI: 0
PSCL2 WRITEBACK ACCESS:          0  HIT:          0  MISS:          0  HIT %:       -nan  MISS %:       -nan   MPKI: 0
LLC TOTAL     ACCESS:   10467972  HIT:    2827650  MISS:    7640322  HIT %:    27.0124  MISS %:    72.9876   MPKI: 38.0809
LLC LOAD      ACCESS:    2521038  HIT:      73752  MISS:    2447286  HIT %:    2.92546  MISS %:    97.0745   MPKI: 12.1978
LLC RFO       ACCESS:         91  HIT:         31  MISS:         60  HIT %:    34.0659  MISS %:    65.9341   MPKI: 0.000299052
LLC PREFETCH  ACCESS:    5187856  HIT:     329009  MISS:    4858847  HIT %:    6.34191  MISS %:    93.6581   MPKI: 24.2174
LLC WRITEBACK ACCESS:    2511724  HIT:    2393049  MISS:     118675  HIT %:    95.2752  MISS %:    4.72484   MPKI: 0.591499

RAW hits: 59
Loads Generated: 50355437
Loads sent to L1D: 50355380
Stores Generated: 48837540
Stores sent to L1D: 48837558

CPU 2 cumulative IPC: 0.103299 instructions: 200000002 cycles: 1936126321
ITLB TOTAL     ACCESS:   27218967  HIT:   27218966  MISS:          1  HIT %:        100  MISS %: 3.67391e-06   MPKI: 5e-06
ITLB LOAD      ACCESS:          0  HIT:          0  MISS:          0  HIT %:       -nan  MISS %:       -nan   MPKI: 0
ITLB RFO       ACCESS:          0  HIT:          0  MISS:          0  HIT %:       -nan  MISS %:       -nan   MPKI: 0
ITLB PREFETCH  ACCESS:          0  HIT:          0  MISS:          0  HIT %:       -nan  MISS %:       -nan   MPKI: 0
ITLB WRITEBACK ACCESS:          0  HIT:          0  MISS:          0  HIT %:       -nan  MISS %:       -nan   MPKI: 0
DTLB TOTAL     ACCESS:   36187990  HIT:   35257853  MISS:     930137  HIT %:    97.4297  MISS %:    2.57029   MPKI: 4.65068
DTLB LOAD      ACCESS:          0  HIT:          0  MISS:          0  HIT %:       -nan  MISS %:       -nan   MPKI: 0
DTLB RFO       ACCESS:          0  HIT:          0  MISS:          0  HIT %:       -nan  MISS %:       -nan   MPKI: 0
DTLB PREFETCH  ACCESS:          0  HIT:          0  MISS:          0  HIT %:       -nan  MISS %:       -nan   MPKI: 0
DTLB WRITEBACK ACCESS:          0  HIT:          0  MISS:          0  HIT %:       -nan  MISS %:       -nan   MPKI: 0
STLB TOTAL     ACCESS:    9018684  HIT:    8419525  MISS:     599159  HIT %:    93.3565  MISS %:    6.64353   MPKI: 2.99579
STLB LOAD      ACCESS:          0  HIT:          0  MISS:          0  HIT %:       -nan  MISS %:       -nan   MPKI: 0
STLB RFO       ACCESS:          0  HIT:          0  MISS:          0  HIT %:       -nan  MISS %:       -nan   MPKI: 0
STLB PREFETCH  ACCESS:          0  HIT:          0  MISS:          0  HIT %:       -nan  MISS %:       -nan   MPKI: 0
STLB WRITEBACK ACCESS:          0  HIT:          0  MISS:          0  HIT %:       -nan  MISS %:       -nan   MPKI: 0
L1D TOTAL     ACCESS:   91737104  HIT:   85549393  MISS:    6187711  HIT %:     93.255  MISS %:    6.74505   MPKI: 30.9386
L1D LOAD      ACCESS:   27024499  HIT:   23267740  MISS:    3756759  HIT %:    86.0987  MISS %:    13.9013   MPKI: 18.7838
L1D RFO       ACCESS:   45858356  HIT:   45857788  MISS:        568  HIT %:    99.9988  MISS %:  0.0012386   MPKI: 0.00284
L1D PREFETCH  ACCESS:   18854249  HIT:   16423865  MISS:    2430384  HIT %:    87.1096  MISS %:    12.8904   MPKI: 12.1519
L1D WRITEBACK ACCESS:          0  HIT:          0  MISS:          0  HIT %:       -nan  MISS %:       -nan   MPKI: 0
L1I TOTAL     ACCESS:   41734243  HIT:   41734234  MISS:          9  HIT %:        100  MISS %: 2.1565e-05   MPKI: 4.5e-05
L1I LOAD      ACCESS:   41734243  HIT:   41734234  MISS:          9  HIT %:        100  MISS %: 2.1565e-05   MPKI: 4.5e-05
L1I RFO       ACCESS:          0  HIT:          0  MISS:          0  HIT %:       -nan  MISS %:       -nan   MPKI: 0
L1I PREFETCH  ACCESS:          0  HIT:          0  MISS:          0  HIT %:       -nan  MISS %:       -nan   MPKI: 0
L1I WRITEBACK ACCESS:          0  HIT:          0  MISS:          0  HIT %:       -nan  MISS %:       -nan   MPKI: 0
L2C TOTAL     ACCESS:   25864827  HIT:   17653048  MISS:    8211779  HIT %:    68.2512  MISS %:    31.7488   MPKI: 41.0589
L2C LOAD      ACCESS:    3582350  HIT:    1016523  MISS:    2565827  HIT %:    28.3759  MISS %:    71.6241   MPKI: 12.8291
L2C RFO       ACCESS:        568  HIT:        476  MISS:         92  HIT %:    83.8028  MISS %:    16.1972   MPKI: 0.00046
L2C PREFETCH  ACCESS:   18994749  HIT:   13882418  MISS:    5112331  HIT %:    73.0856  MISS %:    26.9144   MPKI: 25.5617
L2C WRITEBACK ACCESS:    2593865  HIT:    2307108  MISS:     286757  HIT %:    88.9448  MISS %:    11.0552   MPKI: 1.43378
PSCL5 TOTAL     ACCESS:     647619  HIT:     647619  MISS:          0  HIT %:        100  MISS %:          0   MPKI: 0
PSCL5 LOAD      ACCESS:          0  HIT:          0  MISS:          0  HIT %:       -nan  MISS %:       -nan   MPKI: 0
PSCL5 RFO       ACCESS:          0  HIT:          0  MISS:          0  HIT %:       -nan  MISS %:       -nan   MPKI: 0
PSCL5 PREFETCH  ACCESS:          0  HIT:          0  MISS:          0  HIT %:       -nan  MISS %:       -nan   MPKI: 0
PSCL5 WRITEBACK ACCESS:          0  HIT:          0  MISS:          0  HIT %:       -nan  MISS %:       -nan   MPKI: 0
PSCL4 TOTAL     ACCESS:     647619  HIT:     647619  MISS:          0  HIT %:        100  MISS %:          0   MPKI: 0
PSCL4 LOAD      ACCESS:          0  HIT:          0  MISS:          0  HIT %:       -nan  MISS %:       -nan   MPKI: 0
PSCL4 RFO       ACCESS:          0  HIT:          0  MISS:          0  HIT %:       -nan  MISS %:       -nan   MPKI: 0
PSCL4 PREFETCH  ACCESS:          0  HIT:          0  MISS:          0  HIT %:       -nan  MISS %:       -nan   MPKI: 0
PSCL4 WRITEBACK ACCESS:          0  HIT:          0  MISS:          0  HIT %:       -nan  MISS %:       -nan   MPKI: 0
PSCL3 TOTAL     ACCESS:     647619  HIT:     647619  MISS:          0  HIT %:        100  MISS %:          0   MPKI: 0
PSCL3 LOAD      ACCESS:          0  HIT:          0  MISS:          0  HIT %:       -nan  MISS %:       -nan   MPKI: 0
PSCL3 RFO       ACCESS:          0  HIT:          0  MISS:          0  HIT %:       -nan  MISS %:       -nan   MPKI: 0
PSCL3 PREFETCH  ACCESS:          0  HIT:          0  MISS:          0  HIT %:       -nan  MISS %:       -nan   MPKI: 0
PSCL3 WRITEBACK ACCESS:          0  HIT:          0  MISS:          0  HIT %:       -nan  MISS %:       -nan   MPKI: 0
PSCL2 TOTAL     ACCESS:     643269  HIT:     601942  MISS:      41327  HIT %:    93.5755  MISS %:    6.42453   MPKI: 0.206635
PSCL2 LOAD      ACCESS:          0  HIT:          0  MISS:          0  HIT %:       -nan  MISS %:       -nan   MPKI: 0
PSCL2 RFO       ACCESS:          0  HIT:          0  MISS:          0  HIT %:       -nan  MISS %:       -nan   MPKI: 0
PSCL2 PREFETCH  ACCESS:          0  HIT:          0  MISS:          0  HIT %:       -nan  MISS %:       -nan   MPKI: 0
PSCL2 WRITEBACK ACCESS:          0  HIT:          0  MISS:          0  HIT %:       -nan  MISS %:       -nan   MPKI: 0
LLC TOTAL     ACCESS:   10426039  HIT:    2856316  MISS:    7569723  HIT %:     27.396  MISS %:     72.604   MPKI: 37.8486
LLC LOAD      ACCESS:    2513551  HIT:      72675  MISS:    2440876  HIT %:    2.89133  MISS %:    97.1087   MPKI: 12.2044
LLC RFO       ACCESS:         92  HIT:         26  MISS:         66  HIT %:    28.2609  MISS %:    71.7391   MPKI: 0.00033
LLC PREFETCH  ACCESS:    5164594  HIT:     386946  MISS:    4777648  HIT %:    7.49228  MISS %:    92.5077   MPKI: 23.8882
LLC WRITEBACK ACCESS:    2501030  HIT:    2364713  MISS:     136317  HIT %:    94.5496  MISS %:    5.45043   MPKI: 0.681585

RAW hits: 59
Loads Generated: 50203663
Loads sent to L1D: 50203598
Stores Generated: 48675327
Stores sent to L1D: 48675325

CPU 3 cumulative IPC: 0.103495 instructions: 200380276 cycles: 1936126321
ITLB TOTAL     ACCESS:   27269786  HIT:   27269785  MISS:          1  HIT %:        100  MISS %: 3.66706e-06   MPKI: 4.99051e-06
ITLB LOAD      ACCESS:          0  HIT:          0  MISS:          0  HIT %:       -nan  MISS %:       -nan   MPKI: 0
ITLB RFO       ACCESS:          0  HIT:          0  MISS:          0  HIT %:       -nan  MISS %:       -nan   MPKI: 0
ITLB PREFETCH  ACCESS:          0  HIT:          0  MISS:          0  HIT %:       -nan  MISS %:       -nan   MPKI: 0
ITLB WRITEBACK ACCESS:          0  HIT:          0  MISS:          0  HIT %:       -nan  MISS %:       -nan   MPKI: 0
DTLB TOTAL     ACCESS:   36250700  HIT:   35318421  MISS:     932279  HIT %:    97.4282  MISS %:    2.57175   MPKI: 4.65255
DTLB LOAD      ACCESS:          0  HIT:          0  MISS:          0  HIT %:       -nan  MISS %:       -nan   MPKI: 0
DTLB RFO       ACCESS:          0  HIT:          0  MISS:          0  HIT %:       -nan  MISS %:       -nan   MPKI: 0
DTLB PREFETCH  ACCESS:          0  HIT:          0  MISS:          0  HIT %:       -nan  MISS %:       -nan   MPKI: 0
DTLB WRITEBACK ACCESS:          0  HIT:          0  MISS:          0  HIT %:       -nan  MISS %:       -nan   MPKI: 0
STLB TOTAL     ACCESS:    8955311  HIT:    8354787  MISS:     600524  HIT %:    93.2942  MISS %:    6.70579   MPKI: 2.99692
STLB LOAD      ACCESS:          0  HIT:          0  MISS:          0  HIT %:       -nan  MISS %:       -nan   MPKI: 0
STLB RFO       ACCESS:          0  HIT:          0  MISS:          0  HIT %:       -nan  MISS %:       -nan   MPKI: 0
STLB PREFETCH  ACCESS:          0  HIT:          0  MISS:          0  HIT %:       -nan  MISS %:       -nan   MPKI: 0
STLB WRITEBACK ACCESS:          0  HIT:          0  MISS:          0  HIT %:       -nan  MISS %:       -nan   MPKI: 0
L1D TOTAL     ACCESS:   92701064  HIT:   86485932  MISS:    6215132  HIT %:    93.2955  MISS %:    6.70449   MPKI: 31.0167
L1D LOAD      ACCESS:   27065232  HIT:   23454640  MISS:    3610592  HIT %:    86.6597  MISS %:    13.3403   MPKI: 18.0187
L1D RFO       ACCESS:   45947723  HIT:   45947172  MISS:        551  HIT %:    99.9988  MISS %: 0.00119919   MPKI: 0.00274977
L1D PREFETCH  ACCESS:   19688109  HIT:   17084120  MISS:    2603989  HIT %:    86.7738  MISS %:    13.2262   MPKI: 12.9952
L1D WRITEBACK ACCESS:          0  HIT:          0  MISS:          0  HIT %:       -nan  MISS %:       -nan   MPKI: 0
L1I TOTAL     ACCESS:   41814286  HIT:   41814277  MISS:          9  HIT %:        100  MISS %: 2.15237e-05   MPKI: 4.49146e-05
L1I LOAD      ACCESS:   41814286  HIT:   41814277  MISS:          9  HIT %:        100  MISS %: 2.15237e-05   MPKI: 4.49146e-05
L1I RFO       ACCESS:          0  HIT:          0  MISS:          0  HIT %:       -nan  MISS %:       -nan   MPKI: 0
L1I PREFETCH  ACCESS:          0  HIT:          0  MISS:          0  HIT %:       -nan  MISS %:       -nan   MPKI: 0
L1I WRITEBACK ACCESS:          0  HIT:          0  MISS:          0  HIT %:       -nan  MISS %:       -nan   MPKI: 0
L2C TOTAL     ACCESS:   25172310  HIT:   16941240  MISS:    8231070  HIT %:    67.3011  MISS %:    32.6989   MPKI: 41.0772
L2C LOAD      ACCESS:    3426765  HIT:     856752  MISS:    2570013  HIT %:    25.0018  MISS %:    74.9982   MPKI: 12.8257
L2C RFO       ACCESS:        550  HIT:        455  MISS:         95  HIT %:    82.7273  MISS %:    17.2727   MPKI: 0.000474099
L2C PREFETCH  ACCESS:   18453352  HIT:   13329815  MISS:    5123537  HIT %:    72.2352  MISS %:    27.7648   MPKI: 25.5691
L2C WRITEBACK ACCESS:    2600504  HIT:    2310469  MISS:     290035  HIT %:     88.847  MISS %:     11.153   MPKI: 1.44742
PSCL5 TOTAL     ACCESS:     647292  HIT:     647292  MISS:          0  HIT %:        100  MISS %:          0   MPKI: 0
PSCL5 LOAD      ACCESS:          0  HIT:          0  MISS:          0  HIT %:       -nan  MISS %:       -nan   MPKI: 0
PSCL5 RFO       ACCESS:          0  HIT:          0  MISS:          0  HIT %:       -nan  MISS %:       -nan   MPKI: 0
PSCL5 PREFETCH  ACCESS:          0  HIT:          0  MISS:          0  HIT %:       -nan  MISS %:       -nan   MPKI: 0
PSCL5 WRITEBACK ACCESS:          0  HIT:          0  MISS:          0  HIT %:       -nan  MISS %:       -nan   MPKI: 0
PSCL4 TOTAL     ACCESS:     647292  HIT:     647292  MISS:          0  HIT %:        100  MISS %:          0   MPKI: 0
PSCL4 LOAD      ACCESS:          0  HIT:          0  MISS:          0  HIT %:       -nan  MISS %:       -nan   MPKI: 0
PSCL4 RFO       ACCESS:          0  HIT:          0  MISS:          0  HIT %:       -nan  MISS %:       -nan   MPKI: 0
PSCL4 PREFETCH  ACCESS:          0  HIT:          0  MISS:          0  HIT %:       -nan  MISS %:       -nan   MPKI: 0
PSCL4 WRITEBACK ACCESS:          0  HIT:          0  MISS:          0  HIT %:       -nan  MISS %:       -nan   MPKI: 0
PSCL3 TOTAL     ACCESS:     647292  HIT:     647292  MISS:          0  HIT %:        100  MISS %:          0   MPKI: 0
PSCL3 LOAD      ACCESS:          0  HIT:          0  MISS:          0  HIT %:       -nan  MISS %:       -nan   MPKI: 0
PSCL3 RFO       ACCESS:          0  HIT:          0  MISS:          0  HIT %:       -nan  MISS %:       -nan   MPKI: 0
PSCL3 PREFETCH  ACCESS:          0  HIT:          0  MISS:          0  HIT %:       -nan  MISS %:       -nan   MPKI: 0
PSCL3 WRITEBACK ACCESS:          0  HIT:          0  MISS:          0  HIT %:       -nan  MISS %:       -nan   MPKI: 0
PSCL2 TOTAL     ACCESS:     644704  HIT:     603444  MISS:      41260  HIT %:    93.6002  MISS %:    6.39984   MPKI: 0.205908
PSCL2 LOAD      ACCESS:          0  HIT:          0  MISS:          0  HIT %:       -nan  MISS %:       -nan   MPKI: 0
PSCL2 RFO       ACCESS:          0  HIT:          0  MISS:          0  HIT %:       -nan  MISS %:       -nan   MPKI: 0
PSCL2 PREFETCH  ACCESS:          0  HIT:          0  MISS:          0  HIT %:       -nan  MISS %:       -nan   MPKI: 0
PSCL2 WRITEBACK ACCESS:          0  HIT:          0  MISS:          0  HIT %:       -nan  MISS %:       -nan   MPKI: 0
LLC TOTAL     ACCESS:   10449341  HIT:    2838259  MISS:    7611082  HIT %:    27.1621  MISS %:    72.8379   MPKI: 37.9832
LLC LOAD      ACCESS:    2519788  HIT:      73778  MISS:    2446010  HIT %:    2.92794  MISS %:    97.0721   MPKI: 12.2068
LLC RFO       ACCESS:         95  HIT:         35  MISS:         60  HIT %:    36.8421  MISS %:    63.1579   MPKI: 0.000299431
LLC PREFETCH  ACCESS:    5173757  HIT:     349368  MISS:    4824389  HIT %:    6.75269  MISS %:    93.2473   MPKI: 24.0762
LLC WRITEBACK ACCESS:    2508311  HIT:    2382668  MISS:     125643  HIT %:    94.9909  MISS %:    5.00907   MPKI: 0.627023

RAW hits: 59
Loads Generated: 50294951
Loads sent to L1D: 50294892
Stores Generated: 48772200
Stores sent to L1D: 48772230

Region of Interest Statistics

CPU 0 cumulative IPC: 0.106661 instructions: 200000002 cycles: 1875103817
ITLB TOTAL     ACCESS:   27216240  HIT:   27216239  MISS:          1  HIT %:        100  MISS %: 3.67428e-06   MPKI: 5e-06
ITLB LOAD TRANSLATION ACCESS:   27216240  HIT:   27216239  MISS:          1  HIT %:        100  MISS %: 3.67428e-06   MPKI: 5e-06
ITLB PREFETCH  REQUESTED:          0  ISSUED:          0  USEFUL:          0  USELESS:          0
ITLB USEFUL LOAD PREFETCHES:          0 PREFETCH ISSUED TO LOWER LEVEL:          0  ACCURACY: -nan
ITLB TIMELY PREFETCHES:          0 LATE PREFETCHES: 0 DROPPED PREFETCHES: 0
ITLB PREFETCHES SAME FILL-ORIGIN LEVEL: 0 DIFFERENT FILL-ORIGIN LEVEL: 0
ITLB AVERAGE MISS LATENCY: 348 cycles
ITLB RQ	ACCESS:   41895283	FORWARD:          0	MERGED:   14571370	TO_CACHE:   27323913

DTLB TOTAL     ACCESS:   36181405  HIT:   35250884  MISS:     930521  HIT %:    97.4282  MISS %:    2.57182   MPKI: 4.6526
DTLB LOAD TRANSLATION ACCESS:   36181405  HIT:   35250884  MISS:     930521  HIT %:    97.4282  MISS %:    2.57182   MPKI: 4.6526
DTLB PREFETCH  REQUESTED:          0  ISSUED:          0  USEFUL:          0  USELESS:          0
DTLB USEFUL LOAD PREFETCHES:          0 PREFETCH ISSUED TO LOWER LEVEL:          0  ACCURACY: -nan
DTLB TIMELY PREFETCHES:          0 LATE PREFETCHES: 0 DROPPED PREFETCHES: 0
DTLB PREFETCHES SAME FILL-ORIGIN LEVEL: 0 DIFFERENT FILL-ORIGIN LEVEL: 0
DTLB AVERAGE MISS LATENCY: 1775.35 cycles
DTLB RQ	ACCESS:   73875714	FORWARD:          0	MERGED:   37060782	TO_CACHE:   36814932

STLB TOTAL     ACCESS:    8912536  HIT:    8313188  MISS:     599348  HIT %:    93.2752  MISS %:    6.72478   MPKI: 2.99674
STLB LOAD TRANSLATION ACCESS:     930522  HIT:     410597  MISS:     519925  HIT %:    44.1254  MISS %:    55.8746   MPKI: 2.59962
STLB TRANSLATION FROM L1D PREFETCHER ACCESS:    7982014  HIT:    7902591  MISS:      79423  HIT %:     99.005  MISS %:   0.995025   MPKI: 0.397115
STLB PREFETCH  REQUESTED:          0  ISSUED:          0  USEFUL:      76180  USELESS:       3316
STLB USEFUL LOAD PREFETCHES:      76180 PREFETCH ISSUED TO LOWER LEVEL:          0  ACCURACY: inf
STLB TIMELY PREFETCHES:      76180 LATE PREFETCHES: 458 DROPPED PREFETCHES: 44403
STLB PREFETCHES SAME FILL-ORIGIN LEVEL: 0 DIFFERENT FILL-ORIGIN LEVEL: 0
STLB AVERAGE MISS LATENCY: 2736.03 cycles
STLB RQ	ACCESS:   41146585	FORWARD:          0	MERGED:   32168841	TO_CACHE:    8977744

STLB Hit, L1D data hit: 0
STLB Hit, L2C data hit: 0
STLB Hit, LLC data hit: 0
STLB Hit, LLC data miss: 0
STLB STLB hints to L2: 0
L1D TOTAL     ACCESS:   92993767  HIT:   86787899  MISS:    6205868  HIT %:    93.3266  MISS %:    6.67342   MPKI: 31.0293
L1D LOAD      ACCESS:   27017996  HIT:   23429295  MISS:    3588701  HIT %:    86.7174  MISS %:    13.2826   MPKI: 17.9435
L1D RFO       ACCESS:   45857956  HIT:   45857405  MISS:        551  HIT %:    99.9988  MISS %: 0.00120154   MPKI: 0.002755
L1D PREFETCH  ACCESS:   20117815  HIT:   17501199  MISS:    2616616  HIT %:    86.9935  MISS %:    13.0065   MPKI: 13.0831
L1D PREFETCH  REQUESTED:  115565468  ISSUED:   96560837  USEFUL:    2517506  USELESS:     101523
L1D USEFUL LOAD PREFETCHES:    2517506 PREFETCH ISSUED TO LOWER LEVEL:   23622465  ACCURACY: 10.6573
L1D TIMELY PREFETCHES:    2517506 LATE PREFETCHES: 175526 DROPPED PREFETCHES: 117004
L1D PREFETCHES SAME FILL-ORIGIN LEVEL: 2967080 DIFFERENT FILL-ORIGIN LEVEL: 20655385
L1D AVERAGE MISS LATENCY: 1075.4 cycles
L1D RQ	ACCESS:   50382112	FORWARD:          0	MERGED:   22542776	TO_CACHE:   27839336
L1D WQ	ACCESS:   48866361	FORWARD:       1797	MERGED:    2829983	TO_CACHE:   46036378
L1D PQ	ACCESS:   56348906	FORWARD:          0	MERGED:   16135178	TO_CACHE:   40211931

L1D UNIQUE REGIONS ACCESSED: 0
L1D REGIONS CONFLICTS: 0
L1D Cross Page Prefetch Requests: 9510523
L1D Same Page Prefetch Requests: 59268088
L1D ROI Sum of L1D PQ occupancy: 820664220
L1D PREFETCHES PUSHED FROM L2C: 0
L1I TOTAL     ACCESS:   41733230  HIT:   41733221  MISS:          9  HIT %:        100  MISS %: 2.15655e-05   MPKI: 4.5e-05
L1I LOAD      ACCESS:   41733230  HIT:   41733221  MISS:          9  HIT %:        100  MISS %: 2.15655e-05   MPKI: 4.5e-05
L1I PREFETCH  REQUESTED:          0  ISSUED:          0  USEFUL:          0  USELESS:          0
L1I USEFUL LOAD PREFETCHES:          0 PREFETCH ISSUED TO LOWER LEVEL:          0  ACCURACY: -nan
L1I TIMELY PREFETCHES:          0 LATE PREFETCHES: 0 DROPPED PREFETCHES: 0
L1I PREFETCHES SAME FILL-ORIGIN LEVEL: 0 DIFFERENT FILL-ORIGIN LEVEL: 0
L1I AVERAGE MISS LATENCY: 362.333 cycles
L1I RQ	ACCESS:   52519792	FORWARD:          0	MERGED:   10624509	TO_CACHE:   41895283

BTB TOTAL     ACCESS:   17791586  HIT:   17791582  MISS:          4  HIT %:        100  MISS %: 2.24825e-05   MPKI: 2e-05
BTB BRANCH_DIRECT_JUMP	ACCESS:     407734  HIT:     407732  MISS:          2
BTB BRANCH_INDIRECT	ACCESS:          0  HIT:          0  MISS:          0
BTB BRANCH_CONDITIONAL	ACCESS:   16976236  HIT:   16976234  MISS:          2
BTB BRANCH_DIRECT_CALL	ACCESS:     203808  HIT:     203808  MISS:          0
BTB BRANCH_INDIRECT_CALL	ACCESS:          0  HIT:          0  MISS:          0
BTB BRANCH_RETURN	ACCESS:     203808  HIT:     203808  MISS:          0
BTB BRANCH_OTHER ACCESS:          0  HIT:          0  MISS:          0

L2C TOTAL     ACCESS:   24718378  HIT:   16486476  MISS:    8231902  HIT %:    66.6972  MISS %:    33.3028   MPKI: 41.1595
L2C LOAD      ACCESS:    3413019  HIT:     853669  MISS:    2559350  HIT %:    25.0121  MISS %:    74.9879   MPKI: 12.7967
L2C DATA LOAD MPKI: 12.7967
L2C INSTRUCTION LOAD MPKI: 4.5e-05
L2C RFO       ACCESS:        550  HIT:        450  MISS:        100  HIT %:    81.8182  MISS %:    18.1818   MPKI: 0.0005
L2C PREFETCH  ACCESS:   18021112  HIT:   12883584  MISS:    5137528  HIT %:    71.4916  MISS %:    28.5084   MPKI: 25.6876
L2C DATA PREFETCH MPKI: 25.6876
L2C INSTRUCTION PREFETCH MPKI: 0
L2C WRITEBACK ACCESS:    2594873  HIT:    2307191  MISS:     287682  HIT %:    88.9134  MISS %:    11.0866   MPKI: 1.43841
L2C LOAD TRANSLATION ACCESS:     557706  HIT:     326201  MISS:     231505  HIT %:    58.4898  MISS %:    41.5102   MPKI: 1.15752
L2C TRANSLATION FROM L1D PREFETCHER ACCESS:     131118  HIT:     115381  MISS:      15737  HIT %:    87.9978  MISS %:    12.0022   MPKI: 0.078685
L2C PREFETCH  REQUESTED:          0  ISSUED:          0  USEFUL:     751554  USELESS:    4411191
L2C USEFUL LOAD PREFETCHES:     751554 PREFETCH ISSUED TO LOWER LEVEL:    5192796  ACCURACY: 14.473
L2C TIMELY PREFETCHES:     751554 LATE PREFETCHES: 50508 DROPPED PREFETCHES: 0
L2C PREFETCHES SAME FILL-ORIGIN LEVEL: 3739776 DIFFERENT FILL-ORIGIN LEVEL: 0
L2C AVERAGE MISS LATENCY: 1249.08 cycles
L2C RQ	ACCESS:    4121743	FORWARD:          0	MERGED:          0	TO_CACHE:    4121558
L2C WQ	ACCESS:    2607645	FORWARD:        228	MERGED:          0	TO_CACHE:    2607645
L2C PQ	ACCESS:   19938133	FORWARD:          0	MERGED:     156558	TO_CACHE:   19781532

L2C Instructions Evicting Data 8
L2C Translations Evicting Data 233239
L2C Data Evicting Data 7493270
L2C Instructions Evicting Instructions 0
L2C Translations Evicting Instructions 0
L2C Data Evicting Instructions 9
L2C Instructions Evicting Translations 1
L2C Translations Evicting Translations 14662
L2C Data Evicting Translations 220835
L2C Dense regions hint from L2: 0
PSCL5 TOTAL     ACCESS:     643757  HIT:     643757  MISS:          0  HIT %:        100  MISS %:          0   MPKI: 0
PSCL5 LOAD TRANSLATION ACCESS:     519474  HIT:     519474  MISS:          0  HIT %:        100  MISS %:          0   MPKI: 0
PSCL5 TRANSLATION FROM L1D PREFETCHER ACCESS:     124283  HIT:     124283  MISS:          0  HIT %:        100  MISS %:          0   MPKI: 0
PSCL5 PREFETCH  REQUESTED:          0  ISSUED:          0  USEFUL:          0  USELESS:          0
PSCL5 USEFUL LOAD PREFETCHES:          0 PREFETCH ISSUED TO LOWER LEVEL:          0  ACCURACY: -nan
PSCL5 TIMELY PREFETCHES:          0 LATE PREFETCHES: 0 DROPPED PREFETCHES: 0
PSCL5 PREFETCHES SAME FILL-ORIGIN LEVEL: 0 DIFFERENT FILL-ORIGIN LEVEL: 0

PSCL4 TOTAL     ACCESS:     643757  HIT:     643757  MISS:          0  HIT %:        100  MISS %:          0   MPKI: 0
PSCL4 LOAD TRANSLATION ACCESS:     519474  HIT:     519474  MISS:          0  HIT %:        100  MISS %:          0   MPKI: 0
PSCL4 TRANSLATION FROM L1D PREFETCHER ACCESS:     124283  HIT:     124283  MISS:          0  HIT %:        100  MISS %:          0   MPKI: 0
PSCL4 PREFETCH  REQUESTED:          0  ISSUED:          0  USEFUL:          0  USELESS:          0
PSCL4 USEFUL LOAD PREFETCHES:          0 PREFETCH ISSUED TO LOWER LEVEL:          0  ACCURACY: -nan
PSCL4 TIMELY PREFETCHES:          0 LATE PREFETCHES: 0 DROPPED PREFETCHES: 0
PSCL4 PREFETCHES SAME FILL-ORIGIN LEVEL: 0 DIFFERENT FILL-ORIGIN LEVEL: 0

PSCL3 TOTAL     ACCESS:     643757  HIT:     643757  MISS:          0  HIT %:        100  MISS %:          0   MPKI: 0
PSCL3 LOAD TRANSLATION ACCESS:     519474  HIT:     519474  MISS:          0  HIT %:        100  MISS %:          0   MPKI: 0
PSCL3 TRANSLATION FROM L1D PREFETCHER ACCESS:     124283  HIT:     124283  MISS:          0  HIT %:        100  MISS %:          0   MPKI: 0
PSCL3 PREFETCH  REQUESTED:          0  ISSUED:          0  USEFUL:          0  USELESS:          0
PSCL3 USEFUL LOAD PREFETCHES:          0 PREFETCH ISSUED TO LOWER LEVEL:          0  ACCURACY: -nan
PSCL3 TIMELY PREFETCHES:          0 LATE PREFETCHES: 0 DROPPED PREFETCHES: 0
PSCL3 PREFETCHES SAME FILL-ORIGIN LEVEL: 0 DIFFERENT FILL-ORIGIN LEVEL: 0

PSCL2 TOTAL     ACCESS:     639962  HIT:     598689  MISS:      41273  HIT %:    93.5507  MISS %:    6.44929   MPKI: 0.206365
PSCL2 LOAD TRANSLATION ACCESS:     522514  HIT:     481241  MISS:      41273  HIT %:    92.1011  MISS %:    7.89893   MPKI: 0.206365
PSCL2 TRANSLATION FROM L1D PREFETCHER ACCESS:     117448  HIT:     117448  MISS:          0  HIT %:        100  MISS %:          0   MPKI: 0
PSCL2 PREFETCH  REQUESTED:          0  ISSUED:          0  USEFUL:          0  USELESS:          0
PSCL2 USEFUL LOAD PREFETCHES:          0 PREFETCH ISSUED TO LOWER LEVEL:          0  ACCURACY: -nan
PSCL2 TIMELY PREFETCHES:          0 LATE PREFETCHES: 0 DROPPED PREFETCHES: 0
PSCL2 PREFETCHES SAME FILL-ORIGIN LEVEL: 0 DIFFERENT FILL-ORIGIN LEVEL: 0

LLC TOTAL     ACCESS:   10447227  HIT:    2897481  MISS:    7549746  HIT %:    27.7345  MISS %:    72.2655   MPKI: 37.7487
LLC LOAD      ACCESS:    2508903  HIT:      74010  MISS:    2434893  HIT %:    2.94989  MISS %:    97.0501   MPKI: 12.1745
LLC RFO       ACCESS:         99  HIT:         38  MISS:         61  HIT %:    38.3838  MISS %:    61.6162   MPKI: 0.000305
LLC PREFETCH  ACCESS:    5187967  HIT:     406839  MISS:    4781128  HIT %:    7.84197  MISS %:     92.158   MPKI: 23.9056
LLC WRITEBACK ACCESS:    2503016  HIT:    2383663  MISS:     119353  HIT %:    95.2316  MISS %:    4.76837   MPKI: 0.596765
LLC LOAD TRANSLATION ACCESS:     231505  HIT:      29324  MISS:     202181  HIT %:    12.6667  MISS %:    87.3333   MPKI: 1.0109
LLC TRANSLATION FROM L1D PREFETCHER ACCESS:      15737  HIT:       3607  MISS:      12130  HIT %:    22.9205  MISS %:    77.0795   MPKI: 0.06065
LLC PREFETCH  REQUESTED:          0  ISSUED:          0  USEFUL:     109974  USELESS:   19246337
LLC USEFUL LOAD PREFETCHES:     109974 PREFETCH ISSUED TO LOWER LEVEL:  291254938  ACCURACY: 0.0377587
LLC TIMELY PREFETCHES:     109974 LATE PREFETCHES: 0 DROPPED PREFETCHES: 0
LLC PREFETCHES SAME FILL-ORIGIN LEVEL: 0 DIFFERENT FILL-ORIGIN LEVEL: 0
LLC AVERAGE MISS LATENCY: 3487.53 cycles
LLC RQ	ACCESS:   11068003	FORWARD:          0	MERGED:          0	TO_CACHE:   11067977
LLC WQ	ACCESS:   10035929	FORWARD:         43	MERGED:          0	TO_CACHE:   10035929
LLC PQ	ACCESS:   20719019	FORWARD:          0	MERGED:          0	TO_CACHE:   20719002

LLC Dense regions hint to LLC: 0

RAW hits: 59
Loads Generated: 50203310
Loads sent to L1D: 50203245
Stores Generated: 48675787
Stores sent to L1D: 48675779
Major fault: 10569 Minor fault: 262411
Allocated PAGES: 1048576

CPU 1 cumulative IPC: 0.106027 instructions: 200000003 cycles: 1886315779
ITLB TOTAL     ACCESS:   27221148  HIT:   27221147  MISS:          1  HIT %:        100  MISS %: 3.67361e-06   MPKI: 5e-06
ITLB LOAD TRANSLATION ACCESS:   27221148  HIT:   27221147  MISS:          1  HIT %:        100  MISS %: 3.67361e-06   MPKI: 5e-06
ITLB PREFETCH  REQUESTED:          0  ISSUED:          0  USEFUL:          0  USELESS:          0
ITLB USEFUL LOAD PREFETCHES:          0 PREFETCH ISSUED TO LOWER LEVEL:          0  ACCURACY: -nan
ITLB TIMELY PREFETCHES:          0 LATE PREFETCHES: 0 DROPPED PREFETCHES: 0
ITLB PREFETCHES SAME FILL-ORIGIN LEVEL: 0 DIFFERENT FILL-ORIGIN LEVEL: 0
ITLB AVERAGE MISS LATENCY: 378 cycles
ITLB RQ	ACCESS:   41874337	FORWARD:          0	MERGED:   14561731	TO_CACHE:   27312606

DTLB TOTAL     ACCESS:   36185549  HIT:   35255022  MISS:     930527  HIT %:    97.4285  MISS %:    2.57154   MPKI: 4.65263
DTLB LOAD TRANSLATION ACCESS:   36185549  HIT:   35255022  MISS:     930527  HIT %:    97.4285  MISS %:    2.57154   MPKI: 4.65263
DTLB PREFETCH  REQUESTED:          0  ISSUED:          0  USEFUL:          0  USELESS:          0
DTLB USEFUL LOAD PREFETCHES:          0 PREFETCH ISSUED TO LOWER LEVEL:          0  ACCURACY: -nan
DTLB TIMELY PREFETCHES:          0 LATE PREFETCHES: 0 DROPPED PREFETCHES: 0
DTLB PREFETCHES SAME FILL-ORIGIN LEVEL: 0 DIFFERENT FILL-ORIGIN LEVEL: 0
DTLB AVERAGE MISS LATENCY: 1773.79 cycles
DTLB RQ	ACCESS:   73836631	FORWARD:          0	MERGED:   37037398	TO_CACHE:   36799233

STLB TOTAL     ACCESS:    9024508  HIT:    8425182  MISS:     599326  HIT %:    93.3589  MISS %:    6.64109   MPKI: 2.99663
STLB LOAD TRANSLATION ACCESS:     930528  HIT:     410472  MISS:     520056  HIT %:    44.1117  MISS %:    55.8883   MPKI: 2.60028
STLB TRANSLATION FROM L1D PREFETCHER ACCESS:    8093980  HIT:    8014710  MISS:      79270  HIT %:    99.0206  MISS %:    0.97937   MPKI: 0.39635
STLB PREFETCH  REQUESTED:          0  ISSUED:          0  USEFUL:      76026  USELESS:       3302
STLB USEFUL LOAD PREFETCHES:      76026 PREFETCH ISSUED TO LOWER LEVEL:          0  ACCURACY: inf
STLB TIMELY PREFETCHES:      76026 LATE PREFETCHES: 477 DROPPED PREFETCHES: 44351
STLB PREFETCHES SAME FILL-ORIGIN LEVEL: 0 DIFFERENT FILL-ORIGIN LEVEL: 0
STLB AVERAGE MISS LATENCY: 2732.9 cycles
STLB RQ	ACCESS:   40847696	FORWARD:          0	MERGED:   31760578	TO_CACHE:    9087118

STLB Hit, L1D data hit: 0
STLB Hit, L2C data hit: 0
STLB Hit, LLC data hit: 0
STLB Hit, LLC data miss: 0
STLB STLB hints to L2: 0
L1D TOTAL     ACCESS:   91536362  HIT:   85347371  MISS:    6188991  HIT %:    93.2388  MISS %:    6.76124   MPKI: 30.945
L1D LOAD      ACCESS:   27023084  HIT:   23273218  MISS:    3749866  HIT %:    86.1235  MISS %:    13.8765   MPKI: 18.7493
L1D RFO       ACCESS:   45855596  HIT:   45855034  MISS:        562  HIT %:    99.9988  MISS %: 0.00122559   MPKI: 0.00281
L1D PREFETCH  ACCESS:   18657682  HIT:   16219119  MISS:    2438563  HIT %:      86.93  MISS %:      13.07   MPKI: 12.1928
L1D PREFETCH  REQUESTED:  113061300  ISSUED:   95457236  USEFUL:    2355518  USELESS:      84445
L1D USEFUL LOAD PREFETCHES:    2355518 PREFETCH ISSUED TO LOWER LEVEL:   24525049  ACCURACY: 9.60454
L1D TIMELY PREFETCHES:    2355518 LATE PREFETCHES: 171194 DROPPED PREFETCHES: 119468
L1D PREFETCHES SAME FILL-ORIGIN LEVEL: 2772883 DIFFERENT FILL-ORIGIN LEVEL: 21752166
L1D AVERAGE MISS LATENCY: 1067.44 cycles
L1D RQ	ACCESS:   50355380	FORWARD:          0	MERGED:   22526291	TO_CACHE:   27829089
L1D WQ	ACCESS:   48837558	FORWARD:       1695	MERGED:    2830016	TO_CACHE:   46007542
L1D PQ	ACCESS:   55543130	FORWARD:          0	MERGED:   15627329	TO_CACHE:   39914106

L1D UNIQUE REGIONS ACCESSED: 0
L1D REGIONS CONFLICTS: 0
L1D Cross Page Prefetch Requests: 9715062
L1D Same Page Prefetch Requests: 58333336
L1D ROI Sum of L1D PQ occupancy: 818498810
L1D PREFETCHES PUSHED FROM L2C: 0
L1I TOTAL     ACCESS:   41736655  HIT:   41736646  MISS:          9  HIT %:        100  MISS %: 2.15638e-05   MPKI: 4.5e-05
L1I LOAD      ACCESS:   41736655  HIT:   41736646  MISS:          9  HIT %:        100  MISS %: 2.15638e-05   MPKI: 4.5e-05
L1I PREFETCH  REQUESTED:          0  ISSUED:          0  USEFUL:          0  USELESS:          0
L1I USEFUL LOAD PREFETCHES:          0 PREFETCH ISSUED TO LOWER LEVEL:          0  ACCURACY: -nan
L1I TIMELY PREFETCHES:          0 LATE PREFETCHES: 0 DROPPED PREFETCHES: 0
L1I PREFETCHES SAME FILL-ORIGIN LEVEL: 0 DIFFERENT FILL-ORIGIN LEVEL: 0
L1I AVERAGE MISS LATENCY: 186.889 cycles
L1I RQ	ACCESS:   52493282	FORWARD:          0	MERGED:   10618945	TO_CACHE:   41874337

BTB TOTAL     ACCESS:   17791557  HIT:   17791553  MISS:          4  HIT %:        100  MISS %: 2.24826e-05   MPKI: 2e-05
BTB BRANCH_DIRECT_JUMP	ACCESS:     407734  HIT:     407732  MISS:          2
BTB BRANCH_INDIRECT	ACCESS:          0  HIT:          0  MISS:          0
BTB BRANCH_CONDITIONAL	ACCESS:   16976207  HIT:   16976205  MISS:          2
BTB BRANCH_DIRECT_CALL	ACCESS:     203808  HIT:     203808  MISS:          0
BTB BRANCH_INDIRECT_CALL	ACCESS:          0  HIT:          0  MISS:          0
BTB BRANCH_RETURN	ACCESS:     203808  HIT:     203808  MISS:          0
BTB BRANCH_OTHER ACCESS:          0  HIT:          0  MISS:          0

L2C TOTAL     ACCESS:   25748865  HIT:   17520367  MISS:    8228498  HIT %:    68.0433  MISS %:    31.9567   MPKI: 41.1425
L2C LOAD      ACCESS:    3578507  HIT:    1016409  MISS:    2562098  HIT %:    28.4032  MISS %:    71.5968   MPKI: 12.8105
L2C DATA LOAD MPKI: 12.8104
L2C INSTRUCTION LOAD MPKI: 4.5e-05
L2C RFO       ACCESS:        562  HIT:        471  MISS:         91  HIT %:    83.8078  MISS %:    16.1922   MPKI: 0.000455
L2C PREFETCH  ACCESS:   18885775  HIT:   13754032  MISS:    5131743  HIT %:    72.8275  MISS %:    27.1725   MPKI: 25.6587
L2C DATA PREFETCH MPKI: 25.6587
L2C INSTRUCTION PREFETCH MPKI: 0
L2C WRITEBACK ACCESS:    2594239  HIT:    2306358  MISS:     287881  HIT %:    88.9031  MISS %:    11.0969   MPKI: 1.4394
L2C LOAD TRANSLATION ACCESS:     557816  HIT:     326646  MISS:     231170  HIT %:     58.558  MISS %:     41.442   MPKI: 1.15585
L2C TRANSLATION FROM L1D PREFETCHER ACCESS:     131966  HIT:     116451  MISS:      15515  HIT %:    88.2432  MISS %:    11.7568   MPKI: 0.077575
L2C PREFETCH  REQUESTED:          0  ISSUED:          0  USEFUL:     913476  USELESS:    4241229
L2C USEFUL LOAD PREFETCHES:     913476 PREFETCH ISSUED TO LOWER LEVEL:    5187861  ACCURACY: 17.608
L2C TIMELY PREFETCHES:     913476 LATE PREFETCHES: 53659 DROPPED PREFETCHES: 0
L2C PREFETCHES SAME FILL-ORIGIN LEVEL: 3864658 DIFFERENT FILL-ORIGIN LEVEL: 0
L2C AVERAGE MISS LATENCY: 1247 cycles
L2C RQ	ACCESS:    4285045	FORWARD:          0	MERGED:          0	TO_CACHE:    4284871
L2C WQ	ACCESS:    2604916	FORWARD:        221	MERGED:          0	TO_CACHE:    2604916
L2C PQ	ACCESS:   20804002	FORWARD:          0	MERGED:     158411	TO_CACHE:   20645544

L2C Instructions Evicting Data 9
L2C Translations Evicting Data 232438
L2C Data Evicting Data 7485862
L2C Instructions Evicting Instructions 0
L2C Translations Evicting Instructions 2
L2C Data Evicting Instructions 6
L2C Instructions Evicting Translations 0
L2C Translations Evicting Translations 14713
L2C Data Evicting Translations 220530
L2C Dense regions hint from L2: 0
PSCL5 TOTAL     ACCESS:     643685  HIT:     643685  MISS:          0  HIT %:        100  MISS %:          0   MPKI: 0
PSCL5 LOAD TRANSLATION ACCESS:     519587  HIT:     519587  MISS:          0  HIT %:        100  MISS %:          0   MPKI: 0
PSCL5 TRANSLATION FROM L1D PREFETCHER ACCESS:     124098  HIT:     124098  MISS:          0  HIT %:        100  MISS %:          0   MPKI: 0
PSCL5 PREFETCH  REQUESTED:          0  ISSUED:          0  USEFUL:          0  USELESS:          0
PSCL5 USEFUL LOAD PREFETCHES:          0 PREFETCH ISSUED TO LOWER LEVEL:          0  ACCURACY: -nan
PSCL5 TIMELY PREFETCHES:          0 LATE PREFETCHES: 0 DROPPED PREFETCHES: 0
PSCL5 PREFETCHES SAME FILL-ORIGIN LEVEL: 0 DIFFERENT FILL-ORIGIN LEVEL: 0

PSCL4 TOTAL     ACCESS:     643685  HIT:     643685  MISS:          0  HIT %:        100  MISS %:          0   MPKI: 0
PSCL4 LOAD TRANSLATION ACCESS:     519587  HIT:     519587  MISS:          0  HIT %:        100  MISS %:          0   MPKI: 0
PSCL4 TRANSLATION FROM L1D PREFETCHER ACCESS:     124098  HIT:     124098  MISS:          0  HIT %:        100  MISS %:          0   MPKI: 0
PSCL4 PREFETCH  REQUESTED:          0  ISSUED:          0  USEFUL:          0  USELESS:          0
PSCL4 USEFUL LOAD PREFETCHES:          0 PREFETCH ISSUED TO LOWER LEVEL:          0  ACCURACY: -nan
PSCL4 TIMELY PREFETCHES:          0 LATE PREFETCHES: 0 DROPPED PREFETCHES: 0
PSCL4 PREFETCHES SAME FILL-ORIGIN LEVEL: 0 DIFFERENT FILL-ORIGIN LEVEL: 0

PSCL3 TOTAL     ACCESS:     643685  HIT:     643685  MISS:          0  HIT %:        100  MISS %:          0   MPKI: 0
PSCL3 LOAD TRANSLATION ACCESS:     519587  HIT:     519587  MISS:          0  HIT %:        100  MISS %:          0   MPKI: 0
PSCL3 TRANSLATION FROM L1D PREFETCHER ACCESS:     124098  HIT:     124098  MISS:          0  HIT %:        100  MISS %:          0   MPKI: 0
PSCL3 PREFETCH  REQUESTED:          0  ISSUED:          0  USEFUL:          0  USELESS:          0
PSCL3 USEFUL LOAD PREFETCHES:          0 PREFETCH ISSUED TO LOWER LEVEL:          0  ACCURACY: -nan
PSCL3 TIMELY PREFETCHES:          0 LATE PREFETCHES: 0 DROPPED PREFETCHES: 0
PSCL3 PREFETCHES SAME FILL-ORIGIN LEVEL: 0 DIFFERENT FILL-ORIGIN LEVEL: 0

PSCL2 TOTAL     ACCESS:     638868  HIT:     597587  MISS:      41281  HIT %:    93.5384  MISS %:    6.46159   MPKI: 0.206405
PSCL2 LOAD TRANSLATION ACCESS:     522638  HIT:     481357  MISS:      41281  HIT %:    92.1014  MISS %:    7.89858   MPKI: 0.206405
PSCL2 TRANSLATION FROM L1D PREFETCHER ACCESS:     116230  HIT:     116230  MISS:          0  HIT %:        100  MISS %:          0   MPKI: 0
PSCL2 PREFETCH  REQUESTED:          0  ISSUED:          0  USEFUL:          0  USELESS:          0
PSCL2 USEFUL LOAD PREFETCHES:          0 PREFETCH ISSUED TO LOWER LEVEL:          0  ACCURACY: -nan
PSCL2 TIMELY PREFETCHES:          0 LATE PREFETCHES: 0 DROPPED PREFETCHES: 0
PSCL2 PREFETCHES SAME FILL-ORIGIN LEVEL: 0 DIFFERENT FILL-ORIGIN LEVEL: 0

LLC TOTAL     ACCESS:   10441950  HIT:    2818051  MISS:    7623899  HIT %:    26.9878  MISS %:    73.0122   MPKI: 38.1195
LLC LOAD      ACCESS:    2508432  HIT:      73706  MISS:    2434726  HIT %:    2.93833  MISS %:    97.0617   MPKI: 12.1736
LLC RFO       ACCESS:         91  HIT:         31  MISS:         60  HIT %:    34.0659  MISS %:    65.9341   MPKI: 0.0003
LLC PREFETCH  ACCESS:    5185397  HIT:     329001  MISS:    4856396  HIT %:    6.34476  MISS %:    93.6552   MPKI: 24.282
LLC WRITEBACK ACCESS:    2501345  HIT:    2383520  MISS:     117825  HIT %:    95.2895  MISS %:    4.71047   MPKI: 0.589125
LLC LOAD TRANSLATION ACCESS:     231170  HIT:      28393  MISS:     202777  HIT %:    12.2823  MISS %:    87.7177   MPKI: 1.01388
LLC TRANSLATION FROM L1D PREFETCHER ACCESS:      15515  HIT:       3400  MISS:      12115  HIT %:    21.9143  MISS %:    78.0857   MPKI: 0.060575
LLC PREFETCH  REQUESTED:          0  ISSUED:          0  USEFUL:     109974  USELESS:   19246337
LLC USEFUL LOAD PREFETCHES:     109974 PREFETCH ISSUED TO LOWER LEVEL:  291254938  ACCURACY: 0.0377587
LLC TIMELY PREFETCHES:     109974 LATE PREFETCHES: 0 DROPPED PREFETCHES: 0
LLC PREFETCHES SAME FILL-ORIGIN LEVEL: 0 DIFFERENT FILL-ORIGIN LEVEL: 0
LLC AVERAGE MISS LATENCY: 3453.61 cycles
LLC RQ	ACCESS:   11068003	FORWARD:          0	MERGED:          0	TO_CACHE:   11067977
LLC WQ	ACCESS:   10035929	FORWARD:         43	MERGED:          0	TO_CACHE:   10035929
LLC PQ	ACCESS:   20719019	FORWARD:          0	MERGED:          0	TO_CACHE:   20719002

LLC Dense regions hint to LLC: 0

RAW hits: 59
Loads Generated: 50203432
Loads sent to L1D: 50203369
Stores Generated: 48675587
Stores sent to L1D: 48675595
Major fault: 10559 Minor fault: 262307
Allocated PAGES: 1048576

CPU 2 cumulative IPC: 0.103299 instructions: 200000002 cycles: 1936126321
ITLB TOTAL     ACCESS:   27218967  HIT:   27218966  MISS:          1  HIT %:        100  MISS %: 3.67391e-06   MPKI: 5e-06
ITLB LOAD TRANSLATION ACCESS:   27218967  HIT:   27218966  MISS:          1  HIT %:        100  MISS %: 3.67391e-06   MPKI: 5e-06
ITLB PREFETCH  REQUESTED:          0  ISSUED:          0  USEFUL:          0  USELESS:          0
ITLB USEFUL LOAD PREFETCHES:          0 PREFETCH ISSUED TO LOWER LEVEL:          0  ACCURACY: -nan
ITLB TIMELY PREFETCHES:          0 LATE PREFETCHES: 0 DROPPED PREFETCHES: 0
ITLB PREFETCHES SAME FILL-ORIGIN LEVEL: 0 DIFFERENT FILL-ORIGIN LEVEL: 0
ITLB AVERAGE MISS LATENCY: 341 cycles
ITLB RQ	ACCESS:   41734246	FORWARD:          0	MERGED:   14515279	TO_CACHE:   27218967

DTLB TOTAL     ACCESS:   36187990  HIT:   35257853  MISS:     930137  HIT %:    97.4297  MISS %:    2.57029   MPKI: 4.65068
DTLB LOAD TRANSLATION ACCESS:   36187990  HIT:   35257853  MISS:     930137  HIT %:    97.4297  MISS %:    2.57029   MPKI: 4.65068
DTLB PREFETCH  REQUESTED:          0  ISSUED:          0  USEFUL:          0  USELESS:          0
DTLB USEFUL LOAD PREFETCHES:          0 PREFETCH ISSUED TO LOWER LEVEL:          0  ACCURACY: -nan
DTLB TIMELY PREFETCHES:          0 LATE PREFETCHES: 0 DROPPED PREFETCHES: 0
DTLB PREFETCHES SAME FILL-ORIGIN LEVEL: 0 DIFFERENT FILL-ORIGIN LEVEL: 0
DTLB AVERAGE MISS LATENCY: 1777.43 cycles
DTLB RQ	ACCESS:   73612923	FORWARD:          0	MERGED:   36924587	TO_CACHE:   36688336

STLB TOTAL     ACCESS:    9018684  HIT:    8419525  MISS:     599159  HIT %:    93.3565  MISS %:    6.64353   MPKI: 2.99579
STLB LOAD TRANSLATION ACCESS:     930138  HIT:     409935  MISS:     520203  HIT %:    44.0725  MISS %:    55.9275   MPKI: 2.60101
STLB TRANSLATION FROM L1D PREFETCHER ACCESS:    8088546  HIT:    8009590  MISS:      78956  HIT %:    99.0239  MISS %:   0.976146   MPKI: 0.39478
STLB PREFETCH  REQUESTED:          0  ISSUED:          0  USEFUL:      75637  USELESS:       3333
STLB USEFUL LOAD PREFETCHES:      75637 PREFETCH ISSUED TO LOWER LEVEL:          0  ACCURACY: inf
STLB TIMELY PREFETCHES:      75637 LATE PREFETCHES: 473 DROPPED PREFETCHES: 48450
STLB PREFETCHES SAME FILL-ORIGIN LEVEL: 0 DIFFERENT FILL-ORIGIN LEVEL: 0
STLB AVERAGE MISS LATENCY: 2740.81 cycles
STLB RQ	ACCESS:   40958607	FORWARD:          0	MERGED:   31879590	TO_CACHE:    9079017

STLB Hit, L1D data hit: 0
STLB Hit, L2C data hit: 0
STLB Hit, LLC data hit: 0
STLB Hit, LLC data miss: 0
STLB STLB hints to L2: 0
L1D TOTAL     ACCESS:   91737104  HIT:   85549393  MISS:    6187711  HIT %:     93.255  MISS %:    6.74505   MPKI: 30.9386
L1D LOAD      ACCESS:   27024499  HIT:   23267740  MISS:    3756759  HIT %:    86.0987  MISS %:    13.9013   MPKI: 18.7838
L1D RFO       ACCESS:   45858356  HIT:   45857788  MISS:        568  HIT %:    99.9988  MISS %:  0.0012386   MPKI: 0.00284
L1D PREFETCH  ACCESS:   18854249  HIT:   16423865  MISS:    2430384  HIT %:    87.1096  MISS %:    12.8904   MPKI: 12.1519
L1D PREFETCH  REQUESTED:  113214052  ISSUED:   95764308  USEFUL:    2346996  USELESS:      83437
L1D USEFUL LOAD PREFETCHES:    2346996 PREFETCH ISSUED TO LOWER LEVEL:   23854593  ACCURACY: 9.83876
L1D TIMELY PREFETCHES:    2346996 LATE PREFETCHES: 174236 DROPPED PREFETCHES: 130569
L1D PREFETCHES SAME FILL-ORIGIN LEVEL: 2742539 DIFFERENT FILL-ORIGIN LEVEL: 21112054
L1D AVERAGE MISS LATENCY: 1034.76 cycles
L1D RQ	ACCESS:   50203598	FORWARD:          0	MERGED:   22450560	TO_CACHE:   27753038
L1D WQ	ACCESS:   48675325	FORWARD:       1740	MERGED:    2815440	TO_CACHE:   45859885
L1D PQ	ACCESS:   55735839	FORWARD:          0	MERGED:   15705630	TO_CACHE:   40028469

L1D UNIQUE REGIONS ACCESSED: 0
L1D REGIONS CONFLICTS: 0
L1D Cross Page Prefetch Requests: 9632861
L1D Same Page Prefetch Requests: 58574893
L1D ROI Sum of L1D PQ occupancy: 806363581
L1D PREFETCHES PUSHED FROM L2C: 0
L1I TOTAL     ACCESS:   41734243  HIT:   41734234  MISS:          9  HIT %:        100  MISS %: 2.1565e-05   MPKI: 4.5e-05
L1I LOAD      ACCESS:   41734243  HIT:   41734234  MISS:          9  HIT %:        100  MISS %: 2.1565e-05   MPKI: 4.5e-05
L1I PREFETCH  REQUESTED:          0  ISSUED:          0  USEFUL:          0  USELESS:          0
L1I USEFUL LOAD PREFETCHES:          0 PREFETCH ISSUED TO LOWER LEVEL:          0  ACCURACY: -nan
L1I TIMELY PREFETCHES:          0 LATE PREFETCHES: 0 DROPPED PREFETCHES: 0
L1I PREFETCHES SAME FILL-ORIGIN LEVEL: 0 DIFFERENT FILL-ORIGIN LEVEL: 0
L1I AVERAGE MISS LATENCY: 201.111 cycles
L1I RQ	ACCESS:   52317791	FORWARD:          0	MERGED:   10583545	TO_CACHE:   41734246

BTB TOTAL     ACCESS:   17791079  HIT:   17791074  MISS:          5  HIT %:        100  MISS %: 2.8104e-05   MPKI: 2.5e-05
BTB BRANCH_DIRECT_JUMP	ACCESS:     407734  HIT:     407732  MISS:          2
BTB BRANCH_INDIRECT	ACCESS:          0  HIT:          0  MISS:          0
BTB BRANCH_CONDITIONAL	ACCESS:   16975729  HIT:   16975726  MISS:          3
BTB BRANCH_DIRECT_CALL	ACCESS:     203808  HIT:     203808  MISS:          0
BTB BRANCH_INDIRECT_CALL	ACCESS:          0  HIT:          0  MISS:          0
BTB BRANCH_RETURN	ACCESS:     203808  HIT:     203808  MISS:          0
BTB BRANCH_OTHER ACCESS:          0  HIT:          0  MISS:          0

L2C TOTAL     ACCESS:   25864827  HIT:   17653048  MISS:    8211779  HIT %:    68.2512  MISS %:    31.7488   MPKI: 41.0589
L2C LOAD      ACCESS:    3582350  HIT:    1016523  MISS:    2565827  HIT %:    28.3759  MISS %:    71.6241   MPKI: 12.8291
L2C DATA LOAD MPKI: 12.8291
L2C INSTRUCTION LOAD MPKI: 4.5e-05
L2C RFO       ACCESS:        568  HIT:        476  MISS:         92  HIT %:    83.8028  MISS %:    16.1972   MPKI: 0.00046
L2C PREFETCH  ACCESS:   18994749  HIT:   13882418  MISS:    5112331  HIT %:    73.0856  MISS %:    26.9144   MPKI: 25.5617
L2C DATA PREFETCH MPKI: 25.5617
L2C INSTRUCTION PREFETCH MPKI: 0
L2C WRITEBACK ACCESS:    2593865  HIT:    2307108  MISS:     286757  HIT %:    88.9448  MISS %:    11.0552   MPKI: 1.43378
L2C LOAD TRANSLATION ACCESS:     558021  HIT:     326860  MISS:     231161  HIT %:    58.5749  MISS %:    41.4251   MPKI: 1.1558
L2C TRANSLATION FROM L1D PREFETCHER ACCESS:     135274  HIT:     119663  MISS:      15611  HIT %:    88.4597  MISS %:    11.5403   MPKI: 0.078055
L2C PREFETCH  REQUESTED:          0  ISSUED:          0  USEFUL:     912750  USELESS:    4219936
L2C USEFUL LOAD PREFETCHES:     912750 PREFETCH ISSUED TO LOWER LEVEL:    5164602  ACCURACY: 17.6732
L2C TIMELY PREFETCHES:     912750 LATE PREFETCHES: 52271 DROPPED PREFETCHES: 0
L2C PREFETCHES SAME FILL-ORIGIN LEVEL: 3933125 DIFFERENT FILL-ORIGIN LEVEL: 0
L2C AVERAGE MISS LATENCY: 1208.71 cycles
L2C RQ	ACCESS:    4276395	FORWARD:          0	MERGED:          0	TO_CACHE:    4276213
L2C WQ	ACCESS:    2593865	FORWARD:        231	MERGED:          0	TO_CACHE:    2593865
L2C PQ	ACCESS:   20892300	FORWARD:          0	MERGED:     148945	TO_CACHE:   20743306

L2C Instructions Evicting Data 9
L2C Translations Evicting Data 232295
L2C Data Evicting Data 7456122
L2C Instructions Evicting Instructions 0
L2C Translations Evicting Instructions 0
L2C Data Evicting Instructions 9
L2C Instructions Evicting Translations 0
L2C Translations Evicting Translations 14415
L2C Data Evicting Translations 219921
L2C Dense regions hint from L2: 0
PSCL5 TOTAL     ACCESS:     647619  HIT:     647619  MISS:          0  HIT %:        100  MISS %:          0   MPKI: 0
PSCL5 LOAD TRANSLATION ACCESS:     519740  HIT:     519740  MISS:          0  HIT %:        100  MISS %:          0   MPKI: 0
PSCL5 TRANSLATION FROM L1D PREFETCHER ACCESS:     127879  HIT:     127879  MISS:          0  HIT %:        100  MISS %:          0   MPKI: 0
PSCL5 PREFETCH  REQUESTED:          0  ISSUED:          0  USEFUL:          0  USELESS:          0
PSCL5 USEFUL LOAD PREFETCHES:          0 PREFETCH ISSUED TO LOWER LEVEL:          0  ACCURACY: -nan
PSCL5 TIMELY PREFETCHES:          0 LATE PREFETCHES: 0 DROPPED PREFETCHES: 0
PSCL5 PREFETCHES SAME FILL-ORIGIN LEVEL: 0 DIFFERENT FILL-ORIGIN LEVEL: 0

PSCL4 TOTAL     ACCESS:     647619  HIT:     647619  MISS:          0  HIT %:        100  MISS %:          0   MPKI: 0
PSCL4 LOAD TRANSLATION ACCESS:     519740  HIT:     519740  MISS:          0  HIT %:        100  MISS %:          0   MPKI: 0
PSCL4 TRANSLATION FROM L1D PREFETCHER ACCESS:     127879  HIT:     127879  MISS:          0  HIT %:        100  MISS %:          0   MPKI: 0
PSCL4 PREFETCH  REQUESTED:          0  ISSUED:          0  USEFUL:          0  USELESS:          0
PSCL4 USEFUL LOAD PREFETCHES:          0 PREFETCH ISSUED TO LOWER LEVEL:          0  ACCURACY: -nan
PSCL4 TIMELY PREFETCHES:          0 LATE PREFETCHES: 0 DROPPED PREFETCHES: 0
PSCL4 PREFETCHES SAME FILL-ORIGIN LEVEL: 0 DIFFERENT FILL-ORIGIN LEVEL: 0

PSCL3 TOTAL     ACCESS:     647619  HIT:     647619  MISS:          0  HIT %:        100  MISS %:          0   MPKI: 0
PSCL3 LOAD TRANSLATION ACCESS:     519740  HIT:     519740  MISS:          0  HIT %:        100  MISS %:          0   MPKI: 0
PSCL3 TRANSLATION FROM L1D PREFETCHER ACCESS:     127879  HIT:     127879  MISS:          0  HIT %:        100  MISS %:          0   MPKI: 0
PSCL3 PREFETCH  REQUESTED:          0  ISSUED:          0  USEFUL:          0  USELESS:          0
PSCL3 USEFUL LOAD PREFETCHES:          0 PREFETCH ISSUED TO LOWER LEVEL:          0  ACCURACY: -nan
PSCL3 TIMELY PREFETCHES:          0 LATE PREFETCHES: 0 DROPPED PREFETCHES: 0
PSCL3 PREFETCHES SAME FILL-ORIGIN LEVEL: 0 DIFFERENT FILL-ORIGIN LEVEL: 0

PSCL2 TOTAL     ACCESS:     643269  HIT:     601942  MISS:      41327  HIT %:    93.5755  MISS %:    6.42453   MPKI: 0.206635
PSCL2 LOAD TRANSLATION ACCESS:     522785  HIT:     481458  MISS:      41327  HIT %:    92.0948  MISS %:    7.90516   MPKI: 0.206635
PSCL2 TRANSLATION FROM L1D PREFETCHER ACCESS:     120484  HIT:     120484  MISS:          0  HIT %:        100  MISS %:          0   MPKI: 0
PSCL2 PREFETCH  REQUESTED:          0  ISSUED:          0  USEFUL:          0  USELESS:          0
PSCL2 USEFUL LOAD PREFETCHES:          0 PREFETCH ISSUED TO LOWER LEVEL:          0  ACCURACY: -nan
PSCL2 TIMELY PREFETCHES:          0 LATE PREFETCHES: 0 DROPPED PREFETCHES: 0
PSCL2 PREFETCHES SAME FILL-ORIGIN LEVEL: 0 DIFFERENT FILL-ORIGIN LEVEL: 0

LLC TOTAL     ACCESS:   10426039  HIT:    2856316  MISS:    7569723  HIT %:     27.396  MISS %:     72.604   MPKI: 37.8486
LLC LOAD      ACCESS:    2513551  HIT:      72675  MISS:    2440876  HIT %:    2.89133  MISS %:    97.1087   MPKI: 12.2044
LLC RFO       ACCESS:         92  HIT:         26  MISS:         66  HIT %:    28.2609  MISS %:    71.7391   MPKI: 0.00033
LLC PREFETCH  ACCESS:    5164594  HIT:     386946  MISS:    4777648  HIT %:    7.49228  MISS %:    92.5077   MPKI: 23.8882
LLC WRITEBACK ACCESS:    2501030  HIT:    2364713  MISS:     136317  HIT %:    94.5496  MISS %:    5.45043   MPKI: 0.681585
LLC LOAD TRANSLATION ACCESS:     231161  HIT:      28521  MISS:     202640  HIT %:    12.3382  MISS %:    87.6618   MPKI: 1.0132
LLC TRANSLATION FROM L1D PREFETCHER ACCESS:      15611  HIT:       3435  MISS:      12176  HIT %:    22.0037  MISS %:    77.9963   MPKI: 0.06088
LLC PREFETCH  REQUESTED:          0  ISSUED:          0  USEFUL:     109974  USELESS:   19246337
LLC USEFUL LOAD PREFETCHES:     109974 PREFETCH ISSUED TO LOWER LEVEL:  291254938  ACCURACY: 0.0377587
LLC TIMELY PREFETCHES:     109974 LATE PREFETCHES: 0 DROPPED PREFETCHES: 0
LLC PREFETCHES SAME FILL-ORIGIN LEVEL: 0 DIFFERENT FILL-ORIGIN LEVEL: 0
LLC AVERAGE MISS LATENCY: 3478.33 cycles
LLC RQ	ACCESS:   11068003	FORWARD:          0	MERGED:          0	TO_CACHE:   11067977
LLC WQ	ACCESS:   10035929	FORWARD:         43	MERGED:          0	TO_CACHE:   10035929
LLC PQ	ACCESS:   20719019	FORWARD:          0	MERGED:          0	TO_CACHE:   20719002

LLC Dense regions hint to LLC: 0

RAW hits: 59
Loads Generated: 50203663
Loads sent to L1D: 50203598
Stores Generated: 48675327
Stores sent to L1D: 48675325
Major fault: 10565 Minor fault: 261794
Allocated PAGES: 1048576

CPU 3 cumulative IPC: 0.104859 instructions: 200000000 cycles: 1907322548
ITLB TOTAL     ACCESS:   27214931  HIT:   27214930  MISS:          1  HIT %:        100  MISS %: 3.67445e-06   MPKI: 5e-06
ITLB LOAD TRANSLATION ACCESS:   27214931  HIT:   27214930  MISS:          1  HIT %:        100  MISS %: 3.67445e-06   MPKI: 5e-06
ITLB PREFETCH  REQUESTED:          0  ISSUED:          0  USEFUL:          0  USELESS:          0
ITLB USEFUL LOAD PREFETCHES:          0 PREFETCH ISSUED TO LOWER LEVEL:          0  ACCURACY: -nan
ITLB TIMELY PREFETCHES:          0 LATE PREFETCHES: 0 DROPPED PREFETCHES: 0
ITLB PREFETCHES SAME FILL-ORIGIN LEVEL: 0 DIFFERENT FILL-ORIGIN LEVEL: 0
ITLB AVERAGE MISS LATENCY: 339 cycles
ITLB RQ	ACCESS:   41814287	FORWARD:          0	MERGED:   14544502	TO_CACHE:   27269785

DTLB TOTAL     ACCESS:   36184133  HIT:   35253847  MISS:     930286  HIT %:     97.429  MISS %:    2.57098   MPKI: 4.65143
DTLB LOAD TRANSLATION ACCESS:   36184133  HIT:   35253847  MISS:     930286  HIT %:     97.429  MISS %:    2.57098   MPKI: 4.65143
DTLB PREFETCH  REQUESTED:          0  ISSUED:          0  USEFUL:          0  USELESS:          0
DTLB USEFUL LOAD PREFETCHES:          0 PREFETCH ISSUED TO LOWER LEVEL:          0  ACCURACY: -nan
DTLB TIMELY PREFETCHES:          0 LATE PREFETCHES: 0 DROPPED PREFETCHES: 0
DTLB PREFETCHES SAME FILL-ORIGIN LEVEL: 0 DIFFERENT FILL-ORIGIN LEVEL: 0
DTLB AVERAGE MISS LATENCY: 1771.91 cycles
DTLB RQ	ACCESS:   73744395	FORWARD:          0	MERGED:   36992536	TO_CACHE:   36751859

STLB TOTAL     ACCESS:    8949548  HIT:    8350341  MISS:     599207  HIT %:    93.3046  MISS %:    6.69539   MPKI: 2.99604
STLB LOAD TRANSLATION ACCESS:     930287  HIT:     410313  MISS:     519974  HIT %:    44.1061  MISS %:    55.8939   MPKI: 2.59987
STLB TRANSLATION FROM L1D PREFETCHER ACCESS:    8019261  HIT:    7940028  MISS:      79233  HIT %:     99.012  MISS %:   0.988034   MPKI: 0.396165
STLB PREFETCH  REQUESTED:          0  ISSUED:          0  USEFUL:      75997  USELESS:       3281
STLB USEFUL LOAD PREFETCHES:      75997 PREFETCH ISSUED TO LOWER LEVEL:          0  ACCURACY: inf
STLB TIMELY PREFETCHES:      75997 LATE PREFETCHES: 525 DROPPED PREFETCHES: 46757
STLB PREFETCHES SAME FILL-ORIGIN LEVEL: 0 DIFFERENT FILL-ORIGIN LEVEL: 0
STLB AVERAGE MISS LATENCY: 2738.68 cycles
STLB RQ	ACCESS:   41239168	FORWARD:          0	MERGED:   32225983	TO_CACHE:    9013185

STLB Hit, L1D data hit: 0
STLB Hit, L2C data hit: 0
STLB Hit, LLC data hit: 0
STLB Hit, LLC data miss: 0
STLB STLB hints to L2: 0
L1D TOTAL     ACCESS:   92560862  HIT:   86355834  MISS:    6205028  HIT %:    93.2963  MISS %:    6.70373   MPKI: 31.0251
L1D LOAD      ACCESS:   27019868  HIT:   23417745  MISS:    3602123  HIT %:    86.6686  MISS %:    13.3314   MPKI: 18.0106
L1D RFO       ACCESS:   45857667  HIT:   45857116  MISS:        551  HIT %:    99.9988  MISS %: 0.00120154   MPKI: 0.002755
L1D PREFETCH  ACCESS:   19683327  HIT:   17080973  MISS:    2602354  HIT %:    86.7789  MISS %:    13.2211   MPKI: 13.0118
L1D PREFETCH  REQUESTED:  115631004  ISSUED:   96693897  USEFUL:    2502954  USELESS:     101101
L1D USEFUL LOAD PREFETCHES:    2502954 PREFETCH ISSUED TO LOWER LEVEL:   23881746  ACCURACY: 10.4806
L1D TIMELY PREFETCHES:    2502954 LATE PREFETCHES: 183659 DROPPED PREFETCHES: 122795
L1D PREFETCHES SAME FILL-ORIGIN LEVEL: 2946366 DIFFERENT FILL-ORIGIN LEVEL: 20935380
L1D AVERAGE MISS LATENCY: 1027.28 cycles
L1D RQ	ACCESS:   50294892	FORWARD:          0	MERGED:   22499686	TO_CACHE:   27795206
L1D WQ	ACCESS:   48772230	FORWARD:       1705	MERGED:    2823041	TO_CACHE:   45949189
L1D PQ	ACCESS:   56387010	FORWARD:          0	MERGED:   16078418	TO_CACHE:   40306887

L1D UNIQUE REGIONS ACCESSED: 0
L1D REGIONS CONFLICTS: 0
L1D Cross Page Prefetch Requests: 9546441
L1D Same Page Prefetch Requests: 59220205
L1D ROI Sum of L1D PQ occupancy: 822249468
L1D PREFETCHES PUSHED FROM L2C: 0
L1I TOTAL     ACCESS:   41731703  HIT:   41731694  MISS:          9  HIT %:        100  MISS %: 2.15663e-05   MPKI: 4.5e-05
L1I LOAD      ACCESS:   41731703  HIT:   41731694  MISS:          9  HIT %:        100  MISS %: 2.15663e-05   MPKI: 4.5e-05
L1I PREFETCH  REQUESTED:          0  ISSUED:          0  USEFUL:          0  USELESS:          0
L1I USEFUL LOAD PREFETCHES:          0 PREFETCH ISSUED TO LOWER LEVEL:          0  ACCURACY: -nan
L1I TIMELY PREFETCHES:          0 LATE PREFETCHES: 0 DROPPED PREFETCHES: 0
L1I PREFETCHES SAME FILL-ORIGIN LEVEL: 0 DIFFERENT FILL-ORIGIN LEVEL: 0
L1I AVERAGE MISS LATENCY: 189.778 cycles
L1I RQ	ACCESS:   52417888	FORWARD:          0	MERGED:   10603601	TO_CACHE:   41814287

BTB TOTAL     ACCESS:   17790708  HIT:   17790695  MISS:         13  HIT %:    99.9999  MISS %: 7.30719e-05   MPKI: 6.5e-05
BTB BRANCH_DIRECT_JUMP	ACCESS:     407733  HIT:     407729  MISS:          4
BTB BRANCH_INDIRECT	ACCESS:          0  HIT:          0  MISS:          0
BTB BRANCH_CONDITIONAL	ACCESS:   16975360  HIT:   16975353  MISS:          7
BTB BRANCH_DIRECT_CALL	ACCESS:     203808  HIT:     203807  MISS:          1
BTB BRANCH_INDIRECT_CALL	ACCESS:          0  HIT:          0  MISS:          0
BTB BRANCH_RETURN	ACCESS:     203807  HIT:     203806  MISS:          1
BTB BRANCH_OTHER ACCESS:          0  HIT:          0  MISS:          0

L2C TOTAL     ACCESS:   25138672  HIT:   16919889  MISS:    8218783  HIT %:    67.3062  MISS %:    32.6938   MPKI: 41.0939
L2C LOAD      ACCESS:    3418309  HIT:     855860  MISS:    2562449  HIT %:    25.0375  MISS %:    74.9625   MPKI: 12.8122
L2C DATA LOAD MPKI: 12.8122
L2C INSTRUCTION LOAD MPKI: 4.5e-05
L2C RFO       ACCESS:        550  HIT:        455  MISS:         95  HIT %:    82.7273  MISS %:    17.2727   MPKI: 0.000475
L2C PREFETCH  ACCESS:   18436024  HIT:   13316143  MISS:    5119881  HIT %:    72.2289  MISS %:    27.7711   MPKI: 25.5994
L2C DATA PREFETCH MPKI: 25.5994
L2C INSTRUCTION PREFETCH MPKI: 0
L2C WRITEBACK ACCESS:    2593978  HIT:    2304643  MISS:     289335  HIT %:    88.8459  MISS %:    11.1541   MPKI: 1.44667
L2C LOAD TRANSLATION ACCESS:     557735  HIT:     326465  MISS:     231270  HIT %:    58.5341  MISS %:    41.4659   MPKI: 1.15635
L2C TRANSLATION FROM L1D PREFETCHER ACCESS:     132076  HIT:     116323  MISS:      15753  HIT %:    88.0728  MISS %:    11.9272   MPKI: 0.078765
L2C PREFETCH  REQUESTED:          0  ISSUED:          0  USEFUL:     752888  USELESS:    4390175
L2C USEFUL LOAD PREFETCHES:     752888 PREFETCH ISSUED TO LOWER LEVEL:    5173760  ACCURACY: 14.552
L2C TIMELY PREFETCHES:     752888 LATE PREFETCHES: 50223 DROPPED PREFETCHES: 0
L2C PREFETCHES SAME FILL-ORIGIN LEVEL: 3976064 DIFFERENT FILL-ORIGIN LEVEL: 0
L2C AVERAGE MISS LATENCY: 1237 cycles
L2C RQ	ACCESS:    4118638	FORWARD:          0	MERGED:          0	TO_CACHE:    4118460
L2C WQ	ACCESS:    2600504	FORWARD:        223	MERGED:          0	TO_CACHE:    2600504
L2C PQ	ACCESS:   20573051	FORWARD:          0	MERGED:     154134	TO_CACHE:   20418872

L2C Instructions Evicting Data 9
L2C Translations Evicting Data 232884
L2C Data Evicting Data 7470780
L2C Instructions Evicting Instructions 0
L2C Translations Evicting Instructions 0
L2C Data Evicting Instructions 8
L2C Instructions Evicting Translations 0
L2C Translations Evicting Translations 14404
L2C Data Evicting Translations 220353
L2C Dense regions hint from L2: 0
PSCL5 TOTAL     ACCESS:     645974  HIT:     645974  MISS:          0  HIT %:        100  MISS %:          0   MPKI: 0
PSCL5 LOAD TRANSLATION ACCESS:     519460  HIT:     519460  MISS:          0  HIT %:        100  MISS %:          0   MPKI: 0
PSCL5 TRANSLATION FROM L1D PREFETCHER ACCESS:     126514  HIT:     126514  MISS:          0  HIT %:        100  MISS %:          0   MPKI: 0
PSCL5 PREFETCH  REQUESTED:          0  ISSUED:          0  USEFUL:          0  USELESS:          0
PSCL5 USEFUL LOAD PREFETCHES:          0 PREFETCH ISSUED TO LOWER LEVEL:          0  ACCURACY: -nan
PSCL5 TIMELY PREFETCHES:          0 LATE PREFETCHES: 0 DROPPED PREFETCHES: 0
PSCL5 PREFETCHES SAME FILL-ORIGIN LEVEL: 0 DIFFERENT FILL-ORIGIN LEVEL: 0

PSCL4 TOTAL     ACCESS:     645974  HIT:     645974  MISS:          0  HIT %:        100  MISS %:          0   MPKI: 0
PSCL4 LOAD TRANSLATION ACCESS:     519460  HIT:     519460  MISS:          0  HIT %:        100  MISS %:          0   MPKI: 0
PSCL4 TRANSLATION FROM L1D PREFETCHER ACCESS:     126514  HIT:     126514  MISS:          0  HIT %:        100  MISS %:          0   MPKI: 0
PSCL4 PREFETCH  REQUESTED:          0  ISSUED:          0  USEFUL:          0  USELESS:          0
PSCL4 USEFUL LOAD PREFETCHES:          0 PREFETCH ISSUED TO LOWER LEVEL:          0  ACCURACY: -nan
PSCL4 TIMELY PREFETCHES:          0 LATE PREFETCHES: 0 DROPPED PREFETCHES: 0
PSCL4 PREFETCHES SAME FILL-ORIGIN LEVEL: 0 DIFFERENT FILL-ORIGIN LEVEL: 0

PSCL3 TOTAL     ACCESS:     645974  HIT:     645974  MISS:          0  HIT %:        100  MISS %:          0   MPKI: 0
PSCL3 LOAD TRANSLATION ACCESS:     519460  HIT:     519460  MISS:          0  HIT %:        100  MISS %:          0   MPKI: 0
PSCL3 TRANSLATION FROM L1D PREFETCHER ACCESS:     126514  HIT:     126514  MISS:          0  HIT %:        100  MISS %:          0   MPKI: 0
PSCL3 PREFETCH  REQUESTED:          0  ISSUED:          0  USEFUL:          0  USELESS:          0
PSCL3 USEFUL LOAD PREFETCHES:          0 PREFETCH ISSUED TO LOWER LEVEL:          0  ACCURACY: -nan
PSCL3 TIMELY PREFETCHES:          0 LATE PREFETCHES: 0 DROPPED PREFETCHES: 0
PSCL3 PREFETCHES SAME FILL-ORIGIN LEVEL: 0 DIFFERENT FILL-ORIGIN LEVEL: 0

PSCL2 TOTAL     ACCESS:     643386  HIT:     602136  MISS:      41250  HIT %:    93.5886  MISS %:    6.41139   MPKI: 0.20625
PSCL2 LOAD TRANSLATION ACCESS:     522434  HIT:     481184  MISS:      41250  HIT %:    92.1043  MISS %:    7.89573   MPKI: 0.20625
PSCL2 TRANSLATION FROM L1D PREFETCHER ACCESS:     120952  HIT:     120952  MISS:          0  HIT %:        100  MISS %:          0   MPKI: 0
PSCL2 PREFETCH  REQUESTED:          0  ISSUED:          0  USEFUL:          0  USELESS:          0
PSCL2 USEFUL LOAD PREFETCHES:          0 PREFETCH ISSUED TO LOWER LEVEL:          0  ACCURACY: -nan
PSCL2 TIMELY PREFETCHES:          0 LATE PREFETCHES: 0 DROPPED PREFETCHES: 0
PSCL2 PREFETCHES SAME FILL-ORIGIN LEVEL: 0 DIFFERENT FILL-ORIGIN LEVEL: 0

LLC TOTAL     ACCESS:   10431433  HIT:    2832194  MISS:    7599239  HIT %:    27.1506  MISS %:    72.8494   MPKI: 37.9962
LLC LOAD      ACCESS:    2512313  HIT:      73743  MISS:    2438570  HIT %:    2.93526  MISS %:    97.0647   MPKI: 12.1928
LLC RFO       ACCESS:         95  HIT:         35  MISS:         60  HIT %:    36.8421  MISS %:    63.1579   MPKI: 0.0003
LLC PREFETCH  ACCESS:    5170008  HIT:     349344  MISS:    4820664  HIT %:    6.75713  MISS %:    93.2429   MPKI: 24.1033
LLC WRITEBACK ACCESS:    2501994  HIT:    2376673  MISS:     125321  HIT %:    94.9912  MISS %:    5.00884   MPKI: 0.626605
LLC LOAD TRANSLATION ACCESS:     231270  HIT:      28954  MISS:     202316  HIT %:    12.5196  MISS %:    87.4804   MPKI: 1.01158
LLC TRANSLATION FROM L1D PREFETCHER ACCESS:      15753  HIT:       3445  MISS:      12308  HIT %:    21.8689  MISS %:    78.1311   MPKI: 0.06154
LLC PREFETCH  REQUESTED:          0  ISSUED:          0  USEFUL:     109974  USELESS:   19246337
LLC USEFUL LOAD PREFETCHES:     109974 PREFETCH ISSUED TO LOWER LEVEL:  291254938  ACCURACY: 0.0377587
LLC TIMELY PREFETCHES:     109974 LATE PREFETCHES: 0 DROPPED PREFETCHES: 0
LLC PREFETCHES SAME FILL-ORIGIN LEVEL: 0 DIFFERENT FILL-ORIGIN LEVEL: 0
LLC AVERAGE MISS LATENCY: 3464.82 cycles
LLC RQ	ACCESS:   11068003	FORWARD:          0	MERGED:          0	TO_CACHE:   11067977
LLC WQ	ACCESS:   10035929	FORWARD:         43	MERGED:          0	TO_CACHE:   10035929
LLC PQ	ACCESS:   20719019	FORWARD:          0	MERGED:          0	TO_CACHE:   20719002

LLC Dense regions hint to LLC: 0

RAW hits: 59
Loads Generated: 50203803
Loads sent to L1D: 50203738
Stores Generated: 48675106
Stores sent to L1D: 48675119
Major fault: 10566 Minor fault: 262064
Allocated PAGES: 1048576

DRAM Statistics
 CHANNEL 0
 RQ ROW_BUFFER_HIT:    6784134  ROW_BUFFER_MISS:   23106650
 DBUS_CONGESTED:        429
 WQ ROW_BUFFER_HIT:     241331  ROW_BUFFER_MISS:    9527819  FULL:          0

 AVG_CONGESTED_CYCLE: 5
 All warmup complete: 5
Channel 0 Bank busy for read cycles: 0
Channel 0 Bank busy for write cycles: 0
Channel 0
Rank 0
0banks busy for read cycles: 954681006
0banks busy for write cycles: 70128
1banks busy for read cycles: 24776245
1banks busy for write cycles: 8832330
2banks busy for read cycles: 27980718
2banks busy for write cycles: 6970386
3banks busy for read cycles: 37566262
3banks busy for write cycles: 5814036
4banks busy for read cycles: 46256087
4banks busy for write cycles: 5234805
5banks busy for read cycles: 61369991
5banks busy for write cycles: 5189480
6banks busy for read cycles: 81931340
6banks busy for write cycles: 10867801
7banks busy for read cycles: 123450031
7banks busy for write cycles: 60833848
8banks busy for read cycles: 262005628
8banks busy for write cycles: 212296200

CPU 0 Branch Prediction Accuracy: 98.2815% MPKI: 1.56196 Average ROB Occupancy at Mispredict: 96.4197
Branch types
NOT_BRANCH: 182495662 90.9086%
BRANCH_DIRECT_JUMP: 409320 0.203899%
BRANCH_INDIRECT: 0 0%
BRANCH_CONDITIONAL: 17432364 8.68378%
BRANCH_DIRECT_CALL: 204601 0.10192%
BRANCH_INDIRECT_CALL: 0 0%
BRANCH_RETURN: 204601 0.10192%
BRANCH_OTHER: 0 0%


CPU 1 Branch Prediction Accuracy: 98.2804% MPKI: 1.56315 Average ROB Occupancy at Mispredict: 96.5799
Branch types
NOT_BRANCH: 182392890 90.9082%
BRANCH_DIRECT_JUMP: 409082 0.203894%
BRANCH_INDIRECT: 0 0%
BRANCH_CONDITIONAL: 17423535 8.68423%
BRANCH_DIRECT_CALL: 204482 0.101918%
BRANCH_INDIRECT_CALL: 0 0%
BRANCH_RETURN: 204482 0.101918%
BRANCH_OTHER: 0 0%


CPU 2 Branch Prediction Accuracy: 98.2753% MPKI: 1.56841 Average ROB Occupancy at Mispredict: 96.6116
Branch types
NOT_BRANCH: 181811571 90.9058%
BRANCH_DIRECT_JUMP: 407734 0.203867%
BRANCH_INDIRECT: 0 0%
BRANCH_CONDITIONAL: 17373212 8.68661%
BRANCH_DIRECT_CALL: 203808 0.101904%
BRANCH_INDIRECT_CALL: 0 0%
BRANCH_RETURN: 203808 0.101904%
BRANCH_OTHER: 0 0%


CPU 3 Branch Prediction Accuracy: 98.278% MPKI: 1.56581 Average ROB Occupancy at Mispredict: 96.5433
Branch types
NOT_BRANCH: 182159766 90.907%
BRANCH_DIRECT_JUMP: 408541 0.203883%
BRANCH_INDIRECT: 0 0%
BRANCH_CONDITIONAL: 17403558 8.68527%
BRANCH_DIRECT_CALL: 204212 0.101912%
BRANCH_INDIRECT_CALL: 0 0%
BRANCH_RETURN: 204211 0.101912%
BRANCH_OTHER: 0 0%

DRAM PAGES: 1048576
Allocated PAGES: 1048576
