
*** ChampSim Multicore Out-of-Order Simulator ***

Warmup Instructions: 50000000
Simulation Instructions: 200000000
Number of CPUs: 4
LLC sets: 8192
LLC ways: 16
Off-chip DRAM Size: 4096 MB Channels: 1 Width: 64-bit Data Rate: 6400 MT/s
CPU 0 runs ./traces/ligra/ligra_Components.com-lj.ungraph.gcc_6.3.0_O3.drop_22750M.length_250M.champsimtrace.xz
.xz
CPU 1 runs ./traces/ligra/ligra_Components.com-lj.ungraph.gcc_6.3.0_O3.drop_22750M.length_250M.champsimtrace.xz
.xz
CPU 2 runs ./traces/ligra/ligra_Components.com-lj.ungraph.gcc_6.3.0_O3.drop_22750M.length_250M.champsimtrace.xz
.xz
CPU 3 runs ./traces/ligra/ligra_Components.com-lj.ungraph.gcc_6.3.0_O3.drop_22750M.length_250M.champsimtrace.xz
.xz
BTB has LRU replacement policy
ITLB has LRU replacement policy
DTLB has LRU replacement policy
STLB has LRU replacement policy
L1I has LRU replacement policy
History Sets: 8
History Ways: 16
BERTI Size: 16
BERTI Stride Size: 8
L1D has LRU replacement policy
Initialize SRRIP state for L2C
Initialize DRRIP state for LLC
BTB has LRU replacement policy
ITLB has LRU replacement policy
DTLB has LRU replacement policy
STLB has LRU replacement policy
L1I has LRU replacement policy
History Sets: 8
History Ways: 16
BERTI Size: 16
BERTI Stride Size: 8
L1D has LRU replacement policy
Initialize SRRIP state for L2C
Initialize DRRIP state for LLC
BTB has LRU replacement policy
ITLB has LRU replacement policy
DTLB has LRU replacement policy
STLB has LRU replacement policy
L1I has LRU replacement policy
History Sets: 8
History Ways: 16
BERTI Size: 16
BERTI Stride Size: 8
L1D has LRU replacement policy
Initialize SRRIP state for L2C
Initialize DRRIP state for LLC
BTB has LRU replacement policy
ITLB has LRU replacement policy
DTLB has LRU replacement policy
STLB has LRU replacement policy
L1I has LRU replacement policy
History Sets: 8
History Ways: 16
BERTI Size: 16
BERTI Stride Size: 8
L1D has LRU replacement policy
Initialize SRRIP state for L2C
Initialize DRRIP state for LLC
Heartbeat CPU 0 instructions: 10000003 cycles: 2996519 heartbeat IPC: 3.33721 cumulative IPC: 3.33721 (Simulation time: 0 hr 4 min 12 sec) 
Heartbeat CPU 1 instructions: 10000003 cycles: 2996608 heartbeat IPC: 3.33711 cumulative IPC: 3.33711 (Simulation time: 0 hr 4 min 12 sec) 
Heartbeat CPU 2 instructions: 10000003 cycles: 2997077 heartbeat IPC: 3.33659 cumulative IPC: 3.33659 (Simulation time: 0 hr 4 min 12 sec) 
Heartbeat CPU 3 instructions: 10000003 cycles: 2997822 heartbeat IPC: 3.33576 cumulative IPC: 3.33576 (Simulation time: 0 hr 4 min 12 sec) 
Heartbeat CPU 0 instructions: 20000003 cycles: 5998303 heartbeat IPC: 3.33135 cumulative IPC: 3.33428 (Simulation time: 0 hr 8 min 26 sec) 
Heartbeat CPU 1 instructions: 20000003 cycles: 5998597 heartbeat IPC: 3.33112 cumulative IPC: 3.33411 (Simulation time: 0 hr 8 min 26 sec) 
Heartbeat CPU 2 instructions: 20000003 cycles: 5999883 heartbeat IPC: 3.33022 cumulative IPC: 3.3334 (Simulation time: 0 hr 8 min 27 sec) 
Heartbeat CPU 3 instructions: 20000003 cycles: 6000995 heartbeat IPC: 3.32981 cumulative IPC: 3.33278 (Simulation time: 0 hr 8 min 27 sec) 
Heartbeat CPU 0 instructions: 30000002 cycles: 8987851 heartbeat IPC: 3.34499 cumulative IPC: 3.33784 (Simulation time: 0 hr 12 min 35 sec) 
Heartbeat CPU 1 instructions: 30000002 cycles: 8988424 heartbeat IPC: 3.34467 cumulative IPC: 3.33763 (Simulation time: 0 hr 12 min 35 sec) 
Heartbeat CPU 2 instructions: 30000002 cycles: 8990801 heartbeat IPC: 3.34345 cumulative IPC: 3.33674 (Simulation time: 0 hr 12 min 35 sec) 
Heartbeat CPU 3 instructions: 30000002 cycles: 8992630 heartbeat IPC: 3.34265 cumulative IPC: 3.33607 (Simulation time: 0 hr 12 min 36 sec) 
Heartbeat CPU 0 instructions: 40000000 cycles: 11969701 heartbeat IPC: 3.35362 cumulative IPC: 3.34177 (Simulation time: 0 hr 16 min 19 sec) 
Heartbeat CPU 1 instructions: 40000000 cycles: 11970409 heartbeat IPC: 3.35347 cumulative IPC: 3.34157 (Simulation time: 0 hr 16 min 19 sec) 
Heartbeat CPU 2 instructions: 40000000 cycles: 11973896 heartbeat IPC: 3.35222 cumulative IPC: 3.3406 (Simulation time: 0 hr 16 min 20 sec) 
Heartbeat CPU 3 instructions: 40000000 cycles: 11976609 heartbeat IPC: 3.35123 cumulative IPC: 3.33984 (Simulation time: 0 hr 16 min 20 sec) 
Heartbeat CPU 0 instructions: 50000000 cycles: 14947587 heartbeat IPC: 3.35809 cumulative IPC: 3.34502 (Simulation time: 0 hr 20 min 14 sec) 
Heartbeat CPU 1 instructions: 50000000 cycles: 14948674 heartbeat IPC: 3.35766 cumulative IPC: 3.34478 (Simulation time: 0 hr 20 min 14 sec) 
Heartbeat CPU 2 instructions: 50000000 cycles: 14953559 heartbeat IPC: 3.35608 cumulative IPC: 3.34369 (Simulation time: 0 hr 20 min 14 sec) 
Heartbeat CPU 3 instructions: 50000000 cycles: 14956558 heartbeat IPC: 3.35576 cumulative IPC: 3.34302 (Simulation time: 0 hr 20 min 15 sec) 

Warmup complete CPU 0 instructions: 50021320 cycles: 14956559 (Simulation time: 0 hr 20 min 15 sec) 
Warmup complete CPU 1 instructions: 50018679 cycles: 14956559 (Simulation time: 0 hr 20 min 15 sec) 
Warmup complete CPU 2 instructions: 50007048 cycles: 14956559 (Simulation time: 0 hr 20 min 15 sec) 
Warmup complete CPU 3 instructions: 50000004 cycles: 14956559 (Simulation time: 0 hr 20 min 15 sec) 

Heartbeat CPU 0 instructions: 60000001 cycles: 49365731 heartbeat IPC: 0.290544 cumulative IPC: 0.290001 (Simulation time: 0 hr 25 min 31 sec) 
Heartbeat CPU 1 instructions: 60000001 cycles: 49367957 heartbeat IPC: 0.290535 cumulative IPC: 0.290059 (Simulation time: 0 hr 25 min 31 sec) 
Heartbeat CPU 2 instructions: 60000001 cycles: 49526776 heartbeat IPC: 0.289241 cumulative IPC: 0.289062 (Simulation time: 0 hr 25 min 33 sec) 
Heartbeat CPU 3 instructions: 60000001 cycles: 49531542 heartbeat IPC: 0.289226 cumulative IPC: 0.289226 (Simulation time: 0 hr 25 min 33 sec) 
Heartbeat CPU 1 instructions: 70000003 cycles: 89672774 heartbeat IPC: 0.248109 cumulative IPC: 0.26743 (Simulation time: 0 hr 31 min 18 sec) 
Heartbeat CPU 0 instructions: 70000002 cycles: 89696409 heartbeat IPC: 0.24795 cumulative IPC: 0.26731 (Simulation time: 0 hr 31 min 18 sec) 
Heartbeat CPU 2 instructions: 70000002 cycles: 89744350 heartbeat IPC: 0.248648 cumulative IPC: 0.267329 (Simulation time: 0 hr 31 min 19 sec) 
Heartbeat CPU 3 instructions: 70000002 cycles: 89984203 heartbeat IPC: 0.247203 cumulative IPC: 0.266568 (Simulation time: 0 hr 31 min 21 sec) 
Heartbeat CPU 0 instructions: 80000001 cycles: 124104698 heartbeat IPC: 0.290628 cumulative IPC: 0.27466 (Simulation time: 0 hr 36 min 44 sec) 
Heartbeat CPU 2 instructions: 80000001 cycles: 124192220 heartbeat IPC: 0.290294 cumulative IPC: 0.274571 (Simulation time: 0 hr 36 min 45 sec) 
Heartbeat CPU 1 instructions: 80000001 cycles: 124222728 heartbeat IPC: 0.289436 cumulative IPC: 0.274388 (Simulation time: 0 hr 36 min 45 sec) 
Heartbeat CPU 3 instructions: 80000001 cycles: 124330579 heartbeat IPC: 0.291151 cumulative IPC: 0.274288 (Simulation time: 0 hr 36 min 46 sec) 
Heartbeat CPU 0 instructions: 90000002 cycles: 165943944 heartbeat IPC: 0.23901 cumulative IPC: 0.264782 (Simulation time: 0 hr 41 min 59 sec) 
Heartbeat CPU 2 instructions: 90000002 cycles: 165978633 heartbeat IPC: 0.239312 cumulative IPC: 0.264815 (Simulation time: 0 hr 41 min 59 sec) 
Heartbeat CPU 1 instructions: 90000001 cycles: 166019174 heartbeat IPC: 0.239255 cumulative IPC: 0.264667 (Simulation time: 0 hr 41 min 59 sec) 
Heartbeat CPU 3 instructions: 90000002 cycles: 166172217 heartbeat IPC: 0.238996 cumulative IPC: 0.264523 (Simulation time: 0 hr 42 min 0 sec) 
Heartbeat CPU 0 instructions: 100000000 cycles: 211443831 heartbeat IPC: 0.219781 cumulative IPC: 0.254361 (Simulation time: 0 hr 47 min 30 sec) 
Heartbeat CPU 2 instructions: 100000001 cycles: 211481149 heartbeat IPC: 0.219768 cumulative IPC: 0.254385 (Simulation time: 0 hr 47 min 30 sec) 
Heartbeat CPU 1 instructions: 100000001 cycles: 211490927 heartbeat IPC: 0.219917 cumulative IPC: 0.254313 (Simulation time: 0 hr 47 min 30 sec) 
Heartbeat CPU 3 instructions: 100000001 cycles: 211582066 heartbeat IPC: 0.220217 cumulative IPC: 0.25429 (Simulation time: 0 hr 47 min 31 sec) 
Heartbeat CPU 1 instructions: 110000000 cycles: 255899691 heartbeat IPC: 0.225181 cumulative IPC: 0.248944 (Simulation time: 0 hr 53 min 25 sec) 
Heartbeat CPU 0 instructions: 110000000 cycles: 256068636 heartbeat IPC: 0.224091 cumulative IPC: 0.248759 (Simulation time: 0 hr 53 min 27 sec) 
Heartbeat CPU 2 instructions: 110000000 cycles: 256086091 heartbeat IPC: 0.22419 cumulative IPC: 0.2488 (Simulation time: 0 hr 53 min 27 sec) 
Heartbeat CPU 3 instructions: 110000000 cycles: 256148366 heartbeat IPC: 0.224385 cumulative IPC: 0.248765 (Simulation time: 0 hr 53 min 27 sec) 
Heartbeat CPU 1 instructions: 120000002 cycles: 301863779 heartbeat IPC: 0.217561 cumulative IPC: 0.243916 (Simulation time: 0 hr 59 min 4 sec) 
Heartbeat CPU 0 instructions: 120000002 cycles: 302029016 heartbeat IPC: 0.217579 cumulative IPC: 0.243767 (Simulation time: 0 hr 59 min 5 sec) 
Heartbeat CPU 2 instructions: 120000002 cycles: 302206318 heartbeat IPC: 0.216825 cumulative IPC: 0.243666 (Simulation time: 0 hr 59 min 6 sec) 
Heartbeat CPU 3 instructions: 120000002 cycles: 302314139 heartbeat IPC: 0.216611 cumulative IPC: 0.243599 (Simulation time: 0 hr 59 min 7 sec) 
Heartbeat CPU 1 instructions: 130000003 cycles: 347078838 heartbeat IPC: 0.221165 cumulative IPC: 0.240819 (Simulation time: 1 hr 4 min 28 sec) 
Heartbeat CPU 0 instructions: 130000003 cycles: 347288830 heartbeat IPC: 0.220947 cumulative IPC: 0.240659 (Simulation time: 1 hr 4 min 29 sec) 
Heartbeat CPU 2 instructions: 130000003 cycles: 347536021 heartbeat IPC: 0.220606 cumulative IPC: 0.240523 (Simulation time: 1 hr 4 min 31 sec) 
Heartbeat CPU 3 instructions: 130000003 cycles: 347694243 heartbeat IPC: 0.220361 cumulative IPC: 0.24043 (Simulation time: 1 hr 4 min 33 sec) 
Heartbeat CPU 1 instructions: 140000003 cycles: 392491245 heartbeat IPC: 0.220204 cumulative IPC: 0.238339 (Simulation time: 1 hr 9 min 51 sec) 
Heartbeat CPU 0 instructions: 140000003 cycles: 392882896 heartbeat IPC: 0.219327 cumulative IPC: 0.238085 (Simulation time: 1 hr 9 min 54 sec) 
Heartbeat CPU 2 instructions: 140000003 cycles: 393163519 heartbeat IPC: 0.219166 cumulative IPC: 0.237946 (Simulation time: 1 hr 9 min 56 sec) 
Heartbeat CPU 3 instructions: 140000003 cycles: 393337016 heartbeat IPC: 0.219093 cumulative IPC: 0.237856 (Simulation time: 1 hr 9 min 57 sec) 
Heartbeat CPU 1 instructions: 150000000 cycles: 438856612 heartbeat IPC: 0.215678 cumulative IPC: 0.235861 (Simulation time: 1 hr 15 min 46 sec) 
Heartbeat CPU 0 instructions: 150000000 cycles: 439207126 heartbeat IPC: 0.21587 cumulative IPC: 0.23566 (Simulation time: 1 hr 15 min 49 sec) 
Heartbeat CPU 2 instructions: 150000000 cycles: 439553670 heartbeat IPC: 0.215563 cumulative IPC: 0.235501 (Simulation time: 1 hr 15 min 52 sec) 
Heartbeat CPU 3 instructions: 150000000 cycles: 439733324 heartbeat IPC: 0.215534 cumulative IPC: 0.235418 (Simulation time: 1 hr 15 min 53 sec) 
Heartbeat CPU 1 instructions: 160000000 cycles: 484764528 heartbeat IPC: 0.217827 cumulative IPC: 0.234098 (Simulation time: 1 hr 21 min 40 sec) 
Heartbeat CPU 0 instructions: 160000000 cycles: 485201193 heartbeat IPC: 0.217419 cumulative IPC: 0.233875 (Simulation time: 1 hr 21 min 43 sec) 
Heartbeat CPU 2 instructions: 160000000 cycles: 485679124 heartbeat IPC: 0.2168 cumulative IPC: 0.233668 (Simulation time: 1 hr 21 min 46 sec) 
Heartbeat CPU 3 instructions: 160000000 cycles: 485805762 heartbeat IPC: 0.21705 cumulative IPC: 0.23362 (Simulation time: 1 hr 21 min 47 sec) 
Heartbeat CPU 1 instructions: 170000001 cycles: 533157379 heartbeat IPC: 0.206642 cumulative IPC: 0.231534 (Simulation time: 1 hr 27 min 23 sec) 
Heartbeat CPU 0 instructions: 170000001 cycles: 533702821 heartbeat IPC: 0.206179 cumulative IPC: 0.231286 (Simulation time: 1 hr 27 min 27 sec) 
Heartbeat CPU 2 instructions: 170000001 cycles: 534198650 heartbeat IPC: 0.206103 cumulative IPC: 0.231092 (Simulation time: 1 hr 27 min 30 sec) 
Heartbeat CPU 3 instructions: 170000001 cycles: 534323579 heartbeat IPC: 0.20611 cumulative IPC: 0.23105 (Simulation time: 1 hr 27 min 31 sec) 
Heartbeat CPU 1 instructions: 180000000 cycles: 584822470 heartbeat IPC: 0.193554 cumulative IPC: 0.228091 (Simulation time: 1 hr 33 min 5 sec) 
Heartbeat CPU 0 instructions: 180000000 cycles: 585540316 heartbeat IPC: 0.192911 cumulative IPC: 0.227799 (Simulation time: 1 hr 33 min 11 sec) 
Heartbeat CPU 2 instructions: 180000003 cycles: 585834904 heartbeat IPC: 0.193662 cumulative IPC: 0.227707 (Simulation time: 1 hr 33 min 13 sec) 
Heartbeat CPU 3 instructions: 180000000 cycles: 586086200 heartbeat IPC: 0.19319 cumulative IPC: 0.227619 (Simulation time: 1 hr 33 min 15 sec) 
Heartbeat CPU 1 instructions: 190000003 cycles: 632880776 heartbeat IPC: 0.208081 cumulative IPC: 0.226535 (Simulation time: 1 hr 38 min 49 sec) 
Heartbeat CPU 0 instructions: 190000003 cycles: 633657586 heartbeat IPC: 0.207826 cumulative IPC: 0.226246 (Simulation time: 1 hr 38 min 55 sec) 
Heartbeat CPU 2 instructions: 190000003 cycles: 633899168 heartbeat IPC: 0.208055 cumulative IPC: 0.226181 (Simulation time: 1 hr 38 min 56 sec) 
Heartbeat CPU 3 instructions: 190000003 cycles: 634124086 heartbeat IPC: 0.208169 cumulative IPC: 0.22611 (Simulation time: 1 hr 38 min 58 sec) 
Heartbeat CPU 1 instructions: 200000001 cycles: 683001059 heartbeat IPC: 0.19952 cumulative IPC: 0.224508 (Simulation time: 1 hr 44 min 47 sec) 
Heartbeat CPU 0 instructions: 200000001 cycles: 683829915 heartbeat IPC: 0.199313 cumulative IPC: 0.224226 (Simulation time: 1 hr 44 min 52 sec) 
Heartbeat CPU 2 instructions: 200000001 cycles: 684142260 heartbeat IPC: 0.199032 cumulative IPC: 0.224142 (Simulation time: 1 hr 44 min 54 sec) 
Heartbeat CPU 3 instructions: 200000001 cycles: 684265955 heartbeat IPC: 0.199434 cumulative IPC: 0.224112 (Simulation time: 1 hr 44 min 55 sec) 
Heartbeat CPU 1 instructions: 210000000 cycles: 732023230 heartbeat IPC: 0.203989 cumulative IPC: 0.223105 (Simulation time: 1 hr 50 min 21 sec) 
Heartbeat CPU 0 instructions: 210000000 cycles: 732884768 heartbeat IPC: 0.203853 cumulative IPC: 0.222834 (Simulation time: 1 hr 50 min 30 sec) 
Heartbeat CPU 2 instructions: 210000000 cycles: 733242291 heartbeat IPC: 0.203666 cumulative IPC: 0.222743 (Simulation time: 1 hr 50 min 37 sec) 
Heartbeat CPU 3 instructions: 210000000 cycles: 733317126 heartbeat IPC: 0.203869 cumulative IPC: 0.222729 (Simulation time: 1 hr 50 min 38 sec) 
Heartbeat CPU 1 instructions: 220000000 cycles: 779931115 heartbeat IPC: 0.208734 cumulative IPC: 0.222205 (Simulation time: 1 hr 55 min 40 sec) 
Heartbeat CPU 0 instructions: 220000000 cycles: 781060391 heartbeat IPC: 0.207574 cumulative IPC: 0.221874 (Simulation time: 1 hr 55 min 48 sec) 
Heartbeat CPU 2 instructions: 220000000 cycles: 781507400 heartbeat IPC: 0.207189 cumulative IPC: 0.221763 (Simulation time: 1 hr 55 min 51 sec) 
Heartbeat CPU 3 instructions: 220000000 cycles: 781677719 heartbeat IPC: 0.20678 cumulative IPC: 0.221723 (Simulation time: 1 hr 55 min 52 sec) 
Heartbeat CPU 1 instructions: 230000000 cycles: 834332655 heartbeat IPC: 0.183818 cumulative IPC: 0.219657 (Simulation time: 2 hr 1 min 38 sec) 
Heartbeat CPU 0 instructions: 230000000 cycles: 835391907 heartbeat IPC: 0.184055 cumulative IPC: 0.21937 (Simulation time: 2 hr 1 min 45 sec) 
Heartbeat CPU 2 instructions: 230000000 cycles: 835933240 heartbeat IPC: 0.183736 cumulative IPC: 0.219242 (Simulation time: 2 hr 1 min 49 sec) 
Heartbeat CPU 3 instructions: 230000000 cycles: 836043185 heartbeat IPC: 0.18394 cumulative IPC: 0.219222 (Simulation time: 2 hr 1 min 50 sec) 
Heartbeat CPU 1 instructions: 240000001 cycles: 892767531 heartbeat IPC: 0.171131 cumulative IPC: 0.216426 (Simulation time: 2 hr 7 min 24 sec) 
Heartbeat CPU 0 instructions: 240000001 cycles: 893804202 heartbeat IPC: 0.171197 cumulative IPC: 0.216168 (Simulation time: 2 hr 7 min 31 sec) 
Heartbeat CPU 2 instructions: 240000001 cycles: 894439970 heartbeat IPC: 0.170921 cumulative IPC: 0.216028 (Simulation time: 2 hr 7 min 34 sec) 
Heartbeat CPU 3 instructions: 240000001 cycles: 894534733 heartbeat IPC: 0.170965 cumulative IPC: 0.216013 (Simulation time: 2 hr 7 min 35 sec) 
*** Reached end of trace for Core: 1 Repeating trace: ./traces/ligra/ligra_Components.com-lj.ungraph.gcc_6.3.0_O3.drop_22750M.length_250M.champsimtrace.xz
Heartbeat CPU 1 instructions: 250000000 cycles: 952823267 heartbeat IPC: 0.166512 cumulative IPC: 0.21323 (Simulation time: 2 hr 13 min 14 sec) 
Finished CPU 1 instructions: 200000003 cycles: 937968296 cumulative IPC: 0.213227 (Simulation time: 2 hr 13 min 14 sec) 
*** Reached end of trace for Core: 0 Repeating trace: ./traces/ligra/ligra_Components.com-lj.ungraph.gcc_6.3.0_O3.drop_22750M.length_250M.champsimtrace.xz
Heartbeat CPU 0 instructions: 250000000 cycles: 953805617 heartbeat IPC: 0.166663 cumulative IPC: 0.213004 (Simulation time: 2 hr 13 min 20 sec) 
Finished CPU 0 instructions: 200000002 cycles: 938965738 cumulative IPC: 0.213 (Simulation time: 2 hr 13 min 21 sec) 
*** Reached end of trace for Core: 2 Repeating trace: ./traces/ligra/ligra_Components.com-lj.ungraph.gcc_6.3.0_O3.drop_22750M.length_250M.champsimtrace.xz
Heartbeat CPU 2 instructions: 250000000 cycles: 954502405 heartbeat IPC: 0.166493 cumulative IPC: 0.212861 (Simulation time: 2 hr 13 min 26 sec) 
Finished CPU 2 instructions: 200000002 cycles: 939590709 cumulative IPC: 0.212859 (Simulation time: 2 hr 13 min 26 sec) 
*** Reached end of trace for Core: 3 Repeating trace: ./traces/ligra/ligra_Components.com-lj.ungraph.gcc_6.3.0_O3.drop_22750M.length_250M.champsimtrace.xz
Heartbeat CPU 3 instructions: 250000002 cycles: 954628638 heartbeat IPC: 0.166406 cumulative IPC: 0.21284 (Simulation time: 2 hr 13 min 27 sec) 
Finished CPU 3 instructions: 200000003 cycles: 939672164 cumulative IPC: 0.21284 (Simulation time: 2 hr 13 min 27 sec) 

ChampSim completed all CPUs

Total Simulation Statistics (not including warmup)

CPU 0 cumulative IPC: 0.213017 instructions: 200166201 cycles: 939672164
ITLB TOTAL     ACCESS:   44608105  HIT:   44608105  MISS:          0  HIT %:        100  MISS %:          0   MPKI: 0
ITLB LOAD      ACCESS:          0  HIT:          0  MISS:          0  HIT %:       -nan  MISS %:       -nan   MPKI: 0
ITLB RFO       ACCESS:          0  HIT:          0  MISS:          0  HIT %:       -nan  MISS %:       -nan   MPKI: 0
ITLB PREFETCH  ACCESS:          0  HIT:          0  MISS:          0  HIT %:       -nan  MISS %:       -nan   MPKI: 0
ITLB WRITEBACK ACCESS:          0  HIT:          0  MISS:          0  HIT %:       -nan  MISS %:       -nan   MPKI: 0
DTLB TOTAL     ACCESS:   56562310  HIT:   44513823  MISS:   12048487  HIT %:    78.6987  MISS %:    21.3013   MPKI: 60.1924
DTLB LOAD      ACCESS:          0  HIT:          0  MISS:          0  HIT %:       -nan  MISS %:       -nan   MPKI: 0
DTLB RFO       ACCESS:          0  HIT:          0  MISS:          0  HIT %:       -nan  MISS %:       -nan   MPKI: 0
DTLB PREFETCH  ACCESS:          0  HIT:          0  MISS:          0  HIT %:       -nan  MISS %:       -nan   MPKI: 0
DTLB WRITEBACK ACCESS:          0  HIT:          0  MISS:          0  HIT %:       -nan  MISS %:       -nan   MPKI: 0
STLB TOTAL     ACCESS:   26725557  HIT:   25143365  MISS:    1582192  HIT %:    94.0799  MISS %:    5.92015   MPKI: 7.90439
STLB LOAD      ACCESS:          0  HIT:          0  MISS:          0  HIT %:       -nan  MISS %:       -nan   MPKI: 0
STLB RFO       ACCESS:          0  HIT:          0  MISS:          0  HIT %:       -nan  MISS %:       -nan   MPKI: 0
STLB PREFETCH  ACCESS:          0  HIT:          0  MISS:          0  HIT %:       -nan  MISS %:       -nan   MPKI: 0
STLB WRITEBACK ACCESS:          0  HIT:          0  MISS:          0  HIT %:       -nan  MISS %:       -nan   MPKI: 0
L1D TOTAL     ACCESS:  124348497  HIT:  110789772  MISS:   13558725  HIT %:    89.0962  MISS %:    10.9038   MPKI: 67.7373
L1D LOAD      ACCESS:   56742818  HIT:   44922957  MISS:   11819861  HIT %:    79.1694  MISS %:    20.8306   MPKI: 59.0502
L1D RFO       ACCESS:    1924824  HIT:    1894283  MISS:      30541  HIT %:    98.4133  MISS %:    1.58669   MPKI: 0.152578
L1D PREFETCH  ACCESS:   65680855  HIT:   63972532  MISS:    1708323  HIT %:    97.3991  MISS %:    2.60095   MPKI: 8.53452
L1D WRITEBACK ACCESS:          0  HIT:          0  MISS:          0  HIT %:       -nan  MISS %:       -nan   MPKI: 0
L1I TOTAL     ACCESS:   44608105  HIT:   44608105  MISS:          0  HIT %:        100  MISS %:          0   MPKI: 0
L1I LOAD      ACCESS:   44608105  HIT:   44608105  MISS:          0  HIT %:        100  MISS %:          0   MPKI: 0
L1I RFO       ACCESS:          0  HIT:          0  MISS:          0  HIT %:       -nan  MISS %:       -nan   MPKI: 0
L1I PREFETCH  ACCESS:          0  HIT:          0  MISS:          0  HIT %:       -nan  MISS %:       -nan   MPKI: 0
L1I WRITEBACK ACCESS:          0  HIT:          0  MISS:          0  HIT %:       -nan  MISS %:       -nan   MPKI: 0
L2C TOTAL     ACCESS:   31948724  HIT:   20043166  MISS:   11905558  HIT %:    62.7354  MISS %:    37.2646   MPKI: 59.4784
L2C LOAD      ACCESS:   11807123  HIT:    1875801  MISS:    9931322  HIT %:     15.887  MISS %:     84.113   MPKI: 49.6154
L2C RFO       ACCESS:      30541  HIT:         29  MISS:      30512  HIT %:  0.0949543  MISS %:     99.905   MPKI: 0.152433
L2C PREFETCH  ACCESS:   17355747  HIT:   15527599  MISS:    1828148  HIT %:    89.4666  MISS %:    10.5334   MPKI: 9.13315
L2C WRITEBACK ACCESS:      30541  HIT:      28109  MISS:       2432  HIT %:    92.0369  MISS %:    7.96307   MPKI: 0.0121499
PSCL5 TOTAL     ACCESS:    2724753  HIT:    2724753  MISS:          0  HIT %:        100  MISS %:          0   MPKI: 0
PSCL5 LOAD      ACCESS:          0  HIT:          0  MISS:          0  HIT %:       -nan  MISS %:       -nan   MPKI: 0
PSCL5 RFO       ACCESS:          0  HIT:          0  MISS:          0  HIT %:       -nan  MISS %:       -nan   MPKI: 0
PSCL5 PREFETCH  ACCESS:          0  HIT:          0  MISS:          0  HIT %:       -nan  MISS %:       -nan   MPKI: 0
PSCL5 WRITEBACK ACCESS:          0  HIT:          0  MISS:          0  HIT %:       -nan  MISS %:       -nan   MPKI: 0
PSCL4 TOTAL     ACCESS:    2724753  HIT:    2724753  MISS:          0  HIT %:        100  MISS %:          0   MPKI: 0
PSCL4 LOAD      ACCESS:          0  HIT:          0  MISS:          0  HIT %:       -nan  MISS %:       -nan   MPKI: 0
PSCL4 RFO       ACCESS:          0  HIT:          0  MISS:          0  HIT %:       -nan  MISS %:       -nan   MPKI: 0
PSCL4 PREFETCH  ACCESS:          0  HIT:          0  MISS:          0  HIT %:       -nan  MISS %:       -nan   MPKI: 0
PSCL4 WRITEBACK ACCESS:          0  HIT:          0  MISS:          0  HIT %:       -nan  MISS %:       -nan   MPKI: 0
PSCL3 TOTAL     ACCESS:    2724753  HIT:    2724753  MISS:          0  HIT %:        100  MISS %:          0   MPKI: 0
PSCL3 LOAD      ACCESS:          0  HIT:          0  MISS:          0  HIT %:       -nan  MISS %:       -nan   MPKI: 0
PSCL3 RFO       ACCESS:          0  HIT:          0  MISS:          0  HIT %:       -nan  MISS %:       -nan   MPKI: 0
PSCL3 PREFETCH  ACCESS:          0  HIT:          0  MISS:          0  HIT %:       -nan  MISS %:       -nan   MPKI: 0
PSCL3 WRITEBACK ACCESS:          0  HIT:          0  MISS:          0  HIT %:       -nan  MISS %:       -nan   MPKI: 0
PSCL2 TOTAL     ACCESS:    2722486  HIT:    2722414  MISS:         72  HIT %:    99.9974  MISS %: 0.00264464   MPKI: 0.000359701
PSCL2 LOAD      ACCESS:          0  HIT:          0  MISS:          0  HIT %:       -nan  MISS %:       -nan   MPKI: 0
PSCL2 RFO       ACCESS:          0  HIT:          0  MISS:          0  HIT %:       -nan  MISS %:       -nan   MPKI: 0
PSCL2 PREFETCH  ACCESS:          0  HIT:          0  MISS:          0  HIT %:       -nan  MISS %:       -nan   MPKI: 0
PSCL2 WRITEBACK ACCESS:          0  HIT:          0  MISS:          0  HIT %:       -nan  MISS %:       -nan   MPKI: 0
LLC TOTAL     ACCESS:   11933642  HIT:    3714579  MISS:    8219063  HIT %:     31.127  MISS %:     68.873   MPKI: 41.0612
LLC LOAD      ACCESS:    9929230  HIT:    3550402  MISS:    6378828  HIT %:    35.7571  MISS %:    64.2429   MPKI: 31.8677
LLC RFO       ACCESS:      30512  HIT:          0  MISS:      30512  HIT %:          0  MISS %:        100   MPKI: 0.152433
LLC PREFETCH  ACCESS:    1830240  HIT:      40132  MISS:    1790108  HIT %:    2.19272  MISS %:    97.8073   MPKI: 8.94311
LLC WRITEBACK ACCESS:      30516  HIT:      28508  MISS:       2008  HIT %:    93.4198  MISS %:    6.58015   MPKI: 0.0100317

RAW hits: 0
Loads Generated: 78195639
Loads sent to L1D: 78195644
Stores Generated: 1952690
Stores sent to L1D: 1952690

CPU 1 cumulative IPC: 0.213284 instructions: 200417410 cycles: 939672164
ITLB TOTAL     ACCESS:   44666072  HIT:   44666072  MISS:          0  HIT %:        100  MISS %:          0   MPKI: 0
ITLB LOAD      ACCESS:          0  HIT:          0  MISS:          0  HIT %:       -nan  MISS %:       -nan   MPKI: 0
ITLB RFO       ACCESS:          0  HIT:          0  MISS:          0  HIT %:       -nan  MISS %:       -nan   MPKI: 0
ITLB PREFETCH  ACCESS:          0  HIT:          0  MISS:          0  HIT %:       -nan  MISS %:       -nan   MPKI: 0
ITLB WRITEBACK ACCESS:          0  HIT:          0  MISS:          0  HIT %:       -nan  MISS %:       -nan   MPKI: 0
DTLB TOTAL     ACCESS:   56632682  HIT:   44565825  MISS:   12066857  HIT %:    78.6928  MISS %:    21.3072   MPKI: 60.2086
DTLB LOAD      ACCESS:          0  HIT:          0  MISS:          0  HIT %:       -nan  MISS %:       -nan   MPKI: 0
DTLB RFO       ACCESS:          0  HIT:          0  MISS:          0  HIT %:       -nan  MISS %:       -nan   MPKI: 0
DTLB PREFETCH  ACCESS:          0  HIT:          0  MISS:          0  HIT %:       -nan  MISS %:       -nan   MPKI: 0
DTLB WRITEBACK ACCESS:          0  HIT:          0  MISS:          0  HIT %:       -nan  MISS %:       -nan   MPKI: 0
STLB TOTAL     ACCESS:   26768244  HIT:   25185934  MISS:    1582310  HIT %:    94.0889  MISS %:    5.91115   MPKI: 7.89507
STLB LOAD      ACCESS:          0  HIT:          0  MISS:          0  HIT %:       -nan  MISS %:       -nan   MPKI: 0
STLB RFO       ACCESS:          0  HIT:          0  MISS:          0  HIT %:       -nan  MISS %:       -nan   MPKI: 0
STLB PREFETCH  ACCESS:          0  HIT:          0  MISS:          0  HIT %:       -nan  MISS %:       -nan   MPKI: 0
STLB WRITEBACK ACCESS:          0  HIT:          0  MISS:          0  HIT %:       -nan  MISS %:       -nan   MPKI: 0
L1D TOTAL     ACCESS:  124342869  HIT:  110762557  MISS:   13580312  HIT %:    89.0783  MISS %:    10.9217   MPKI: 67.7601
L1D LOAD      ACCESS:   56814489  HIT:   44975137  MISS:   11839352  HIT %:    79.1614  MISS %:    20.8386   MPKI: 59.0735
L1D RFO       ACCESS:    1926225  HIT:    1895658  MISS:      30567  HIT %:    98.4131  MISS %:    1.58689   MPKI: 0.152517
L1D PREFETCH  ACCESS:   65602155  HIT:   63891762  MISS:    1710393  HIT %:    97.3928  MISS %:    2.60722   MPKI: 8.53415
L1D WRITEBACK ACCESS:          0  HIT:          0  MISS:          0  HIT %:       -nan  MISS %:       -nan   MPKI: 0
L1I TOTAL     ACCESS:   44666072  HIT:   44666072  MISS:          0  HIT %:        100  MISS %:          0   MPKI: 0
L1I LOAD      ACCESS:   44666072  HIT:   44666072  MISS:          0  HIT %:        100  MISS %:          0   MPKI: 0
L1I RFO       ACCESS:          0  HIT:          0  MISS:          0  HIT %:       -nan  MISS %:       -nan   MPKI: 0
L1I PREFETCH  ACCESS:          0  HIT:          0  MISS:          0  HIT %:       -nan  MISS %:       -nan   MPKI: 0
L1I WRITEBACK ACCESS:          0  HIT:          0  MISS:          0  HIT %:       -nan  MISS %:       -nan   MPKI: 0
L2C TOTAL     ACCESS:   32111315  HIT:   20182063  MISS:   11929252  HIT %:    62.8503  MISS %:    37.1497   MPKI: 59.522
L2C LOAD      ACCESS:   11826673  HIT:    1878627  MISS:    9948046  HIT %:    15.8847  MISS %:    84.1153   MPKI: 49.6366
L2C RFO       ACCESS:      30567  HIT:         28  MISS:      30539  HIT %:  0.0916021  MISS %:    99.9084   MPKI: 0.152377
L2C PREFETCH  ACCESS:   17499105  HIT:   15668589  MISS:    1830516  HIT %:    89.5394  MISS %:    10.4606   MPKI: 9.13352
L2C WRITEBACK ACCESS:      30565  HIT:      28044  MISS:       2521  HIT %:     91.752  MISS %:      8.248   MPKI: 0.0125787
PSCL5 TOTAL     ACCESS:    2724386  HIT:    2724386  MISS:          0  HIT %:        100  MISS %:          0   MPKI: 0
PSCL5 LOAD      ACCESS:          0  HIT:          0  MISS:          0  HIT %:       -nan  MISS %:       -nan   MPKI: 0
PSCL5 RFO       ACCESS:          0  HIT:          0  MISS:          0  HIT %:       -nan  MISS %:       -nan   MPKI: 0
PSCL5 PREFETCH  ACCESS:          0  HIT:          0  MISS:          0  HIT %:       -nan  MISS %:       -nan   MPKI: 0
PSCL5 WRITEBACK ACCESS:          0  HIT:          0  MISS:          0  HIT %:       -nan  MISS %:       -nan   MPKI: 0
PSCL4 TOTAL     ACCESS:    2724386  HIT:    2724386  MISS:          0  HIT %:        100  MISS %:          0   MPKI: 0
PSCL4 LOAD      ACCESS:          0  HIT:          0  MISS:          0  HIT %:       -nan  MISS %:       -nan   MPKI: 0
PSCL4 RFO       ACCESS:          0  HIT:          0  MISS:          0  HIT %:       -nan  MISS %:       -nan   MPKI: 0
PSCL4 PREFETCH  ACCESS:          0  HIT:          0  MISS:          0  HIT %:       -nan  MISS %:       -nan   MPKI: 0
PSCL4 WRITEBACK ACCESS:          0  HIT:          0  MISS:          0  HIT %:       -nan  MISS %:       -nan   MPKI: 0
PSCL3 TOTAL     ACCESS:    2724386  HIT:    2724386  MISS:          0  HIT %:        100  MISS %:          0   MPKI: 0
PSCL3 LOAD      ACCESS:          0  HIT:          0  MISS:          0  HIT %:       -nan  MISS %:       -nan   MPKI: 0
PSCL3 RFO       ACCESS:          0  HIT:          0  MISS:          0  HIT %:       -nan  MISS %:       -nan   MPKI: 0
PSCL3 PREFETCH  ACCESS:          0  HIT:          0  MISS:          0  HIT %:       -nan  MISS %:       -nan   MPKI: 0
PSCL3 WRITEBACK ACCESS:          0  HIT:          0  MISS:          0  HIT %:       -nan  MISS %:       -nan   MPKI: 0
PSCL2 TOTAL     ACCESS:    2722229  HIT:    2722157  MISS:         72  HIT %:    99.9974  MISS %: 0.00264489   MPKI: 0.00035925
PSCL2 LOAD      ACCESS:          0  HIT:          0  MISS:          0  HIT %:       -nan  MISS %:       -nan   MPKI: 0
PSCL2 RFO       ACCESS:          0  HIT:          0  MISS:          0  HIT %:       -nan  MISS %:       -nan   MPKI: 0
PSCL2 PREFETCH  ACCESS:          0  HIT:          0  MISS:          0  HIT %:       -nan  MISS %:       -nan   MPKI: 0
PSCL2 WRITEBACK ACCESS:          0  HIT:          0  MISS:          0  HIT %:       -nan  MISS %:       -nan   MPKI: 0
LLC TOTAL     ACCESS:   11957274  HIT:    3742862  MISS:    8214412  HIT %:     31.302  MISS %:     68.698   MPKI: 40.9865
LLC LOAD      ACCESS:    9945955  HIT:    3572334  MISS:    6373621  HIT %:    35.9175  MISS %:    64.0825   MPKI: 31.8017
LLC RFO       ACCESS:      30539  HIT:          1  MISS:      30538  HIT %:  0.0032745  MISS %:    99.9967   MPKI: 0.152372
LLC PREFETCH  ACCESS:    1832607  HIT:      40646  MISS:    1791961  HIT %:    2.21793  MISS %:    97.7821   MPKI: 8.94114
LLC WRITEBACK ACCESS:      30543  HIT:      28468  MISS:       2075  HIT %:    93.2063  MISS %:     6.7937   MPKI: 0.0103534

RAW hits: 0
Loads Generated: 78295962
Loads sent to L1D: 78295963
Stores Generated: 1954323
Stores sent to L1D: 1954323

CPU 2 cumulative IPC: 0.212856 instructions: 200015265 cycles: 939672164
ITLB TOTAL     ACCESS:   44572502  HIT:   44572502  MISS:          0  HIT %:        100  MISS %:          0   MPKI: 0
ITLB LOAD      ACCESS:          0  HIT:          0  MISS:          0  HIT %:       -nan  MISS %:       -nan   MPKI: 0
ITLB RFO       ACCESS:          0  HIT:          0  MISS:          0  HIT %:       -nan  MISS %:       -nan   MPKI: 0
ITLB PREFETCH  ACCESS:          0  HIT:          0  MISS:          0  HIT %:       -nan  MISS %:       -nan   MPKI: 0
ITLB WRITEBACK ACCESS:          0  HIT:          0  MISS:          0  HIT %:       -nan  MISS %:       -nan   MPKI: 0
DTLB TOTAL     ACCESS:   56523615  HIT:   44485873  MISS:   12037742  HIT %:    78.7032  MISS %:    21.2968   MPKI: 60.1841
DTLB LOAD      ACCESS:          0  HIT:          0  MISS:          0  HIT %:       -nan  MISS %:       -nan   MPKI: 0
DTLB RFO       ACCESS:          0  HIT:          0  MISS:          0  HIT %:       -nan  MISS %:       -nan   MPKI: 0
DTLB PREFETCH  ACCESS:          0  HIT:          0  MISS:          0  HIT %:       -nan  MISS %:       -nan   MPKI: 0
DTLB WRITEBACK ACCESS:          0  HIT:          0  MISS:          0  HIT %:       -nan  MISS %:       -nan   MPKI: 0
STLB TOTAL     ACCESS:   26685940  HIT:   25103930  MISS:    1582010  HIT %:    94.0717  MISS %:    5.92825   MPKI: 7.90945
STLB LOAD      ACCESS:          0  HIT:          0  MISS:          0  HIT %:       -nan  MISS %:       -nan   MPKI: 0
STLB RFO       ACCESS:          0  HIT:          0  MISS:          0  HIT %:       -nan  MISS %:       -nan   MPKI: 0
STLB PREFETCH  ACCESS:          0  HIT:          0  MISS:          0  HIT %:       -nan  MISS %:       -nan   MPKI: 0
STLB WRITEBACK ACCESS:          0  HIT:          0  MISS:          0  HIT %:       -nan  MISS %:       -nan   MPKI: 0
L1D TOTAL     ACCESS:  124235973  HIT:  110688457  MISS:   13547516  HIT %:    89.0953  MISS %:    10.9047   MPKI: 67.7324
L1D LOAD      ACCESS:   56703540  HIT:   44893970  MISS:   11809570  HIT %:    79.1731  MISS %:    20.8269   MPKI: 59.0433
L1D RFO       ACCESS:    1923948  HIT:    1893420  MISS:      30528  HIT %:    98.4133  MISS %:    1.58674   MPKI: 0.152628
L1D PREFETCH  ACCESS:   65608485  HIT:   63901067  MISS:    1707418  HIT %:    97.3976  MISS %:    2.60243   MPKI: 8.53644
L1D WRITEBACK ACCESS:          0  HIT:          0  MISS:          0  HIT %:       -nan  MISS %:       -nan   MPKI: 0
L1I TOTAL     ACCESS:   44572502  HIT:   44572502  MISS:          0  HIT %:        100  MISS %:          0   MPKI: 0
L1I LOAD      ACCESS:   44572502  HIT:   44572502  MISS:          0  HIT %:        100  MISS %:          0   MPKI: 0
L1I RFO       ACCESS:          0  HIT:          0  MISS:          0  HIT %:       -nan  MISS %:       -nan   MPKI: 0
L1I PREFETCH  ACCESS:          0  HIT:          0  MISS:          0  HIT %:       -nan  MISS %:       -nan   MPKI: 0
L1I WRITEBACK ACCESS:          0  HIT:          0  MISS:          0  HIT %:       -nan  MISS %:       -nan   MPKI: 0
L2C TOTAL     ACCESS:   31823771  HIT:   19932019  MISS:   11891752  HIT %:    62.6325  MISS %:    37.3675   MPKI: 59.4542
L2C LOAD      ACCESS:   11796898  HIT:    1878957  MISS:    9917941  HIT %:    15.9276  MISS %:    84.0724   MPKI: 49.5859
L2C RFO       ACCESS:      30528  HIT:         27  MISS:      30501  HIT %:  0.0884434  MISS %:    99.9116   MPKI: 0.152493
L2C PREFETCH  ACCESS:   17217849  HIT:   15390225  MISS:    1827624  HIT %:    89.3853  MISS %:    10.6147   MPKI: 9.13742
L2C WRITEBACK ACCESS:      30529  HIT:      28054  MISS:       2475  HIT %:     91.893  MISS %:    8.10705   MPKI: 0.0123741
PSCL5 TOTAL     ACCESS:    2747948  HIT:    2747948  MISS:          0  HIT %:        100  MISS %:          0   MPKI: 0
PSCL5 LOAD      ACCESS:          0  HIT:          0  MISS:          0  HIT %:       -nan  MISS %:       -nan   MPKI: 0
PSCL5 RFO       ACCESS:          0  HIT:          0  MISS:          0  HIT %:       -nan  MISS %:       -nan   MPKI: 0
PSCL5 PREFETCH  ACCESS:          0  HIT:          0  MISS:          0  HIT %:       -nan  MISS %:       -nan   MPKI: 0
PSCL5 WRITEBACK ACCESS:          0  HIT:          0  MISS:          0  HIT %:       -nan  MISS %:       -nan   MPKI: 0
PSCL4 TOTAL     ACCESS:    2747948  HIT:    2747948  MISS:          0  HIT %:        100  MISS %:          0   MPKI: 0
PSCL4 LOAD      ACCESS:          0  HIT:          0  MISS:          0  HIT %:       -nan  MISS %:       -nan   MPKI: 0
PSCL4 RFO       ACCESS:          0  HIT:          0  MISS:          0  HIT %:       -nan  MISS %:       -nan   MPKI: 0
PSCL4 PREFETCH  ACCESS:          0  HIT:          0  MISS:          0  HIT %:       -nan  MISS %:       -nan   MPKI: 0
PSCL4 WRITEBACK ACCESS:          0  HIT:          0  MISS:          0  HIT %:       -nan  MISS %:       -nan   MPKI: 0
PSCL3 TOTAL     ACCESS:    2747948  HIT:    2747948  MISS:          0  HIT %:        100  MISS %:          0   MPKI: 0
PSCL3 LOAD      ACCESS:          0  HIT:          0  MISS:          0  HIT %:       -nan  MISS %:       -nan   MPKI: 0
PSCL3 RFO       ACCESS:          0  HIT:          0  MISS:          0  HIT %:       -nan  MISS %:       -nan   MPKI: 0
PSCL3 PREFETCH  ACCESS:          0  HIT:          0  MISS:          0  HIT %:       -nan  MISS %:       -nan   MPKI: 0
PSCL3 WRITEBACK ACCESS:          0  HIT:          0  MISS:          0  HIT %:       -nan  MISS %:       -nan   MPKI: 0
PSCL2 TOTAL     ACCESS:    2745872  HIT:    2745800  MISS:         72  HIT %:    99.9974  MISS %: 0.00262212   MPKI: 0.000359973
PSCL2 LOAD      ACCESS:          0  HIT:          0  MISS:          0  HIT %:       -nan  MISS %:       -nan   MPKI: 0
PSCL2 RFO       ACCESS:          0  HIT:          0  MISS:          0  HIT %:       -nan  MISS %:       -nan   MPKI: 0
PSCL2 PREFETCH  ACCESS:          0  HIT:          0  MISS:          0  HIT %:       -nan  MISS %:       -nan   MPKI: 0
PSCL2 WRITEBACK ACCESS:          0  HIT:          0  MISS:          0  HIT %:       -nan  MISS %:       -nan   MPKI: 0
LLC TOTAL     ACCESS:   11919773  HIT:    3703690  MISS:    8216083  HIT %:    31.0718  MISS %:    68.9282   MPKI: 41.0773
LLC LOAD      ACCESS:    9915756  HIT:    3537783  MISS:    6377973  HIT %:    35.6784  MISS %:    64.3216   MPKI: 31.8874
LLC RFO       ACCESS:      30501  HIT:          1  MISS:      30500  HIT %: 0.00327858  MISS %:    99.9967   MPKI: 0.152488
LLC PREFETCH  ACCESS:    1829809  HIT:      40991  MISS:    1788818  HIT %:    2.24018  MISS %:    97.7598   MPKI: 8.94341
LLC WRITEBACK ACCESS:      30496  HIT:      28365  MISS:       2131  HIT %:    93.0122  MISS %:     6.9878   MPKI: 0.0106542

RAW hits: 0
Loads Generated: 78134796
Loads sent to L1D: 78134797
Stores Generated: 1951933
Stores sent to L1D: 1951933

CPU 3 cumulative IPC: 0.21284 instructions: 200000003 cycles: 939672164
ITLB TOTAL     ACCESS:   44569023  HIT:   44569023  MISS:          0  HIT %:        100  MISS %:          0   MPKI: 0
ITLB LOAD      ACCESS:          0  HIT:          0  MISS:          0  HIT %:       -nan  MISS %:       -nan   MPKI: 0
ITLB RFO       ACCESS:          0  HIT:          0  MISS:          0  HIT %:       -nan  MISS %:       -nan   MPKI: 0
ITLB PREFETCH  ACCESS:          0  HIT:          0  MISS:          0  HIT %:       -nan  MISS %:       -nan   MPKI: 0
ITLB WRITEBACK ACCESS:          0  HIT:          0  MISS:          0  HIT %:       -nan  MISS %:       -nan   MPKI: 0
DTLB TOTAL     ACCESS:   56519196  HIT:   44482691  MISS:   12036505  HIT %:    78.7037  MISS %:    21.2963   MPKI: 60.1825
DTLB LOAD      ACCESS:          0  HIT:          0  MISS:          0  HIT %:       -nan  MISS %:       -nan   MPKI: 0
DTLB RFO       ACCESS:          0  HIT:          0  MISS:          0  HIT %:       -nan  MISS %:       -nan   MPKI: 0
DTLB PREFETCH  ACCESS:          0  HIT:          0  MISS:          0  HIT %:       -nan  MISS %:       -nan   MPKI: 0
DTLB WRITEBACK ACCESS:          0  HIT:          0  MISS:          0  HIT %:       -nan  MISS %:       -nan   MPKI: 0
STLB TOTAL     ACCESS:   26692750  HIT:   25111039  MISS:    1581711  HIT %:    94.0744  MISS %:    5.92562   MPKI: 7.90855
STLB LOAD      ACCESS:          0  HIT:          0  MISS:          0  HIT %:       -nan  MISS %:       -nan   MPKI: 0
STLB RFO       ACCESS:          0  HIT:          0  MISS:          0  HIT %:       -nan  MISS %:       -nan   MPKI: 0
STLB PREFETCH  ACCESS:          0  HIT:          0  MISS:          0  HIT %:       -nan  MISS %:       -nan   MPKI: 0
STLB WRITEBACK ACCESS:          0  HIT:          0  MISS:          0  HIT %:       -nan  MISS %:       -nan   MPKI: 0
L1D TOTAL     ACCESS:  124231085  HIT:  110685013  MISS:   13546072  HIT %:    89.0961  MISS %:    10.9039   MPKI: 67.7304
L1D LOAD      ACCESS:   56698613  HIT:   44890312  MISS:   11808301  HIT %:    79.1736  MISS %:    20.8264   MPKI: 59.0415
L1D RFO       ACCESS:    1923941  HIT:    1893414  MISS:      30527  HIT %:    98.4133  MISS %:    1.58669   MPKI: 0.152635
L1D PREFETCH  ACCESS:   65608531  HIT:   63901287  MISS:    1707244  HIT %:    97.3978  MISS %:    2.60217   MPKI: 8.53622
L1D WRITEBACK ACCESS:          0  HIT:          0  MISS:          0  HIT %:       -nan  MISS %:       -nan   MPKI: 0
L1I TOTAL     ACCESS:   44569023  HIT:   44569023  MISS:          0  HIT %:        100  MISS %:          0   MPKI: 0
L1I LOAD      ACCESS:   44569023  HIT:   44569023  MISS:          0  HIT %:        100  MISS %:          0   MPKI: 0
L1I RFO       ACCESS:          0  HIT:          0  MISS:          0  HIT %:       -nan  MISS %:       -nan   MPKI: 0
L1I PREFETCH  ACCESS:          0  HIT:          0  MISS:          0  HIT %:       -nan  MISS %:       -nan   MPKI: 0
L1I WRITEBACK ACCESS:          0  HIT:          0  MISS:          0  HIT %:       -nan  MISS %:       -nan   MPKI: 0
L2C TOTAL     ACCESS:   31951942  HIT:   20059523  MISS:   11892419  HIT %:    62.7803  MISS %:    37.2197   MPKI: 59.4621
L2C LOAD      ACCESS:   11795732  HIT:    1875886  MISS:    9919846  HIT %:    15.9031  MISS %:    84.0969   MPKI: 49.5992
L2C RFO       ACCESS:      30527  HIT:         29  MISS:      30498  HIT %:  0.0949979  MISS %:     99.905   MPKI: 0.15249
L2C PREFETCH  ACCESS:   17373692  HIT:   15548219  MISS:    1825473  HIT %:    89.4929  MISS %:    10.5071   MPKI: 9.12736
L2C WRITEBACK ACCESS:      30526  HIT:      28103  MISS:       2423  HIT %:    92.0625  MISS %:     7.9375   MPKI: 0.012115
PSCL5 TOTAL     ACCESS:    2721450  HIT:    2721450  MISS:          0  HIT %:        100  MISS %:          0   MPKI: 0
PSCL5 LOAD      ACCESS:          0  HIT:          0  MISS:          0  HIT %:       -nan  MISS %:       -nan   MPKI: 0
PSCL5 RFO       ACCESS:          0  HIT:          0  MISS:          0  HIT %:       -nan  MISS %:       -nan   MPKI: 0
PSCL5 PREFETCH  ACCESS:          0  HIT:          0  MISS:          0  HIT %:       -nan  MISS %:       -nan   MPKI: 0
PSCL5 WRITEBACK ACCESS:          0  HIT:          0  MISS:          0  HIT %:       -nan  MISS %:       -nan   MPKI: 0
PSCL4 TOTAL     ACCESS:    2721450  HIT:    2721450  MISS:          0  HIT %:        100  MISS %:          0   MPKI: 0
PSCL4 LOAD      ACCESS:          0  HIT:          0  MISS:          0  HIT %:       -nan  MISS %:       -nan   MPKI: 0
PSCL4 RFO       ACCESS:          0  HIT:          0  MISS:          0  HIT %:       -nan  MISS %:       -nan   MPKI: 0
PSCL4 PREFETCH  ACCESS:          0  HIT:          0  MISS:          0  HIT %:       -nan  MISS %:       -nan   MPKI: 0
PSCL4 WRITEBACK ACCESS:          0  HIT:          0  MISS:          0  HIT %:       -nan  MISS %:       -nan   MPKI: 0
PSCL3 TOTAL     ACCESS:    2721450  HIT:    2721450  MISS:          0  HIT %:        100  MISS %:          0   MPKI: 0
PSCL3 LOAD      ACCESS:          0  HIT:          0  MISS:          0  HIT %:       -nan  MISS %:       -nan   MPKI: 0
PSCL3 RFO       ACCESS:          0  HIT:          0  MISS:          0  HIT %:       -nan  MISS %:       -nan   MPKI: 0
PSCL3 PREFETCH  ACCESS:          0  HIT:          0  MISS:          0  HIT %:       -nan  MISS %:       -nan   MPKI: 0
PSCL3 WRITEBACK ACCESS:          0  HIT:          0  MISS:          0  HIT %:       -nan  MISS %:       -nan   MPKI: 0
PSCL2 TOTAL     ACCESS:    2719248  HIT:    2719179  MISS:         69  HIT %:    99.9975  MISS %: 0.00253747   MPKI: 0.000345
PSCL2 LOAD      ACCESS:          0  HIT:          0  MISS:          0  HIT %:       -nan  MISS %:       -nan   MPKI: 0
PSCL2 RFO       ACCESS:          0  HIT:          0  MISS:          0  HIT %:       -nan  MISS %:       -nan   MPKI: 0
PSCL2 PREFETCH  ACCESS:          0  HIT:          0  MISS:          0  HIT %:       -nan  MISS %:       -nan   MPKI: 0
PSCL2 WRITEBACK ACCESS:          0  HIT:          0  MISS:          0  HIT %:       -nan  MISS %:       -nan   MPKI: 0
LLC TOTAL     ACCESS:   11920472  HIT:    3702012  MISS:    8218460  HIT %:    31.0559  MISS %:    68.9441   MPKI: 41.0923
LLC LOAD      ACCESS:    9917718  HIT:    3536207  MISS:    6381511  HIT %:    35.6555  MISS %:    64.3445   MPKI: 31.9076
LLC RFO       ACCESS:      30498  HIT:          0  MISS:      30498  HIT %:          0  MISS %:        100   MPKI: 0.15249
LLC PREFETCH  ACCESS:    1827601  HIT:      39661  MISS:    1787940  HIT %:    2.17011  MISS %:    97.8299   MPKI: 8.9397
LLC WRITEBACK ACCESS:      30476  HIT:      28459  MISS:       2017  HIT %:    93.3817  MISS %:    6.61832   MPKI: 0.010085

RAW hits: 0
Loads Generated: 78128493
Loads sent to L1D: 78128495
Stores Generated: 1951880
Stores sent to L1D: 1951881

Region of Interest Statistics

CPU 0 cumulative IPC: 0.213 instructions: 200000002 cycles: 938965738
ITLB TOTAL     ACCESS:   44568906  HIT:   44568906  MISS:          0  HIT %:        100  MISS %:          0   MPKI: 0
ITLB LOAD TRANSLATION ACCESS:   44568906  HIT:   44568906  MISS:          0  HIT %:        100  MISS %:          0   MPKI: 0
ITLB PREFETCH  REQUESTED:          0  ISSUED:          0  USEFUL:          0  USELESS:          0
ITLB USEFUL LOAD PREFETCHES:          0 PREFETCH ISSUED TO LOWER LEVEL:          0  ACCURACY: -nan
ITLB TIMELY PREFETCHES:          0 LATE PREFETCHES: 0 DROPPED PREFETCHES: 0
ITLB PREFETCHES SAME FILL-ORIGIN LEVEL: 0 DIFFERENT FILL-ORIGIN LEVEL: 0
ITLB AVERAGE MISS LATENCY: -nan cycles
ITLB RQ	ACCESS:   44608105	FORWARD:          0	MERGED:          0	TO_CACHE:   44608105

DTLB TOTAL     ACCESS:   56516890  HIT:   44480296  MISS:   12036594  HIT %:    78.7027  MISS %:    21.2973   MPKI: 60.183
DTLB LOAD TRANSLATION ACCESS:   56516890  HIT:   44480296  MISS:   12036594  HIT %:    78.7027  MISS %:    21.2973   MPKI: 60.183
DTLB PREFETCH  REQUESTED:          0  ISSUED:          0  USEFUL:          0  USELESS:          0
DTLB USEFUL LOAD PREFETCHES:          0 PREFETCH ISSUED TO LOWER LEVEL:          0  ACCURACY: -nan
DTLB TIMELY PREFETCHES:          0 LATE PREFETCHES: 0 DROPPED PREFETCHES: 0
DTLB PREFETCHES SAME FILL-ORIGIN LEVEL: 0 DIFFERENT FILL-ORIGIN LEVEL: 0
DTLB AVERAGE MISS LATENCY: 14.1286 cycles
DTLB RQ	ACCESS:   58965410	FORWARD:          0	MERGED:    2239195	TO_CACHE:   56726215

STLB TOTAL     ACCESS:   26700427  HIT:   25118501  MISS:    1581926  HIT %:    94.0753  MISS %:    5.92472   MPKI: 7.90963
STLB LOAD TRANSLATION ACCESS:   12036594  HIT:   10455248  MISS:    1581346  HIT %:    86.8622  MISS %:    13.1378   MPKI: 7.90673
STLB TRANSLATION FROM L1D PREFETCHER ACCESS:   14663833  HIT:   14663253  MISS:        580  HIT %:     99.996  MISS %: 0.00395531   MPKI: 0.0029
STLB PREFETCH  REQUESTED:          0  ISSUED:          0  USEFUL:        491  USELESS:        108
STLB USEFUL LOAD PREFETCHES:        491 PREFETCH ISSUED TO LOWER LEVEL:          0  ACCURACY: inf
STLB TIMELY PREFETCHES:        491 LATE PREFETCHES: 2295 DROPPED PREFETCHES: 1140278
STLB PREFETCHES SAME FILL-ORIGIN LEVEL: 0 DIFFERENT FILL-ORIGIN LEVEL: 0
STLB AVERAGE MISS LATENCY: 35.5794 cycles
STLB RQ	ACCESS:  100917224	FORWARD:          0	MERGED:   73003335	TO_CACHE:   27913889

STLB Hit, L1D data hit: 0
STLB Hit, L2C data hit: 0
STLB Hit, LLC data hit: 0
STLB Hit, LLC data miss: 0
STLB STLB hints to L2: 0
L1D TOTAL     ACCESS:  124255432  HIT:  110709468  MISS:   13545964  HIT %:    89.0983  MISS %:    10.9017   MPKI: 67.7298
L1D LOAD      ACCESS:   56696297  HIT:   44888010  MISS:   11808287  HIT %:    79.1727  MISS %:    20.8273   MPKI: 59.0414
L1D RFO       ACCESS:    1923963  HIT:    1893436  MISS:      30527  HIT %:    98.4133  MISS %:    1.58667   MPKI: 0.152635
L1D PREFETCH  ACCESS:   65635172  HIT:   63928022  MISS:    1707150  HIT %:     97.399  MISS %:    2.60097   MPKI: 8.53575
L1D PREFETCH  REQUESTED:  294246839  ISSUED:  284450501  USEFUL:    1704899  USELESS:       3427
L1D USEFUL LOAD PREFETCHES:    1704899 PREFETCH ISSUED TO LOWER LEVEL:   18591744  ACCURACY: 9.17019
L1D TIMELY PREFETCHES:    1704899 LATE PREFETCHES: 12738 DROPPED PREFETCHES: 4508107
L1D PREFETCHES SAME FILL-ORIGIN LEVEL: 1721242 DIFFERENT FILL-ORIGIN LEVEL: 16870502
L1D AVERAGE MISS LATENCY: 213.923 cycles
L1D RQ	ACCESS:   78195644	FORWARD:          0	MERGED:   21182924	TO_CACHE:   57012720
L1D WQ	ACCESS:    1952690	FORWARD:          0	MERGED:          0	TO_CACHE:    1952690
L1D PQ	ACCESS:  195581764	FORWARD:          0	MERGED:  106713027	TO_CACHE:   88868737

L1D UNIQUE REGIONS ACCESSED: 0
L1D REGIONS CONFLICTS: 0
L1D Cross Page Prefetch Requests: 14355516
L1D Same Page Prefetch Requests: 212224064
L1D ROI Sum of L1D PQ occupancy: 1401643158
L1D PREFETCHES PUSHED FROM L2C: 0
L1I TOTAL     ACCESS:   44568906  HIT:   44568906  MISS:          0  HIT %:        100  MISS %:          0   MPKI: 0
L1I LOAD      ACCESS:   44568906  HIT:   44568906  MISS:          0  HIT %:        100  MISS %:          0   MPKI: 0
L1I PREFETCH  REQUESTED:          0  ISSUED:          0  USEFUL:          0  USELESS:          0
L1I USEFUL LOAD PREFETCHES:          0 PREFETCH ISSUED TO LOWER LEVEL:          0  ACCURACY: -nan
L1I TIMELY PREFETCHES:          0 LATE PREFETCHES: 0 DROPPED PREFETCHES: 0
L1I PREFETCHES SAME FILL-ORIGIN LEVEL: 0 DIFFERENT FILL-ORIGIN LEVEL: 0
L1I AVERAGE MISS LATENCY: -nan cycles
L1I RQ	ACCESS:   48145201	FORWARD:          0	MERGED:    3537096	TO_CACHE:   44608105

BTB TOTAL     ACCESS:   47746683  HIT:   47746679  MISS:          4  HIT %:        100  MISS %: 8.37755e-06   MPKI: 2e-05
BTB BRANCH_DIRECT_JUMP	ACCESS:          0  HIT:          0  MISS:          0
BTB BRANCH_INDIRECT	ACCESS:          0  HIT:          0  MISS:          0
BTB BRANCH_CONDITIONAL	ACCESS:   47746683  HIT:   47746679  MISS:          4
BTB BRANCH_DIRECT_CALL	ACCESS:          0  HIT:          0  MISS:          0
BTB BRANCH_INDIRECT_CALL	ACCESS:          0  HIT:          0  MISS:          0
BTB BRANCH_RETURN	ACCESS:          0  HIT:          0  MISS:          0
BTB BRANCH_OTHER ACCESS:          0  HIT:          0  MISS:          0

L2C TOTAL     ACCESS:   31914836  HIT:   20019317  MISS:   11895519  HIT %:    62.7273  MISS %:    37.2727   MPKI: 59.4776
L2C LOAD      ACCESS:   11795548  HIT:    1872938  MISS:    9922610  HIT %:    15.8783  MISS %:    84.1217   MPKI: 49.613
L2C DATA LOAD MPKI: 49.613
L2C INSTRUCTION LOAD MPKI: 0
L2C RFO       ACCESS:      30527  HIT:         29  MISS:      30498  HIT %:  0.0949979  MISS %:     99.905   MPKI: 0.15249
L2C PREFETCH  ACCESS:   17333728  HIT:   15506871  MISS:    1826857  HIT %:    89.4607  MISS %:    10.5393   MPKI: 9.13428
L2C DATA PREFETCH MPKI: 9.13428
L2C INSTRUCTION PREFETCH MPKI: 0
L2C WRITEBACK ACCESS:      30527  HIT:      28096  MISS:       2431  HIT %:    92.0366  MISS %:    7.96344   MPKI: 0.012155
L2C LOAD TRANSLATION ACCESS:    1581353  HIT:    1472125  MISS:     109228  HIT %:    93.0928  MISS %:    6.90725   MPKI: 0.54614
L2C TRANSLATION FROM L1D PREFETCHER ACCESS:    1143153  HIT:    1139258  MISS:       3895  HIT %:    99.6593  MISS %:   0.340724   MPKI: 0.019475
L2C PREFETCH  REQUESTED:          0  ISSUED:          0  USEFUL:      39448  USELESS:    1792897
L2C USEFUL LOAD PREFETCHES:      39448 PREFETCH ISSUED TO LOWER LEVEL:    1830241  ACCURACY: 2.15534
L2C TIMELY PREFETCHES:      39448 LATE PREFETCHES: 2092 DROPPED PREFETCHES: 0
L2C PREFETCHES SAME FILL-ORIGIN LEVEL: 983178 DIFFERENT FILL-ORIGIN LEVEL: 0
L2C AVERAGE MISS LATENCY: 253.636 cycles
L2C RQ	ACCESS:   14562444	FORWARD:          0	MERGED:          0	TO_CACHE:   14562444
L2C WQ	ACCESS:      30541	FORWARD:          0	MERGED:          0	TO_CACHE:      30541
L2C PQ	ACCESS:   18574496	FORWARD:          0	MERGED:       9642	TO_CACHE:   18564854

L2C Instructions Evicting Data 0
L2C Translations Evicting Data 112814
L2C Data Evicting Data 11677359
L2C Instructions Evicting Instructions 0
L2C Translations Evicting Instructions 0
L2C Data Evicting Instructions 0
L2C Instructions Evicting Translations 0
L2C Translations Evicting Translations 330
L2C Data Evicting Translations 112623
L2C Dense regions hint from L2: 0
PSCL5 TOTAL     ACCESS:    2724487  HIT:    2724487  MISS:          0  HIT %:        100  MISS %:          0   MPKI: 0
PSCL5 LOAD TRANSLATION ACCESS:    1581334  HIT:    1581334  MISS:          0  HIT %:        100  MISS %:          0   MPKI: 0
PSCL5 TRANSLATION FROM L1D PREFETCHER ACCESS:    1143153  HIT:    1143153  MISS:          0  HIT %:        100  MISS %:          0   MPKI: 0
PSCL5 PREFETCH  REQUESTED:          0  ISSUED:          0  USEFUL:          0  USELESS:          0
PSCL5 USEFUL LOAD PREFETCHES:          0 PREFETCH ISSUED TO LOWER LEVEL:          0  ACCURACY: -nan
PSCL5 TIMELY PREFETCHES:          0 LATE PREFETCHES: 0 DROPPED PREFETCHES: 0
PSCL5 PREFETCHES SAME FILL-ORIGIN LEVEL: 0 DIFFERENT FILL-ORIGIN LEVEL: 0

PSCL4 TOTAL     ACCESS:    2724487  HIT:    2724487  MISS:          0  HIT %:        100  MISS %:          0   MPKI: 0
PSCL4 LOAD TRANSLATION ACCESS:    1581334  HIT:    1581334  MISS:          0  HIT %:        100  MISS %:          0   MPKI: 0
PSCL4 TRANSLATION FROM L1D PREFETCHER ACCESS:    1143153  HIT:    1143153  MISS:          0  HIT %:        100  MISS %:          0   MPKI: 0
PSCL4 PREFETCH  REQUESTED:          0  ISSUED:          0  USEFUL:          0  USELESS:          0
PSCL4 USEFUL LOAD PREFETCHES:          0 PREFETCH ISSUED TO LOWER LEVEL:          0  ACCURACY: -nan
PSCL4 TIMELY PREFETCHES:          0 LATE PREFETCHES: 0 DROPPED PREFETCHES: 0
PSCL4 PREFETCHES SAME FILL-ORIGIN LEVEL: 0 DIFFERENT FILL-ORIGIN LEVEL: 0

PSCL3 TOTAL     ACCESS:    2724487  HIT:    2724487  MISS:          0  HIT %:        100  MISS %:          0   MPKI: 0
PSCL3 LOAD TRANSLATION ACCESS:    1581334  HIT:    1581334  MISS:          0  HIT %:        100  MISS %:          0   MPKI: 0
PSCL3 TRANSLATION FROM L1D PREFETCHER ACCESS:    1143153  HIT:    1143153  MISS:          0  HIT %:        100  MISS %:          0   MPKI: 0
PSCL3 PREFETCH  REQUESTED:          0  ISSUED:          0  USEFUL:          0  USELESS:          0
PSCL3 USEFUL LOAD PREFETCHES:          0 PREFETCH ISSUED TO LOWER LEVEL:          0  ACCURACY: -nan
PSCL3 TIMELY PREFETCHES:          0 LATE PREFETCHES: 0 DROPPED PREFETCHES: 0
PSCL3 PREFETCHES SAME FILL-ORIGIN LEVEL: 0 DIFFERENT FILL-ORIGIN LEVEL: 0

PSCL2 TOTAL     ACCESS:    2722220  HIT:    2722148  MISS:         72  HIT %:    99.9974  MISS %:  0.0026449   MPKI: 0.00036
PSCL2 LOAD TRANSLATION ACCESS:    1581334  HIT:    1581262  MISS:         72  HIT %:    99.9954  MISS %: 0.00455312   MPKI: 0.00036
PSCL2 TRANSLATION FROM L1D PREFETCHER ACCESS:    1140886  HIT:    1140886  MISS:          0  HIT %:        100  MISS %:          0   MPKI: 0
PSCL2 PREFETCH  REQUESTED:          0  ISSUED:          0  USEFUL:          0  USELESS:          0
PSCL2 USEFUL LOAD PREFETCHES:          0 PREFETCH ISSUED TO LOWER LEVEL:          0  ACCURACY: -nan
PSCL2 TIMELY PREFETCHES:          0 LATE PREFETCHES: 0 DROPPED PREFETCHES: 0
PSCL2 PREFETCHES SAME FILL-ORIGIN LEVEL: 0 DIFFERENT FILL-ORIGIN LEVEL: 0

LLC TOTAL     ACCESS:   11923573  HIT:    3711885  MISS:    8211688  HIT %:    31.1306  MISS %:    68.8694   MPKI: 41.0584
LLC LOAD      ACCESS:    9920518  HIT:    3547797  MISS:    6372721  HIT %:    35.7622  MISS %:    64.2378   MPKI: 31.8636
LLC RFO       ACCESS:      30498  HIT:          0  MISS:      30498  HIT %:          0  MISS %:        100   MPKI: 0.15249
LLC PREFETCH  ACCESS:    1828949  HIT:      40087  MISS:    1788862  HIT %:    2.19181  MISS %:    97.8082   MPKI: 8.94431
LLC WRITEBACK ACCESS:      30485  HIT:      28478  MISS:       2007  HIT %:    93.4164  MISS %:    6.58357   MPKI: 0.010035
LLC LOAD TRANSLATION ACCESS:     109228  HIT:      95093  MISS:      14135  HIT %:    87.0592  MISS %:    12.9408   MPKI: 0.070675
LLC TRANSLATION FROM L1D PREFETCHER ACCESS:       3895  HIT:        430  MISS:       3465  HIT %:    11.0398  MISS %:    88.9602   MPKI: 0.017325
LLC PREFETCH  REQUESTED:          0  ISSUED:          0  USEFUL:      79108  USELESS:    7091940
LLC USEFUL LOAD PREFETCHES:      79108 PREFETCH ISSUED TO LOWER LEVEL:    7170315  ACCURACY: 1.10327
LLC TIMELY PREFETCHES:      79108 LATE PREFETCHES: 0 DROPPED PREFETCHES: 0
LLC PREFETCHES SAME FILL-ORIGIN LEVEL: 0 DIFFERENT FILL-ORIGIN LEVEL: 0
LLC AVERAGE MISS LATENCY: 1295.82 cycles
LLC RQ	ACCESS:   40288883	FORWARD:          0	MERGED:          0	TO_CACHE:   40288883
LLC WQ	ACCESS:     122031	FORWARD:          0	MERGED:          0	TO_CACHE:     122031
LLC PQ	ACCESS:    7320257	FORWARD:          0	MERGED:          0	TO_CACHE:    7320257

LLC Dense regions hint to LLC: 0

RAW hits: 0
Loads Generated: 78128709
Loads sent to L1D: 78128714
Stores Generated: 1951815
Stores sent to L1D: 1951815
Major fault: 0 Minor fault: 35029
Allocated PAGES: 140116

CPU 1 cumulative IPC: 0.213227 instructions: 200000003 cycles: 937968296
ITLB TOTAL     ACCESS:   44568717  HIT:   44568717  MISS:          0  HIT %:        100  MISS %:          0   MPKI: 0
ITLB LOAD TRANSLATION ACCESS:   44568717  HIT:   44568717  MISS:          0  HIT %:        100  MISS %:          0   MPKI: 0
ITLB PREFETCH  REQUESTED:          0  ISSUED:          0  USEFUL:          0  USELESS:          0
ITLB USEFUL LOAD PREFETCHES:          0 PREFETCH ISSUED TO LOWER LEVEL:          0  ACCURACY: -nan
ITLB TIMELY PREFETCHES:          0 LATE PREFETCHES: 0 DROPPED PREFETCHES: 0
ITLB PREFETCHES SAME FILL-ORIGIN LEVEL: 0 DIFFERENT FILL-ORIGIN LEVEL: 0
ITLB AVERAGE MISS LATENCY: -nan cycles
ITLB RQ	ACCESS:   44666072	FORWARD:          0	MERGED:          0	TO_CACHE:   44666072

DTLB TOTAL     ACCESS:   56516974  HIT:   44480340  MISS:   12036634  HIT %:    78.7026  MISS %:    21.2974   MPKI: 60.1832
DTLB LOAD TRANSLATION ACCESS:   56516974  HIT:   44480340  MISS:   12036634  HIT %:    78.7026  MISS %:    21.2974   MPKI: 60.1832
DTLB PREFETCH  REQUESTED:          0  ISSUED:          0  USEFUL:          0  USELESS:          0
DTLB USEFUL LOAD PREFETCHES:          0 PREFETCH ISSUED TO LOWER LEVEL:          0  ACCURACY: -nan
DTLB TIMELY PREFETCHES:          0 LATE PREFETCHES: 0 DROPPED PREFETCHES: 0
DTLB PREFETCHES SAME FILL-ORIGIN LEVEL: 0 DIFFERENT FILL-ORIGIN LEVEL: 0
DTLB AVERAGE MISS LATENCY: 14.0992 cycles
DTLB RQ	ACCESS:   59039028	FORWARD:          0	MERGED:    2242079	TO_CACHE:   56796949

STLB TOTAL     ACCESS:   26704156  HIT:   25122204  MISS:    1581952  HIT %:     94.076  MISS %:    5.92399   MPKI: 7.90976
STLB LOAD TRANSLATION ACCESS:   12036634  HIT:   10455280  MISS:    1581354  HIT %:    86.8622  MISS %:    13.1378   MPKI: 7.90677
STLB TRANSLATION FROM L1D PREFETCHER ACCESS:   14667522  HIT:   14666924  MISS:        598  HIT %:    99.9959  MISS %: 0.00407703   MPKI: 0.00299
STLB PREFETCH  REQUESTED:          0  ISSUED:          0  USEFUL:        540  USELESS:        105
STLB USEFUL LOAD PREFETCHES:        540 PREFETCH ISSUED TO LOWER LEVEL:          0  ACCURACY: inf
STLB TIMELY PREFETCHES:        540 LATE PREFETCHES: 2285 DROPPED PREFETCHES: 1139796
STLB PREFETCHES SAME FILL-ORIGIN LEVEL: 0 DIFFERENT FILL-ORIGIN LEVEL: 0
STLB AVERAGE MISS LATENCY: 35.2491 cycles
STLB RQ	ACCESS:  101055633	FORWARD:          0	MERGED:   73100653	TO_CACHE:   27954980

STLB Hit, L1D data hit: 0
STLB Hit, L2C data hit: 0
STLB Hit, LLC data hit: 0
STLB Hit, LLC data miss: 0
STLB STLB hints to L2: 0
L1D TOTAL     ACCESS:  124093148  HIT:  110546853  MISS:   13546295  HIT %:    89.0838  MISS %:    10.9162   MPKI: 67.7315
L1D LOAD      ACCESS:   56696671  HIT:   44888220  MISS:   11808451  HIT %:    79.1726  MISS %:    20.8274   MPKI: 59.0423
L1D RFO       ACCESS:    1923750  HIT:    1893222  MISS:      30528  HIT %:    98.4131  MISS %:     1.5869   MPKI: 0.15264
L1D PREFETCH  ACCESS:   65472727  HIT:   63765411  MISS:    1707316  HIT %:    97.3923  MISS %:    2.60768   MPKI: 8.53658
L1D PREFETCH  REQUESTED:  294588092  ISSUED:  284947599  USEFUL:    1706769  USELESS:       3621
L1D USEFUL LOAD PREFETCHES:    1706769 PREFETCH ISSUED TO LOWER LEVEL:   18744820  ACCURACY: 9.10528
L1D TIMELY PREFETCHES:    1706769 LATE PREFETCHES: 12679 DROPPED PREFETCHES: 4503769
L1D PREFETCHES SAME FILL-ORIGIN LEVEL: 1723900 DIFFERENT FILL-ORIGIN LEVEL: 17020920
L1D AVERAGE MISS LATENCY: 214.224 cycles
L1D RQ	ACCESS:   78295963	FORWARD:          0	MERGED:   21211258	TO_CACHE:   57084705
L1D WQ	ACCESS:    1954323	FORWARD:          0	MERGED:          0	TO_CACHE:    1954323
L1D PQ	ACCESS:  195958822	FORWARD:          0	MERGED:  106970045	TO_CACHE:   88988777

L1D UNIQUE REGIONS ACCESSED: 0
L1D REGIONS CONFLICTS: 0
L1D Cross Page Prefetch Requests: 14359583
L1D Same Page Prefetch Requests: 212603466
L1D ROI Sum of L1D PQ occupancy: 1401396645
L1D PREFETCHES PUSHED FROM L2C: 0
L1I TOTAL     ACCESS:   44568717  HIT:   44568717  MISS:          0  HIT %:        100  MISS %:          0   MPKI: 0
L1I LOAD      ACCESS:   44568717  HIT:   44568717  MISS:          0  HIT %:        100  MISS %:          0   MPKI: 0
L1I PREFETCH  REQUESTED:          0  ISSUED:          0  USEFUL:          0  USELESS:          0
L1I USEFUL LOAD PREFETCHES:          0 PREFETCH ISSUED TO LOWER LEVEL:          0  ACCURACY: -nan
L1I TIMELY PREFETCHES:          0 LATE PREFETCHES: 0 DROPPED PREFETCHES: 0
L1I PREFETCHES SAME FILL-ORIGIN LEVEL: 0 DIFFERENT FILL-ORIGIN LEVEL: 0
L1I AVERAGE MISS LATENCY: -nan cycles
L1I RQ	ACCESS:   48206563	FORWARD:          0	MERGED:    3540491	TO_CACHE:   44666072

BTB TOTAL     ACCESS:   47746527  HIT:   47746523  MISS:          4  HIT %:        100  MISS %: 8.37757e-06   MPKI: 2e-05
BTB BRANCH_DIRECT_JUMP	ACCESS:          0  HIT:          0  MISS:          0
BTB BRANCH_INDIRECT	ACCESS:          0  HIT:          0  MISS:          0
BTB BRANCH_CONDITIONAL	ACCESS:   47746527  HIT:   47746523  MISS:          4
BTB BRANCH_DIRECT_CALL	ACCESS:          0  HIT:          0  MISS:          0
BTB BRANCH_INDIRECT_CALL	ACCESS:          0  HIT:          0  MISS:          0
BTB BRANCH_RETURN	ACCESS:          0  HIT:          0  MISS:          0
BTB BRANCH_OTHER ACCESS:          0  HIT:          0  MISS:          0

L2C TOTAL     ACCESS:   32038774  HIT:   20135007  MISS:   11903767  HIT %:    62.8457  MISS %:    37.1543   MPKI: 59.5188
L2C LOAD      ACCESS:   11795772  HIT:    1869685  MISS:    9926087  HIT %:    15.8505  MISS %:    84.1495   MPKI: 49.6304
L2C DATA LOAD MPKI: 49.6304
L2C INSTRUCTION LOAD MPKI: 0
L2C RFO       ACCESS:      30528  HIT:         28  MISS:      30500  HIT %:  0.0917191  MISS %:    99.9083   MPKI: 0.1525
L2C PREFETCH  ACCESS:   17457900  HIT:   15630831  MISS:    1827069  HIT %:    89.5344  MISS %:    10.4656   MPKI: 9.13534
L2C DATA PREFETCH MPKI: 9.13534
L2C INSTRUCTION PREFETCH MPKI: 0
L2C WRITEBACK ACCESS:      30527  HIT:      28008  MISS:       2519  HIT %:    91.7483  MISS %:    8.25171   MPKI: 0.012595
L2C LOAD TRANSLATION ACCESS:    1581368  HIT:    1467707  MISS:     113661  HIT %:    92.8125  MISS %:    7.18751   MPKI: 0.568305
L2C TRANSLATION FROM L1D PREFETCHER ACCESS:    1142679  HIT:    1138748  MISS:       3931  HIT %:     99.656  MISS %:   0.344016   MPKI: 0.019655
L2C PREFETCH  REQUESTED:          0  ISSUED:          0  USEFUL:      39608  USELESS:    1795191
L2C USEFUL LOAD PREFETCHES:      39608 PREFETCH ISSUED TO LOWER LEVEL:    1832607  ACCURACY: 2.16129
L2C TIMELY PREFETCHES:      39608 LATE PREFETCHES: 2091 DROPPED PREFETCHES: 0
L2C PREFETCHES SAME FILL-ORIGIN LEVEL: 968882 DIFFERENT FILL-ORIGIN LEVEL: 0
L2C AVERAGE MISS LATENCY: 253.425 cycles
L2C RQ	ACCESS:   14581647	FORWARD:          0	MERGED:          0	TO_CACHE:   14581647
L2C WQ	ACCESS:      30565	FORWARD:          0	MERGED:          0	TO_CACHE:      30565
L2C PQ	ACCESS:   18727157	FORWARD:          0	MERGED:       9022	TO_CACHE:   18718135

L2C Instructions Evicting Data 0
L2C Translations Evicting Data 116351
L2C Data Evicting Data 11692847
L2C Instructions Evicting Instructions 0
L2C Translations Evicting Instructions 0
L2C Data Evicting Instructions 0
L2C Instructions Evicting Translations 0
L2C Translations Evicting Translations 1279
L2C Data Evicting Translations 116254
L2C Dense regions hint from L2: 0
PSCL5 TOTAL     ACCESS:    2724028  HIT:    2724028  MISS:          0  HIT %:        100  MISS %:          0   MPKI: 0
PSCL5 LOAD TRANSLATION ACCESS:    1581349  HIT:    1581349  MISS:          0  HIT %:        100  MISS %:          0   MPKI: 0
PSCL5 TRANSLATION FROM L1D PREFETCHER ACCESS:    1142679  HIT:    1142679  MISS:          0  HIT %:        100  MISS %:          0   MPKI: 0
PSCL5 PREFETCH  REQUESTED:          0  ISSUED:          0  USEFUL:          0  USELESS:          0
PSCL5 USEFUL LOAD PREFETCHES:          0 PREFETCH ISSUED TO LOWER LEVEL:          0  ACCURACY: -nan
PSCL5 TIMELY PREFETCHES:          0 LATE PREFETCHES: 0 DROPPED PREFETCHES: 0
PSCL5 PREFETCHES SAME FILL-ORIGIN LEVEL: 0 DIFFERENT FILL-ORIGIN LEVEL: 0

PSCL4 TOTAL     ACCESS:    2724028  HIT:    2724028  MISS:          0  HIT %:        100  MISS %:          0   MPKI: 0
PSCL4 LOAD TRANSLATION ACCESS:    1581349  HIT:    1581349  MISS:          0  HIT %:        100  MISS %:          0   MPKI: 0
PSCL4 TRANSLATION FROM L1D PREFETCHER ACCESS:    1142679  HIT:    1142679  MISS:          0  HIT %:        100  MISS %:          0   MPKI: 0
PSCL4 PREFETCH  REQUESTED:          0  ISSUED:          0  USEFUL:          0  USELESS:          0
PSCL4 USEFUL LOAD PREFETCHES:          0 PREFETCH ISSUED TO LOWER LEVEL:          0  ACCURACY: -nan
PSCL4 TIMELY PREFETCHES:          0 LATE PREFETCHES: 0 DROPPED PREFETCHES: 0
PSCL4 PREFETCHES SAME FILL-ORIGIN LEVEL: 0 DIFFERENT FILL-ORIGIN LEVEL: 0

PSCL3 TOTAL     ACCESS:    2724028  HIT:    2724028  MISS:          0  HIT %:        100  MISS %:          0   MPKI: 0
PSCL3 LOAD TRANSLATION ACCESS:    1581349  HIT:    1581349  MISS:          0  HIT %:        100  MISS %:          0   MPKI: 0
PSCL3 TRANSLATION FROM L1D PREFETCHER ACCESS:    1142679  HIT:    1142679  MISS:          0  HIT %:        100  MISS %:          0   MPKI: 0
PSCL3 PREFETCH  REQUESTED:          0  ISSUED:          0  USEFUL:          0  USELESS:          0
PSCL3 USEFUL LOAD PREFETCHES:          0 PREFETCH ISSUED TO LOWER LEVEL:          0  ACCURACY: -nan
PSCL3 TIMELY PREFETCHES:          0 LATE PREFETCHES: 0 DROPPED PREFETCHES: 0
PSCL3 PREFETCHES SAME FILL-ORIGIN LEVEL: 0 DIFFERENT FILL-ORIGIN LEVEL: 0

PSCL2 TOTAL     ACCESS:    2721871  HIT:    2721799  MISS:         72  HIT %:    99.9974  MISS %: 0.00264524   MPKI: 0.00036
PSCL2 LOAD TRANSLATION ACCESS:    1581349  HIT:    1581277  MISS:         72  HIT %:    99.9954  MISS %: 0.00455307   MPKI: 0.00036
PSCL2 TRANSLATION FROM L1D PREFETCHER ACCESS:    1140522  HIT:    1140522  MISS:          0  HIT %:        100  MISS %:          0   MPKI: 0
PSCL2 PREFETCH  REQUESTED:          0  ISSUED:          0  USEFUL:          0  USELESS:          0
PSCL2 USEFUL LOAD PREFETCHES:          0 PREFETCH ISSUED TO LOWER LEVEL:          0  ACCURACY: -nan
PSCL2 TIMELY PREFETCHES:          0 LATE PREFETCHES: 0 DROPPED PREFETCHES: 0
PSCL2 PREFETCHES SAME FILL-ORIGIN LEVEL: 0 DIFFERENT FILL-ORIGIN LEVEL: 0

LLC TOTAL     ACCESS:   11931749  HIT:    3733769  MISS:    8197980  HIT %:    31.2927  MISS %:    68.7073   MPKI: 40.9899
LLC LOAD      ACCESS:    9923996  HIT:    3563519  MISS:    6360477  HIT %:    35.9081  MISS %:    64.0919   MPKI: 31.8024
LLC RFO       ACCESS:      30500  HIT:          1  MISS:      30499  HIT %: 0.00327869  MISS %:    99.9967   MPKI: 0.152495
LLC PREFETCH  ACCESS:    1829160  HIT:      40436  MISS:    1788724  HIT %:    2.21063  MISS %:    97.7894   MPKI: 8.94362
LLC WRITEBACK ACCESS:      30501  HIT:      28431  MISS:       2070  HIT %:    93.2133  MISS %:    6.78666   MPKI: 0.01035
LLC LOAD TRANSLATION ACCESS:     113661  HIT:     100917  MISS:      12744  HIT %:    88.7877  MISS %:    11.2123   MPKI: 0.06372
LLC TRANSLATION FROM L1D PREFETCHER ACCESS:       3931  HIT:        465  MISS:       3466  HIT %:    11.8291  MISS %:    88.1709   MPKI: 0.01733
LLC PREFETCH  REQUESTED:          0  ISSUED:          0  USEFUL:      79108  USELESS:    7091940
LLC USEFUL LOAD PREFETCHES:      79108 PREFETCH ISSUED TO LOWER LEVEL:    7170315  ACCURACY: 1.10327
LLC TIMELY PREFETCHES:      79108 LATE PREFETCHES: 0 DROPPED PREFETCHES: 0
LLC PREFETCHES SAME FILL-ORIGIN LEVEL: 0 DIFFERENT FILL-ORIGIN LEVEL: 0
LLC AVERAGE MISS LATENCY: 1297.98 cycles
LLC RQ	ACCESS:   40288883	FORWARD:          0	MERGED:          0	TO_CACHE:   40288883
LLC WQ	ACCESS:     122031	FORWARD:          0	MERGED:          0	TO_CACHE:     122031
LLC PQ	ACCESS:    7320257	FORWARD:          0	MERGED:          0	TO_CACHE:    7320257

LLC Dense regions hint to LLC: 0

RAW hits: 0
Loads Generated: 78128724
Loads sent to L1D: 78128722
Stores Generated: 1951816
Stores sent to L1D: 1951816
Major fault: 0 Minor fault: 35029
Allocated PAGES: 140116

CPU 2 cumulative IPC: 0.212859 instructions: 200000002 cycles: 939590709
ITLB TOTAL     ACCESS:   44568886  HIT:   44568886  MISS:          0  HIT %:        100  MISS %:          0   MPKI: 0
ITLB LOAD TRANSLATION ACCESS:   44568886  HIT:   44568886  MISS:          0  HIT %:        100  MISS %:          0   MPKI: 0
ITLB PREFETCH  REQUESTED:          0  ISSUED:          0  USEFUL:          0  USELESS:          0
ITLB USEFUL LOAD PREFETCHES:          0 PREFETCH ISSUED TO LOWER LEVEL:          0  ACCURACY: -nan
ITLB TIMELY PREFETCHES:          0 LATE PREFETCHES: 0 DROPPED PREFETCHES: 0
ITLB PREFETCHES SAME FILL-ORIGIN LEVEL: 0 DIFFERENT FILL-ORIGIN LEVEL: 0
ITLB AVERAGE MISS LATENCY: -nan cycles
ITLB RQ	ACCESS:   44572501	FORWARD:          0	MERGED:          0	TO_CACHE:   44572501

DTLB TOTAL     ACCESS:   56519411  HIT:   44482823  MISS:   12036588  HIT %:    78.7036  MISS %:    21.2964   MPKI: 60.1829
DTLB LOAD TRANSLATION ACCESS:   56519411  HIT:   44482823  MISS:   12036588  HIT %:    78.7036  MISS %:    21.2964   MPKI: 60.1829
DTLB PREFETCH  REQUESTED:          0  ISSUED:          0  USEFUL:          0  USELESS:          0
DTLB USEFUL LOAD PREFETCHES:          0 PREFETCH ISSUED TO LOWER LEVEL:          0  ACCURACY: -nan
DTLB TIMELY PREFETCHES:          0 LATE PREFETCHES: 0 DROPPED PREFETCHES: 0
DTLB PREFETCHES SAME FILL-ORIGIN LEVEL: 0 DIFFERENT FILL-ORIGIN LEVEL: 0
DTLB AVERAGE MISS LATENCY: 14.0853 cycles
DTLB RQ	ACCESS:   58925297	FORWARD:          0	MERGED:    2238120	TO_CACHE:   56687177

STLB TOTAL     ACCESS:   26683349  HIT:   25101505  MISS:    1581844  HIT %:    94.0718  MISS %:    5.92821   MPKI: 7.90922
STLB LOAD TRANSLATION ACCESS:   12036588  HIT:   10455324  MISS:    1581264  HIT %:    86.8629  MISS %:    13.1371   MPKI: 7.90632
STLB TRANSLATION FROM L1D PREFETCHER ACCESS:   14646761  HIT:   14646181  MISS:        580  HIT %:     99.996  MISS %: 0.00395992   MPKI: 0.0029
STLB PREFETCH  REQUESTED:          0  ISSUED:          0  USEFUL:        474  USELESS:        110
STLB USEFUL LOAD PREFETCHES:        474 PREFETCH ISSUED TO LOWER LEVEL:          0  ACCURACY: inf
STLB TIMELY PREFETCHES:        474 LATE PREFETCHES: 2297 DROPPED PREFETCHES: 1163658
STLB PREFETCHES SAME FILL-ORIGIN LEVEL: 0 DIFFERENT FILL-ORIGIN LEVEL: 0
STLB AVERAGE MISS LATENCY: 35.3176 cycles
STLB RQ	ACCESS:  100695238	FORWARD:          0	MERGED:   72797841	TO_CACHE:   27897397

STLB Hit, L1D data hit: 0
STLB Hit, L2C data hit: 0
STLB Hit, LLC data hit: 0
STLB Hit, LLC data miss: 0
STLB STLB hints to L2: 0
L1D TOTAL     ACCESS:  124227198  HIT:  110680993  MISS:   13546205  HIT %:    89.0956  MISS %:    10.9044   MPKI: 67.731
L1D LOAD      ACCESS:   56699261  HIT:   44890887  MISS:   11808374  HIT %:    79.1737  MISS %:    20.8263   MPKI: 59.0419
L1D RFO       ACCESS:    1923858  HIT:    1893331  MISS:      30527  HIT %:    98.4132  MISS %:    1.58676   MPKI: 0.152635
L1D PREFETCH  ACCESS:   65604079  HIT:   63896775  MISS:    1707304  HIT %:    97.3976  MISS %:    2.60244   MPKI: 8.53652
L1D PREFETCH  REQUESTED:  294006041  ISSUED:  283596995  USEFUL:    1703913  USELESS:       3509
L1D USEFUL LOAD PREFETCHES:    1703913 PREFETCH ISSUED TO LOWER LEVEL:   18449782  ACCURACY: 9.23541
L1D TIMELY PREFETCHES:    1703913 LATE PREFETCHES: 12672 DROPPED PREFETCHES: 4515994
L1D PREFETCHES SAME FILL-ORIGIN LEVEL: 1720607 DIFFERENT FILL-ORIGIN LEVEL: 16729175
L1D AVERAGE MISS LATENCY: 214.217 cycles
L1D RQ	ACCESS:   78134797	FORWARD:          0	MERGED:   21161433	TO_CACHE:   56973364
L1D WQ	ACCESS:    1951933	FORWARD:          0	MERGED:          0	TO_CACHE:    1951933
L1D PQ	ACCESS:  194939497	FORWARD:          0	MERGED:  106281999	TO_CACHE:   88657498

L1D UNIQUE REGIONS ACCESSED: 0
L1D REGIONS CONFLICTS: 0
L1D Cross Page Prefetch Requests: 14318810
L1D Same Page Prefetch Requests: 211622762
L1D ROI Sum of L1D PQ occupancy: 1403920294
L1D PREFETCHES PUSHED FROM L2C: 0
L1I TOTAL     ACCESS:   44568886  HIT:   44568886  MISS:          0  HIT %:        100  MISS %:          0   MPKI: 0
L1I LOAD      ACCESS:   44568886  HIT:   44568886  MISS:          0  HIT %:        100  MISS %:          0   MPKI: 0
L1I PREFETCH  REQUESTED:          0  ISSUED:          0  USEFUL:          0  USELESS:          0
L1I USEFUL LOAD PREFETCHES:          0 PREFETCH ISSUED TO LOWER LEVEL:          0  ACCURACY: -nan
L1I TIMELY PREFETCHES:          0 LATE PREFETCHES: 0 DROPPED PREFETCHES: 0
L1I PREFETCHES SAME FILL-ORIGIN LEVEL: 0 DIFFERENT FILL-ORIGIN LEVEL: 0
L1I AVERAGE MISS LATENCY: -nan cycles
L1I RQ	ACCESS:   48107852	FORWARD:          0	MERGED:    3535351	TO_CACHE:   44572501

BTB TOTAL     ACCESS:   47745500  HIT:   47745496  MISS:          4  HIT %:        100  MISS %: 8.37775e-06   MPKI: 2e-05
BTB BRANCH_DIRECT_JUMP	ACCESS:          0  HIT:          0  MISS:          0
BTB BRANCH_INDIRECT	ACCESS:          0  HIT:          0  MISS:          0
BTB BRANCH_CONDITIONAL	ACCESS:   47745500  HIT:   47745496  MISS:          4
BTB BRANCH_DIRECT_CALL	ACCESS:          0  HIT:          0  MISS:          0
BTB BRANCH_INDIRECT_CALL	ACCESS:          0  HIT:          0  MISS:          0
BTB BRANCH_RETURN	ACCESS:          0  HIT:          0  MISS:          0
BTB BRANCH_OTHER ACCESS:          0  HIT:          0  MISS:          0

L2C TOTAL     ACCESS:   31820740  HIT:   19930217  MISS:   11890523  HIT %:    62.6328  MISS %:    37.3672   MPKI: 59.4526
L2C LOAD      ACCESS:   11795702  HIT:    1878850  MISS:    9916852  HIT %:    15.9283  MISS %:    84.0717   MPKI: 49.5843
L2C DATA LOAD MPKI: 49.5843
L2C INSTRUCTION LOAD MPKI: 0
L2C RFO       ACCESS:      30527  HIT:         27  MISS:      30500  HIT %:  0.0884463  MISS %:    99.9116   MPKI: 0.1525
L2C PREFETCH  ACCESS:   17216183  HIT:   15388689  MISS:    1827494  HIT %:     89.385  MISS %:     10.615   MPKI: 9.13747
L2C DATA PREFETCH MPKI: 9.13747
L2C INSTRUCTION PREFETCH MPKI: 0
L2C WRITEBACK ACCESS:      30527  HIT:      28052  MISS:       2475  HIT %:    91.8924  MISS %:    8.10758   MPKI: 0.012375
L2C LOAD TRANSLATION ACCESS:    1581266  HIT:    1471971  MISS:     109295  HIT %:    93.0881  MISS %:    6.91187   MPKI: 0.546475
L2C TRANSLATION FROM L1D PREFETCHER ACCESS:    1166535  HIT:    1162628  MISS:       3907  HIT %:    99.6651  MISS %:   0.334924   MPKI: 0.019535
L2C PREFETCH  REQUESTED:          0  ISSUED:          0  USEFUL:      39286  USELESS:    1792278
L2C USEFUL LOAD PREFETCHES:      39286 PREFETCH ISSUED TO LOWER LEVEL:    1829809  ACCURACY: 2.147
L2C TIMELY PREFETCHES:      39286 LATE PREFETCHES: 2185 DROPPED PREFETCHES: 0
L2C PREFETCHES SAME FILL-ORIGIN LEVEL: 976682 DIFFERENT FILL-ORIGIN LEVEL: 0
L2C AVERAGE MISS LATENCY: 253.906 cycles
L2C RQ	ACCESS:   14575399	FORWARD:          0	MERGED:          0	TO_CACHE:   14575399
L2C WQ	ACCESS:      30529	FORWARD:          0	MERGED:          0	TO_CACHE:      30529
L2C PQ	ACCESS:   18428249	FORWARD:          0	MERGED:       8136	TO_CACHE:   18420113

L2C Instructions Evicting Data 0
L2C Translations Evicting Data 112980
L2C Data Evicting Data 11663516
L2C Instructions Evicting Instructions 0
L2C Translations Evicting Instructions 0
L2C Data Evicting Instructions 0
L2C Instructions Evicting Translations 0
L2C Translations Evicting Translations 231
L2C Data Evicting Translations 112550
L2C Dense regions hint from L2: 0
PSCL5 TOTAL     ACCESS:    2747782  HIT:    2747782  MISS:          0  HIT %:        100  MISS %:          0   MPKI: 0
PSCL5 LOAD TRANSLATION ACCESS:    1581247  HIT:    1581247  MISS:          0  HIT %:        100  MISS %:          0   MPKI: 0
PSCL5 TRANSLATION FROM L1D PREFETCHER ACCESS:    1166535  HIT:    1166535  MISS:          0  HIT %:        100  MISS %:          0   MPKI: 0
PSCL5 PREFETCH  REQUESTED:          0  ISSUED:          0  USEFUL:          0  USELESS:          0
PSCL5 USEFUL LOAD PREFETCHES:          0 PREFETCH ISSUED TO LOWER LEVEL:          0  ACCURACY: -nan
PSCL5 TIMELY PREFETCHES:          0 LATE PREFETCHES: 0 DROPPED PREFETCHES: 0
PSCL5 PREFETCHES SAME FILL-ORIGIN LEVEL: 0 DIFFERENT FILL-ORIGIN LEVEL: 0

PSCL4 TOTAL     ACCESS:    2747782  HIT:    2747782  MISS:          0  HIT %:        100  MISS %:          0   MPKI: 0
PSCL4 LOAD TRANSLATION ACCESS:    1581247  HIT:    1581247  MISS:          0  HIT %:        100  MISS %:          0   MPKI: 0
PSCL4 TRANSLATION FROM L1D PREFETCHER ACCESS:    1166535  HIT:    1166535  MISS:          0  HIT %:        100  MISS %:          0   MPKI: 0
PSCL4 PREFETCH  REQUESTED:          0  ISSUED:          0  USEFUL:          0  USELESS:          0
PSCL4 USEFUL LOAD PREFETCHES:          0 PREFETCH ISSUED TO LOWER LEVEL:          0  ACCURACY: -nan
PSCL4 TIMELY PREFETCHES:          0 LATE PREFETCHES: 0 DROPPED PREFETCHES: 0
PSCL4 PREFETCHES SAME FILL-ORIGIN LEVEL: 0 DIFFERENT FILL-ORIGIN LEVEL: 0

PSCL3 TOTAL     ACCESS:    2747782  HIT:    2747782  MISS:          0  HIT %:        100  MISS %:          0   MPKI: 0
PSCL3 LOAD TRANSLATION ACCESS:    1581247  HIT:    1581247  MISS:          0  HIT %:        100  MISS %:          0   MPKI: 0
PSCL3 TRANSLATION FROM L1D PREFETCHER ACCESS:    1166535  HIT:    1166535  MISS:          0  HIT %:        100  MISS %:          0   MPKI: 0
PSCL3 PREFETCH  REQUESTED:          0  ISSUED:          0  USEFUL:          0  USELESS:          0
PSCL3 USEFUL LOAD PREFETCHES:          0 PREFETCH ISSUED TO LOWER LEVEL:          0  ACCURACY: -nan
PSCL3 TIMELY PREFETCHES:          0 LATE PREFETCHES: 0 DROPPED PREFETCHES: 0
PSCL3 PREFETCHES SAME FILL-ORIGIN LEVEL: 0 DIFFERENT FILL-ORIGIN LEVEL: 0

PSCL2 TOTAL     ACCESS:    2745706  HIT:    2745634  MISS:         72  HIT %:    99.9974  MISS %: 0.00262228   MPKI: 0.00036
PSCL2 LOAD TRANSLATION ACCESS:    1581247  HIT:    1581175  MISS:         72  HIT %:    99.9954  MISS %: 0.00455337   MPKI: 0.00036
PSCL2 TRANSLATION FROM L1D PREFETCHER ACCESS:    1164459  HIT:    1164459  MISS:          0  HIT %:        100  MISS %:          0   MPKI: 0
PSCL2 PREFETCH  REQUESTED:          0  ISSUED:          0  USEFUL:          0  USELESS:          0
PSCL2 USEFUL LOAD PREFETCHES:          0 PREFETCH ISSUED TO LOWER LEVEL:          0  ACCURACY: -nan
PSCL2 TIMELY PREFETCHES:          0 LATE PREFETCHES: 0 DROPPED PREFETCHES: 0
PSCL2 PREFETCHES SAME FILL-ORIGIN LEVEL: 0 DIFFERENT FILL-ORIGIN LEVEL: 0

LLC TOTAL     ACCESS:   11918542  HIT:    3703410  MISS:    8215132  HIT %:    31.0727  MISS %:    68.9273   MPKI: 41.0757
LLC LOAD      ACCESS:    9914667  HIT:    3537515  MISS:    6377152  HIT %:    35.6796  MISS %:    64.3204   MPKI: 31.8858
LLC RFO       ACCESS:      30500  HIT:          1  MISS:      30499  HIT %: 0.00327869  MISS %:    99.9967   MPKI: 0.152495
LLC PREFETCH  ACCESS:    1829679  HIT:      40989  MISS:    1788690  HIT %:    2.24023  MISS %:    97.7598   MPKI: 8.94345
LLC WRITEBACK ACCESS:      30494  HIT:      28363  MISS:       2131  HIT %:    93.0117  MISS %:    6.98826   MPKI: 0.010655
LLC LOAD TRANSLATION ACCESS:     109295  HIT:      96104  MISS:      13191  HIT %:    87.9308  MISS %:    12.0692   MPKI: 0.065955
LLC TRANSLATION FROM L1D PREFETCHER ACCESS:       3907  HIT:        438  MISS:       3469  HIT %:    11.2106  MISS %:    88.7894   MPKI: 0.017345
LLC PREFETCH  REQUESTED:          0  ISSUED:          0  USEFUL:      79108  USELESS:    7091940
LLC USEFUL LOAD PREFETCHES:      79108 PREFETCH ISSUED TO LOWER LEVEL:    7170315  ACCURACY: 1.10327
LLC TIMELY PREFETCHES:      79108 LATE PREFETCHES: 0 DROPPED PREFETCHES: 0
LLC PREFETCHES SAME FILL-ORIGIN LEVEL: 0 DIFFERENT FILL-ORIGIN LEVEL: 0
LLC AVERAGE MISS LATENCY: 1295.27 cycles
LLC RQ	ACCESS:   40288883	FORWARD:          0	MERGED:          0	TO_CACHE:   40288883
LLC WQ	ACCESS:     122031	FORWARD:          0	MERGED:          0	TO_CACHE:     122031
LLC PQ	ACCESS:    7320257	FORWARD:          0	MERGED:          0	TO_CACHE:    7320257

LLC Dense regions hint to LLC: 0

RAW hits: 0
Loads Generated: 78128653
Loads sent to L1D: 78128654
Stores Generated: 1951843
Stores sent to L1D: 1951843
Major fault: 0 Minor fault: 35029
Allocated PAGES: 140116

CPU 3 cumulative IPC: 0.21284 instructions: 200000003 cycles: 939672164
ITLB TOTAL     ACCESS:   44569023  HIT:   44569023  MISS:          0  HIT %:        100  MISS %:          0   MPKI: 0
ITLB LOAD TRANSLATION ACCESS:   44569023  HIT:   44569023  MISS:          0  HIT %:        100  MISS %:          0   MPKI: 0
ITLB PREFETCH  REQUESTED:          0  ISSUED:          0  USEFUL:          0  USELESS:          0
ITLB USEFUL LOAD PREFETCHES:          0 PREFETCH ISSUED TO LOWER LEVEL:          0  ACCURACY: -nan
ITLB TIMELY PREFETCHES:          0 LATE PREFETCHES: 0 DROPPED PREFETCHES: 0
ITLB PREFETCHES SAME FILL-ORIGIN LEVEL: 0 DIFFERENT FILL-ORIGIN LEVEL: 0
ITLB AVERAGE MISS LATENCY: -nan cycles
ITLB RQ	ACCESS:   44569022	FORWARD:          0	MERGED:          0	TO_CACHE:   44569022

DTLB TOTAL     ACCESS:   56519196  HIT:   44482691  MISS:   12036505  HIT %:    78.7037  MISS %:    21.2963   MPKI: 60.1825
DTLB LOAD TRANSLATION ACCESS:   56519196  HIT:   44482691  MISS:   12036505  HIT %:    78.7037  MISS %:    21.2963   MPKI: 60.1825
DTLB PREFETCH  REQUESTED:          0  ISSUED:          0  USEFUL:          0  USELESS:          0
DTLB USEFUL LOAD PREFETCHES:          0 PREFETCH ISSUED TO LOWER LEVEL:          0  ACCURACY: -nan
DTLB TIMELY PREFETCHES:          0 LATE PREFETCHES: 0 DROPPED PREFETCHES: 0
DTLB PREFETCHES SAME FILL-ORIGIN LEVEL: 0 DIFFERENT FILL-ORIGIN LEVEL: 0
DTLB AVERAGE MISS LATENCY: 14.0833 cycles
DTLB RQ	ACCESS:   58919919	FORWARD:          0	MERGED:    2237109	TO_CACHE:   56682810

STLB TOTAL     ACCESS:   26692750  HIT:   25111039  MISS:    1581711  HIT %:    94.0744  MISS %:    5.92562   MPKI: 7.90855
STLB LOAD TRANSLATION ACCESS:   12036505  HIT:   10455403  MISS:    1581102  HIT %:    86.8641  MISS %:    13.1359   MPKI: 7.90551
STLB TRANSLATION FROM L1D PREFETCHER ACCESS:   14656245  HIT:   14655636  MISS:        609  HIT %:    99.9958  MISS %: 0.00415523   MPKI: 0.003045
STLB PREFETCH  REQUESTED:          0  ISSUED:          0  USEFUL:        507  USELESS:        102
STLB USEFUL LOAD PREFETCHES:        507 PREFETCH ISSUED TO LOWER LEVEL:          0  ACCURACY: inf
STLB TIMELY PREFETCHES:        507 LATE PREFETCHES: 2266 DROPPED PREFETCHES: 1137487
STLB PREFETCHES SAME FILL-ORIGIN LEVEL: 0 DIFFERENT FILL-ORIGIN LEVEL: 0
STLB AVERAGE MISS LATENCY: 35.3122 cycles
STLB RQ	ACCESS:  100839136	FORWARD:          0	MERGED:   72961722	TO_CACHE:   27877414

STLB Hit, L1D data hit: 0
STLB Hit, L2C data hit: 0
STLB Hit, LLC data hit: 0
STLB Hit, LLC data miss: 0
STLB STLB hints to L2: 0
L1D TOTAL     ACCESS:  124231085  HIT:  110685013  MISS:   13546072  HIT %:    89.0961  MISS %:    10.9039   MPKI: 67.7304
L1D LOAD      ACCESS:   56698613  HIT:   44890312  MISS:   11808301  HIT %:    79.1736  MISS %:    20.8264   MPKI: 59.0415
L1D RFO       ACCESS:    1923941  HIT:    1893414  MISS:      30527  HIT %:    98.4133  MISS %:    1.58669   MPKI: 0.152635
L1D PREFETCH  ACCESS:   65608531  HIT:   63901287  MISS:    1707244  HIT %:    97.3978  MISS %:    2.60217   MPKI: 8.53622
L1D PREFETCH  REQUESTED:  293962453  ISSUED:  284303430  USEFUL:    1703806  USELESS:       3435
L1D USEFUL LOAD PREFETCHES:    1703806 PREFETCH ISSUED TO LOWER LEVEL:   18606515  ACCURACY: 9.15704
L1D TIMELY PREFETCHES:    1703806 LATE PREFETCHES: 12569 DROPPED PREFETCHES: 4506321
L1D PREFETCHES SAME FILL-ORIGIN LEVEL: 1720359 DIFFERENT FILL-ORIGIN LEVEL: 16886156
L1D AVERAGE MISS LATENCY: 213.925 cycles
L1D RQ	ACCESS:   78128495	FORWARD:          0	MERGED:   21160457	TO_CACHE:   56968038
L1D WQ	ACCESS:    1951881	FORWARD:          0	MERGED:          0	TO_CACHE:    1951881
L1D PQ	ACCESS:  195500800	FORWARD:          0	MERGED:  106698170	TO_CACHE:   88802630

L1D UNIQUE REGIONS ACCESSED: 0
L1D REGIONS CONFLICTS: 0
L1D Cross Page Prefetch Requests: 14370195
L1D Same Page Prefetch Requests: 212123282
L1D ROI Sum of L1D PQ occupancy: 1399726111
L1D PREFETCHES PUSHED FROM L2C: 0
L1I TOTAL     ACCESS:   44569023  HIT:   44569023  MISS:          0  HIT %:        100  MISS %:          0   MPKI: 0
L1I LOAD      ACCESS:   44569023  HIT:   44569023  MISS:          0  HIT %:        100  MISS %:          0   MPKI: 0
L1I PREFETCH  REQUESTED:          0  ISSUED:          0  USEFUL:          0  USELESS:          0
L1I USEFUL LOAD PREFETCHES:          0 PREFETCH ISSUED TO LOWER LEVEL:          0  ACCURACY: -nan
L1I TIMELY PREFETCHES:          0 LATE PREFETCHES: 0 DROPPED PREFETCHES: 0
L1I PREFETCHES SAME FILL-ORIGIN LEVEL: 0 DIFFERENT FILL-ORIGIN LEVEL: 0
L1I AVERAGE MISS LATENCY: -nan cycles
L1I RQ	ACCESS:   48104036	FORWARD:          0	MERGED:    3535014	TO_CACHE:   44569022

BTB TOTAL     ACCESS:   47744837  HIT:   47744829  MISS:          8  HIT %:        100  MISS %: 1.67557e-05   MPKI: 4e-05
BTB BRANCH_DIRECT_JUMP	ACCESS:          0  HIT:          0  MISS:          0
BTB BRANCH_INDIRECT	ACCESS:          0  HIT:          0  MISS:          0
BTB BRANCH_CONDITIONAL	ACCESS:   47744837  HIT:   47744829  MISS:          8
BTB BRANCH_DIRECT_CALL	ACCESS:          0  HIT:          0  MISS:          0
BTB BRANCH_INDIRECT_CALL	ACCESS:          0  HIT:          0  MISS:          0
BTB BRANCH_RETURN	ACCESS:          0  HIT:          0  MISS:          0
BTB BRANCH_OTHER ACCESS:          0  HIT:          0  MISS:          0

L2C TOTAL     ACCESS:   31951942  HIT:   20059523  MISS:   11892419  HIT %:    62.7803  MISS %:    37.2197   MPKI: 59.4621
L2C LOAD      ACCESS:   11795732  HIT:    1875886  MISS:    9919846  HIT %:    15.9031  MISS %:    84.0969   MPKI: 49.5992
L2C DATA LOAD MPKI: 49.5992
L2C INSTRUCTION LOAD MPKI: 0
L2C RFO       ACCESS:      30527  HIT:         29  MISS:      30498  HIT %:  0.0949979  MISS %:     99.905   MPKI: 0.15249
L2C PREFETCH  ACCESS:   17373692  HIT:   15548219  MISS:    1825473  HIT %:    89.4929  MISS %:    10.5071   MPKI: 9.12736
L2C DATA PREFETCH MPKI: 9.12736
L2C INSTRUCTION PREFETCH MPKI: 0
L2C WRITEBACK ACCESS:      30526  HIT:      28103  MISS:       2423  HIT %:    92.0625  MISS %:     7.9375   MPKI: 0.012115
L2C LOAD TRANSLATION ACCESS:    1581103  HIT:    1470786  MISS:     110317  HIT %:    93.0228  MISS %:    6.97722   MPKI: 0.551585
L2C TRANSLATION FROM L1D PREFETCHER ACCESS:    1140362  HIT:    1136500  MISS:       3862  HIT %:    99.6613  MISS %:   0.338664   MPKI: 0.01931
L2C PREFETCH  REQUESTED:          0  ISSUED:          0  USEFUL:      39076  USELESS:    1790033
L2C USEFUL LOAD PREFETCHES:      39076 PREFETCH ISSUED TO LOWER LEVEL:    1827600  ACCURACY: 2.1381
L2C TIMELY PREFETCHES:      39076 LATE PREFETCHES: 2128 DROPPED PREFETCHES: 0
L2C PREFETCHES SAME FILL-ORIGIN LEVEL: 990799 DIFFERENT FILL-ORIGIN LEVEL: 0
L2C AVERAGE MISS LATENCY: 253.868 cycles
L2C RQ	ACCESS:   14547723	FORWARD:          0	MERGED:          0	TO_CACHE:   14547723
L2C WQ	ACCESS:      30526	FORWARD:          0	MERGED:          0	TO_CACHE:      30526
L2C PQ	ACCESS:   18586842	FORWARD:          0	MERGED:       8154	TO_CACHE:   18578688

L2C Instructions Evicting Data 0
L2C Translations Evicting Data 112306
L2C Data Evicting Data 11663978
L2C Instructions Evicting Instructions 0
L2C Translations Evicting Instructions 0
L2C Data Evicting Instructions 0
L2C Instructions Evicting Translations 0
L2C Translations Evicting Translations 1873
L2C Data Evicting Translations 111839
L2C Dense regions hint from L2: 0
PSCL5 TOTAL     ACCESS:    2721450  HIT:    2721450  MISS:          0  HIT %:        100  MISS %:          0   MPKI: 0
PSCL5 LOAD TRANSLATION ACCESS:    1581088  HIT:    1581088  MISS:          0  HIT %:        100  MISS %:          0   MPKI: 0
PSCL5 TRANSLATION FROM L1D PREFETCHER ACCESS:    1140362  HIT:    1140362  MISS:          0  HIT %:        100  MISS %:          0   MPKI: 0
PSCL5 PREFETCH  REQUESTED:          0  ISSUED:          0  USEFUL:          0  USELESS:          0
PSCL5 USEFUL LOAD PREFETCHES:          0 PREFETCH ISSUED TO LOWER LEVEL:          0  ACCURACY: -nan
PSCL5 TIMELY PREFETCHES:          0 LATE PREFETCHES: 0 DROPPED PREFETCHES: 0
PSCL5 PREFETCHES SAME FILL-ORIGIN LEVEL: 0 DIFFERENT FILL-ORIGIN LEVEL: 0

PSCL4 TOTAL     ACCESS:    2721450  HIT:    2721450  MISS:          0  HIT %:        100  MISS %:          0   MPKI: 0
PSCL4 LOAD TRANSLATION ACCESS:    1581088  HIT:    1581088  MISS:          0  HIT %:        100  MISS %:          0   MPKI: 0
PSCL4 TRANSLATION FROM L1D PREFETCHER ACCESS:    1140362  HIT:    1140362  MISS:          0  HIT %:        100  MISS %:          0   MPKI: 0
PSCL4 PREFETCH  REQUESTED:          0  ISSUED:          0  USEFUL:          0  USELESS:          0
PSCL4 USEFUL LOAD PREFETCHES:          0 PREFETCH ISSUED TO LOWER LEVEL:          0  ACCURACY: -nan
PSCL4 TIMELY PREFETCHES:          0 LATE PREFETCHES: 0 DROPPED PREFETCHES: 0
PSCL4 PREFETCHES SAME FILL-ORIGIN LEVEL: 0 DIFFERENT FILL-ORIGIN LEVEL: 0

PSCL3 TOTAL     ACCESS:    2721450  HIT:    2721450  MISS:          0  HIT %:        100  MISS %:          0   MPKI: 0
PSCL3 LOAD TRANSLATION ACCESS:    1581088  HIT:    1581088  MISS:          0  HIT %:        100  MISS %:          0   MPKI: 0
PSCL3 TRANSLATION FROM L1D PREFETCHER ACCESS:    1140362  HIT:    1140362  MISS:          0  HIT %:        100  MISS %:          0   MPKI: 0
PSCL3 PREFETCH  REQUESTED:          0  ISSUED:          0  USEFUL:          0  USELESS:          0
PSCL3 USEFUL LOAD PREFETCHES:          0 PREFETCH ISSUED TO LOWER LEVEL:          0  ACCURACY: -nan
PSCL3 TIMELY PREFETCHES:          0 LATE PREFETCHES: 0 DROPPED PREFETCHES: 0
PSCL3 PREFETCHES SAME FILL-ORIGIN LEVEL: 0 DIFFERENT FILL-ORIGIN LEVEL: 0

PSCL2 TOTAL     ACCESS:    2719248  HIT:    2719179  MISS:         69  HIT %:    99.9975  MISS %: 0.00253747   MPKI: 0.000345
PSCL2 LOAD TRANSLATION ACCESS:    1581087  HIT:    1581018  MISS:         69  HIT %:    99.9956  MISS %: 0.00436409   MPKI: 0.000345
PSCL2 TRANSLATION FROM L1D PREFETCHER ACCESS:    1138161  HIT:    1138161  MISS:          0  HIT %:        100  MISS %:          0   MPKI: 0
PSCL2 PREFETCH  REQUESTED:          0  ISSUED:          0  USEFUL:          0  USELESS:          0
PSCL2 USEFUL LOAD PREFETCHES:          0 PREFETCH ISSUED TO LOWER LEVEL:          0  ACCURACY: -nan
PSCL2 TIMELY PREFETCHES:          0 LATE PREFETCHES: 0 DROPPED PREFETCHES: 0
PSCL2 PREFETCHES SAME FILL-ORIGIN LEVEL: 0 DIFFERENT FILL-ORIGIN LEVEL: 0

LLC TOTAL     ACCESS:   11920472  HIT:    3702012  MISS:    8218460  HIT %:    31.0559  MISS %:    68.9441   MPKI: 41.0923
LLC LOAD      ACCESS:    9917718  HIT:    3536207  MISS:    6381511  HIT %:    35.6555  MISS %:    64.3445   MPKI: 31.9076
LLC RFO       ACCESS:      30498  HIT:          0  MISS:      30498  HIT %:          0  MISS %:        100   MPKI: 0.15249
LLC PREFETCH  ACCESS:    1827601  HIT:      39661  MISS:    1787940  HIT %:    2.17011  MISS %:    97.8299   MPKI: 8.9397
LLC WRITEBACK ACCESS:      30476  HIT:      28459  MISS:       2017  HIT %:    93.3817  MISS %:    6.61832   MPKI: 0.010085
LLC LOAD TRANSLATION ACCESS:     110317  HIT:      97288  MISS:      13029  HIT %:    88.1895  MISS %:    11.8105   MPKI: 0.065145
LLC TRANSLATION FROM L1D PREFETCHER ACCESS:       3862  HIT:        397  MISS:       3465  HIT %:    10.2796  MISS %:    89.7204   MPKI: 0.017325
LLC PREFETCH  REQUESTED:          0  ISSUED:          0  USEFUL:      79108  USELESS:    7091940
LLC USEFUL LOAD PREFETCHES:      79108 PREFETCH ISSUED TO LOWER LEVEL:    7170315  ACCURACY: 1.10327
LLC TIMELY PREFETCHES:      79108 LATE PREFETCHES: 0 DROPPED PREFETCHES: 0
LLC PREFETCHES SAME FILL-ORIGIN LEVEL: 0 DIFFERENT FILL-ORIGIN LEVEL: 0
LLC AVERAGE MISS LATENCY: 1294.75 cycles
LLC RQ	ACCESS:   40288883	FORWARD:          0	MERGED:          0	TO_CACHE:   40288883
LLC WQ	ACCESS:     122031	FORWARD:          0	MERGED:          0	TO_CACHE:     122031
LLC PQ	ACCESS:    7320257	FORWARD:          0	MERGED:          0	TO_CACHE:    7320257

LLC Dense regions hint to LLC: 0

RAW hits: 0
Loads Generated: 78128493
Loads sent to L1D: 78128495
Stores Generated: 1951880
Stores sent to L1D: 1951881
Major fault: 0 Minor fault: 35029
Allocated PAGES: 140116

DRAM Statistics
 CHANNEL 0
 RQ ROW_BUFFER_HIT:    1823825  ROW_BUFFER_MISS:   31035959
 DBUS_CONGESTED:        149
 WQ ROW_BUFFER_HIT:       7033  ROW_BUFFER_MISS:     114727  FULL:          0

 AVG_CONGESTED_CYCLE: 5
 All warmup complete: 5
Channel 0 Bank busy for read cycles: 0
Channel 0 Bank busy for write cycles: 0
Channel 0
Rank 0
0banks busy for read cycles: 121600
0banks busy for write cycles: 2
1banks busy for read cycles: 18453385
1banks busy for write cycles: 32787
2banks busy for read cycles: 62304441
2banks busy for write cycles: 31360
3banks busy for read cycles: 113600920
3banks busy for write cycles: 33172
4banks busy for read cycles: 155610854
4banks busy for write cycles: 31255
5banks busy for read cycles: 179470409
5banks busy for write cycles: 30773
6banks busy for read cycles: 178262021
6banks busy for write cycles: 32397
7banks busy for read cycles: 144956446
7banks busy for write cycles: 188198
8banks busy for read cycles: 82630581
8banks busy for write cycles: 3881564

CPU 0 Branch Prediction Accuracy: 95.9501% MPKI: 9.72883 Average ROB Occupancy at Mispredict: 56.1045
Branch types
NOT_BRANCH: 152075879 75.9748%
BRANCH_DIRECT_JUMP: 0 0%
BRANCH_INDIRECT: 0 0%
BRANCH_CONDITIONAL: 48090358 24.0252%
BRANCH_DIRECT_CALL: 0 0%
BRANCH_INDIRECT_CALL: 0 0%
BRANCH_RETURN: 0 0%
BRANCH_OTHER: 0 0%


CPU 1 Branch Prediction Accuracy: 95.9519% MPKI: 9.72492 Average ROB Occupancy at Mispredict: 56.1246
Branch types
NOT_BRANCH: 152265912 75.9744%
BRANCH_DIRECT_JUMP: 0 0%
BRANCH_INDIRECT: 0 0%
BRANCH_CONDITIONAL: 48151525 24.0256%
BRANCH_DIRECT_CALL: 0 0%
BRANCH_INDIRECT_CALL: 0 0%
BRANCH_RETURN: 0 0%
BRANCH_OTHER: 0 0%


CPU 2 Branch Prediction Accuracy: 95.9486% MPKI: 9.73308 Average ROB Occupancy at Mispredict: 56.0777
Branch types
NOT_BRANCH: 151962011 75.9752%
BRANCH_DIRECT_JUMP: 0 0%
BRANCH_INDIRECT: 0 0%
BRANCH_CONDITIONAL: 48053412 24.0249%
BRANCH_DIRECT_CALL: 0 0%
BRANCH_INDIRECT_CALL: 0 0%
BRANCH_RETURN: 0 0%
BRANCH_OTHER: 0 0%


CPU 3 Branch Prediction Accuracy: 95.9484% MPKI: 9.73388 Average ROB Occupancy at Mispredict: 56.0836
Branch types
NOT_BRANCH: 151950127 75.9751%
BRANCH_DIRECT_JUMP: 0 0%
BRANCH_INDIRECT: 0 0%
BRANCH_CONDITIONAL: 48049527 24.0248%
BRANCH_DIRECT_CALL: 0 0%
BRANCH_INDIRECT_CALL: 0 0%
BRANCH_RETURN: 0 0%
BRANCH_OTHER: 0 0%

DRAM PAGES: 1048576
Allocated PAGES: 140116
