
*** ChampSim Multicore Out-of-Order Simulator ***

Warmup Instructions: 50000000
Simulation Instructions: 200000000
Number of CPUs: 4
LLC sets: 8192
LLC ways: 16
Off-chip DRAM Size: 4096 MB Channels: 1 Width: 64-bit Data Rate: 6400 MT/s
CPU 0 runs ./traces/spec/623.xalancbmk_s-10B.champsimtrace.xz
.xz
CPU 1 runs ./traces/spec/623.xalancbmk_s-10B.champsimtrace.xz
.xz
CPU 2 runs ./traces/spec/623.xalancbmk_s-10B.champsimtrace.xz
.xz
CPU 3 runs ./traces/spec/623.xalancbmk_s-10B.champsimtrace.xz
.xz
BTB has LRU replacement policy
ITLB has LRU replacement policy
DTLB has LRU replacement policy
STLB has LRU replacement policy
L1I has LRU replacement policy
IP Table Entries: 1024
CSPT Entries: 128
RR_ENTRIES: 32
RST_ENTRIES: 8
L1D has LRU replacement policy
Initialize SRRIP state for L2C
Initialize DRRIP state for LLC
BTB has LRU replacement policy
ITLB has LRU replacement policy
DTLB has LRU replacement policy
STLB has LRU replacement policy
L1I has LRU replacement policy
IP Table Entries: 1024
CSPT Entries: 128
RR_ENTRIES: 32
RST_ENTRIES: 8
L1D has LRU replacement policy
Initialize SRRIP state for L2C
Initialize DRRIP state for LLC
BTB has LRU replacement policy
ITLB has LRU replacement policy
DTLB has LRU replacement policy
STLB has LRU replacement policy
L1I has LRU replacement policy
IP Table Entries: 1024
CSPT Entries: 128
RR_ENTRIES: 32
RST_ENTRIES: 8
L1D has LRU replacement policy
Initialize SRRIP state for L2C
Initialize DRRIP state for LLC
BTB has LRU replacement policy
ITLB has LRU replacement policy
DTLB has LRU replacement policy
STLB has LRU replacement policy
L1I has LRU replacement policy
IP Table Entries: 1024
CSPT Entries: 128
RR_ENTRIES: 32
RST_ENTRIES: 8
L1D has LRU replacement policy
Initialize SRRIP state for L2C
Initialize DRRIP state for LLC
Heartbeat CPU 0 instructions: 10000002 cycles: 3188385 heartbeat IPC: 3.13638 cumulative IPC: 3.13638 (Simulation time: 0 hr 3 min 56 sec) 
Heartbeat CPU 2 instructions: 10000003 cycles: 3194929 heartbeat IPC: 3.12996 cumulative IPC: 3.12996 (Simulation time: 0 hr 3 min 56 sec) 
Heartbeat CPU 1 instructions: 10000003 cycles: 3195008 heartbeat IPC: 3.12988 cumulative IPC: 3.12988 (Simulation time: 0 hr 3 min 56 sec) 
Heartbeat CPU 3 instructions: 10000003 cycles: 3200090 heartbeat IPC: 3.12491 cumulative IPC: 3.12491 (Simulation time: 0 hr 3 min 57 sec) 
Heartbeat CPU 0 instructions: 20000000 cycles: 6386404 heartbeat IPC: 3.12694 cumulative IPC: 3.13165 (Simulation time: 0 hr 7 min 56 sec) 
Heartbeat CPU 2 instructions: 20000000 cycles: 6400592 heartbeat IPC: 3.11948 cumulative IPC: 3.12471 (Simulation time: 0 hr 7 min 57 sec) 
Heartbeat CPU 1 instructions: 20000000 cycles: 6400700 heartbeat IPC: 3.11945 cumulative IPC: 3.12466 (Simulation time: 0 hr 7 min 57 sec) 
Heartbeat CPU 3 instructions: 20000000 cycles: 6410856 heartbeat IPC: 3.11452 cumulative IPC: 3.11971 (Simulation time: 0 hr 7 min 58 sec) 
Heartbeat CPU 0 instructions: 30000001 cycles: 9603648 heartbeat IPC: 3.10825 cumulative IPC: 3.12381 (Simulation time: 0 hr 11 min 40 sec) 
Heartbeat CPU 2 instructions: 30000001 cycles: 9626410 heartbeat IPC: 3.09999 cumulative IPC: 3.11643 (Simulation time: 0 hr 11 min 41 sec) 
Heartbeat CPU 1 instructions: 30000001 cycles: 9626589 heartbeat IPC: 3.09992 cumulative IPC: 3.11637 (Simulation time: 0 hr 11 min 41 sec) 
Heartbeat CPU 3 instructions: 30000001 cycles: 9642036 heartbeat IPC: 3.09484 cumulative IPC: 3.11138 (Simulation time: 0 hr 11 min 42 sec) 
Heartbeat CPU 0 instructions: 40000003 cycles: 12797859 heartbeat IPC: 3.13066 cumulative IPC: 3.12552 (Simulation time: 0 hr 15 min 31 sec) 
Heartbeat CPU 2 instructions: 40000003 cycles: 12828034 heartbeat IPC: 3.12342 cumulative IPC: 3.11817 (Simulation time: 0 hr 15 min 33 sec) 
Heartbeat CPU 1 instructions: 40000003 cycles: 12828055 heartbeat IPC: 3.12357 cumulative IPC: 3.11817 (Simulation time: 0 hr 15 min 33 sec) 
Heartbeat CPU 3 instructions: 40000003 cycles: 12846984 heartbeat IPC: 3.12018 cumulative IPC: 3.11357 (Simulation time: 0 hr 15 min 34 sec) 
Heartbeat CPU 0 instructions: 50000003 cycles: 16063594 heartbeat IPC: 3.0621 cumulative IPC: 3.11263 (Simulation time: 0 hr 19 min 20 sec) 
Heartbeat CPU 2 instructions: 50000003 cycles: 16104255 heartbeat IPC: 3.0523 cumulative IPC: 3.10477 (Simulation time: 0 hr 19 min 23 sec) 
Heartbeat CPU 1 instructions: 50000003 cycles: 16104325 heartbeat IPC: 3.05225 cumulative IPC: 3.10476 (Simulation time: 0 hr 19 min 23 sec) 
Heartbeat CPU 3 instructions: 50000003 cycles: 16128336 heartbeat IPC: 3.04752 cumulative IPC: 3.10013 (Simulation time: 0 hr 19 min 24 sec) 

Warmup complete CPU 0 instructions: 50138390 cycles: 16128336 (Simulation time: 0 hr 19 min 24 sec) 
Warmup complete CPU 1 instructions: 50051515 cycles: 16128336 (Simulation time: 0 hr 19 min 24 sec) 
Warmup complete CPU 2 instructions: 50051648 cycles: 16128336 (Simulation time: 0 hr 19 min 24 sec) 
Warmup complete CPU 3 instructions: 50000003 cycles: 16128336 (Simulation time: 0 hr 19 min 24 sec) 

Heartbeat CPU 0 instructions: 60000001 cycles: 61152991 heartbeat IPC: 0.221782 cumulative IPC: 0.219027 (Simulation time: 0 hr 25 min 58 sec) 
Heartbeat CPU 2 instructions: 60000001 cycles: 61592997 heartbeat IPC: 0.219835 cumulative IPC: 0.218815 (Simulation time: 0 hr 26 min 2 sec) 
Heartbeat CPU 1 instructions: 60000002 cycles: 61623077 heartbeat IPC: 0.21969 cumulative IPC: 0.218673 (Simulation time: 0 hr 26 min 3 sec) 
Heartbeat CPU 3 instructions: 60000001 cycles: 61742764 heartbeat IPC: 0.219229 cumulative IPC: 0.219229 (Simulation time: 0 hr 26 min 4 sec) 
Heartbeat CPU 0 instructions: 70000000 cycles: 105287667 heartbeat IPC: 0.226579 cumulative IPC: 0.222765 (Simulation time: 0 hr 32 min 23 sec) 
Heartbeat CPU 2 instructions: 70000000 cycles: 106470688 heartbeat IPC: 0.222828 cumulative IPC: 0.220808 (Simulation time: 0 hr 32 min 31 sec) 
Heartbeat CPU 1 instructions: 70000000 cycles: 106475595 heartbeat IPC: 0.222953 cumulative IPC: 0.220798 (Simulation time: 0 hr 32 min 31 sec) 
Heartbeat CPU 3 instructions: 70000000 cycles: 106632047 heartbeat IPC: 0.22277 cumulative IPC: 0.220985 (Simulation time: 0 hr 32 min 32 sec) 
Heartbeat CPU 0 instructions: 80000002 cycles: 150359267 heartbeat IPC: 0.221869 cumulative IPC: 0.222464 (Simulation time: 0 hr 39 min 1 sec) 
Heartbeat CPU 2 instructions: 80000001 cycles: 152198937 heartbeat IPC: 0.218683 cumulative IPC: 0.220094 (Simulation time: 0 hr 39 min 16 sec) 
Heartbeat CPU 1 instructions: 80000003 cycles: 152220533 heartbeat IPC: 0.218603 cumulative IPC: 0.22006 (Simulation time: 0 hr 39 min 16 sec) 
Heartbeat CPU 3 instructions: 80000001 cycles: 152398962 heartbeat IPC: 0.218498 cumulative IPC: 0.22015 (Simulation time: 0 hr 39 min 17 sec) 
Heartbeat CPU 0 instructions: 90000000 cycles: 189615479 heartbeat IPC: 0.254737 cumulative IPC: 0.229767 (Simulation time: 0 hr 44 min 49 sec) 
Heartbeat CPU 1 instructions: 90000000 cycles: 192486947 heartbeat IPC: 0.248346 cumulative IPC: 0.226518 (Simulation time: 0 hr 45 min 26 sec) 
Heartbeat CPU 2 instructions: 90000000 cycles: 192496550 heartbeat IPC: 0.248154 cumulative IPC: 0.226505 (Simulation time: 0 hr 45 min 26 sec) 
Heartbeat CPU 3 instructions: 90000000 cycles: 192645684 heartbeat IPC: 0.248467 cumulative IPC: 0.226607 (Simulation time: 0 hr 45 min 28 sec) 
Heartbeat CPU 0 instructions: 100000003 cycles: 232663446 heartbeat IPC: 0.232299 cumulative IPC: 0.23027 (Simulation time: 0 hr 51 min 25 sec) 
Heartbeat CPU 1 instructions: 100000003 cycles: 237934595 heartbeat IPC: 0.220033 cumulative IPC: 0.22519 (Simulation time: 0 hr 52 min 10 sec) 
Heartbeat CPU 2 instructions: 100000003 cycles: 237985879 heartbeat IPC: 0.219832 cumulative IPC: 0.225137 (Simulation time: 0 hr 52 min 10 sec) 
Heartbeat CPU 3 instructions: 100000003 cycles: 238001184 heartbeat IPC: 0.22048 cumulative IPC: 0.225354 (Simulation time: 0 hr 52 min 10 sec) 
Heartbeat CPU 0 instructions: 110000000 cycles: 266370695 heartbeat IPC: 0.296672 cumulative IPC: 0.239215 (Simulation time: 0 hr 56 min 27 sec) 
Heartbeat CPU 3 instructions: 110000000 cycles: 273532525 heartbeat IPC: 0.281442 cumulative IPC: 0.233096 (Simulation time: 0 hr 57 min 41 sec) 
Heartbeat CPU 2 instructions: 110000000 cycles: 273539025 heartbeat IPC: 0.281269 cumulative IPC: 0.23289 (Simulation time: 0 hr 57 min 41 sec) 
Heartbeat CPU 1 instructions: 110000000 cycles: 273744639 heartbeat IPC: 0.279251 cumulative IPC: 0.232705 (Simulation time: 0 hr 57 min 42 sec) 
Heartbeat CPU 0 instructions: 120000001 cycles: 303892181 heartbeat IPC: 0.266514 cumulative IPC: 0.242774 (Simulation time: 1 hr 2 min 14 sec) 
Heartbeat CPU 3 instructions: 120000001 cycles: 312395215 heartbeat IPC: 0.257316 cumulative IPC: 0.236273 (Simulation time: 1 hr 3 min 27 sec) 
Heartbeat CPU 2 instructions: 120000001 cycles: 312525118 heartbeat IPC: 0.256502 cumulative IPC: 0.235996 (Simulation time: 1 hr 3 min 29 sec) 
Heartbeat CPU 1 instructions: 120000001 cycles: 312669968 heartbeat IPC: 0.256902 cumulative IPC: 0.235881 (Simulation time: 1 hr 3 min 30 sec) 
Heartbeat CPU 0 instructions: 130000000 cycles: 353392921 heartbeat IPC: 0.202017 cumulative IPC: 0.236792 (Simulation time: 1 hr 9 min 27 sec) 
Heartbeat CPU 3 instructions: 130000000 cycles: 362786544 heartbeat IPC: 0.198447 cumulative IPC: 0.230775 (Simulation time: 1 hr 10 min 44 sec) 
Heartbeat CPU 2 instructions: 130000000 cycles: 363043142 heartbeat IPC: 0.197949 cumulative IPC: 0.230455 (Simulation time: 1 hr 10 min 47 sec) 
Heartbeat CPU 1 instructions: 130000000 cycles: 363073505 heartbeat IPC: 0.198399 cumulative IPC: 0.230436 (Simulation time: 1 hr 10 min 47 sec) 
Heartbeat CPU 0 instructions: 140000001 cycles: 399768973 heartbeat IPC: 0.215629 cumulative IPC: 0.234234 (Simulation time: 1 hr 16 min 7 sec) 
Heartbeat CPU 3 instructions: 140000001 cycles: 408857479 heartbeat IPC: 0.217057 cumulative IPC: 0.229166 (Simulation time: 1 hr 17 min 33 sec) 
Heartbeat CPU 2 instructions: 140000001 cycles: 409126474 heartbeat IPC: 0.216998 cumulative IPC: 0.228877 (Simulation time: 1 hr 17 min 37 sec) 
Heartbeat CPU 1 instructions: 140000001 cycles: 409138950 heartbeat IPC: 0.217082 cumulative IPC: 0.22887 (Simulation time: 1 hr 17 min 37 sec) 
Heartbeat CPU 0 instructions: 150000001 cycles: 433433536 heartbeat IPC: 0.297048 cumulative IPC: 0.239301 (Simulation time: 1 hr 21 min 31 sec) 
Heartbeat CPU 3 instructions: 150000003 cycles: 443227706 heartbeat IPC: 0.29095 cumulative IPC: 0.234138 (Simulation time: 1 hr 23 min 13 sec) 
Heartbeat CPU 2 instructions: 150000003 cycles: 443617984 heartbeat IPC: 0.289926 cumulative IPC: 0.233803 (Simulation time: 1 hr 23 min 17 sec) 
Heartbeat CPU 1 instructions: 150000001 cycles: 443633559 heartbeat IPC: 0.2899 cumulative IPC: 0.233795 (Simulation time: 1 hr 23 min 17 sec) 
Heartbeat CPU 0 instructions: 160000001 cycles: 479255422 heartbeat IPC: 0.218236 cumulative IPC: 0.237217 (Simulation time: 1 hr 28 min 41 sec) 
Heartbeat CPU 3 instructions: 160000001 cycles: 491273081 heartbeat IPC: 0.208137 cumulative IPC: 0.231508 (Simulation time: 1 hr 30 min 20 sec) 
Heartbeat CPU 2 instructions: 160000001 cycles: 491291154 heartbeat IPC: 0.209762 cumulative IPC: 0.231391 (Simulation time: 1 hr 30 min 20 sec) 
Heartbeat CPU 1 instructions: 160000001 cycles: 491295564 heartbeat IPC: 0.209811 cumulative IPC: 0.231389 (Simulation time: 1 hr 30 min 21 sec) 
Heartbeat CPU 0 instructions: 170000001 cycles: 520538674 heartbeat IPC: 0.242229 cumulative IPC: 0.237627 (Simulation time: 1 hr 34 min 48 sec) 
Heartbeat CPU 2 instructions: 170000001 cycles: 533261941 heartbeat IPC: 0.238261 cumulative IPC: 0.231948 (Simulation time: 1 hr 36 min 43 sec) 
Heartbeat CPU 3 instructions: 170000001 cycles: 533329776 heartbeat IPC: 0.237774 cumulative IPC: 0.232018 (Simulation time: 1 hr 36 min 44 sec) 
Heartbeat CPU 1 instructions: 170000001 cycles: 533334007 heartbeat IPC: 0.237878 cumulative IPC: 0.231916 (Simulation time: 1 hr 36 min 44 sec) 
Heartbeat CPU 0 instructions: 180000000 cycles: 557179496 heartbeat IPC: 0.27292 cumulative IPC: 0.240017 (Simulation time: 1 hr 40 min 40 sec) 
Heartbeat CPU 2 instructions: 180000000 cycles: 572479224 heartbeat IPC: 0.25499 cumulative IPC: 0.233573 (Simulation time: 1 hr 43 min 18 sec) 
Heartbeat CPU 1 instructions: 180000000 cycles: 572519340 heartbeat IPC: 0.255197 cumulative IPC: 0.233556 (Simulation time: 1 hr 43 min 19 sec) 
Heartbeat CPU 3 instructions: 180000000 cycles: 572564281 heartbeat IPC: 0.254878 cumulative IPC: 0.23363 (Simulation time: 1 hr 43 min 19 sec) 
Heartbeat CPU 0 instructions: 190000001 cycles: 594462517 heartbeat IPC: 0.268219 cumulative IPC: 0.241835 (Simulation time: 1 hr 46 min 49 sec) 
Heartbeat CPU 2 instructions: 190000001 cycles: 612033100 heartbeat IPC: 0.25282 cumulative IPC: 0.23485 (Simulation time: 1 hr 49 min 30 sec) 
Heartbeat CPU 1 instructions: 190000001 cycles: 612155401 heartbeat IPC: 0.252296 cumulative IPC: 0.234802 (Simulation time: 1 hr 49 min 31 sec) 
Heartbeat CPU 3 instructions: 190000001 cycles: 612210601 heartbeat IPC: 0.25223 cumulative IPC: 0.234867 (Simulation time: 1 hr 49 min 32 sec) 
Heartbeat CPU 0 instructions: 200000000 cycles: 634443969 heartbeat IPC: 0.250116 cumulative IPC: 0.242371 (Simulation time: 1 hr 52 min 56 sec) 
Heartbeat CPU 2 instructions: 200000000 cycles: 653060792 heartbeat IPC: 0.243738 cumulative IPC: 0.235423 (Simulation time: 1 hr 55 min 44 sec) 
Heartbeat CPU 1 instructions: 200000000 cycles: 653373297 heartbeat IPC: 0.242613 cumulative IPC: 0.235307 (Simulation time: 1 hr 55 min 47 sec) 
Heartbeat CPU 3 instructions: 200000000 cycles: 653418175 heartbeat IPC: 0.242674 cumulative IPC: 0.235372 (Simulation time: 1 hr 55 min 48 sec) 
Heartbeat CPU 0 instructions: 210000002 cycles: 678588903 heartbeat IPC: 0.226527 cumulative IPC: 0.241315 (Simulation time: 1 hr 59 min 28 sec) 
Heartbeat CPU 2 instructions: 210000001 cycles: 697776538 heartbeat IPC: 0.223635 cumulative IPC: 0.234649 (Simulation time: 2 hr 2 min 24 sec) 
Heartbeat CPU 1 instructions: 210000003 cycles: 698153803 heartbeat IPC: 0.223312 cumulative IPC: 0.23452 (Simulation time: 2 hr 2 min 27 sec) 
Heartbeat CPU 3 instructions: 210000001 cycles: 698267006 heartbeat IPC: 0.222971 cumulative IPC: 0.234556 (Simulation time: 2 hr 2 min 28 sec) 
Heartbeat CPU 0 instructions: 220000000 cycles: 721523963 heartbeat IPC: 0.23291 cumulative IPC: 0.240803 (Simulation time: 2 hr 5 min 55 sec) 
Heartbeat CPU 2 instructions: 220000000 cycles: 740647826 heartbeat IPC: 0.233256 cumulative IPC: 0.234567 (Simulation time: 2 hr 9 min 5 sec) 
Heartbeat CPU 1 instructions: 220000000 cycles: 741503077 heartbeat IPC: 0.230684 cumulative IPC: 0.234291 (Simulation time: 2 hr 9 min 13 sec) 
Heartbeat CPU 3 instructions: 220000000 cycles: 741620928 heartbeat IPC: 0.23066 cumulative IPC: 0.234324 (Simulation time: 2 hr 9 min 14 sec) 
Heartbeat CPU 0 instructions: 230000002 cycles: 759485527 heartbeat IPC: 0.263424 cumulative IPC: 0.241959 (Simulation time: 2 hr 12 min 10 sec) 
Heartbeat CPU 2 instructions: 230000002 cycles: 778707368 heartbeat IPC: 0.262746 cumulative IPC: 0.235973 (Simulation time: 2 hr 15 min 24 sec) 
Heartbeat CPU 1 instructions: 230000002 cycles: 779883155 heartbeat IPC: 0.260552 cumulative IPC: 0.23561 (Simulation time: 2 hr 15 min 34 sec) 
Heartbeat CPU 3 instructions: 230000002 cycles: 780060247 heartbeat IPC: 0.26015 cumulative IPC: 0.235623 (Simulation time: 2 hr 15 min 36 sec) 
Heartbeat CPU 0 instructions: 240000002 cycles: 804771710 heartbeat IPC: 0.220818 cumulative IPC: 0.240745 (Simulation time: 2 hr 19 min 36 sec) 
Heartbeat CPU 2 instructions: 240000002 cycles: 824758161 heartbeat IPC: 0.217152 cumulative IPC: 0.234901 (Simulation time: 2 hr 22 min 33 sec) 
Heartbeat CPU 1 instructions: 240000002 cycles: 825964287 heartbeat IPC: 0.217009 cumulative IPC: 0.234552 (Simulation time: 2 hr 22 min 41 sec) 
Heartbeat CPU 3 instructions: 240000002 cycles: 826225662 heartbeat IPC: 0.216612 cumulative IPC: 0.23454 (Simulation time: 2 hr 22 min 43 sec) 
Heartbeat CPU 0 instructions: 250000003 cycles: 848704222 heartbeat IPC: 0.227622 cumulative IPC: 0.240052 (Simulation time: 2 hr 26 min 3 sec) 
Finished CPU 0 instructions: 200000002 cycles: 833359701 cumulative IPC: 0.239992 (Simulation time: 2 hr 26 min 12 sec) 
Heartbeat CPU 2 instructions: 250000002 cycles: 868802900 heartbeat IPC: 0.227042 cumulative IPC: 0.234496 (Simulation time: 2 hr 29 min 19 sec) 
Finished CPU 2 instructions: 200000000 cycles: 852916248 cumulative IPC: 0.23449 (Simulation time: 2 hr 29 min 23 sec) 
Heartbeat CPU 1 instructions: 250000003 cycles: 869967220 heartbeat IPC: 0.227258 cumulative IPC: 0.234176 (Simulation time: 2 hr 29 min 33 sec) 
Finished CPU 1 instructions: 200000001 cycles: 854138296 cumulative IPC: 0.234154 (Simulation time: 2 hr 29 min 35 sec) 
Heartbeat CPU 3 instructions: 250000003 cycles: 870329827 heartbeat IPC: 0.226736 cumulative IPC: 0.234137 (Simulation time: 2 hr 29 min 35 sec) 
Finished CPU 3 instructions: 200000000 cycles: 854201491 cumulative IPC: 0.234137 (Simulation time: 2 hr 29 min 35 sec) 

ChampSim completed all CPUs

Total Simulation Statistics (not including warmup)

CPU 0 cumulative IPC: 0.240642 instructions: 205556582 cycles: 854201491
ITLB TOTAL     ACCESS:   35969213  HIT:   35825116  MISS:     144097  HIT %:    99.5994  MISS %:   0.400612   MPKI: 0.701009
ITLB LOAD      ACCESS:          0  HIT:          0  MISS:          0  HIT %:       -nan  MISS %:       -nan   MPKI: 0
ITLB RFO       ACCESS:          0  HIT:          0  MISS:          0  HIT %:       -nan  MISS %:       -nan   MPKI: 0
ITLB PREFETCH  ACCESS:          0  HIT:          0  MISS:          0  HIT %:       -nan  MISS %:       -nan   MPKI: 0
ITLB WRITEBACK ACCESS:          0  HIT:          0  MISS:          0  HIT %:       -nan  MISS %:       -nan   MPKI: 0
DTLB TOTAL     ACCESS:   38940817  HIT:   37588929  MISS:    1351888  HIT %:    96.5284  MISS %:    3.47165   MPKI: 6.57672
DTLB LOAD      ACCESS:          0  HIT:          0  MISS:          0  HIT %:       -nan  MISS %:       -nan   MPKI: 0
DTLB RFO       ACCESS:          0  HIT:          0  MISS:          0  HIT %:       -nan  MISS %:       -nan   MPKI: 0
DTLB PREFETCH  ACCESS:          0  HIT:          0  MISS:          0  HIT %:       -nan  MISS %:       -nan   MPKI: 0
DTLB WRITEBACK ACCESS:          0  HIT:          0  MISS:          0  HIT %:       -nan  MISS %:       -nan   MPKI: 0
STLB TOTAL     ACCESS:    6569451  HIT:    5581976  MISS:     987475  HIT %:    84.9687  MISS %:    15.0313   MPKI: 4.80391
STLB LOAD      ACCESS:          0  HIT:          0  MISS:          0  HIT %:       -nan  MISS %:       -nan   MPKI: 0
STLB RFO       ACCESS:          0  HIT:          0  MISS:          0  HIT %:       -nan  MISS %:       -nan   MPKI: 0
STLB PREFETCH  ACCESS:          0  HIT:          0  MISS:          0  HIT %:       -nan  MISS %:       -nan   MPKI: 0
STLB WRITEBACK ACCESS:          0  HIT:          0  MISS:          0  HIT %:       -nan  MISS %:       -nan   MPKI: 0
L1D TOTAL     ACCESS:   49077473  HIT:   40569302  MISS:    8508171  HIT %:    82.6638  MISS %:    17.3362   MPKI: 41.3909
L1D LOAD      ACCESS:   33219319  HIT:   28564279  MISS:    4655040  HIT %:    85.9869  MISS %:    14.0131   MPKI: 22.646
L1D RFO       ACCESS:    9736253  HIT:    9645505  MISS:      90748  HIT %:    99.0679  MISS %:   0.932063   MPKI: 0.441475
L1D PREFETCH  ACCESS:    6121901  HIT:    2359518  MISS:    3762383  HIT %:    38.5422  MISS %:    61.4578   MPKI: 18.3034
L1D WRITEBACK ACCESS:          0  HIT:          0  MISS:          0  HIT %:       -nan  MISS %:       -nan   MPKI: 0
L1I TOTAL     ACCESS:   41483867  HIT:   40750719  MISS:     733148  HIT %:    98.2327  MISS %:    1.76731   MPKI: 3.56665
L1I LOAD      ACCESS:   41483867  HIT:   40750719  MISS:     733148  HIT %:    98.2327  MISS %:    1.76731   MPKI: 3.56665
L1I RFO       ACCESS:          0  HIT:          0  MISS:          0  HIT %:       -nan  MISS %:       -nan   MPKI: 0
L1I PREFETCH  ACCESS:          0  HIT:          0  MISS:          0  HIT %:       -nan  MISS %:       -nan   MPKI: 0
L1I WRITEBACK ACCESS:          0  HIT:          0  MISS:          0  HIT %:       -nan  MISS %:       -nan   MPKI: 0
L2C TOTAL     ACCESS:   10430347  HIT:    2338885  MISS:    8091462  HIT %:    22.4238  MISS %:    77.5762   MPKI: 39.3637
L2C LOAD      ACCESS:    5123390  HIT:     990680  MISS:    4132710  HIT %:    19.3364  MISS %:    80.6636   MPKI: 20.105
L2C RFO       ACCESS:      88300  HIT:      42244  MISS:      46056  HIT %:    47.8414  MISS %:    52.1586   MPKI: 0.224055
L2C PREFETCH  ACCESS:    4029544  HIT:     363004  MISS:    3666540  HIT %:    9.00856  MISS %:    90.9914   MPKI: 17.8371
L2C WRITEBACK ACCESS:     197221  HIT:     188776  MISS:       8445  HIT %:     95.718  MISS %:      4.282   MPKI: 0.0410836
PSCL5 TOTAL     ACCESS:     987475  HIT:     987475  MISS:          0  HIT %:        100  MISS %:          0   MPKI: 0
PSCL5 LOAD      ACCESS:          0  HIT:          0  MISS:          0  HIT %:       -nan  MISS %:       -nan   MPKI: 0
PSCL5 RFO       ACCESS:          0  HIT:          0  MISS:          0  HIT %:       -nan  MISS %:       -nan   MPKI: 0
PSCL5 PREFETCH  ACCESS:          0  HIT:          0  MISS:          0  HIT %:       -nan  MISS %:       -nan   MPKI: 0
PSCL5 WRITEBACK ACCESS:          0  HIT:          0  MISS:          0  HIT %:       -nan  MISS %:       -nan   MPKI: 0
PSCL4 TOTAL     ACCESS:     987475  HIT:     987475  MISS:          0  HIT %:        100  MISS %:          0   MPKI: 0
PSCL4 LOAD      ACCESS:          0  HIT:          0  MISS:          0  HIT %:       -nan  MISS %:       -nan   MPKI: 0
PSCL4 RFO       ACCESS:          0  HIT:          0  MISS:          0  HIT %:       -nan  MISS %:       -nan   MPKI: 0
PSCL4 PREFETCH  ACCESS:          0  HIT:          0  MISS:          0  HIT %:       -nan  MISS %:       -nan   MPKI: 0
PSCL4 WRITEBACK ACCESS:          0  HIT:          0  MISS:          0  HIT %:       -nan  MISS %:       -nan   MPKI: 0
PSCL3 TOTAL     ACCESS:     987475  HIT:     987475  MISS:          0  HIT %:        100  MISS %:          0   MPKI: 0
PSCL3 LOAD      ACCESS:          0  HIT:          0  MISS:          0  HIT %:       -nan  MISS %:       -nan   MPKI: 0
PSCL3 RFO       ACCESS:          0  HIT:          0  MISS:          0  HIT %:       -nan  MISS %:       -nan   MPKI: 0
PSCL3 PREFETCH  ACCESS:          0  HIT:          0  MISS:          0  HIT %:       -nan  MISS %:       -nan   MPKI: 0
PSCL3 WRITEBACK ACCESS:          0  HIT:          0  MISS:          0  HIT %:       -nan  MISS %:       -nan   MPKI: 0
PSCL2 TOTAL     ACCESS:     987475  HIT:     983058  MISS:       4417  HIT %:    99.5527  MISS %:   0.447302   MPKI: 0.021488
PSCL2 LOAD      ACCESS:          0  HIT:          0  MISS:          0  HIT %:       -nan  MISS %:       -nan   MPKI: 0
PSCL2 RFO       ACCESS:          0  HIT:          0  MISS:          0  HIT %:       -nan  MISS %:       -nan   MPKI: 0
PSCL2 PREFETCH  ACCESS:          0  HIT:          0  MISS:          0  HIT %:       -nan  MISS %:       -nan   MPKI: 0
PSCL2 WRITEBACK ACCESS:          0  HIT:          0  MISS:          0  HIT %:       -nan  MISS %:       -nan   MPKI: 0

stream: 
stream:times selected: 12309596
stream:pref_filled: 3759487
stream:pref_useful: 725985
stream:pref_late: 311087
stream:misses: 1698810
stream:misses_by_poll: 0

CS: 
CS:times selected: 382534
CS:pref_filled: 314459
CS:pref_useful: 202683
CS:pref_late: 5085
CS:misses: 50554
CS:misses_by_poll: 359

CPLX: 
CPLX:times selected: 11822625
CPLX:pref_filled: 642076
CPLX:pref_useful: 75513
CPLX:pref_late: 5530
CPLX:misses: 4807834
CPLX:misses_by_poll: 589

NL_L1: 
NL:times selected: 121275
NL:pref_filled: 39841
NL:pref_useful: 8848
NL:pref_late: 5469
NL:misses: 60557
NL:misses_by_poll: 0

total selections: 24636030
total_filled: 3762383
total_useful: 814477
total_late: 330480
total_polluted: 948
total_misses_after_warmup: 5642686
conflicts: 4752069
Degree Incremented Times: 11069
Degree Decremented Times: 2127798

L1 IP Table Write Accesses: 124765078
L1 IP Table Read Accesses: 120013009
L1 RST Write Accesses: 38013454
L1 RST Read Accesses: 76026908
L1 CSPT Write Accesses: 38013454
L1 CSPT Read Accesses: 74482055
L1 RR Filter Tag Write Accesses: 29168888
L1 RR Filter Tag Read Accesses: 1320098235
L1 IP Table Tag Write Accesses: 134259268
L1 IP Table Tag Read Accesses: 134259268
L1 RST Tag Write Accesses: 0
L1 RST Tag Read Accesses: 356525390
L1 RR Filter Write Accesses: 0
L1 RR Filter Read Accesses: 45564521
test: 28979076
LLC TOTAL     ACCESS:    8172920  HIT:    1145690  MISS:    7027230  HIT %:    14.0181  MISS %:    85.9819   MPKI: 34.1864
LLC LOAD      ACCESS:    4132708  HIT:     583690  MISS:    3549018  HIT %:    14.1237  MISS %:    85.8763   MPKI: 17.2654
LLC RFO       ACCESS:      46056  HIT:       7321  MISS:      38735  HIT %:    15.8959  MISS %:    84.1041   MPKI: 0.18844
LLC PREFETCH  ACCESS:    3666540  HIT:     449940  MISS:    3216600  HIT %:    12.2715  MISS %:    87.7285   MPKI: 15.6482
LLC WRITEBACK ACCESS:      89905  HIT:      84069  MISS:       5836  HIT %:    93.5087  MISS %:     6.4913   MPKI: 0.0283912

RAW hits: 333138
Loads Generated: 60599143
Loads sent to L1D: 60266005
Stores Generated: 10200144
Stores sent to L1D: 10200146

CPU 1 cumulative IPC: 0.234149 instructions: 200010020 cycles: 854201491
ITLB TOTAL     ACCESS:   35007291  HIT:   34867241  MISS:     140050  HIT %:    99.5999  MISS %:    0.40006   MPKI: 0.700215
ITLB LOAD      ACCESS:          0  HIT:          0  MISS:          0  HIT %:       -nan  MISS %:       -nan   MPKI: 0
ITLB RFO       ACCESS:          0  HIT:          0  MISS:          0  HIT %:       -nan  MISS %:       -nan   MPKI: 0
ITLB PREFETCH  ACCESS:          0  HIT:          0  MISS:          0  HIT %:       -nan  MISS %:       -nan   MPKI: 0
ITLB WRITEBACK ACCESS:          0  HIT:          0  MISS:          0  HIT %:       -nan  MISS %:       -nan   MPKI: 0
DTLB TOTAL     ACCESS:   37877253  HIT:   36558375  MISS:    1318878  HIT %:     96.518  MISS %:    3.48198   MPKI: 6.59406
DTLB LOAD      ACCESS:          0  HIT:          0  MISS:          0  HIT %:       -nan  MISS %:       -nan   MPKI: 0
DTLB RFO       ACCESS:          0  HIT:          0  MISS:          0  HIT %:       -nan  MISS %:       -nan   MPKI: 0
DTLB PREFETCH  ACCESS:          0  HIT:          0  MISS:          0  HIT %:       -nan  MISS %:       -nan   MPKI: 0
DTLB WRITEBACK ACCESS:          0  HIT:          0  MISS:          0  HIT %:       -nan  MISS %:       -nan   MPKI: 0
STLB TOTAL     ACCESS:    6404219  HIT:    5439324  MISS:     964895  HIT %:    84.9334  MISS %:    15.0666   MPKI: 4.82423
STLB LOAD      ACCESS:          0  HIT:          0  MISS:          0  HIT %:       -nan  MISS %:       -nan   MPKI: 0
STLB RFO       ACCESS:          0  HIT:          0  MISS:          0  HIT %:       -nan  MISS %:       -nan   MPKI: 0
STLB PREFETCH  ACCESS:          0  HIT:          0  MISS:          0  HIT %:       -nan  MISS %:       -nan   MPKI: 0
STLB WRITEBACK ACCESS:          0  HIT:          0  MISS:          0  HIT %:       -nan  MISS %:       -nan   MPKI: 0
L1D TOTAL     ACCESS:   47777201  HIT:   39486561  MISS:    8290640  HIT %:    82.6473  MISS %:    17.3527   MPKI: 41.4511
L1D LOAD      ACCESS:   32325806  HIT:   27782811  MISS:    4542995  HIT %:    85.9462  MISS %:    14.0538   MPKI: 22.7138
L1D RFO       ACCESS:    9464190  HIT:    9376788  MISS:      87402  HIT %:    99.0765  MISS %:   0.923502   MPKI: 0.436988
L1D PREFETCH  ACCESS:    5987205  HIT:    2326962  MISS:    3660243  HIT %:    38.8656  MISS %:    61.1344   MPKI: 18.3003
L1D WRITEBACK ACCESS:          0  HIT:          0  MISS:          0  HIT %:       -nan  MISS %:       -nan   MPKI: 0
L1I TOTAL     ACCESS:   40373370  HIT:   39660197  MISS:     713173  HIT %:    98.2336  MISS %:    1.76644   MPKI: 3.56569
L1I LOAD      ACCESS:   40373370  HIT:   39660197  MISS:     713173  HIT %:    98.2336  MISS %:    1.76644   MPKI: 3.56569
L1I RFO       ACCESS:          0  HIT:          0  MISS:          0  HIT %:       -nan  MISS %:       -nan   MPKI: 0
L1I PREFETCH  ACCESS:          0  HIT:          0  MISS:          0  HIT %:       -nan  MISS %:       -nan   MPKI: 0
L1I WRITEBACK ACCESS:          0  HIT:          0  MISS:          0  HIT %:       -nan  MISS %:       -nan   MPKI: 0
L2C TOTAL     ACCESS:   10163325  HIT:    2249285  MISS:    7914040  HIT %:    22.1314  MISS %:    77.8686   MPKI: 39.5682
L2C LOAD      ACCESS:    4995076  HIT:     946278  MISS:    4048798  HIT %:    18.9442  MISS %:    81.0558   MPKI: 20.243
L2C RFO       ACCESS:      85168  HIT:      40551  MISS:      44617  HIT %:     47.613  MISS %:     52.387   MPKI: 0.223074
L2C PREFETCH  ACCESS:    3923494  HIT:     343529  MISS:    3579965  HIT %:    8.75569  MISS %:    91.2443   MPKI: 17.8989
L2C WRITEBACK ACCESS:     190371  HIT:     181469  MISS:       8902  HIT %:    95.3239  MISS %:    4.67613   MPKI: 0.0445078
PSCL5 TOTAL     ACCESS:     964895  HIT:     964895  MISS:          0  HIT %:        100  MISS %:          0   MPKI: 0
PSCL5 LOAD      ACCESS:          0  HIT:          0  MISS:          0  HIT %:       -nan  MISS %:       -nan   MPKI: 0
PSCL5 RFO       ACCESS:          0  HIT:          0  MISS:          0  HIT %:       -nan  MISS %:       -nan   MPKI: 0
PSCL5 PREFETCH  ACCESS:          0  HIT:          0  MISS:          0  HIT %:       -nan  MISS %:       -nan   MPKI: 0
PSCL5 WRITEBACK ACCESS:          0  HIT:          0  MISS:          0  HIT %:       -nan  MISS %:       -nan   MPKI: 0
PSCL4 TOTAL     ACCESS:     964895  HIT:     964895  MISS:          0  HIT %:        100  MISS %:          0   MPKI: 0
PSCL4 LOAD      ACCESS:          0  HIT:          0  MISS:          0  HIT %:       -nan  MISS %:       -nan   MPKI: 0
PSCL4 RFO       ACCESS:          0  HIT:          0  MISS:          0  HIT %:       -nan  MISS %:       -nan   MPKI: 0
PSCL4 PREFETCH  ACCESS:          0  HIT:          0  MISS:          0  HIT %:       -nan  MISS %:       -nan   MPKI: 0
PSCL4 WRITEBACK ACCESS:          0  HIT:          0  MISS:          0  HIT %:       -nan  MISS %:       -nan   MPKI: 0
PSCL3 TOTAL     ACCESS:     964895  HIT:     964895  MISS:          0  HIT %:        100  MISS %:          0   MPKI: 0
PSCL3 LOAD      ACCESS:          0  HIT:          0  MISS:          0  HIT %:       -nan  MISS %:       -nan   MPKI: 0
PSCL3 RFO       ACCESS:          0  HIT:          0  MISS:          0  HIT %:       -nan  MISS %:       -nan   MPKI: 0
PSCL3 PREFETCH  ACCESS:          0  HIT:          0  MISS:          0  HIT %:       -nan  MISS %:       -nan   MPKI: 0
PSCL3 WRITEBACK ACCESS:          0  HIT:          0  MISS:          0  HIT %:       -nan  MISS %:       -nan   MPKI: 0
PSCL2 TOTAL     ACCESS:     964895  HIT:     960574  MISS:       4321  HIT %:    99.5522  MISS %:   0.447821   MPKI: 0.0216039
PSCL2 LOAD      ACCESS:          0  HIT:          0  MISS:          0  HIT %:       -nan  MISS %:       -nan   MPKI: 0
PSCL2 RFO       ACCESS:          0  HIT:          0  MISS:          0  HIT %:       -nan  MISS %:       -nan   MPKI: 0
PSCL2 PREFETCH  ACCESS:          0  HIT:          0  MISS:          0  HIT %:       -nan  MISS %:       -nan   MPKI: 0
PSCL2 WRITEBACK ACCESS:          0  HIT:          0  MISS:          0  HIT %:       -nan  MISS %:       -nan   MPKI: 0

stream: 
stream:times selected: 12049601
stream:pref_filled: 3603115
stream:pref_useful: 689864
stream:pref_late: 303266
stream:misses: 1675092
stream:misses_by_poll: 0

CS: 
CS:times selected: 371233
CS:pref_filled: 300355
CS:pref_useful: 193153
CS:pref_late: 4462
CS:misses: 51841
CS:misses_by_poll: 321

CPLX: 
CPLX:times selected: 11575769
CPLX:pref_filled: 611436
CPLX:pref_useful: 70397
CPLX:pref_late: 5317
CPLX:misses: 4739247
CPLX:misses_by_poll: 818

NL_L1: 
NL:times selected: 118538
NL:pref_filled: 37786
NL:pref_useful: 8204
NL:pref_late: 5350
NL:misses: 59386
NL:misses_by_poll: 20

total selections: 24115141
total_filled: 3660243
total_useful: 789283
total_late: 321658
total_polluted: 1159
total_misses_after_warmup: 5510289
conflicts: 4752069
Degree Incremented Times: 11069
Degree Decremented Times: 2127798

L1 IP Table Write Accesses: 124765078
L1 IP Table Read Accesses: 120013009
L1 RST Write Accesses: 38013454
L1 RST Read Accesses: 76026908
L1 CSPT Write Accesses: 38013454
L1 CSPT Read Accesses: 74482055
L1 RR Filter Tag Write Accesses: 29168888
L1 RR Filter Tag Read Accesses: 1320098235
L1 IP Table Tag Write Accesses: 134259268
L1 IP Table Tag Read Accesses: 134259268
L1 RST Tag Write Accesses: 0
L1 RST Tag Read Accesses: 356525390
L1 RR Filter Write Accesses: 0
L1 RR Filter Read Accesses: 45564521
test: 28979076
LLC TOTAL     ACCESS:    7993819  HIT:    1082342  MISS:    6911477  HIT %:    13.5397  MISS %:    86.4603   MPKI: 34.5557
LLC LOAD      ACCESS:    4048797  HIT:     554653  MISS:    3494144  HIT %:    13.6992  MISS %:    86.3008   MPKI: 17.4698
LLC RFO       ACCESS:      44617  HIT:       7478  MISS:      37139  HIT %:    16.7604  MISS %:    83.2396   MPKI: 0.185686
LLC PREFETCH  ACCESS:    3579965  HIT:     415815  MISS:    3164150  HIT %:    11.6151  MISS %:    88.3849   MPKI: 15.82
LLC WRITEBACK ACCESS:      88682  HIT:      85316  MISS:       3366  HIT %:    96.2044  MISS %:    3.79558   MPKI: 0.0168292

RAW hits: 321348
Loads Generated: 58992633
Loads sent to L1D: 58671285
Stores Generated: 9899782
Stores sent to L1D: 9899782

CPU 2 cumulative IPC: 0.234396 instructions: 200221269 cycles: 854201491
ITLB TOTAL     ACCESS:   35041231  HIT:   34901182  MISS:     140049  HIT %:    99.6003  MISS %:   0.399669   MPKI: 0.699471
ITLB LOAD      ACCESS:          0  HIT:          0  MISS:          0  HIT %:       -nan  MISS %:       -nan   MPKI: 0
ITLB RFO       ACCESS:          0  HIT:          0  MISS:          0  HIT %:       -nan  MISS %:       -nan   MPKI: 0
ITLB PREFETCH  ACCESS:          0  HIT:          0  MISS:          0  HIT %:       -nan  MISS %:       -nan   MPKI: 0
ITLB WRITEBACK ACCESS:          0  HIT:          0  MISS:          0  HIT %:       -nan  MISS %:       -nan   MPKI: 0
DTLB TOTAL     ACCESS:   37908842  HIT:   36588169  MISS:    1320673  HIT %:    96.5162  MISS %:    3.48381   MPKI: 6.59607
DTLB LOAD      ACCESS:          0  HIT:          0  MISS:          0  HIT %:       -nan  MISS %:       -nan   MPKI: 0
DTLB RFO       ACCESS:          0  HIT:          0  MISS:          0  HIT %:       -nan  MISS %:       -nan   MPKI: 0
DTLB PREFETCH  ACCESS:          0  HIT:          0  MISS:          0  HIT %:       -nan  MISS %:       -nan   MPKI: 0
DTLB WRITEBACK ACCESS:          0  HIT:          0  MISS:          0  HIT %:       -nan  MISS %:       -nan   MPKI: 0
STLB TOTAL     ACCESS:    6417788  HIT:    5451092  MISS:     966696  HIT %:    84.9372  MISS %:    15.0628   MPKI: 4.82814
STLB LOAD      ACCESS:          0  HIT:          0  MISS:          0  HIT %:       -nan  MISS %:       -nan   MPKI: 0
STLB RFO       ACCESS:          0  HIT:          0  MISS:          0  HIT %:       -nan  MISS %:       -nan   MPKI: 0
STLB PREFETCH  ACCESS:          0  HIT:          0  MISS:          0  HIT %:       -nan  MISS %:       -nan   MPKI: 0
STLB WRITEBACK ACCESS:          0  HIT:          0  MISS:          0  HIT %:       -nan  MISS %:       -nan   MPKI: 0
L1D TOTAL     ACCESS:   47825853  HIT:   39517950  MISS:    8307903  HIT %:    82.6288  MISS %:    17.3712   MPKI: 41.4936
L1D LOAD      ACCESS:   32356399  HIT:   27807954  MISS:    4548445  HIT %:    85.9427  MISS %:    14.0573   MPKI: 22.7171
L1D RFO       ACCESS:    9465129  HIT:    9377610  MISS:      87519  HIT %:    99.0754  MISS %:   0.924647   MPKI: 0.437111
L1D PREFETCH  ACCESS:    6004325  HIT:    2332386  MISS:    3671939  HIT %:    38.8451  MISS %:    61.1549   MPKI: 18.3394
L1D WRITEBACK ACCESS:          0  HIT:          0  MISS:          0  HIT %:       -nan  MISS %:       -nan   MPKI: 0
L1I TOTAL     ACCESS:   40414347  HIT:   39701189  MISS:     713158  HIT %:    98.2354  MISS %:    1.76462   MPKI: 3.56185
L1I LOAD      ACCESS:   40414347  HIT:   39701189  MISS:     713158  HIT %:    98.2354  MISS %:    1.76462   MPKI: 3.56185
L1I RFO       ACCESS:          0  HIT:          0  MISS:          0  HIT %:       -nan  MISS %:       -nan   MPKI: 0
L1I PREFETCH  ACCESS:          0  HIT:          0  MISS:          0  HIT %:       -nan  MISS %:       -nan   MPKI: 0
L1I WRITEBACK ACCESS:          0  HIT:          0  MISS:          0  HIT %:       -nan  MISS %:       -nan   MPKI: 0
L2C TOTAL     ACCESS:   10182616  HIT:    2252664  MISS:    7929952  HIT %:    22.1226  MISS %:    77.8774   MPKI: 39.6059
L2C LOAD      ACCESS:    5000257  HIT:     945896  MISS:    4054361  HIT %:    18.9169  MISS %:    81.0831   MPKI: 20.2494
L2C RFO       ACCESS:      85217  HIT:      40549  MISS:      44668  HIT %:    47.5832  MISS %:    52.4168   MPKI: 0.223093
L2C PREFETCH  ACCESS:    3935518  HIT:     345457  MISS:    3590061  HIT %:    8.77793  MISS %:    91.2221   MPKI: 17.9305
L2C WRITEBACK ACCESS:     190601  HIT:     182528  MISS:       8073  HIT %:    95.7645  MISS %:    4.23555   MPKI: 0.0403204
PSCL5 TOTAL     ACCESS:     966696  HIT:     966696  MISS:          0  HIT %:        100  MISS %:          0   MPKI: 0
PSCL5 LOAD      ACCESS:          0  HIT:          0  MISS:          0  HIT %:       -nan  MISS %:       -nan   MPKI: 0
PSCL5 RFO       ACCESS:          0  HIT:          0  MISS:          0  HIT %:       -nan  MISS %:       -nan   MPKI: 0
PSCL5 PREFETCH  ACCESS:          0  HIT:          0  MISS:          0  HIT %:       -nan  MISS %:       -nan   MPKI: 0
PSCL5 WRITEBACK ACCESS:          0  HIT:          0  MISS:          0  HIT %:       -nan  MISS %:       -nan   MPKI: 0
PSCL4 TOTAL     ACCESS:     966696  HIT:     966696  MISS:          0  HIT %:        100  MISS %:          0   MPKI: 0
PSCL4 LOAD      ACCESS:          0  HIT:          0  MISS:          0  HIT %:       -nan  MISS %:       -nan   MPKI: 0
PSCL4 RFO       ACCESS:          0  HIT:          0  MISS:          0  HIT %:       -nan  MISS %:       -nan   MPKI: 0
PSCL4 PREFETCH  ACCESS:          0  HIT:          0  MISS:          0  HIT %:       -nan  MISS %:       -nan   MPKI: 0
PSCL4 WRITEBACK ACCESS:          0  HIT:          0  MISS:          0  HIT %:       -nan  MISS %:       -nan   MPKI: 0
PSCL3 TOTAL     ACCESS:     966696  HIT:     966696  MISS:          0  HIT %:        100  MISS %:          0   MPKI: 0
PSCL3 LOAD      ACCESS:          0  HIT:          0  MISS:          0  HIT %:       -nan  MISS %:       -nan   MPKI: 0
PSCL3 RFO       ACCESS:          0  HIT:          0  MISS:          0  HIT %:       -nan  MISS %:       -nan   MPKI: 0
PSCL3 PREFETCH  ACCESS:          0  HIT:          0  MISS:          0  HIT %:       -nan  MISS %:       -nan   MPKI: 0
PSCL3 WRITEBACK ACCESS:          0  HIT:          0  MISS:          0  HIT %:       -nan  MISS %:       -nan   MPKI: 0
PSCL2 TOTAL     ACCESS:     966696  HIT:     962369  MISS:       4327  HIT %:    99.5524  MISS %:   0.447607   MPKI: 0.0216111
PSCL2 LOAD      ACCESS:          0  HIT:          0  MISS:          0  HIT %:       -nan  MISS %:       -nan   MPKI: 0
PSCL2 RFO       ACCESS:          0  HIT:          0  MISS:          0  HIT %:       -nan  MISS %:       -nan   MPKI: 0
PSCL2 PREFETCH  ACCESS:          0  HIT:          0  MISS:          0  HIT %:       -nan  MISS %:       -nan   MPKI: 0
PSCL2 WRITEBACK ACCESS:          0  HIT:          0  MISS:          0  HIT %:       -nan  MISS %:       -nan   MPKI: 0

stream: 
stream:times selected: 12058774
stream:pref_filled: 3689948
stream:pref_useful: 710104
stream:pref_late: 309603
stream:misses: 1670145
stream:misses_by_poll: 0

CS: 
CS:times selected: 371126
CS:pref_filled: 305668
CS:pref_useful: 197164
CS:pref_late: 4256
CS:misses: 48815
CS:misses_by_poll: 498

CPLX: 
CPLX:times selected: 11584995
CPLX:pref_filled: 630560
CPLX:pref_useful: 73637
CPLX:pref_late: 5358
CPLX:misses: 4726050
CPLX:misses_by_poll: 776

NL_L1: 
NL:times selected: 118454
NL:pref_filled: 39013
NL:pref_useful: 8597
NL:pref_late: 5539
NL:misses: 59325
NL:misses_by_poll: 31

total selections: 24133349
total_filled: 3671939
total_useful: 791640
total_late: 328135
total_polluted: 1305
total_misses_after_warmup: 5517742
conflicts: 4752069
Degree Incremented Times: 11069
Degree Decremented Times: 2127798

L1 IP Table Write Accesses: 124765078
L1 IP Table Read Accesses: 120013009
L1 RST Write Accesses: 38013454
L1 RST Read Accesses: 76026908
L1 CSPT Write Accesses: 38013454
L1 CSPT Read Accesses: 74482055
L1 RR Filter Tag Write Accesses: 29168888
L1 RR Filter Tag Read Accesses: 1320098235
L1 IP Table Tag Write Accesses: 134259268
L1 IP Table Tag Read Accesses: 134259268
L1 RST Tag Write Accesses: 0
L1 RST Tag Read Accesses: 356525390
L1 RR Filter Write Accesses: 0
L1 RR Filter Read Accesses: 45564521
test: 28979076
LLC TOTAL     ACCESS:    8010551  HIT:    1085672  MISS:    6924879  HIT %:     13.553  MISS %:     86.447   MPKI: 34.5861
LLC LOAD      ACCESS:    4054361  HIT:     555489  MISS:    3498872  HIT %:     13.701  MISS %:     86.299   MPKI: 17.475
LLC RFO       ACCESS:      44667  HIT:       7420  MISS:      37247  HIT %:    16.6118  MISS %:    83.3882   MPKI: 0.186029
LLC PREFETCH  ACCESS:    3590062  HIT:     417057  MISS:    3173005  HIT %:     11.617  MISS %:     88.383   MPKI: 15.8475
LLC WRITEBACK ACCESS:      88672  HIT:      85248  MISS:       3424  HIT %:    96.1386  MISS %:    3.86142   MPKI: 0.0171011

RAW hits: 321095
Loads Generated: 59056182
Loads sent to L1D: 58735087
Stores Generated: 9904103
Stores sent to L1D: 9904103

CPU 3 cumulative IPC: 0.234137 instructions: 200000000 cycles: 854201491
ITLB TOTAL     ACCESS:   35006464  HIT:   34866293  MISS:     140171  HIT %:    99.5996  MISS %:   0.400415   MPKI: 0.700855
ITLB LOAD      ACCESS:          0  HIT:          0  MISS:          0  HIT %:       -nan  MISS %:       -nan   MPKI: 0
ITLB RFO       ACCESS:          0  HIT:          0  MISS:          0  HIT %:       -nan  MISS %:       -nan   MPKI: 0
ITLB PREFETCH  ACCESS:          0  HIT:          0  MISS:          0  HIT %:       -nan  MISS %:       -nan   MPKI: 0
ITLB WRITEBACK ACCESS:          0  HIT:          0  MISS:          0  HIT %:       -nan  MISS %:       -nan   MPKI: 0
DTLB TOTAL     ACCESS:   37883893  HIT:   36565267  MISS:    1318626  HIT %:    96.5193  MISS %:     3.4807   MPKI: 6.59313
DTLB LOAD      ACCESS:          0  HIT:          0  MISS:          0  HIT %:       -nan  MISS %:       -nan   MPKI: 0
DTLB RFO       ACCESS:          0  HIT:          0  MISS:          0  HIT %:       -nan  MISS %:       -nan   MPKI: 0
DTLB PREFETCH  ACCESS:          0  HIT:          0  MISS:          0  HIT %:       -nan  MISS %:       -nan   MPKI: 0
DTLB WRITEBACK ACCESS:          0  HIT:          0  MISS:          0  HIT %:       -nan  MISS %:       -nan   MPKI: 0
STLB TOTAL     ACCESS:    6412733  HIT:    5448341  MISS:     964392  HIT %:    84.9613  MISS %:    15.0387   MPKI: 4.82196
STLB LOAD      ACCESS:          0  HIT:          0  MISS:          0  HIT %:       -nan  MISS %:       -nan   MPKI: 0
STLB RFO       ACCESS:          0  HIT:          0  MISS:          0  HIT %:       -nan  MISS %:       -nan   MPKI: 0
STLB PREFETCH  ACCESS:          0  HIT:          0  MISS:          0  HIT %:       -nan  MISS %:       -nan   MPKI: 0
STLB WRITEBACK ACCESS:          0  HIT:          0  MISS:          0  HIT %:       -nan  MISS %:       -nan   MPKI: 0
L1D TOTAL     ACCESS:   47799934  HIT:   39506940  MISS:    8292994  HIT %:    82.6506  MISS %:    17.3494   MPKI: 41.465
L1D LOAD      ACCESS:   32327580  HIT:   27786982  MISS:    4540598  HIT %:    85.9544  MISS %:    14.0456   MPKI: 22.703
L1D RFO       ACCESS:    9473274  HIT:    9385638  MISS:      87636  HIT %:    99.0749  MISS %:   0.925087   MPKI: 0.43818
L1D PREFETCH  ACCESS:    5999080  HIT:    2334320  MISS:    3664760  HIT %:    38.9113  MISS %:    61.0887   MPKI: 18.3238
L1D WRITEBACK ACCESS:          0  HIT:          0  MISS:          0  HIT %:       -nan  MISS %:       -nan   MPKI: 0
L1I TOTAL     ACCESS:   40372228  HIT:   39658593  MISS:     713635  HIT %:    98.2324  MISS %:    1.76764   MPKI: 3.56818
L1I LOAD      ACCESS:   40372228  HIT:   39658593  MISS:     713635  HIT %:    98.2324  MISS %:    1.76764   MPKI: 3.56818
L1I RFO       ACCESS:          0  HIT:          0  MISS:          0  HIT %:       -nan  MISS %:       -nan   MPKI: 0
L1I PREFETCH  ACCESS:          0  HIT:          0  MISS:          0  HIT %:       -nan  MISS %:       -nan   MPKI: 0
L1I WRITEBACK ACCESS:          0  HIT:          0  MISS:          0  HIT %:       -nan  MISS %:       -nan   MPKI: 0
L2C TOTAL     ACCESS:   10166059  HIT:    2262352  MISS:    7903707  HIT %:     22.254  MISS %:     77.746   MPKI: 39.5185
L2C LOAD      ACCESS:    4992667  HIT:     950624  MISS:    4042043  HIT %:    19.0404  MISS %:    80.9596   MPKI: 20.2102
L2C RFO       ACCESS:      85378  HIT:      40810  MISS:      44568  HIT %:    47.7992  MISS %:    52.2008   MPKI: 0.22284
L2C PREFETCH  ACCESS:    3928513  HIT:     351420  MISS:    3577093  HIT %:    8.94537  MISS %:    91.0546   MPKI: 17.8855
L2C WRITEBACK ACCESS:     190790  HIT:     182910  MISS:       7880  HIT %:    95.8698  MISS %:     4.1302   MPKI: 0.0394
PSCL5 TOTAL     ACCESS:     964392  HIT:     964392  MISS:          0  HIT %:        100  MISS %:          0   MPKI: 0
PSCL5 LOAD      ACCESS:          0  HIT:          0  MISS:          0  HIT %:       -nan  MISS %:       -nan   MPKI: 0
PSCL5 RFO       ACCESS:          0  HIT:          0  MISS:          0  HIT %:       -nan  MISS %:       -nan   MPKI: 0
PSCL5 PREFETCH  ACCESS:          0  HIT:          0  MISS:          0  HIT %:       -nan  MISS %:       -nan   MPKI: 0
PSCL5 WRITEBACK ACCESS:          0  HIT:          0  MISS:          0  HIT %:       -nan  MISS %:       -nan   MPKI: 0
PSCL4 TOTAL     ACCESS:     964392  HIT:     964392  MISS:          0  HIT %:        100  MISS %:          0   MPKI: 0
PSCL4 LOAD      ACCESS:          0  HIT:          0  MISS:          0  HIT %:       -nan  MISS %:       -nan   MPKI: 0
PSCL4 RFO       ACCESS:          0  HIT:          0  MISS:          0  HIT %:       -nan  MISS %:       -nan   MPKI: 0
PSCL4 PREFETCH  ACCESS:          0  HIT:          0  MISS:          0  HIT %:       -nan  MISS %:       -nan   MPKI: 0
PSCL4 WRITEBACK ACCESS:          0  HIT:          0  MISS:          0  HIT %:       -nan  MISS %:       -nan   MPKI: 0
PSCL3 TOTAL     ACCESS:     964392  HIT:     964392  MISS:          0  HIT %:        100  MISS %:          0   MPKI: 0
PSCL3 LOAD      ACCESS:          0  HIT:          0  MISS:          0  HIT %:       -nan  MISS %:       -nan   MPKI: 0
PSCL3 RFO       ACCESS:          0  HIT:          0  MISS:          0  HIT %:       -nan  MISS %:       -nan   MPKI: 0
PSCL3 PREFETCH  ACCESS:          0  HIT:          0  MISS:          0  HIT %:       -nan  MISS %:       -nan   MPKI: 0
PSCL3 WRITEBACK ACCESS:          0  HIT:          0  MISS:          0  HIT %:       -nan  MISS %:       -nan   MPKI: 0
PSCL2 TOTAL     ACCESS:     964392  HIT:     960073  MISS:       4319  HIT %:    99.5522  MISS %:   0.447847   MPKI: 0.021595
PSCL2 LOAD      ACCESS:          0  HIT:          0  MISS:          0  HIT %:       -nan  MISS %:       -nan   MPKI: 0
PSCL2 RFO       ACCESS:          0  HIT:          0  MISS:          0  HIT %:       -nan  MISS %:       -nan   MPKI: 0
PSCL2 PREFETCH  ACCESS:          0  HIT:          0  MISS:          0  HIT %:       -nan  MISS %:       -nan   MPKI: 0
PSCL2 WRITEBACK ACCESS:          0  HIT:          0  MISS:          0  HIT %:       -nan  MISS %:       -nan   MPKI: 0

stream: 
stream:times selected: 12046193
stream:pref_filled: 3682339
stream:pref_useful: 707906
stream:pref_late: 310212
stream:misses: 1670741
stream:misses_by_poll: 0

CS: 
CS:times selected: 371167
CS:pref_filled: 305695
CS:pref_useful: 197052
CS:pref_late: 4416
CS:misses: 48605
CS:misses_by_poll: 718

CPLX: 
CPLX:times selected: 11572285
CPLX:pref_filled: 629383
CPLX:pref_useful: 73483
CPLX:pref_late: 5405
CPLX:misses: 4727965
CPLX:misses_by_poll: 700

NL_L1: 
NL:times selected: 118453
NL:pref_filled: 39119
NL:pref_useful: 8716
NL:pref_late: 5362
NL:misses: 59378
NL:misses_by_poll: 0

total selections: 24108098
total_filled: 3664760
total_useful: 790221
total_late: 328734
total_polluted: 1418
total_misses_after_warmup: 5506771
conflicts: 4752069
Degree Incremented Times: 11069
Degree Decremented Times: 2127798

L1 IP Table Write Accesses: 124765078
L1 IP Table Read Accesses: 120013009
L1 RST Write Accesses: 38013454
L1 RST Read Accesses: 76026908
L1 CSPT Write Accesses: 38013454
L1 CSPT Read Accesses: 74482055
L1 RR Filter Tag Write Accesses: 29168888
L1 RR Filter Tag Read Accesses: 1320098235
L1 IP Table Tag Write Accesses: 134259268
L1 IP Table Tag Read Accesses: 134259268
L1 RST Tag Write Accesses: 0
L1 RST Tag Read Accesses: 356525390
L1 RR Filter Write Accesses: 0
L1 RR Filter Read Accesses: 45564521
test: 28979076
LLC TOTAL     ACCESS:    7983071  HIT:    1073612  MISS:    6909459  HIT %:    13.4486  MISS %:    86.5514   MPKI: 34.5473
LLC LOAD      ACCESS:    4042043  HIT:     550943  MISS:    3491100  HIT %:    13.6303  MISS %:    86.3697   MPKI: 17.4555
LLC RFO       ACCESS:      44566  HIT:       7229  MISS:      37337  HIT %:    16.2209  MISS %:    83.7791   MPKI: 0.186685
LLC PREFETCH  ACCESS:    3577094  HIT:     411967  MISS:    3165127  HIT %:    11.5168  MISS %:    88.4832   MPKI: 15.8256
LLC WRITEBACK ACCESS:      87245  HIT:      83353  MISS:       3892  HIT %:     95.539  MISS %:      4.461   MPKI: 0.01946

RAW hits: 321046
Loads Generated: 58989066
Loads sent to L1D: 58668020
Stores Generated: 9906418
Stores sent to L1D: 9906424

Region of Interest Statistics

CPU 0 cumulative IPC: 0.239992 instructions: 200000002 cycles: 833359701
ITLB TOTAL     ACCESS:   34990422  HIT:   34850634  MISS:     139788  HIT %:    99.6005  MISS %:   0.399504   MPKI: 0.69894
ITLB LOAD TRANSLATION ACCESS:   34990422  HIT:   34850634  MISS:     139788  HIT %:    99.6005  MISS %:   0.399504   MPKI: 0.69894
ITLB PREFETCH  REQUESTED:          0  ISSUED:          0  USEFUL:          0  USELESS:          0
ITLB USEFUL LOAD PREFETCHES:          0 PREFETCH ISSUED TO LOWER LEVEL:          0  ACCURACY: -nan
ITLB TIMELY PREFETCHES:          0 LATE PREFETCHES: 0 DROPPED PREFETCHES: 0
ITLB PREFETCHES SAME FILL-ORIGIN LEVEL: 0 DIFFERENT FILL-ORIGIN LEVEL: 0
ITLB AVERAGE MISS LATENCY: 18.3697 cycles
ITLB RQ	ACCESS:   41731782	FORWARD:          0	MERGED:    5722099	TO_CACHE:   36009683

DTLB TOTAL     ACCESS:   37859059  HIT:   36540046  MISS:    1319013  HIT %:     96.516  MISS %:    3.48401   MPKI: 6.59506
DTLB LOAD TRANSLATION ACCESS:   37859059  HIT:   36540046  MISS:    1319013  HIT %:     96.516  MISS %:    3.48401   MPKI: 6.59506
DTLB PREFETCH  REQUESTED:          0  ISSUED:          0  USEFUL:          0  USELESS:          0
DTLB USEFUL LOAD PREFETCHES:          0 PREFETCH ISSUED TO LOWER LEVEL:          0  ACCURACY: -nan
DTLB TIMELY PREFETCHES:          0 LATE PREFETCHES: 0 DROPPED PREFETCHES: 0
DTLB PREFETCHES SAME FILL-ORIGIN LEVEL: 0 DIFFERENT FILL-ORIGIN LEVEL: 0
DTLB AVERAGE MISS LATENCY: 84.4437 cycles
DTLB RQ	ACCESS:   44291684	FORWARD:          0	MERGED:    5121482	TO_CACHE:   39170202

STLB TOTAL     ACCESS:    6399163  HIT:    5433653  MISS:     965510  HIT %:    84.9119  MISS %:    15.0881   MPKI: 4.82755
STLB LOAD TRANSLATION ACCESS:    1458801  HIT:     493653  MISS:     965148  HIT %:    33.8396  MISS %:    66.1604   MPKI: 4.82574
STLB TRANSLATION FROM L1D PREFETCHER ACCESS:    4940362  HIT:    4940000  MISS:        362  HIT %:    99.9927  MISS %:  0.0073274   MPKI: 0.00181
STLB PREFETCH  REQUESTED:          0  ISSUED:          0  USEFUL:        370  USELESS:          0
STLB USEFUL LOAD PREFETCHES:        370 PREFETCH ISSUED TO LOWER LEVEL:          0  ACCURACY: inf
STLB TIMELY PREFETCHES:        370 LATE PREFETCHES: 0 DROPPED PREFETCHES: 0
STLB PREFETCHES SAME FILL-ORIGIN LEVEL: 0 DIFFERENT FILL-ORIGIN LEVEL: 0
STLB AVERAGE MISS LATENCY: 104.133 cycles
STLB RQ	ACCESS:    8898405	FORWARD:          0	MERGED:    2328747	TO_CACHE:    6569658

STLB Hit, L1D data hit: 0
STLB Hit, L2C data hit: 0
STLB Hit, LLC data hit: 0
STLB Hit, LLC data miss: 0
STLB STLB hints to L2: 0
L1D TOTAL     ACCESS:   47722906  HIT:   39423986  MISS:    8298920  HIT %:    82.6102  MISS %:    17.3898   MPKI: 41.4946
L1D LOAD      ACCESS:   32321143  HIT:   27778136  MISS:    4543007  HIT %:    85.9442  MISS %:    14.0558   MPKI: 22.715
L1D RFO       ACCESS:    9446041  HIT:    9358608  MISS:      87433  HIT %:    99.0744  MISS %:   0.925605   MPKI: 0.437165
L1D PREFETCH  ACCESS:    5955722  HIT:    2287242  MISS:    3668480  HIT %:    38.4041  MISS %:    61.5959   MPKI: 18.3424
L1D PREFETCH  REQUESTED:   14805379  ISSUED:   14805102  USEFUL:     814477  USELESS:    2947855
L1D USEFUL LOAD PREFETCHES:     814477 PREFETCH ISSUED TO LOWER LEVEL:    4029582  ACCURACY: 20.2124
L1D TIMELY PREFETCHES:     814477 LATE PREFETCHES: 264785 DROPPED PREFETCHES: 0
L1D PREFETCHES SAME FILL-ORIGIN LEVEL: 4029582 DIFFERENT FILL-ORIGIN LEVEL: 0
L1D AVERAGE MISS LATENCY: 228.44 cycles
L1D RQ	ACCESS:   60266005	FORWARD:          0	MERGED:   25260488	TO_CACHE:   34206369
L1D WQ	ACCESS:   10200146	FORWARD:     799409	MERGED:     114831	TO_CACHE:   10085315
L1D PQ	ACCESS:    7402682	FORWARD:          0	MERGED:          1	TO_CACHE:    7402420

L1D UNIQUE REGIONS ACCESSED: 0
L1D REGIONS CONFLICTS: 0
L1D Cross Page Prefetch Requests: 0
L1D Same Page Prefetch Requests: 9290482
L1D ROI Sum of L1D PQ occupancy: 81472545
L1D PREFETCHES PUSHED FROM L2C: 0
L1I TOTAL     ACCESS:   40360461  HIT:   39648577  MISS:     711884  HIT %:    98.2362  MISS %:    1.76382   MPKI: 3.55942
L1I LOAD      ACCESS:   40360461  HIT:   39648577  MISS:     711884  HIT %:    98.2362  MISS %:    1.76382   MPKI: 3.55942
L1I PREFETCH  REQUESTED:          0  ISSUED:          0  USEFUL:          0  USELESS:          0
L1I USEFUL LOAD PREFETCHES:          0 PREFETCH ISSUED TO LOWER LEVEL:          0  ACCURACY: -nan
L1I TIMELY PREFETCHES:          0 LATE PREFETCHES: 0 DROPPED PREFETCHES: 0
L1I PREFETCHES SAME FILL-ORIGIN LEVEL: 0 DIFFERENT FILL-ORIGIN LEVEL: 0
L1I AVERAGE MISS LATENCY: 30.9456 cycles
L1I RQ	ACCESS:   68856873	FORWARD:          0	MERGED:   27125091	TO_CACHE:   41731782

BTB TOTAL     ACCESS:   33168111  HIT:   32850118  MISS:     317993  HIT %:    99.0413  MISS %:   0.958731   MPKI: 1.58996
BTB BRANCH_DIRECT_JUMP	ACCESS:     524372  HIT:     522588  MISS:       1784
BTB BRANCH_INDIRECT	ACCESS:      94737  HIT:      37706  MISS:      57031
BTB BRANCH_CONDITIONAL	ACCESS:   27822485  HIT:   27813438  MISS:       9047
BTB BRANCH_DIRECT_CALL	ACCESS:    1304326  HIT:    1300919  MISS:       3407
BTB BRANCH_INDIRECT_CALL	ACCESS:    1058935  HIT:    1046798  MISS:      12137
BTB BRANCH_RETURN	ACCESS:    2363256  HIT:    2128669  MISS:     234587
BTB BRANCH_OTHER ACCESS:          0  HIT:          0  MISS:          0

L2C TOTAL     ACCESS:   10171004  HIT:    2277881  MISS:    7893123  HIT %:    22.3958  MISS %:    77.6042   MPKI: 39.4656
L2C LOAD      ACCESS:    4997116  HIT:     963761  MISS:    4033355  HIT %:    19.2863  MISS %:    80.7137   MPKI: 20.1668
L2C DATA LOAD MPKI: 19.3033
L2C INSTRUCTION LOAD MPKI: 0.86348
L2C RFO       ACCESS:      85096  HIT:      41060  MISS:      44036  HIT %:    48.2514  MISS %:    51.7486   MPKI: 0.22018
L2C PREFETCH  ACCESS:    3928513  HIT:     353343  MISS:    3575170  HIT %:    8.99432  MISS %:    91.0057   MPKI: 17.8758
L2C DATA PREFETCH MPKI: 17.8758
L2C INSTRUCTION PREFETCH MPKI: 0
L2C WRITEBACK ACCESS:     190448  HIT:     182293  MISS:       8155  HIT %:     95.718  MISS %:    4.28201   MPKI: 0.040775
L2C LOAD TRANSLATION ACCESS:     969334  HIT:     737260  MISS:     232074  HIT %:    76.0584  MISS %:    23.9416   MPKI: 1.16037
L2C TRANSLATION FROM L1D PREFETCHER ACCESS:        497  HIT:        164  MISS:        333  HIT %:     32.998  MISS %:     67.002   MPKI: 0.001665
L2C PREFETCH  REQUESTED:          0  ISSUED:          0  USEFUL:      33212  USELESS:    3633346
L2C USEFUL LOAD PREFETCHES:      33212 PREFETCH ISSUED TO LOWER LEVEL:    3666540  ACCURACY: 0.905813
L2C TIMELY PREFETCHES:      33212 LATE PREFETCHES: 0 DROPPED PREFETCHES: 0
L2C PREFETCHES SAME FILL-ORIGIN LEVEL: 0 DIFFERENT FILL-ORIGIN LEVEL: 0
L2C AVERAGE MISS LATENCY: 245.416 cycles
L2C RQ	ACCESS:    6203630	FORWARD:          0	MERGED:          0	TO_CACHE:    6203583
L2C WQ	ACCESS:     197221	FORWARD:         85	MERGED:          0	TO_CACHE:     197221
L2C PQ	ACCESS:    4029582	FORWARD:          0	MERGED:          0	TO_CACHE:    4029544

L2C Instructions Evicting Data 165491
L2C Translations Evicting Data 226222
L2C Data Evicting Data 7276304
L2C Instructions Evicting Instructions 6973
L2C Translations Evicting Instructions 4024
L2C Data Evicting Instructions 166525
L2C Instructions Evicting Translations 5126
L2C Translations Evicting Translations 7465
L2C Data Evicting Translations 224887
L2C Dense regions hint from L2: 0
PSCL5 TOTAL     ACCESS:     965510  HIT:     965510  MISS:          0  HIT %:        100  MISS %:          0   MPKI: 0
PSCL5 LOAD TRANSLATION ACCESS:     965148  HIT:     965148  MISS:          0  HIT %:        100  MISS %:          0   MPKI: 0
PSCL5 TRANSLATION FROM L1D PREFETCHER ACCESS:        362  HIT:        362  MISS:          0  HIT %:        100  MISS %:          0   MPKI: 0
PSCL5 PREFETCH  REQUESTED:          0  ISSUED:          0  USEFUL:          0  USELESS:          0
PSCL5 USEFUL LOAD PREFETCHES:          0 PREFETCH ISSUED TO LOWER LEVEL:          0  ACCURACY: -nan
PSCL5 TIMELY PREFETCHES:          0 LATE PREFETCHES: 0 DROPPED PREFETCHES: 0
PSCL5 PREFETCHES SAME FILL-ORIGIN LEVEL: 0 DIFFERENT FILL-ORIGIN LEVEL: 0

PSCL4 TOTAL     ACCESS:     965510  HIT:     965510  MISS:          0  HIT %:        100  MISS %:          0   MPKI: 0
PSCL4 LOAD TRANSLATION ACCESS:     965148  HIT:     965148  MISS:          0  HIT %:        100  MISS %:          0   MPKI: 0
PSCL4 TRANSLATION FROM L1D PREFETCHER ACCESS:        362  HIT:        362  MISS:          0  HIT %:        100  MISS %:          0   MPKI: 0
PSCL4 PREFETCH  REQUESTED:          0  ISSUED:          0  USEFUL:          0  USELESS:          0
PSCL4 USEFUL LOAD PREFETCHES:          0 PREFETCH ISSUED TO LOWER LEVEL:          0  ACCURACY: -nan
PSCL4 TIMELY PREFETCHES:          0 LATE PREFETCHES: 0 DROPPED PREFETCHES: 0
PSCL4 PREFETCHES SAME FILL-ORIGIN LEVEL: 0 DIFFERENT FILL-ORIGIN LEVEL: 0

PSCL3 TOTAL     ACCESS:     965510  HIT:     965510  MISS:          0  HIT %:        100  MISS %:          0   MPKI: 0
PSCL3 LOAD TRANSLATION ACCESS:     965148  HIT:     965148  MISS:          0  HIT %:        100  MISS %:          0   MPKI: 0
PSCL3 TRANSLATION FROM L1D PREFETCHER ACCESS:        362  HIT:        362  MISS:          0  HIT %:        100  MISS %:          0   MPKI: 0
PSCL3 PREFETCH  REQUESTED:          0  ISSUED:          0  USEFUL:          0  USELESS:          0
PSCL3 USEFUL LOAD PREFETCHES:          0 PREFETCH ISSUED TO LOWER LEVEL:          0  ACCURACY: -nan
PSCL3 TIMELY PREFETCHES:          0 LATE PREFETCHES: 0 DROPPED PREFETCHES: 0
PSCL3 PREFETCHES SAME FILL-ORIGIN LEVEL: 0 DIFFERENT FILL-ORIGIN LEVEL: 0

PSCL2 TOTAL     ACCESS:     965510  HIT:     961189  MISS:       4321  HIT %:    99.5525  MISS %:   0.447535   MPKI: 0.021605
PSCL2 LOAD TRANSLATION ACCESS:     965283  HIT:     960962  MISS:       4321  HIT %:    99.5524  MISS %:   0.447641   MPKI: 0.021605
PSCL2 TRANSLATION FROM L1D PREFETCHER ACCESS:        227  HIT:        227  MISS:          0  HIT %:        100  MISS %:          0   MPKI: 0
PSCL2 PREFETCH  REQUESTED:          0  ISSUED:          0  USEFUL:          0  USELESS:          0
PSCL2 USEFUL LOAD PREFETCHES:          0 PREFETCH ISSUED TO LOWER LEVEL:          0  ACCURACY: -nan
PSCL2 TIMELY PREFETCHES:          0 LATE PREFETCHES: 0 DROPPED PREFETCHES: 0
PSCL2 PREFETCHES SAME FILL-ORIGIN LEVEL: 0 DIFFERENT FILL-ORIGIN LEVEL: 0

LLC TOTAL     ACCESS:    7971203  HIT:    1101430  MISS:    6869773  HIT %:    13.8176  MISS %:    86.1824   MPKI: 34.3489
LLC LOAD      ACCESS:    4033353  HIT:     562620  MISS:    3470733  HIT %:    13.9492  MISS %:    86.0508   MPKI: 17.3537
LLC RFO       ACCESS:      44036  HIT:       7017  MISS:      37019  HIT %:    15.9347  MISS %:    84.0653   MPKI: 0.185095
LLC PREFETCH  ACCESS:    3575170  HIT:     430957  MISS:    3144213  HIT %:    12.0542  MISS %:    87.9458   MPKI: 15.7211
LLC WRITEBACK ACCESS:      86237  HIT:      80589  MISS:       5648  HIT %:    93.4506  MISS %:    6.54939   MPKI: 0.02824
LLC LOAD TRANSLATION ACCESS:     232074  HIT:      20130  MISS:     211944  HIT %:    8.67396  MISS %:     91.326   MPKI: 1.05972
LLC TRANSLATION FROM L1D PREFETCHER ACCESS:        333  HIT:        117  MISS:        216  HIT %:    35.1351  MISS %:    64.8649   MPKI: 0.00108
LLC PREFETCH  REQUESTED:          0  ISSUED:          0  USEFUL:      96851  USELESS:   12617157
LLC USEFUL LOAD PREFETCHES:      96851 PREFETCH ISSUED TO LOWER LEVEL:   12718888  ACCURACY: 0.761474
LLC TIMELY PREFETCHES:      96851 LATE PREFETCHES: 0 DROPPED PREFETCHES: 0
LLC PREFETCHES SAME FILL-ORIGIN LEVEL: 0 DIFFERENT FILL-ORIGIN LEVEL: 0
LLC AVERAGE MISS LATENCY: 998.605 cycles
LLC RQ	ACCESS:   17392207	FORWARD:          0	MERGED:          0	TO_CACHE:   17392201
LLC WQ	ACCESS:     354504	FORWARD:          6	MERGED:          0	TO_CACHE:     354504
LLC PQ	ACCESS:   14413666	FORWARD:          0	MERGED:          0	TO_CACHE:   14413666

LLC Dense regions hint to LLC: 0

RAW hits: 320557
Loads Generated: 58990105
Loads sent to L1D: 58669545
Stores Generated: 9887849
Stores sent to L1D: 9887850
Major fault: 0 Minor fault: 11455
Allocated PAGES: 45757

CPU 1 cumulative IPC: 0.234154 instructions: 200000001 cycles: 854138296
ITLB TOTAL     ACCESS:   35005568  HIT:   34865518  MISS:     140050  HIT %:    99.5999  MISS %:   0.400079   MPKI: 0.70025
ITLB LOAD TRANSLATION ACCESS:   35005568  HIT:   34865518  MISS:     140050  HIT %:    99.5999  MISS %:   0.400079   MPKI: 0.70025
ITLB PREFETCH  REQUESTED:          0  ISSUED:          0  USEFUL:          0  USELESS:          0
ITLB USEFUL LOAD PREFETCHES:          0 PREFETCH ISSUED TO LOWER LEVEL:          0  ACCURACY: -nan
ITLB TIMELY PREFETCHES:          0 LATE PREFETCHES: 0 DROPPED PREFETCHES: 0
ITLB PREFETCHES SAME FILL-ORIGIN LEVEL: 0 DIFFERENT FILL-ORIGIN LEVEL: 0
ITLB AVERAGE MISS LATENCY: 17.0739 cycles
ITLB RQ	ACCESS:   40614358	FORWARD:          0	MERGED:    5567890	TO_CACHE:   35046468

DTLB TOTAL     ACCESS:   37875735  HIT:   36556943  MISS:    1318792  HIT %:    96.5181  MISS %:    3.48189   MPKI: 6.59396
DTLB LOAD TRANSLATION ACCESS:   37875735  HIT:   36556943  MISS:    1318792  HIT %:    96.5181  MISS %:    3.48189   MPKI: 6.59396
DTLB PREFETCH  REQUESTED:          0  ISSUED:          0  USEFUL:          0  USELESS:          0
DTLB USEFUL LOAD PREFETCHES:          0 PREFETCH ISSUED TO LOWER LEVEL:          0  ACCURACY: -nan
DTLB TIMELY PREFETCHES:          0 LATE PREFETCHES: 0 DROPPED PREFETCHES: 0
DTLB PREFETCHES SAME FILL-ORIGIN LEVEL: 0 DIFFERENT FILL-ORIGIN LEVEL: 0
DTLB AVERAGE MISS LATENCY: 84.1816 cycles
DTLB RQ	ACCESS:   43081324	FORWARD:          0	MERGED:    4985203	TO_CACHE:   38096121

STLB TOTAL     ACCESS:    6403874  HIT:    5439064  MISS:     964810  HIT %:     84.934  MISS %:     15.066   MPKI: 4.82405
STLB LOAD TRANSLATION ACCESS:    1458842  HIT:     494395  MISS:     964447  HIT %:    33.8896  MISS %:    66.1104   MPKI: 4.82223
STLB TRANSLATION FROM L1D PREFETCHER ACCESS:    4945032  HIT:    4944669  MISS:        363  HIT %:    99.9927  MISS %:  0.0073407   MPKI: 0.001815
STLB PREFETCH  REQUESTED:          0  ISSUED:          0  USEFUL:        363  USELESS:          0
STLB USEFUL LOAD PREFETCHES:        363 PREFETCH ISSUED TO LOWER LEVEL:          0  ACCURACY: inf
STLB TIMELY PREFETCHES:        363 LATE PREFETCHES: 0 DROPPED PREFETCHES: 0
STLB PREFETCHES SAME FILL-ORIGIN LEVEL: 0 DIFFERENT FILL-ORIGIN LEVEL: 0
STLB AVERAGE MISS LATENCY: 104.006 cycles
STLB RQ	ACCESS:    8695257	FORWARD:          0	MERGED:    2290825	TO_CACHE:    6404432

STLB Hit, L1D data hit: 0
STLB Hit, L2C data hit: 0
STLB Hit, LLC data hit: 0
STLB Hit, LLC data miss: 0
STLB STLB hints to L2: 0
L1D TOTAL     ACCESS:   47775220  HIT:   39485125  MISS:    8290095  HIT %:    82.6477  MISS %:    17.3523   MPKI: 41.4505
L1D LOAD      ACCESS:   32324312  HIT:   27781629  MISS:    4542683  HIT %:    85.9465  MISS %:    14.0535   MPKI: 22.7134
L1D RFO       ACCESS:    9463986  HIT:    9376584  MISS:      87402  HIT %:    99.0765  MISS %:   0.923522   MPKI: 0.43701
L1D PREFETCH  ACCESS:    5986922  HIT:    2326912  MISS:    3660010  HIT %:    38.8666  MISS %:    61.1334   MPKI: 18.3
L1D PREFETCH  REQUESTED:   14473359  ISSUED:   14472934  USEFUL:     789283  USELESS:    2870849
L1D USEFUL LOAD PREFETCHES:     789283 PREFETCH ISSUED TO LOWER LEVEL:    3923530  ACCURACY: 20.1167
L1D TIMELY PREFETCHES:     789283 LATE PREFETCHES: 261080 DROPPED PREFETCHES: 0
L1D PREFETCHES SAME FILL-ORIGIN LEVEL: 3923530 DIFFERENT FILL-ORIGIN LEVEL: 0
L1D AVERAGE MISS LATENCY: 231.005 cycles
L1D RQ	ACCESS:   58671285	FORWARD:          0	MERGED:   24601302	TO_CACHE:   33292982
L1D WQ	ACCESS:    9899782	FORWARD:     777264	MERGED:     111440	TO_CACHE:    9788342
L1D PQ	ACCESS:    7236605	FORWARD:          0	MERGED:         13	TO_CACHE:    7236329

L1D UNIQUE REGIONS ACCESSED: 0
L1D REGIONS CONFLICTS: 0
L1D Cross Page Prefetch Requests: 0
L1D Same Page Prefetch Requests: 8888700
L1D ROI Sum of L1D PQ occupancy: 79656056
L1D PREFETCHES PUSHED FROM L2C: 0
L1I TOTAL     ACCESS:   40371381  HIT:   39658208  MISS:     713173  HIT %:    98.2335  MISS %:    1.76653   MPKI: 3.56586
L1I LOAD      ACCESS:   40371381  HIT:   39658208  MISS:     713173  HIT %:    98.2335  MISS %:    1.76653   MPKI: 3.56586
L1I PREFETCH  REQUESTED:          0  ISSUED:          0  USEFUL:          0  USELESS:          0
L1I USEFUL LOAD PREFETCHES:          0 PREFETCH ISSUED TO LOWER LEVEL:          0  ACCURACY: -nan
L1I TIMELY PREFETCHES:          0 LATE PREFETCHES: 0 DROPPED PREFETCHES: 0
L1I PREFETCHES SAME FILL-ORIGIN LEVEL: 0 DIFFERENT FILL-ORIGIN LEVEL: 0
L1I AVERAGE MISS LATENCY: 29.2384 cycles
L1I RQ	ACCESS:   67029076	FORWARD:          0	MERGED:   26414718	TO_CACHE:   40614358

BTB TOTAL     ACCESS:   33166966  HIT:   32847921  MISS:     319045  HIT %:    99.0381  MISS %:   0.961936   MPKI: 1.59522
BTB BRANCH_DIRECT_JUMP	ACCESS:     525377  HIT:     523518  MISS:       1859
BTB BRANCH_INDIRECT	ACCESS:      94810  HIT:      37749  MISS:      57061
BTB BRANCH_CONDITIONAL	ACCESS:   27818674  HIT:   27809399  MISS:       9275
BTB BRANCH_DIRECT_CALL	ACCESS:    1305006  HIT:    1301506  MISS:       3500
BTB BRANCH_INDIRECT_CALL	ACCESS:    1059049  HIT:    1046824  MISS:      12225
BTB BRANCH_RETURN	ACCESS:    2364050  HIT:    2128925  MISS:     235125
BTB BRANCH_OTHER ACCESS:          0  HIT:          0  MISS:          0

L2C TOTAL     ACCESS:   10162695  HIT:    2249222  MISS:    7913473  HIT %:    22.1321  MISS %:    77.8679   MPKI: 39.5674
L2C LOAD      ACCESS:    4994783  HIT:     946278  MISS:    4048505  HIT %:    18.9453  MISS %:    81.0547   MPKI: 20.2425
L2C DATA LOAD MPKI: 19.3549
L2C INSTRUCTION LOAD MPKI: 0.887595
L2C RFO       ACCESS:      85168  HIT:      40551  MISS:      44617  HIT %:     47.613  MISS %:     52.387   MPKI: 0.223085
L2C PREFETCH  ACCESS:    3923242  HIT:     343529  MISS:    3579713  HIT %:    8.75625  MISS %:    91.2437   MPKI: 17.8986
L2C DATA PREFETCH MPKI: 17.8986
L2C INSTRUCTION PREFETCH MPKI: 0
L2C WRITEBACK ACCESS:     190371  HIT:     181469  MISS:       8902  HIT %:    95.3239  MISS %:    4.67613   MPKI: 0.04451
L2C LOAD TRANSLATION ACCESS:     968633  HIT:     737229  MISS:     231404  HIT %:    76.1103  MISS %:    23.8897   MPKI: 1.15702
L2C TRANSLATION FROM L1D PREFETCHER ACCESS:        498  HIT:        166  MISS:        332  HIT %:    33.3333  MISS %:    66.6667   MPKI: 0.00166
L2C PREFETCH  REQUESTED:          0  ISSUED:          0  USEFUL:      32949  USELESS:    3546712
L2C USEFUL LOAD PREFETCHES:      32949 PREFETCH ISSUED TO LOWER LEVEL:    3579967  ACCURACY: 0.920372
L2C TIMELY PREFETCHES:      32949 LATE PREFETCHES: 0 DROPPED PREFETCHES: 0
L2C PREFETCHES SAME FILL-ORIGIN LEVEL: 0 DIFFERENT FILL-ORIGIN LEVEL: 0
L2C AVERAGE MISS LATENCY: 247.573 cycles
L2C RQ	ACCESS:    6049502	FORWARD:          0	MERGED:          0	TO_CACHE:    6049461
L2C WQ	ACCESS:     190371	FORWARD:         75	MERGED:          0	TO_CACHE:     190371
L2C PQ	ACCESS:    3923530	FORWARD:          0	MERGED:          0	TO_CACHE:    3923496

L2C Instructions Evicting Data 165673
L2C Translations Evicting Data 221702
L2C Data Evicting Data 7109162
L2C Instructions Evicting Instructions 6101
L2C Translations Evicting Instructions 2887
L2C Data Evicting Instructions 167867
L2C Instructions Evicting Translations 5745
L2C Translations Evicting Translations 7169
L2C Data Evicting Translations 218832
L2C Dense regions hint from L2: 0
PSCL5 TOTAL     ACCESS:     964810  HIT:     964810  MISS:          0  HIT %:        100  MISS %:          0   MPKI: 0
PSCL5 LOAD TRANSLATION ACCESS:     964447  HIT:     964447  MISS:          0  HIT %:        100  MISS %:          0   MPKI: 0
PSCL5 TRANSLATION FROM L1D PREFETCHER ACCESS:        363  HIT:        363  MISS:          0  HIT %:        100  MISS %:          0   MPKI: 0
PSCL5 PREFETCH  REQUESTED:          0  ISSUED:          0  USEFUL:          0  USELESS:          0
PSCL5 USEFUL LOAD PREFETCHES:          0 PREFETCH ISSUED TO LOWER LEVEL:          0  ACCURACY: -nan
PSCL5 TIMELY PREFETCHES:          0 LATE PREFETCHES: 0 DROPPED PREFETCHES: 0
PSCL5 PREFETCHES SAME FILL-ORIGIN LEVEL: 0 DIFFERENT FILL-ORIGIN LEVEL: 0

PSCL4 TOTAL     ACCESS:     964810  HIT:     964810  MISS:          0  HIT %:        100  MISS %:          0   MPKI: 0
PSCL4 LOAD TRANSLATION ACCESS:     964447  HIT:     964447  MISS:          0  HIT %:        100  MISS %:          0   MPKI: 0
PSCL4 TRANSLATION FROM L1D PREFETCHER ACCESS:        363  HIT:        363  MISS:          0  HIT %:        100  MISS %:          0   MPKI: 0
PSCL4 PREFETCH  REQUESTED:          0  ISSUED:          0  USEFUL:          0  USELESS:          0
PSCL4 USEFUL LOAD PREFETCHES:          0 PREFETCH ISSUED TO LOWER LEVEL:          0  ACCURACY: -nan
PSCL4 TIMELY PREFETCHES:          0 LATE PREFETCHES: 0 DROPPED PREFETCHES: 0
PSCL4 PREFETCHES SAME FILL-ORIGIN LEVEL: 0 DIFFERENT FILL-ORIGIN LEVEL: 0

PSCL3 TOTAL     ACCESS:     964810  HIT:     964810  MISS:          0  HIT %:        100  MISS %:          0   MPKI: 0
PSCL3 LOAD TRANSLATION ACCESS:     964447  HIT:     964447  MISS:          0  HIT %:        100  MISS %:          0   MPKI: 0
PSCL3 TRANSLATION FROM L1D PREFETCHER ACCESS:        363  HIT:        363  MISS:          0  HIT %:        100  MISS %:          0   MPKI: 0
PSCL3 PREFETCH  REQUESTED:          0  ISSUED:          0  USEFUL:          0  USELESS:          0
PSCL3 USEFUL LOAD PREFETCHES:          0 PREFETCH ISSUED TO LOWER LEVEL:          0  ACCURACY: -nan
PSCL3 TIMELY PREFETCHES:          0 LATE PREFETCHES: 0 DROPPED PREFETCHES: 0
PSCL3 PREFETCHES SAME FILL-ORIGIN LEVEL: 0 DIFFERENT FILL-ORIGIN LEVEL: 0

PSCL2 TOTAL     ACCESS:     964810  HIT:     960489  MISS:       4321  HIT %:    99.5521  MISS %:    0.44786   MPKI: 0.021605
PSCL2 LOAD TRANSLATION ACCESS:     964582  HIT:     960261  MISS:       4321  HIT %:     99.552  MISS %:   0.447966   MPKI: 0.021605
PSCL2 TRANSLATION FROM L1D PREFETCHER ACCESS:        228  HIT:        228  MISS:          0  HIT %:        100  MISS %:          0   MPKI: 0
PSCL2 PREFETCH  REQUESTED:          0  ISSUED:          0  USEFUL:          0  USELESS:          0
PSCL2 USEFUL LOAD PREFETCHES:          0 PREFETCH ISSUED TO LOWER LEVEL:          0  ACCURACY: -nan
PSCL2 TIMELY PREFETCHES:          0 LATE PREFETCHES: 0 DROPPED PREFETCHES: 0
PSCL2 PREFETCHES SAME FILL-ORIGIN LEVEL: 0 DIFFERENT FILL-ORIGIN LEVEL: 0

LLC TOTAL     ACCESS:    7993238  HIT:    1082326  MISS:    6910912  HIT %:    13.5405  MISS %:    86.4595   MPKI: 34.5546
LLC LOAD      ACCESS:    4048504  HIT:     554652  MISS:    3493852  HIT %:    13.7002  MISS %:    86.2998   MPKI: 17.4693
LLC RFO       ACCESS:      44617  HIT:       7478  MISS:      37139  HIT %:    16.7604  MISS %:    83.2396   MPKI: 0.185695
LLC PREFETCH  ACCESS:    3579713  HIT:     415815  MISS:    3163898  HIT %:    11.6159  MISS %:    88.3841   MPKI: 15.8195
LLC WRITEBACK ACCESS:      88668  HIT:      85302  MISS:       3366  HIT %:    96.2038  MISS %:    3.79618   MPKI: 0.01683
LLC LOAD TRANSLATION ACCESS:     231404  HIT:      19023  MISS:     212381  HIT %:    8.22069  MISS %:    91.7793   MPKI: 1.0619
LLC TRANSLATION FROM L1D PREFETCHER ACCESS:        332  HIT:         56  MISS:        276  HIT %:    16.8675  MISS %:    83.1325   MPKI: 0.00138
LLC PREFETCH  REQUESTED:          0  ISSUED:          0  USEFUL:      96851  USELESS:   12617157
LLC USEFUL LOAD PREFETCHES:      96851 PREFETCH ISSUED TO LOWER LEVEL:   12718888  ACCURACY: 0.761474
LLC TIMELY PREFETCHES:      96851 LATE PREFETCHES: 0 DROPPED PREFETCHES: 0
LLC PREFETCHES SAME FILL-ORIGIN LEVEL: 0 DIFFERENT FILL-ORIGIN LEVEL: 0
LLC AVERAGE MISS LATENCY: 992.661 cycles
LLC RQ	ACCESS:   17392207	FORWARD:          0	MERGED:          0	TO_CACHE:   17392201
LLC WQ	ACCESS:     354504	FORWARD:          6	MERGED:          0	TO_CACHE:     354504
LLC PQ	ACCESS:   14413666	FORWARD:          0	MERGED:          0	TO_CACHE:   14413666

LLC Dense regions hint to LLC: 0

RAW hits: 321347
Loads Generated: 58989622
Loads sent to L1D: 58668273
Stores Generated: 9899578
Stores sent to L1D: 9899578
Major fault: 0 Minor fault: 11434
Allocated PAGES: 45757

CPU 2 cumulative IPC: 0.23449 instructions: 200000000 cycles: 852916248
ITLB TOTAL     ACCESS:   35002507  HIT:   34862458  MISS:     140049  HIT %:    99.5999  MISS %:   0.400111   MPKI: 0.700245
ITLB LOAD TRANSLATION ACCESS:   35002507  HIT:   34862458  MISS:     140049  HIT %:    99.5999  MISS %:   0.400111   MPKI: 0.700245
ITLB PREFETCH  REQUESTED:          0  ISSUED:          0  USEFUL:          0  USELESS:          0
ITLB USEFUL LOAD PREFETCHES:          0 PREFETCH ISSUED TO LOWER LEVEL:          0  ACCURACY: -nan
ITLB TIMELY PREFETCHES:          0 LATE PREFETCHES: 0 DROPPED PREFETCHES: 0
ITLB PREFETCHES SAME FILL-ORIGIN LEVEL: 0 DIFFERENT FILL-ORIGIN LEVEL: 0
ITLB AVERAGE MISS LATENCY: 18.0851 cycles
ITLB RQ	ACCESS:   40654660	FORWARD:          0	MERGED:    5574154	TO_CACHE:   35080506

DTLB TOTAL     ACCESS:   37874537  HIT:   36555752  MISS:    1318785  HIT %:     96.518  MISS %:    3.48198   MPKI: 6.59392
DTLB LOAD TRANSLATION ACCESS:   37874537  HIT:   36555752  MISS:    1318785  HIT %:     96.518  MISS %:    3.48198   MPKI: 6.59392
DTLB PREFETCH  REQUESTED:          0  ISSUED:          0  USEFUL:          0  USELESS:          0
DTLB USEFUL LOAD PREFETCHES:          0 PREFETCH ISSUED TO LOWER LEVEL:          0  ACCURACY: -nan
DTLB TIMELY PREFETCHES:          0 LATE PREFETCHES: 0 DROPPED PREFETCHES: 0
DTLB PREFETCHES SAME FILL-ORIGIN LEVEL: 0 DIFFERENT FILL-ORIGIN LEVEL: 0
DTLB AVERAGE MISS LATENCY: 83.9729 cycles
DTLB RQ	ACCESS:   43118245	FORWARD:          0	MERGED:    4988986	TO_CACHE:   38129259

STLB TOTAL     ACCESS:    6409863  HIT:    5445052  MISS:     964811  HIT %:     84.948  MISS %:     15.052   MPKI: 4.82406
STLB LOAD TRANSLATION ACCESS:    1458834  HIT:     494384  MISS:     964450  HIT %:     33.889  MISS %:     66.111   MPKI: 4.82225
STLB TRANSLATION FROM L1D PREFETCHER ACCESS:    4951029  HIT:    4950668  MISS:        361  HIT %:    99.9927  MISS %: 0.00729141   MPKI: 0.001805
STLB PREFETCH  REQUESTED:          0  ISSUED:          0  USEFUL:        361  USELESS:          0
STLB USEFUL LOAD PREFETCHES:        361 PREFETCH ISSUED TO LOWER LEVEL:          0  ACCURACY: inf
STLB TIMELY PREFETCHES:        361 LATE PREFETCHES: 0 DROPPED PREFETCHES: 0
STLB PREFETCHES SAME FILL-ORIGIN LEVEL: 0 DIFFERENT FILL-ORIGIN LEVEL: 0
STLB AVERAGE MISS LATENCY: 103.802 cycles
STLB RQ	ACCESS:    8718994	FORWARD:          0	MERGED:    2301061	TO_CACHE:    6417933

STLB Hit, L1D data hit: 0
STLB Hit, L2C data hit: 0
STLB Hit, LLC data hit: 0
STLB Hit, LLC data miss: 0
STLB STLB hints to L2: 0
L1D TOTAL     ACCESS:   47781410  HIT:   39485731  MISS:    8295679  HIT %:    82.6383  MISS %:    17.3617   MPKI: 41.4784
L1D LOAD      ACCESS:   32323116  HIT:   27781630  MISS:    4541486  HIT %:    85.9497  MISS %:    14.0503   MPKI: 22.7074
L1D RFO       ACCESS:    9460597  HIT:    9373078  MISS:      87519  HIT %:    99.0749  MISS %:    0.92509   MPKI: 0.437595
L1D PREFETCH  ACCESS:    5997697  HIT:    2331023  MISS:    3666674  HIT %:    38.8653  MISS %:    61.1347   MPKI: 18.3334
L1D PREFETCH  REQUESTED:   14517328  ISSUED:   14516808  USEFUL:     791640  USELESS:    2880275
L1D USEFUL LOAD PREFETCHES:     791640 PREFETCH ISSUED TO LOWER LEVEL:    3935550  ACCURACY: 20.1151
L1D TIMELY PREFETCHES:     791640 LATE PREFETCHES: 261337 DROPPED PREFETCHES: 0
L1D PREFETCHES SAME FILL-ORIGIN LEVEL: 3935550 DIFFERENT FILL-ORIGIN LEVEL: 0
L1D AVERAGE MISS LATENCY: 230.796 cycles
L1D RQ	ACCESS:   58735087	FORWARD:          0	MERGED:   24631824	TO_CACHE:   33325543
L1D WQ	ACCESS:    9904103	FORWARD:     777975	MERGED:     111401	TO_CACHE:    9792702
L1D PQ	ACCESS:    7258536	FORWARD:          0	MERGED:          9	TO_CACHE:    7258272

L1D UNIQUE REGIONS ACCESSED: 0
L1D REGIONS CONFLICTS: 0
L1D Cross Page Prefetch Requests: 0
L1D Same Page Prefetch Requests: 9110443
L1D ROI Sum of L1D PQ occupancy: 79773655
L1D PREFETCHES PUSHED FROM L2C: 0
L1I TOTAL     ACCESS:   40369518  HIT:   39656360  MISS:     713158  HIT %:    98.2334  MISS %:    1.76658   MPKI: 3.56579
L1I LOAD      ACCESS:   40369518  HIT:   39656360  MISS:     713158  HIT %:    98.2334  MISS %:    1.76658   MPKI: 3.56579
L1I PREFETCH  REQUESTED:          0  ISSUED:          0  USEFUL:          0  USELESS:          0
L1I USEFUL LOAD PREFETCHES:          0 PREFETCH ISSUED TO LOWER LEVEL:          0  ACCURACY: -nan
L1I TIMELY PREFETCHES:          0 LATE PREFETCHES: 0 DROPPED PREFETCHES: 0
L1I PREFETCHES SAME FILL-ORIGIN LEVEL: 0 DIFFERENT FILL-ORIGIN LEVEL: 0
L1I AVERAGE MISS LATENCY: 30.1273 cycles
L1I RQ	ACCESS:   67101175	FORWARD:          0	MERGED:   26446515	TO_CACHE:   40654660

BTB TOTAL     ACCESS:   33166965  HIT:   32847922  MISS:     319043  HIT %:    99.0381  MISS %:    0.96193   MPKI: 1.59522
BTB BRANCH_DIRECT_JUMP	ACCESS:     525376  HIT:     523517  MISS:       1859
BTB BRANCH_INDIRECT	ACCESS:      94810  HIT:      37749  MISS:      57061
BTB BRANCH_CONDITIONAL	ACCESS:   27818678  HIT:   27809403  MISS:       9275
BTB BRANCH_DIRECT_CALL	ACCESS:    1305005  HIT:    1301505  MISS:       3500
BTB BRANCH_INDIRECT_CALL	ACCESS:    1059048  HIT:    1046823  MISS:      12225
BTB BRANCH_RETURN	ACCESS:    2364048  HIT:    2128925  MISS:     235123
BTB BRANCH_OTHER ACCESS:          0  HIT:          0  MISS:          0

L2C TOTAL     ACCESS:   10168501  HIT:    2251221  MISS:    7917280  HIT %:    22.1392  MISS %:    77.8608   MPKI: 39.5864
L2C LOAD      ACCESS:    4993687  HIT:     945896  MISS:    4047791  HIT %:    18.9418  MISS %:    81.0582   MPKI: 20.239
L2C DATA LOAD MPKI: 19.3568
L2C INSTRUCTION LOAD MPKI: 0.88212
L2C RFO       ACCESS:      85217  HIT:      40549  MISS:      44668  HIT %:    47.5832  MISS %:    52.4168   MPKI: 0.22334
L2C PREFETCH  ACCESS:    3929864  HIT:     345457  MISS:    3584407  HIT %:    8.79056  MISS %:    91.2094   MPKI: 17.922
L2C DATA PREFETCH MPKI: 17.922
L2C INSTRUCTION PREFETCH MPKI: 0
L2C WRITEBACK ACCESS:     190601  HIT:     182528  MISS:       8073  HIT %:    95.7645  MISS %:    4.23555   MPKI: 0.040365
[...]
ITLB TOTAL     ACCESS:   35006464  HIT:   34866293  MISS:     140171  HIT %:    99.5996  MISS %:   0.400415   MPKI: 0.700855
ITLB LOAD TRANSLATION ACCESS:   35006464  HIT:   34866293  MISS:     140171  HIT %:    99.5996  MISS %:   0.400415   MPKI: 0.700855
ITLB PREFETCH  REQUESTED:          0  ISSUED:          0  USEFUL:          0  USELESS:          0
ITLB USEFUL LOAD PREFETCHES:          0 PREFETCH ISSUED TO LOWER LEVEL:          0  ACCURACY: -nan
ITLB TIMELY PREFETCHES:          0 LATE PREFETCHES: 0 DROPPED PREFETCHES: 0
ITLB PREFETCHES SAME FILL-ORIGIN LEVEL: 0 DIFFERENT FILL-ORIGIN LEVEL: 0
ITLB AVERAGE MISS LATENCY: 16.8392 cycles
ITLB RQ	ACCESS:   40613252	FORWARD:          0	MERGED:    5567486	TO_CACHE:   35045766

DTLB TOTAL     ACCESS:   37883893  HIT:   36565267  MISS:    1318626  HIT %:    96.5193  MISS %:     3.4807   MPKI: 6.59313
DTLB LOAD TRANSLATION ACCESS:   37883893  HIT:   36565267  MISS:    1318626  HIT %:    96.5193  MISS %:     3.4807   MPKI: 6.59313
DTLB PREFETCH  REQUESTED:          0  ISSUED:          0  USEFUL:          0  USELESS:          0
DTLB USEFUL LOAD PREFETCHES:          0 PREFETCH ISSUED TO LOWER LEVEL:          0  ACCURACY: -nan
DTLB TIMELY PREFETCHES:          0 LATE PREFETCHES: 0 DROPPED PREFETCHES: 0
DTLB PREFETCHES SAME FILL-ORIGIN LEVEL: 0 DIFFERENT FILL-ORIGIN LEVEL: 0
DTLB AVERAGE MISS LATENCY: 84.0315 cycles
DTLB RQ	ACCESS:   43088559	FORWARD:          0	MERGED:    4985472	TO_CACHE:   38103087

STLB TOTAL     ACCESS:    6412733  HIT:    5448341  MISS:     964392  HIT %:    84.9613  MISS %:    15.0387   MPKI: 4.82196
STLB LOAD TRANSLATION ACCESS:    1458797  HIT:     494766  MISS:     964031  HIT %:     33.916  MISS %:     66.084   MPKI: 4.82015
STLB TRANSLATION FROM L1D PREFETCHER ACCESS:    4953936  HIT:    4953575  MISS:        361  HIT %:    99.9927  MISS %: 0.00728713   MPKI: 0.001805
STLB PREFETCH  REQUESTED:          0  ISSUED:          0  USEFUL:        361  USELESS:          0
STLB USEFUL LOAD PREFETCHES:        361 PREFETCH ISSUED TO LOWER LEVEL:          0  ACCURACY: inf
STLB TIMELY PREFETCHES:        361 LATE PREFETCHES: 0 DROPPED PREFETCHES: 0
STLB PREFETCHES SAME FILL-ORIGIN LEVEL: 0 DIFFERENT FILL-ORIGIN LEVEL: 0
STLB AVERAGE MISS LATENCY: 103.804 cycles
STLB RQ	ACCESS:    8707569	FORWARD:          0	MERGED:    2294615	TO_CACHE:    6412954

STLB Hit, L1D data hit: 0
STLB Hit, L2C data hit: 0
STLB Hit, LLC data hit: 0
STLB Hit, LLC data miss: 0
STLB STLB hints to L2: 0
L1D TOTAL     ACCESS:   47799934  HIT:   39506940  MISS:    8292994  HIT %:    82.6506  MISS %:    17.3494   MPKI: 41.465
L1D LOAD      ACCESS:   32327580  HIT:   27786982  MISS:    4540598  HIT %:    85.9544  MISS %:    14.0456   MPKI: 22.703
L1D RFO       ACCESS:    9473274  HIT:    9385638  MISS:      87636  HIT %:    99.0749  MISS %:   0.925087   MPKI: 0.43818
L1D PREFETCH  ACCESS:    5999080  HIT:    2334320  MISS:    3664760  HIT %:    38.9113  MISS %:    61.0887   MPKI: 18.3238
L1D PREFETCH  REQUESTED:   14497988  ISSUED:   14497801  USEFUL:     790221  USELESS:    2874527
L1D USEFUL LOAD PREFETCHES:     790221 PREFETCH ISSUED TO LOWER LEVEL:    3928548  ACCURACY: 20.1148
L1D TIMELY PREFETCHES:     790221 LATE PREFETCHES: 261553 DROPPED PREFETCHES: 0
L1D PREFETCHES SAME FILL-ORIGIN LEVEL: 3928548 DIFFERENT FILL-ORIGIN LEVEL: 0
L1D AVERAGE MISS LATENCY: 230.822 cycles
L1D RQ	ACCESS:   58668020	FORWARD:          0	MERGED:   24597467	TO_CACHE:   33293753
L1D WQ	ACCESS:    9906424	FORWARD:     777056	MERGED:     111618	TO_CACHE:    9794806
L1D PQ	ACCESS:    7249029	FORWARD:          0	MERGED:          1	TO_CACHE:    7248772

L1D UNIQUE REGIONS ACCESSED: 0
L1D REGIONS CONFLICTS: 0
L1D Cross Page Prefetch Requests: 0
L1D Same Page Prefetch Requests: 9131241
L1D ROI Sum of L1D PQ occupancy: 79769307
L1D PREFETCHES PUSHED FROM L2C: 0
L1I TOTAL     ACCESS:   40372228  HIT:   39658593  MISS:     713635  HIT %:    98.2324  MISS %:    1.76764   MPKI: 3.56818
L1I LOAD      ACCESS:   40372228  HIT:   39658593  MISS:     713635  HIT %:    98.2324  MISS %:    1.76764   MPKI: 3.56818
L1I PREFETCH  REQUESTED:          0  ISSUED:          0  USEFUL:          0  USELESS:          0
L1I USEFUL LOAD PREFETCHES:          0 PREFETCH ISSUED TO LOWER LEVEL:          0  ACCURACY: -nan
L1I TIMELY PREFETCHES:          0 LATE PREFETCHES: 0 DROPPED PREFETCHES: 0
L1I PREFETCHES SAME FILL-ORIGIN LEVEL: 0 DIFFERENT FILL-ORIGIN LEVEL: 0
L1I AVERAGE MISS LATENCY: 29.9148 cycles
L1I RQ	ACCESS:   67024020	FORWARD:          0	MERGED:   26410768	TO_CACHE:   40613252

BTB TOTAL     ACCESS:   33166963  HIT:   32847082  MISS:     319881  HIT %:    99.0355  MISS %:   0.964457   MPKI: 1.5994
BTB BRANCH_DIRECT_JUMP	ACCESS:     525802  HIT:     523852  MISS:       1950
BTB BRANCH_INDIRECT	ACCESS:      94835  HIT:      37758  MISS:      57077
BTB BRANCH_CONDITIONAL	ACCESS:   27817704  HIT:   27808171  MISS:       9533
BTB BRANCH_DIRECT_CALL	ACCESS:    1305271  HIT:    1301665  MISS:       3606
BTB BRANCH_INDIRECT_CALL	ACCESS:    1059042  HIT:    1046753  MISS:      12289
BTB BRANCH_RETURN	ACCESS:    2364309  HIT:    2128883  MISS:     235426
BTB BRANCH_OTHER ACCESS:          0  HIT:          0  MISS:          0

L2C TOTAL     ACCESS:   10166059  HIT:    2262352  MISS:    7903707  HIT %:     22.254  MISS %:     77.746   MPKI: 39.5185
L2C LOAD      ACCESS:    4992667  HIT:     950624  MISS:    4042043  HIT %:    19.0404  MISS %:    80.9596   MPKI: 20.2102
L2C DATA LOAD MPKI: 19.3011
L2C INSTRUCTION LOAD MPKI: 0.909115
L2C RFO       ACCESS:      85378  HIT:      40810  MISS:      44568  HIT %:    47.7992  MISS %:    52.2008   MPKI: 0.22284
L2C PREFETCH  ACCESS:    3928513  HIT:     351420  MISS:    3577093  HIT %:    8.94537  MISS %:    91.0546   MPKI: 17.8855
L2C DATA PREFETCH MPKI: 17.8855
L2C INSTRUCTION PREFETCH MPKI: 0
L2C WRITEBACK ACCESS:     190790  HIT:     182910  MISS:       7880  HIT %:    95.8698  MISS %:     4.1302   MPKI: 0.0394
L2C LOAD TRANSLATION ACCESS:     968215  HIT:     736424  MISS:     231791  HIT %:      76.06  MISS %:      23.94   MPKI: 1.15895
L2C TRANSLATION FROM L1D PREFETCHER ACCESS:        496  HIT:        164  MISS:        332  HIT %:    33.0645  MISS %:    66.9355   MPKI: 0.00166
L2C PREFETCH  REQUESTED:          0  ISSUED:          0  USEFUL:      33054  USELESS:    3544053
L2C USEFUL LOAD PREFETCHES:      33054 PREFETCH ISSUED TO LOWER LEVEL:    3577097  ACCURACY: 0.924045
L2C TIMELY PREFETCHES:      33054 LATE PREFETCHES: 0 DROPPED PREFETCHES: 0
L2C PREFETCHES SAME FILL-ORIGIN LEVEL: 0 DIFFERENT FILL-ORIGIN LEVEL: 0
L2C AVERAGE MISS LATENCY: 247.858 cycles
L2C RQ	ACCESS:    6046797	FORWARD:          0	MERGED:          0	TO_CACHE:    6046757
L2C WQ	ACCESS:     190790	FORWARD:         71	MERGED:          0	TO_CACHE:     190790
L2C PQ	ACCESS:    3928548	FORWARD:          0	MERGED:          0	TO_CACHE:    3928517

L2C Instructions Evicting Data 167658
L2C Translations Evicting Data 221377
L2C Data Evicting Data 7093393
L2C Instructions Evicting Instructions 8464
L2C Translations Evicting Instructions 2899
L2C Data Evicting Instructions 169874
L2C Instructions Evicting Translations 5701
L2C Translations Evicting Translations 7847
L2C Data Evicting Translations 218614
L2C Dense regions hint from L2: 0
PSCL5 TOTAL     ACCESS:     964392  HIT:     964392  MISS:          0  HIT %:        100  MISS %:          0   MPKI: 0
PSCL5 LOAD TRANSLATION ACCESS:     964031  HIT:     964031  MISS:          0  HIT %:        100  MISS %:          0   MPKI: 0
PSCL5 TRANSLATION FROM L1D PREFETCHER ACCESS:        361  HIT:        361  MISS:          0  HIT %:        100  MISS %:          0   MPKI: 0
PSCL5 PREFETCH  REQUESTED:          0  ISSUED:          0  USEFUL:          0  USELESS:          0
PSCL5 USEFUL LOAD PREFETCHES:          0 PREFETCH ISSUED TO LOWER LEVEL:          0  ACCURACY: -nan
PSCL5 TIMELY PREFETCHES:          0 LATE PREFETCHES: 0 DROPPED PREFETCHES: 0
PSCL5 PREFETCHES SAME FILL-ORIGIN LEVEL: 0 DIFFERENT FILL-ORIGIN LEVEL: 0

PSCL4 TOTAL     ACCESS:     964392  HIT:     964392  MISS:          0  HIT %:        100  MISS %:          0   MPKI: 0
PSCL4 LOAD TRANSLATION ACCESS:     964031  HIT:     964031  MISS:          0  HIT %:        100  MISS %:          0   MPKI: 0
PSCL4 TRANSLATION FROM L1D PREFETCHER ACCESS:        361  HIT:        361  MISS:          0  HIT %:        100  MISS %:          0   MPKI: 0
PSCL4 PREFETCH  REQUESTED:          0  ISSUED:          0  USEFUL:          0  USELESS:          0
PSCL4 USEFUL LOAD PREFETCHES:          0 PREFETCH ISSUED TO LOWER LEVEL:          0  ACCURACY: -nan
PSCL4 TIMELY PREFETCHES:          0 LATE PREFETCHES: 0 DROPPED PREFETCHES: 0
PSCL4 PREFETCHES SAME FILL-ORIGIN LEVEL: 0 DIFFERENT FILL-ORIGIN LEVEL: 0

PSCL3 TOTAL     ACCESS:     964392  HIT:     964392  MISS:          0  HIT %:        100  MISS %:          0   MPKI: 0
PSCL3 LOAD TRANSLATION ACCESS:     964031  HIT:     964031  MISS:          0  HIT %:        100  MISS %:          0   MPKI: 0
PSCL3 TRANSLATION FROM L1D PREFETCHER ACCESS:        361  HIT:        361  MISS:          0  HIT %:        100  MISS %:          0   MPKI: 0
PSCL3 PREFETCH  REQUESTED:          0  ISSUED:          0  USEFUL:          0  USELESS:          0
PSCL3 USEFUL LOAD PREFETCHES:          0 PREFETCH ISSUED TO LOWER LEVEL:          0  ACCURACY: -nan
PSCL3 TIMELY PREFETCHES:          0 LATE PREFETCHES: 0 DROPPED PREFETCHES: 0
PSCL3 PREFETCHES SAME FILL-ORIGIN LEVEL: 0 DIFFERENT FILL-ORIGIN LEVEL: 0

PSCL2 TOTAL     ACCESS:     964392  HIT:     960073  MISS:       4319  HIT %:    99.5522  MISS %:   0.447847   MPKI: 0.021595
PSCL2 LOAD TRANSLATION ACCESS:     964166  HIT:     959847  MISS:       4319  HIT %:     99.552  MISS %:   0.447952   MPKI: 0.021595
PSCL2 TRANSLATION FROM L1D PREFETCHER ACCESS:        226  HIT:        226  MISS:          0  HIT %:        100  MISS %:          0   MPKI: 0
PSCL2 PREFETCH  REQUESTED:          0  ISSUED:          0  USEFUL:          0  USELESS:          0
PSCL2 USEFUL LOAD PREFETCHES:          0 PREFETCH ISSUED TO LOWER LEVEL:          0  ACCURACY: -nan
PSCL2 TIMELY PREFETCHES:          0 LATE PREFETCHES: 0 DROPPED PREFETCHES: 0
PSCL2 PREFETCHES SAME FILL-ORIGIN LEVEL: 0 DIFFERENT FILL-ORIGIN LEVEL: 0

LLC TOTAL     ACCESS:    7983071  HIT:    1073612  MISS:    6909459  HIT %:    13.4486  MISS %:    86.5514   MPKI: 34.5473
LLC LOAD      ACCESS:    4042043  HIT:     550943  MISS:    3491100  HIT %:    13.6303  MISS %:    86.3697   MPKI: 17.4555
LLC RFO       ACCESS:      44566  HIT:       7229  MISS:      37337  HIT %:    16.2209  MISS %:    83.7791   MPKI: 0.186685
LLC PREFETCH  ACCESS:    3577094  HIT:     411967  MISS:    3165127  HIT %:    11.5168  MISS %:    88.4832   MPKI: 15.8256
LLC WRITEBACK ACCESS:      87245  HIT:      83353  MISS:       3892  HIT %:     95.539  MISS %:      4.461   MPKI: 0.01946
LLC LOAD TRANSLATION ACCESS:     231791  HIT:      20081  MISS:     211710  HIT %:    8.66341  MISS %:    91.3366   MPKI: 1.05855
LLC TRANSLATION FROM L1D PREFETCHER ACCESS:        332  HIT:         39  MISS:        293  HIT %:     11.747  MISS %:     88.253   MPKI: 0.001465
LLC PREFETCH  REQUESTED:          0  ISSUED:          0  USEFUL:      96851  USELESS:   12617157
LLC USEFUL LOAD PREFETCHES:      96851 PREFETCH ISSUED TO LOWER LEVEL:   12718888  ACCURACY: 0.761474
LLC TIMELY PREFETCHES:      96851 LATE PREFETCHES: 0 DROPPED PREFETCHES: 0
LLC PREFETCHES SAME FILL-ORIGIN LEVEL: 0 DIFFERENT FILL-ORIGIN LEVEL: 0
LLC AVERAGE MISS LATENCY: 992.87 cycles
LLC RQ	ACCESS:   17392207	FORWARD:          0	MERGED:          0	TO_CACHE:   17392201
LLC WQ	ACCESS:     354504	FORWARD:          6	MERGED:          0	TO_CACHE:     354504
LLC PQ	ACCESS:   14413666	FORWARD:          0	MERGED:          0	TO_CACHE:   14413666

LLC Dense regions hint to LLC: 0

RAW hits: 321046
Loads Generated: 58989066
Loads sent to L1D: 58668020
Stores Generated: 9906418
Stores sent to L1D: 9906424
Major fault: 0 Minor fault: 11434
Allocated PAGES: 45757

stream: 
stream:times selected: 12309596
stream:pref_filled: 3759487
stream:pref_useful: 725985
stream:pref_late: 311087
stream:misses: 1698810
stream:misses_by_poll: 0

CS: 
CS:times selected: 382534
CS:pref_filled: 314459
CS:pref_useful: 202683
CS:pref_late: 5085
CS:misses: 50554
CS:misses_by_poll: 359

CPLX: 
CPLX:times selected: 11822625
CPLX:pref_filled: 642076
CPLX:pref_useful: 75513
CPLX:pref_late: 5530
CPLX:misses: 4807834
CPLX:misses_by_poll: 589

NL_L1: 
NL:times selected: 121275
NL:pref_filled: 39841
NL:pref_useful: 8848
NL:pref_late: 5469
NL:misses: 60557
NL:misses_by_poll: 0

total selections: 24636030
total_filled: 3762383
total_useful: 814477
total_late: 330480
total_polluted: 948
total_misses_after_warmup: 5642686
conflicts: 4752069
Degree Incremented Times: 11069
Degree Decremented Times: 2127798

L1 IP Table Write Accesses: 124765078
L1 IP Table Read Accesses: 120013009
L1 RST Write Accesses: 38013454
L1 RST Read Accesses: 76026908
L1 CSPT Write Accesses: 38013454
L1 CSPT Read Accesses: 74482055
L1 RR Filter Tag Write Accesses: 29168888
L1 RR Filter Tag Read Accesses: 1320098235
L1 IP Table Tag Write Accesses: 134259268
L1 IP Table Tag Read Accesses: 134259268
L1 RST Tag Write Accesses: 0
L1 RST Tag Read Accesses: 356525390
L1 RR Filter Write Accesses: 0
L1 RR Filter Read Accesses: 45564521
test: 28979076

stream: 
stream:times selected: 12049601
stream:pref_filled: 3603115
stream:pref_useful: 689864
stream:pref_late: 303266
stream:misses: 1675092
stream:misses_by_poll: 0

CS: 
CS:times selected: 371233
CS:pref_filled: 300355
CS:pref_useful: 193153
CS:pref_late: 4462
CS:misses: 51841
CS:misses_by_poll: 321

CPLX: 
CPLX:times selected: 11575769
CPLX:pref_filled: 611436
CPLX:pref_useful: 70397
CPLX:pref_late: 5317
CPLX:misses: 4739247
CPLX:misses_by_poll: 818

NL_L1: 
NL:times selected: 118538
NL:pref_filled: 37786
NL:pref_useful: 8204
NL:pref_late: 5350
NL:misses: 59386
NL:misses_by_poll: 20

total selections: 24115141
total_filled: 3660243
total_useful: 789283
total_late: 321658
total_polluted: 1159
total_misses_after_warmup: 5510289
conflicts: 4752069
Degree Incremented Times: 11069
Degree Decremented Times: 2127798

L1 IP Table Write Accesses: 124765078
L1 IP Table Read Accesses: 120013009
L1 RST Write Accesses: 38013454
L1 RST Read Accesses: 76026908
L1 CSPT Write Accesses: 38013454
L1 CSPT Read Accesses: 74482055
L1 RR Filter Tag Write Accesses: 29168888
L1 RR Filter Tag Read Accesses: 1320098235
L1 IP Table Tag Write Accesses: 134259268
L1 IP Table Tag Read Accesses: 134259268
L1 RST Tag Write Accesses: 0
L1 RST Tag Read Accesses: 356525390
L1 RR Filter Write Accesses: 0
L1 RR Filter Read Accesses: 45564521
test: 28979076

stream: 
stream:times selected: 12058774
stream:pref_filled: 3689948
stream:pref_useful: 710104
stream:pref_late: 309603
stream:misses: 1670145
stream:misses_by_poll: 0

CS: 
CS:times selected: 371126
CS:pref_filled: 305668
CS:pref_useful: 197164
CS:pref_late: 4256
CS:misses: 48815
CS:misses_by_poll: 498

CPLX: 
CPLX:times selected: 11584995
CPLX:pref_filled: 630560
CPLX:pref_useful: 73637
CPLX:pref_late: 5358
CPLX:misses: 4726050
CPLX:misses_by_poll: 776

NL_L1: 
NL:times selected: 118454
NL:pref_filled: 39013
NL:pref_useful: 8597
NL:pref_late: 5539
NL:misses: 59325
NL:misses_by_poll: 31

total selections: 24133349
total_filled: 3671939
total_useful: 791640
total_late: 328135
total_polluted: 1305
total_misses_after_warmup: 5517742
conflicts: 4752069
Degree Incremented Times: 11069
Degree Decremented Times: 2127798

L1 IP Table Write Accesses: 124765078
L1 IP Table Read Accesses: 120013009
L1 RST Write Accesses: 38013454
L1 RST Read Accesses: 76026908
L1 CSPT Write Accesses: 38013454
L1 CSPT Read Accesses: 74482055
L1 RR Filter Tag Write Accesses: 29168888
L1 RR Filter Tag Read Accesses: 1320098235
L1 IP Table Tag Write Accesses: 134259268
L1 IP Table Tag Read Accesses: 134259268
L1 RST Tag Write Accesses: 0
L1 RST Tag Read Accesses: 356525390
L1 RR Filter Write Accesses: 0
L1 RR Filter Read Accesses: 45564521
test: 28979076

stream: 
stream:times selected: 12046193
stream:pref_filled: 3682339
stream:pref_useful: 707906
stream:pref_late: 310212
stream:misses: 1670741
stream:misses_by_poll: 0

CS: 
CS:times selected: 371167
CS:pref_filled: 305695
CS:pref_useful: 197052
CS:pref_late: 4416
CS:misses: 48605
CS:misses_by_poll: 718

CPLX: 
CPLX:times selected: 11572285
CPLX:pref_filled: 629383
CPLX:pref_useful: 73483
CPLX:pref_late: 5405
CPLX:misses: 4727965
CPLX:misses_by_poll: 700

NL_L1: 
NL:times selected: 118453
NL:pref_filled: 39119
NL:pref_useful: 8716
NL:pref_late: 5362
NL:misses: 59378
NL:misses_by_poll: 0

total selections: 24108098
total_filled: 3664760
total_useful: 790221
total_late: 328734
total_polluted: 1418
total_misses_after_warmup: 5506771
conflicts: 4752069
Degree Incremented Times: 11069
Degree Decremented Times: 2127798

L1 IP Table Write Accesses: 124765078
L1 IP Table Read Accesses: 120013009
L1 RST Write Accesses: 38013454
L1 RST Read Accesses: 76026908
L1 CSPT Write Accesses: 38013454
L1 CSPT Read Accesses: 74482055
L1 RR Filter Tag Write Accesses: 29168888
L1 RR Filter Tag Read Accesses: 1320098235
L1 IP Table Tag Write Accesses: 134259268
L1 IP Table Tag Read Accesses: 134259268
L1 RST Tag Write Accesses: 0
L1 RST Tag Read Accesses: 356525390
L1 RR Filter Write Accesses: 0
L1 RR Filter Read Accesses: 45564521
test: 28979076

DRAM Statistics
 CHANNEL 0
 RQ ROW_BUFFER_HIT:    3032095  ROW_BUFFER_MISS:   24722508
 DBUS_CONGESTED:        832
 WQ ROW_BUFFER_HIT:      22225  ROW_BUFFER_MISS:     251786  FULL:          0

 AVG_CONGESTED_CYCLE: 5
 All warmup complete: 5
Channel 0 Bank busy for read cycles: 0
Channel 0 Bank busy for write cycles: 0
Channel 0
Rank 0
0banks busy for read cycles: 25149010
0banks busy for write cycles: 4232
1banks busy for read cycles: 43108886
1banks busy for write cycles: 1693253
2banks busy for read cycles: 69652583
2banks busy for write cycles: 595818
3banks busy for read cycles: 103364023
3banks busy for write cycles: 352889
4banks busy for read cycles: 137025952
4banks busy for write cycles: 251136
5banks busy for read cycles: 159378645
5banks busy for write cycles: 242779
6banks busy for read cycles: 147883411
6banks busy for write cycles: 282121
7banks busy for read cycles: 105661419
7banks busy for write cycles: 1029495
8banks busy for read cycles: 50224891
8banks busy for write cycles: 8300949

CPU 0 Branch Prediction Accuracy: 99.7324% MPKI: 0.691597 Average ROB Occupancy at Mispredict: 156.783
Branch types
NOT_BRANCH: 152392481 74.1365%
BRANCH_DIRECT_JUMP: 541764 0.26356%
BRANCH_INDIRECT: 99421 0.0483667%
BRANCH_CONDITIONAL: 47663811 23.1877%
BRANCH_DIRECT_CALL: 1341021 0.652385%
BRANCH_INDIRECT_CALL: 1088713 0.529642%
BRANCH_RETURN: 2429730 1.18202%
BRANCH_OTHER: 0 0%


CPU 1 Branch Prediction Accuracy: 99.7329% MPKI: 0.690772 Average ROB Occupancy at Mispredict: 156.857
Branch types
NOT_BRANCH: 148263687 74.1281%
BRANCH_DIRECT_JUMP: 525377 0.262675%
BRANCH_INDIRECT: 94810 0.0474026%
BRANCH_CONDITIONAL: 46398172 23.1979%
BRANCH_DIRECT_CALL: 1305057 0.652496%
BRANCH_INDIRECT_CALL: 1059100 0.529523%
BRANCH_RETURN: 2364152 1.18202%
BRANCH_OTHER: 0 0%


CPU 2 Branch Prediction Accuracy: 99.7332% MPKI: 0.690048 Average ROB Occupancy at Mispredict: 156.838
Branch types
NOT_BRANCH: 148416754 74.1264%
BRANCH_DIRECT_JUMP: 525376 0.262398%
BRANCH_INDIRECT: 94810 0.0473526%
BRANCH_CONDITIONAL: 46452007 23.2003%
BRANCH_DIRECT_CALL: 1306138 0.652347%
BRANCH_INDIRECT_CALL: 1060181 0.529505%
BRANCH_RETURN: 2366314 1.18185%
BRANCH_OTHER: 0 0%


CPU 3 Branch Prediction Accuracy: 99.7326% MPKI: 0.69165 Average ROB Occupancy at Mispredict: 156.516
Branch types
NOT_BRANCH: 148259800 74.1299%
BRANCH_DIRECT_JUMP: 525802 0.262901%
BRANCH_INDIRECT: 94835 0.0474175%
BRANCH_CONDITIONAL: 46390990 23.1955%
BRANCH_DIRECT_CALL: 1305271 0.652636%
BRANCH_INDIRECT_CALL: 1059042 0.529521%
BRANCH_RETURN: 2364309 1.18215%
BRANCH_OTHER: 0 0%

DRAM PAGES: 1048576
Allocated PAGES: 45757
