
*** ChampSim Multicore Out-of-Order Simulator ***

Warmup Instructions: 50000000
Simulation Instructions: 200000000
Number of CPUs: 4
LLC sets: 8192
LLC ways: 16
Off-chip DRAM Size: 4096 MB Channels: 1 Width: 64-bit Data Rate: 6400 MT/s
CPU 0 runs ./traces/ligra/ligra_Components.com-lj.ungraph.gcc_6.3.0_O3.drop_3500M.length_250M.champsimtrace.xz
.xz
CPU 1 runs ./traces/ligra/ligra_Components.com-lj.ungraph.gcc_6.3.0_O3.drop_3500M.length_250M.champsimtrace.xz
.xz
CPU 2 runs ./traces/ligra/ligra_Components.com-lj.ungraph.gcc_6.3.0_O3.drop_3500M.length_250M.champsimtrace.xz
.xz
CPU 3 runs ./traces/ligra/ligra_Components.com-lj.ungraph.gcc_6.3.0_O3.drop_3500M.length_250M.champsimtrace.xz
.xz
BTB has LRU replacement policy
ITLB has LRU replacement policy
DTLB has LRU replacement policy
STLB has LRU replacement policy
L1I has LRU replacement policy
IP Table Entries: 1024
CSPT Entries: 128
RR_ENTRIES: 32
RST_ENTRIES: 8
L1D has LRU replacement policy
Initialize SRRIP state for L2C
Initialize DRRIP state for LLC
BTB has LRU replacement policy
ITLB has LRU replacement policy
DTLB has LRU replacement policy
STLB has LRU replacement policy
L1I has LRU replacement policy
IP Table Entries: 1024
CSPT Entries: 128
RR_ENTRIES: 32
RST_ENTRIES: 8
L1D has LRU replacement policy
Initialize SRRIP state for L2C
Initialize DRRIP state for LLC
BTB has LRU replacement policy
ITLB has LRU replacement policy
DTLB has LRU replacement policy
STLB has LRU replacement policy
L1I has LRU replacement policy
IP Table Entries: 1024
CSPT Entries: 128
RR_ENTRIES: 32
RST_ENTRIES: 8
L1D has LRU replacement policy
Initialize SRRIP state for L2C
Initialize DRRIP state for LLC
BTB has LRU replacement policy
ITLB has LRU replacement policy
DTLB has LRU replacement policy
STLB has LRU replacement policy
L1I has LRU replacement policy
IP Table Entries: 1024
CSPT Entries: 128
RR_ENTRIES: 32
RST_ENTRIES: 8
L1D has LRU replacement policy
Initialize SRRIP state for L2C
Initialize DRRIP state for LLC
Heartbeat CPU 0 instructions: 10000003 cycles: 3333345 heartbeat IPC: 2.99999 cumulative IPC: 2.99999 (Simulation time: 0 hr 2 min 1 sec) 
Heartbeat CPU 1 instructions: 10000003 cycles: 3333346 heartbeat IPC: 2.99999 cumulative IPC: 2.99999 (Simulation time: 0 hr 2 min 1 sec) 
Heartbeat CPU 2 instructions: 10000003 cycles: 3333347 heartbeat IPC: 2.99999 cumulative IPC: 2.99999 (Simulation time: 0 hr 2 min 1 sec) 
Heartbeat CPU 3 instructions: 10000003 cycles: 3333348 heartbeat IPC: 2.99999 cumulative IPC: 2.99999 (Simulation time: 0 hr 2 min 1 sec) 
Heartbeat CPU 0 instructions: 20000002 cycles: 6666678 heartbeat IPC: 3 cumulative IPC: 3 (Simulation time: 0 hr 3 min 55 sec) 
Heartbeat CPU 1 instructions: 20000002 cycles: 6666679 heartbeat IPC: 3 cumulative IPC: 2.99999 (Simulation time: 0 hr 3 min 55 sec) 
Heartbeat CPU 2 instructions: 20000002 cycles: 6666680 heartbeat IPC: 3 cumulative IPC: 2.99999 (Simulation time: 0 hr 3 min 55 sec) 
Heartbeat CPU 3 instructions: 20000002 cycles: 6666681 heartbeat IPC: 3 cumulative IPC: 2.99999 (Simulation time: 0 hr 3 min 55 sec) 
Heartbeat CPU 0 instructions: 30000001 cycles: 10000011 heartbeat IPC: 3 cumulative IPC: 3 (Simulation time: 0 hr 5 min 44 sec) 
Heartbeat CPU 1 instructions: 30000001 cycles: 10000012 heartbeat IPC: 3 cumulative IPC: 3 (Simulation time: 0 hr 5 min 44 sec) 
Heartbeat CPU 2 instructions: 30000001 cycles: 10000013 heartbeat IPC: 3 cumulative IPC: 3 (Simulation time: 0 hr 5 min 44 sec) 
Heartbeat CPU 3 instructions: 30000001 cycles: 10000014 heartbeat IPC: 3 cumulative IPC: 3 (Simulation time: 0 hr 5 min 44 sec) 
Heartbeat CPU 0 instructions: 40000001 cycles: 13333345 heartbeat IPC: 3 cumulative IPC: 3 (Simulation time: 0 hr 7 min 35 sec) 
Heartbeat CPU 1 instructions: 40000000 cycles: 13333347 heartbeat IPC: 3 cumulative IPC: 3 (Simulation time: 0 hr 7 min 35 sec) 
Heartbeat CPU 2 instructions: 40000000 cycles: 13333349 heartbeat IPC: 3 cumulative IPC: 3 (Simulation time: 0 hr 7 min 35 sec) 
Heartbeat CPU 3 instructions: 40000000 cycles: 13333350 heartbeat IPC: 3 cumulative IPC: 3 (Simulation time: 0 hr 7 min 35 sec) 
Heartbeat CPU 0 instructions: 50000001 cycles: 16666678 heartbeat IPC: 3 cumulative IPC: 3 (Simulation time: 0 hr 9 min 32 sec) 
Heartbeat CPU 1 instructions: 50000001 cycles: 16666679 heartbeat IPC: 3 cumulative IPC: 3 (Simulation time: 0 hr 9 min 32 sec) 
Heartbeat CPU 2 instructions: 50000001 cycles: 16666680 heartbeat IPC: 3 cumulative IPC: 3 (Simulation time: 0 hr 9 min 32 sec) 
Heartbeat CPU 3 instructions: 50000001 cycles: 16666681 heartbeat IPC: 3 cumulative IPC: 3 (Simulation time: 0 hr 9 min 32 sec) 

Warmup complete CPU 0 instructions: 50000010 cycles: 16666681 (Simulation time: 0 hr 9 min 32 sec) 
Warmup complete CPU 1 instructions: 50000006 cycles: 16666681 (Simulation time: 0 hr 9 min 32 sec) 
Warmup complete CPU 2 instructions: 50000005 cycles: 16666681 (Simulation time: 0 hr 9 min 32 sec) 
Warmup complete CPU 3 instructions: 50000001 cycles: 16666681 (Simulation time: 0 hr 9 min 32 sec) 

Heartbeat CPU 0 instructions: 60000001 cycles: 25393336 heartbeat IPC: 1.14591 cumulative IPC: 1.14591 (Simulation time: 0 hr 12 min 7 sec) 
Heartbeat CPU 1 instructions: 60000001 cycles: 25402573 heartbeat IPC: 1.1447 cumulative IPC: 1.1447 (Simulation time: 0 hr 12 min 7 sec) 
Heartbeat CPU 2 instructions: 60000001 cycles: 25412501 heartbeat IPC: 1.1434 cumulative IPC: 1.1434 (Simulation time: 0 hr 12 min 7 sec) 
Heartbeat CPU 3 instructions: 60000001 cycles: 25421712 heartbeat IPC: 1.1422 cumulative IPC: 1.1422 (Simulation time: 0 hr 12 min 7 sec) 
Heartbeat CPU 0 instructions: 70000000 cycles: 34150196 heartbeat IPC: 1.14196 cumulative IPC: 1.14393 (Simulation time: 0 hr 14 min 52 sec) 
Heartbeat CPU 1 instructions: 70000000 cycles: 34159408 heartbeat IPC: 1.14197 cumulative IPC: 1.14333 (Simulation time: 0 hr 14 min 52 sec) 
Heartbeat CPU 2 instructions: 70000000 cycles: 34168768 heartbeat IPC: 1.14204 cumulative IPC: 1.14272 (Simulation time: 0 hr 14 min 52 sec) 
Heartbeat CPU 3 instructions: 70000000 cycles: 34177356 heartbeat IPC: 1.14212 cumulative IPC: 1.14216 (Simulation time: 0 hr 14 min 52 sec) 
Heartbeat CPU 0 instructions: 80000000 cycles: 42867300 heartbeat IPC: 1.14717 cumulative IPC: 1.14501 (Simulation time: 0 hr 17 min 45 sec) 
Heartbeat CPU 1 instructions: 80000000 cycles: 42876695 heartbeat IPC: 1.14715 cumulative IPC: 1.1446 (Simulation time: 0 hr 17 min 45 sec) 
Heartbeat CPU 2 instructions: 80000000 cycles: 42885233 heartbeat IPC: 1.14725 cumulative IPC: 1.14423 (Simulation time: 0 hr 17 min 45 sec) 
Heartbeat CPU 3 instructions: 80000000 cycles: 42893617 heartbeat IPC: 1.14728 cumulative IPC: 1.14386 (Simulation time: 0 hr 17 min 46 sec) 
Heartbeat CPU 0 instructions: 90000003 cycles: 51621732 heartbeat IPC: 1.14228 cumulative IPC: 1.14433 (Simulation time: 0 hr 20 min 35 sec) 
Heartbeat CPU 1 instructions: 90000003 cycles: 51632274 heartbeat IPC: 1.14213 cumulative IPC: 1.14398 (Simulation time: 0 hr 20 min 35 sec) 
Heartbeat CPU 2 instructions: 90000003 cycles: 51640794 heartbeat IPC: 1.14213 cumulative IPC: 1.1437 (Simulation time: 0 hr 20 min 35 sec) 
Heartbeat CPU 3 instructions: 90000003 cycles: 51649410 heartbeat IPC: 1.1421 cumulative IPC: 1.14342 (Simulation time: 0 hr 20 min 35 sec) 
Heartbeat CPU 0 instructions: 100000002 cycles: 60361006 heartbeat IPC: 1.14426 cumulative IPC: 1.14431 (Simulation time: 0 hr 23 min 28 sec) 
Heartbeat CPU 1 instructions: 100000002 cycles: 60373225 heartbeat IPC: 1.14404 cumulative IPC: 1.14399 (Simulation time: 0 hr 23 min 29 sec) 
Heartbeat CPU 2 instructions: 100000002 cycles: 60384260 heartbeat IPC: 1.14371 cumulative IPC: 1.1437 (Simulation time: 0 hr 23 min 29 sec) 
Heartbeat CPU 3 instructions: 100000002 cycles: 60390954 heartbeat IPC: 1.14396 cumulative IPC: 1.14353 (Simulation time: 0 hr 23 min 29 sec) 
Heartbeat CPU 0 instructions: 110000000 cycles: 69111491 heartbeat IPC: 1.14279 cumulative IPC: 1.14406 (Simulation time: 0 hr 26 min 22 sec) 
Heartbeat CPU 1 instructions: 110000000 cycles: 69125495 heartbeat IPC: 1.14256 cumulative IPC: 1.14375 (Simulation time: 0 hr 26 min 22 sec) 
Heartbeat CPU 2 instructions: 110000000 cycles: 69137513 heartbeat IPC: 1.14243 cumulative IPC: 1.14349 (Simulation time: 0 hr 26 min 22 sec) 
Heartbeat CPU 3 instructions: 110000000 cycles: 69146835 heartbeat IPC: 1.14209 cumulative IPC: 1.14329 (Simulation time: 0 hr 26 min 22 sec) 
Heartbeat CPU 0 instructions: 120000002 cycles: 77882931 heartbeat IPC: 1.14006 cumulative IPC: 1.14349 (Simulation time: 0 hr 29 min 15 sec) 
Heartbeat CPU 1 instructions: 120000002 cycles: 77898136 heartbeat IPC: 1.13991 cumulative IPC: 1.1432 (Simulation time: 0 hr 29 min 16 sec) 
Heartbeat CPU 2 instructions: 120000002 cycles: 77910881 heartbeat IPC: 1.13981 cumulative IPC: 1.14297 (Simulation time: 0 hr 29 min 16 sec) 
Heartbeat CPU 3 instructions: 120000002 cycles: 77920176 heartbeat IPC: 1.13982 cumulative IPC: 1.14279 (Simulation time: 0 hr 29 min 16 sec) 
Heartbeat CPU 0 instructions: 130000001 cycles: 86670352 heartbeat IPC: 1.13799 cumulative IPC: 1.1428 (Simulation time: 0 hr 32 min 5 sec) 
Heartbeat CPU 1 instructions: 130000001 cycles: 86684076 heartbeat IPC: 1.13818 cumulative IPC: 1.14257 (Simulation time: 0 hr 32 min 5 sec) 
Heartbeat CPU 2 instructions: 130000001 cycles: 86697271 heartbeat IPC: 1.13812 cumulative IPC: 1.14236 (Simulation time: 0 hr 32 min 6 sec) 
Heartbeat CPU 3 instructions: 130000001 cycles: 86707307 heartbeat IPC: 1.13803 cumulative IPC: 1.14219 (Simulation time: 0 hr 32 min 6 sec) 
Heartbeat CPU 0 instructions: 140000000 cycles: 95455268 heartbeat IPC: 1.13831 cumulative IPC: 1.1423 (Simulation time: 0 hr 34 min 51 sec) 
Heartbeat CPU 1 instructions: 140000000 cycles: 95468816 heartbeat IPC: 1.13834 cumulative IPC: 1.1421 (Simulation time: 0 hr 34 min 52 sec) 
Heartbeat CPU 2 instructions: 140000000 cycles: 95480291 heartbeat IPC: 1.13856 cumulative IPC: 1.14193 (Simulation time: 0 hr 34 min 52 sec) 
Heartbeat CPU 3 instructions: 140000000 cycles: 95490003 heartbeat IPC: 1.1386 cumulative IPC: 1.14179 (Simulation time: 0 hr 34 min 52 sec) 
Heartbeat CPU 0 instructions: 150000002 cycles: 104227590 heartbeat IPC: 1.13995 cumulative IPC: 1.14206 (Simulation time: 0 hr 37 min 39 sec) 
Heartbeat CPU 1 instructions: 150000002 cycles: 104242505 heartbeat IPC: 1.13977 cumulative IPC: 1.14187 (Simulation time: 0 hr 37 min 40 sec) 
Heartbeat CPU 2 instructions: 150000002 cycles: 104255197 heartbeat IPC: 1.13961 cumulative IPC: 1.1417 (Simulation time: 0 hr 37 min 40 sec) 
Heartbeat CPU 3 instructions: 150000002 cycles: 104265403 heartbeat IPC: 1.13955 cumulative IPC: 1.14157 (Simulation time: 0 hr 37 min 40 sec) 
Heartbeat CPU 0 instructions: 160000000 cycles: 113005950 heartbeat IPC: 1.13916 cumulative IPC: 1.1418 (Simulation time: 0 hr 40 min 12 sec) 
Heartbeat CPU 1 instructions: 160000000 cycles: 113020224 heartbeat IPC: 1.13925 cumulative IPC: 1.14163 (Simulation time: 0 hr 40 min 12 sec) 
Heartbeat CPU 2 instructions: 160000000 cycles: 113033366 heartbeat IPC: 1.13919 cumulative IPC: 1.14147 (Simulation time: 0 hr 40 min 12 sec) 
Heartbeat CPU 3 instructions: 160000000 cycles: 113042647 heartbeat IPC: 1.13931 cumulative IPC: 1.14136 (Simulation time: 0 hr 40 min 12 sec) 
Heartbeat CPU 0 instructions: 170000001 cycles: 121689664 heartbeat IPC: 1.15158 cumulative IPC: 1.14261 (Simulation time: 0 hr 42 min 57 sec) 
Heartbeat CPU 1 instructions: 170000001 cycles: 121706794 heartbeat IPC: 1.1512 cumulative IPC: 1.14242 (Simulation time: 0 hr 42 min 57 sec) 
Heartbeat CPU 2 instructions: 170000001 cycles: 121716157 heartbeat IPC: 1.1517 cumulative IPC: 1.14232 (Simulation time: 0 hr 42 min 58 sec) 
Heartbeat CPU 3 instructions: 170000001 cycles: 121727591 heartbeat IPC: 1.15142 cumulative IPC: 1.14219 (Simulation time: 0 hr 42 min 58 sec) 
Heartbeat CPU 0 instructions: 180000000 cycles: 130458588 heartbeat IPC: 1.14039 cumulative IPC: 1.14244 (Simulation time: 0 hr 45 min 26 sec) 
Heartbeat CPU 1 instructions: 180000000 cycles: 130475218 heartbeat IPC: 1.14046 cumulative IPC: 1.14227 (Simulation time: 0 hr 45 min 26 sec) 
Heartbeat CPU 2 instructions: 180000000 cycles: 130484936 heartbeat IPC: 1.14041 cumulative IPC: 1.14217 (Simulation time: 0 hr 45 min 26 sec) 
Heartbeat CPU 3 instructions: 180000000 cycles: 130498603 heartbeat IPC: 1.14012 cumulative IPC: 1.14203 (Simulation time: 0 hr 45 min 26 sec) 
Heartbeat CPU 0 instructions: 190000000 cycles: 139283548 heartbeat IPC: 1.13315 cumulative IPC: 1.14177 (Simulation time: 0 hr 48 min 1 sec) 
Heartbeat CPU 1 instructions: 190000000 cycles: 139304431 heartbeat IPC: 1.1326 cumulative IPC: 1.14157 (Simulation time: 0 hr 48 min 2 sec) 
Heartbeat CPU 2 instructions: 190000000 cycles: 139312650 heartbeat IPC: 1.1328 cumulative IPC: 1.1415 (Simulation time: 0 hr 48 min 2 sec) 
Heartbeat CPU 3 instructions: 190000000 cycles: 139327152 heartbeat IPC: 1.13269 cumulative IPC: 1.14136 (Simulation time: 0 hr 48 min 2 sec) 
Heartbeat CPU 0 instructions: 200000002 cycles: 148132206 heartbeat IPC: 1.13012 cumulative IPC: 1.14098 (Simulation time: 0 hr 50 min 54 sec) 
Heartbeat CPU 1 instructions: 200000002 cycles: 148150683 heartbeat IPC: 1.13042 cumulative IPC: 1.14082 (Simulation time: 0 hr 50 min 54 sec) 
Heartbeat CPU 2 instructions: 200000002 cycles: 148160277 heartbeat IPC: 1.13025 cumulative IPC: 1.14074 (Simulation time: 0 hr 50 min 55 sec) 
Heartbeat CPU 3 instructions: 200000002 cycles: 148173544 heartbeat IPC: 1.1304 cumulative IPC: 1.14062 (Simulation time: 0 hr 50 min 55 sec) 
Heartbeat CPU 0 instructions: 210000000 cycles: 156955990 heartbeat IPC: 1.1333 cumulative IPC: 1.1405 (Simulation time: 0 hr 53 min 21 sec) 
Heartbeat CPU 1 instructions: 210000000 cycles: 156975175 heartbeat IPC: 1.13321 cumulative IPC: 1.14034 (Simulation time: 0 hr 53 min 21 sec) 
Heartbeat CPU 2 instructions: 210000000 cycles: 156984692 heartbeat IPC: 1.13322 cumulative IPC: 1.14027 (Simulation time: 0 hr 53 min 22 sec) 
Heartbeat CPU 3 instructions: 210000000 cycles: 156999047 heartbeat IPC: 1.13308 cumulative IPC: 1.14015 (Simulation time: 0 hr 53 min 22 sec) 
Heartbeat CPU 0 instructions: 220000000 cycles: 165862128 heartbeat IPC: 1.12282 cumulative IPC: 1.13944 (Simulation time: 0 hr 55 min 58 sec) 
Heartbeat CPU 1 instructions: 220000000 cycles: 165881473 heartbeat IPC: 1.1228 cumulative IPC: 1.1393 (Simulation time: 0 hr 55 min 59 sec) 
Heartbeat CPU 2 instructions: 220000000 cycles: 165890490 heartbeat IPC: 1.12286 cumulative IPC: 1.13923 (Simulation time: 0 hr 55 min 59 sec) 
Heartbeat CPU 3 instructions: 220000000 cycles: 165910917 heartbeat IPC: 1.1221 cumulative IPC: 1.13907 (Simulation time: 0 hr 55 min 59 sec) 
Heartbeat CPU 0 instructions: 230000002 cycles: 174670159 heartbeat IPC: 1.13533 cumulative IPC: 1.13922 (Simulation time: 0 hr 58 min 29 sec) 
Heartbeat CPU 1 instructions: 230000002 cycles: 174688546 heartbeat IPC: 1.13545 cumulative IPC: 1.13908 (Simulation time: 0 hr 58 min 29 sec) 
Heartbeat CPU 2 instructions: 230000002 cycles: 174696886 heartbeat IPC: 1.13554 cumulative IPC: 1.13902 (Simulation time: 0 hr 58 min 29 sec) 
Heartbeat CPU 3 instructions: 230000002 cycles: 174717211 heartbeat IPC: 1.13555 cumulative IPC: 1.13888 (Simulation time: 0 hr 58 min 29 sec) 
Heartbeat CPU 0 instructions: 240000000 cycles: 183457981 heartbeat IPC: 1.13794 cumulative IPC: 1.13915 (Simulation time: 1 hr 0 min 52 sec) 
Heartbeat CPU 1 instructions: 240000000 cycles: 183476959 heartbeat IPC: 1.13786 cumulative IPC: 1.13902 (Simulation time: 1 hr 0 min 52 sec) 
Heartbeat CPU 2 instructions: 240000000 cycles: 183486216 heartbeat IPC: 1.13774 cumulative IPC: 1.13896 (Simulation time: 1 hr 0 min 52 sec) 
Heartbeat CPU 3 instructions: 240000000 cycles: 183504700 heartbeat IPC: 1.13798 cumulative IPC: 1.13883 (Simulation time: 1 hr 0 min 52 sec) 
*** Reached end of trace for Core: 0 Repeating trace: ./traces/ligra/ligra_Components.com-lj.ungraph.gcc_6.3.0_O3.drop_3500M.length_250M.champsimtrace.xz
Heartbeat CPU 0 instructions: 250000001 cycles: 192205299 heartbeat IPC: 1.14321 cumulative IPC: 1.13935 (Simulation time: 1 hr 3 min 44 sec) 
Finished CPU 0 instructions: 200000001 cycles: 175539397 cumulative IPC: 1.13935 (Simulation time: 1 hr 3 min 44 sec) 
*** Reached end of trace for Core: 1 Repeating trace: ./traces/ligra/ligra_Components.com-lj.ungraph.gcc_6.3.0_O3.drop_3500M.length_250M.champsimtrace.xz
Heartbeat CPU 1 instructions: 250000001 cycles: 192225117 heartbeat IPC: 1.1431 cumulative IPC: 1.13922 (Simulation time: 1 hr 3 min 44 sec) 
Finished CPU 1 instructions: 200000001 cycles: 175558877 cumulative IPC: 1.13922 (Simulation time: 1 hr 3 min 44 sec) 
*** Reached end of trace for Core: 2 Repeating trace: ./traces/ligra/ligra_Components.com-lj.ungraph.gcc_6.3.0_O3.drop_3500M.length_250M.champsimtrace.xz
Heartbeat CPU 2 instructions: 250000001 cycles: 192232797 heartbeat IPC: 1.1433 cumulative IPC: 1.13917 (Simulation time: 1 hr 3 min 44 sec) 
Finished CPU 2 instructions: 200000002 cycles: 175566552 cumulative IPC: 1.13917 (Simulation time: 1 hr 3 min 44 sec) 
*** Reached end of trace for Core: 3 Repeating trace: ./traces/ligra/ligra_Components.com-lj.ungraph.gcc_6.3.0_O3.drop_3500M.length_250M.champsimtrace.xz
Heartbeat CPU 3 instructions: 250000001 cycles: 192252076 heartbeat IPC: 1.1432 cumulative IPC: 1.13905 (Simulation time: 1 hr 3 min 45 sec) 
Finished CPU 3 instructions: 200000000 cycles: 175585395 cumulative IPC: 1.13905 (Simulation time: 1 hr 3 min 45 sec) 

ChampSim completed all CPUs

Total Simulation Statistics (not including warmup)

CPU 0 cumulative IPC: 1.13934 instructions: 200051865 cycles: 175585395
ITLB TOTAL     ACCESS:   33189036  HIT:   33189036  MISS:          0  HIT %:        100  MISS %:          0   MPKI: 0
ITLB LOAD      ACCESS:          0  HIT:          0  MISS:          0  HIT %:       -nan  MISS %:       -nan   MPKI: 0
ITLB RFO       ACCESS:          0  HIT:          0  MISS:          0  HIT %:       -nan  MISS %:       -nan   MPKI: 0
ITLB PREFETCH  ACCESS:          0  HIT:          0  MISS:          0  HIT %:       -nan  MISS %:       -nan   MPKI: 0
ITLB WRITEBACK ACCESS:          0  HIT:          0  MISS:          0  HIT %:       -nan  MISS %:       -nan   MPKI: 0
DTLB TOTAL     ACCESS:   33848714  HIT:   33837531  MISS:      11183  HIT %:     99.967  MISS %:  0.0330382   MPKI: 0.0559005
DTLB LOAD      ACCESS:          0  HIT:          0  MISS:          0  HIT %:       -nan  MISS %:       -nan   MPKI: 0
DTLB RFO       ACCESS:          0  HIT:          0  MISS:          0  HIT %:       -nan  MISS %:       -nan   MPKI: 0
DTLB PREFETCH  ACCESS:          0  HIT:          0  MISS:          0  HIT %:       -nan  MISS %:       -nan   MPKI: 0
DTLB WRITEBACK ACCESS:          0  HIT:          0  MISS:          0  HIT %:       -nan  MISS %:       -nan   MPKI: 0
STLB TOTAL     ACCESS:     344159  HIT:     332976  MISS:      11183  HIT %:    96.7506  MISS %:    3.24937   MPKI: 0.0559005
STLB LOAD      ACCESS:          0  HIT:          0  MISS:          0  HIT %:       -nan  MISS %:       -nan   MPKI: 0
STLB RFO       ACCESS:          0  HIT:          0  MISS:          0  HIT %:       -nan  MISS %:       -nan   MPKI: 0
STLB PREFETCH  ACCESS:          0  HIT:          0  MISS:          0  HIT %:       -nan  MISS %:       -nan   MPKI: 0
STLB WRITEBACK ACCESS:          0  HIT:          0  MISS:          0  HIT %:       -nan  MISS %:       -nan   MPKI: 0
L1D TOTAL     ACCESS:   25135705  HIT:   24420197  MISS:     715508  HIT %:    97.1534  MISS %:    2.84658   MPKI: 3.57661
L1D LOAD      ACCESS:   12473090  HIT:   12467417  MISS:       5673  HIT %:    99.9545  MISS %:  0.0454819   MPKI: 0.0283576
L1D RFO       ACCESS:   12268955  HIT:   11911204  MISS:     357751  HIT %:    97.0841  MISS %:     2.9159   MPKI: 1.78829
L1D PREFETCH  ACCESS:     393660  HIT:      41576  MISS:     352084  HIT %:    10.5614  MISS %:    89.4386   MPKI: 1.75996
L1D WRITEBACK ACCESS:          0  HIT:          0  MISS:          0  HIT %:       -nan  MISS %:       -nan   MPKI: 0
L1I TOTAL     ACCESS:   33189035  HIT:   33189035  MISS:          0  HIT %:        100  MISS %:          0   MPKI: 0
L1I LOAD      ACCESS:   33189035  HIT:   33189035  MISS:          0  HIT %:        100  MISS %:          0   MPKI: 0
L1I RFO       ACCESS:          0  HIT:          0  MISS:          0  HIT %:       -nan  MISS %:       -nan   MPKI: 0
L1I PREFETCH  ACCESS:          0  HIT:          0  MISS:          0  HIT %:       -nan  MISS %:       -nan   MPKI: 0
L1I WRITEBACK ACCESS:          0  HIT:          0  MISS:          0  HIT %:       -nan  MISS %:       -nan   MPKI: 0
L2C TOTAL     ACCESS:    1084433  HIT:     214845  MISS:     869588  HIT %:    19.8117  MISS %:    80.1883   MPKI: 4.34681
L2C LOAD      ACCESS:       5592  HIT:          0  MISS:       5592  HIT %:          0  MISS %:        100   MPKI: 0.0279528
L2C RFO       ACCESS:     357751  HIT:          0  MISS:     357751  HIT %:          0  MISS %:        100   MPKI: 1.78829
L2C PREFETCH  ACCESS:     352165  HIT:          0  MISS:     352165  HIT %:          0  MISS %:        100   MPKI: 1.76037
L2C WRITEBACK ACCESS:     357742  HIT:     205085  MISS:     152657  HIT %:    57.3276  MISS %:    42.6724   MPKI: 0.763087
PSCL5 TOTAL     ACCESS:      11183  HIT:      11183  MISS:          0  HIT %:        100  MISS %:          0   MPKI: 0
PSCL5 LOAD      ACCESS:          0  HIT:          0  MISS:          0  HIT %:       -nan  MISS %:       -nan   MPKI: 0
PSCL5 RFO       ACCESS:          0  HIT:          0  MISS:          0  HIT %:       -nan  MISS %:       -nan   MPKI: 0
PSCL5 PREFETCH  ACCESS:          0  HIT:          0  MISS:          0  HIT %:       -nan  MISS %:       -nan   MPKI: 0
PSCL5 WRITEBACK ACCESS:          0  HIT:          0  MISS:          0  HIT %:       -nan  MISS %:       -nan   MPKI: 0
PSCL4 TOTAL     ACCESS:      11183  HIT:      11183  MISS:          0  HIT %:        100  MISS %:          0   MPKI: 0
PSCL4 LOAD      ACCESS:          0  HIT:          0  MISS:          0  HIT %:       -nan  MISS %:       -nan   MPKI: 0
PSCL4 RFO       ACCESS:          0  HIT:          0  MISS:          0  HIT %:       -nan  MISS %:       -nan   MPKI: 0
PSCL4 PREFETCH  ACCESS:          0  HIT:          0  MISS:          0  HIT %:       -nan  MISS %:       -nan   MPKI: 0
PSCL4 WRITEBACK ACCESS:          0  HIT:          0  MISS:          0  HIT %:       -nan  MISS %:       -nan   MPKI: 0
PSCL3 TOTAL     ACCESS:      11183  HIT:      11183  MISS:          0  HIT %:        100  MISS %:          0   MPKI: 0
PSCL3 LOAD      ACCESS:          0  HIT:          0  MISS:          0  HIT %:       -nan  MISS %:       -nan   MPKI: 0
PSCL3 RFO       ACCESS:          0  HIT:          0  MISS:          0  HIT %:       -nan  MISS %:       -nan   MPKI: 0
PSCL3 PREFETCH  ACCESS:          0  HIT:          0  MISS:          0  HIT %:       -nan  MISS %:       -nan   MPKI: 0
PSCL3 WRITEBACK ACCESS:          0  HIT:          0  MISS:          0  HIT %:       -nan  MISS %:       -nan   MPKI: 0
PSCL2 TOTAL     ACCESS:      11183  HIT:      11161  MISS:         22  HIT %:    99.8033  MISS %:   0.196727   MPKI: 0.000109971
PSCL2 LOAD      ACCESS:          0  HIT:          0  MISS:          0  HIT %:       -nan  MISS %:       -nan   MPKI: 0
PSCL2 RFO       ACCESS:          0  HIT:          0  MISS:          0  HIT %:       -nan  MISS %:       -nan   MPKI: 0
PSCL2 PREFETCH  ACCESS:          0  HIT:          0  MISS:          0  HIT %:       -nan  MISS %:       -nan   MPKI: 0
PSCL2 WRITEBACK ACCESS:          0  HIT:          0  MISS:          0  HIT %:       -nan  MISS %:       -nan   MPKI: 0

stream: 
stream:times selected: 867882
stream:pref_filled: 437898
stream:pref_useful: 437886
stream:pref_late: 78
stream:misses: 13
stream:misses_by_poll: 0

CS: 
CS:times selected: 825885
CS:pref_filled: 2110
CS:pref_useful: 2110
CS:pref_late: 3
CS:misses: 29526
CS:misses_by_poll: 8

CPLX: 
CPLX:times selected: 41939
CPLX:pref_filled: 134
CPLX:pref_useful: 134
CPLX:pref_late: 0
CPLX:misses: 0
CPLX:misses_by_poll: 0

NL_L1: 
NL:times selected: 4
NL:pref_filled: 0
NL:pref_useful: 0
NL:pref_late: 0
NL:misses: 0
NL:misses_by_poll: 0

total selections: 1735710
total_filled: 352084
total_useful: 352078
total_late: 81
total_polluted: 8
total_misses_after_warmup: 26784
conflicts: 0
Degree Incremented Times: 463189
Degree Decremented Times: 0

L1 IP Table Write Accesses: 49963275
L1 IP Table Read Accesses: 49963275
L1 RST Write Accesses: 2755592
L1 RST Read Accesses: 5511184
L1 CSPT Write Accesses: 2755592
L1 CSPT Read Accesses: 3251217
L1 RR Filter Tag Write Accesses: 1573062
L1 RR Filter Tag Read Accesses: 460650780
L1 IP Table Tag Write Accesses: 49963275
L1 IP Table Tag Read Accesses: 49963275
L1 RST Tag Write Accesses: 0
L1 RST Tag Read Accesses: 24794872
L1 RR Filter Write Accesses: 0
L1 RR Filter Read Accesses: 23585716
test: 55486
LLC TOTAL     ACCESS:    1073032  HIT:     330366  MISS:     742666  HIT %:    30.7881  MISS %:    69.2119   MPKI: 3.71237
LLC LOAD      ACCESS:       5592  HIT:          0  MISS:       5592  HIT %:          0  MISS %:        100   MPKI: 0.0279528
LLC RFO       ACCESS:     357751  HIT:          0  MISS:     357751  HIT %:          0  MISS %:        100   MPKI: 1.78829
LLC PREFETCH  ACCESS:     352165  HIT:          0  MISS:     352165  HIT %:          0  MISS %:        100   MPKI: 1.76037
LLC WRITEBACK ACCESS:     356101  HIT:     330365  MISS:      25736  HIT %:    92.7728  MISS %:    7.22716   MPKI: 0.128647

RAW hits: 0
Loads Generated: 42785734
Loads sent to L1D: 42785732
Stores Generated: 22896083
Stores sent to L1D: 22896081

CPU 1 cumulative IPC: 1.13922 instructions: 200030119 cycles: 175585395
ITLB TOTAL     ACCESS:   33185545  HIT:   33185545  MISS:          0  HIT %:        100  MISS %:          0   MPKI: 0
ITLB LOAD      ACCESS:          0  HIT:          0  MISS:          0  HIT %:       -nan  MISS %:       -nan   MPKI: 0
ITLB RFO       ACCESS:          0  HIT:          0  MISS:          0  HIT %:       -nan  MISS %:       -nan   MPKI: 0
ITLB PREFETCH  ACCESS:          0  HIT:          0  MISS:          0  HIT %:       -nan  MISS %:       -nan   MPKI: 0
ITLB WRITEBACK ACCESS:          0  HIT:          0  MISS:          0  HIT %:       -nan  MISS %:       -nan   MPKI: 0
DTLB TOTAL     ACCESS:   33844395  HIT:   33833214  MISS:      11181  HIT %:     99.967  MISS %:  0.0330365   MPKI: 0.0558966
DTLB LOAD      ACCESS:          0  HIT:          0  MISS:          0  HIT %:       -nan  MISS %:       -nan   MPKI: 0
DTLB RFO       ACCESS:          0  HIT:          0  MISS:          0  HIT %:       -nan  MISS %:       -nan   MPKI: 0
DTLB PREFETCH  ACCESS:          0  HIT:          0  MISS:          0  HIT %:       -nan  MISS %:       -nan   MPKI: 0
DTLB WRITEBACK ACCESS:          0  HIT:          0  MISS:          0  HIT %:       -nan  MISS %:       -nan   MPKI: 0
STLB TOTAL     ACCESS:     343650  HIT:     332469  MISS:      11181  HIT %:    96.7464  MISS %:     3.2536   MPKI: 0.0558966
STLB LOAD      ACCESS:          0  HIT:          0  MISS:          0  HIT %:       -nan  MISS %:       -nan   MPKI: 0
STLB RFO       ACCESS:          0  HIT:          0  MISS:          0  HIT %:       -nan  MISS %:       -nan   MPKI: 0
STLB PREFETCH  ACCESS:          0  HIT:          0  MISS:          0  HIT %:       -nan  MISS %:       -nan   MPKI: 0
STLB WRITEBACK ACCESS:          0  HIT:          0  MISS:          0  HIT %:       -nan  MISS %:       -nan   MPKI: 0
L1D TOTAL     ACCESS:   25032854  HIT:   24317418  MISS:     715436  HIT %:     97.142  MISS %:    2.85799   MPKI: 3.57664
L1D LOAD      ACCESS:   12468753  HIT:   12462828  MISS:       5925  HIT %:    99.9525  MISS %:  0.0475188   MPKI: 0.0296205
L1D RFO       ACCESS:   12170996  HIT:   11813284  MISS:     357712  HIT %:    97.0609  MISS %:    2.93905   MPKI: 1.78829
L1D PREFETCH  ACCESS:     393105  HIT:      41306  MISS:     351799  HIT %:    10.5076  MISS %:    89.4924   MPKI: 1.75873
L1D WRITEBACK ACCESS:          0  HIT:          0  MISS:          0  HIT %:       -nan  MISS %:       -nan   MPKI: 0
L1I TOTAL     ACCESS:   33185544  HIT:   33185544  MISS:          0  HIT %:        100  MISS %:          0   MPKI: 0
L1I LOAD      ACCESS:   33185544  HIT:   33185544  MISS:          0  HIT %:        100  MISS %:          0   MPKI: 0
L1I RFO       ACCESS:          0  HIT:          0  MISS:          0  HIT %:       -nan  MISS %:       -nan   MPKI: 0
L1I PREFETCH  ACCESS:          0  HIT:          0  MISS:          0  HIT %:       -nan  MISS %:       -nan   MPKI: 0
L1I WRITEBACK ACCESS:          0  HIT:          0  MISS:          0  HIT %:       -nan  MISS %:       -nan   MPKI: 0
L2C TOTAL     ACCESS:    1084326  HIT:     207719  MISS:     876607  HIT %:    19.1565  MISS %:    80.8435   MPKI: 4.38238
L2C LOAD      ACCESS:       5845  HIT:          0  MISS:       5845  HIT %:          0  MISS %:        100   MPKI: 0.0292206
L2C RFO       ACCESS:     357712  HIT:          0  MISS:     357712  HIT %:          0  MISS %:        100   MPKI: 1.78829
L2C PREFETCH  ACCESS:     351879  HIT:          0  MISS:     351879  HIT %:          0  MISS %:        100   MPKI: 1.75913
L2C WRITEBACK ACCESS:     357709  HIT:     197960  MISS:     159749  HIT %:    55.3411  MISS %:    44.6589   MPKI: 0.798625
PSCL5 TOTAL     ACCESS:      11181  HIT:      11181  MISS:          0  HIT %:        100  MISS %:          0   MPKI: 0
PSCL5 LOAD      ACCESS:          0  HIT:          0  MISS:          0  HIT %:       -nan  MISS %:       -nan   MPKI: 0
PSCL5 RFO       ACCESS:          0  HIT:          0  MISS:          0  HIT %:       -nan  MISS %:       -nan   MPKI: 0
PSCL5 PREFETCH  ACCESS:          0  HIT:          0  MISS:          0  HIT %:       -nan  MISS %:       -nan   MPKI: 0
PSCL5 WRITEBACK ACCESS:          0  HIT:          0  MISS:          0  HIT %:       -nan  MISS %:       -nan   MPKI: 0
PSCL4 TOTAL     ACCESS:      11181  HIT:      11181  MISS:          0  HIT %:        100  MISS %:          0   MPKI: 0
PSCL4 LOAD      ACCESS:          0  HIT:          0  MISS:          0  HIT %:       -nan  MISS %:       -nan   MPKI: 0
PSCL4 RFO       ACCESS:          0  HIT:          0  MISS:          0  HIT %:       -nan  MISS %:       -nan   MPKI: 0
PSCL4 PREFETCH  ACCESS:          0  HIT:          0  MISS:          0  HIT %:       -nan  MISS %:       -nan   MPKI: 0
PSCL4 WRITEBACK ACCESS:          0  HIT:          0  MISS:          0  HIT %:       -nan  MISS %:       -nan   MPKI: 0
PSCL3 TOTAL     ACCESS:      11181  HIT:      11181  MISS:          0  HIT %:        100  MISS %:          0   MPKI: 0
PSCL3 LOAD      ACCESS:          0  HIT:          0  MISS:          0  HIT %:       -nan  MISS %:       -nan   MPKI: 0
PSCL3 RFO       ACCESS:          0  HIT:          0  MISS:          0  HIT %:       -nan  MISS %:       -nan   MPKI: 0
PSCL3 PREFETCH  ACCESS:          0  HIT:          0  MISS:          0  HIT %:       -nan  MISS %:       -nan   MPKI: 0
PSCL3 WRITEBACK ACCESS:          0  HIT:          0  MISS:          0  HIT %:       -nan  MISS %:       -nan   MPKI: 0
PSCL2 TOTAL     ACCESS:      11181  HIT:      11159  MISS:         22  HIT %:    99.8032  MISS %:   0.196762   MPKI: 0.000109983
PSCL2 LOAD      ACCESS:          0  HIT:          0  MISS:          0  HIT %:       -nan  MISS %:       -nan   MPKI: 0
PSCL2 RFO       ACCESS:          0  HIT:          0  MISS:          0  HIT %:       -nan  MISS %:       -nan   MPKI: 0
PSCL2 PREFETCH  ACCESS:          0  HIT:          0  MISS:          0  HIT %:       -nan  MISS %:       -nan   MPKI: 0
PSCL2 WRITEBACK ACCESS:          0  HIT:          0  MISS:          0  HIT %:       -nan  MISS %:       -nan   MPKI: 0

stream: 
stream:times selected: 867766
stream:pref_filled: 349952
stream:pref_useful: 349940
stream:pref_late: 78
stream:misses: 17
stream:misses_by_poll: 0

CS: 
CS:times selected: 825600
CS:pref_filled: 1702
CS:pref_useful: 1702
CS:pref_late: 2
CS:misses: 151759
CS:misses_by_poll: 2

CPLX: 
CPLX:times selected: 42108
CPLX:pref_filled: 148
CPLX:pref_useful: 148
CPLX:pref_late: 0
CPLX:misses: 0
CPLX:misses_by_poll: 0

NL_L1: 
NL:times selected: 2
NL:pref_filled: 0
NL:pref_useful: 0
NL:pref_late: 0
NL:misses: 0
NL:misses_by_poll: 0

total selections: 1735476
total_filled: 351799
total_useful: 351787
total_late: 80
total_polluted: 2
total_misses_after_warmup: 28373
conflicts: 0
Degree Incremented Times: 463189
Degree Decremented Times: 0

L1 IP Table Write Accesses: 49963275
L1 IP Table Read Accesses: 49963275
L1 RST Write Accesses: 2755592
L1 RST Read Accesses: 5511184
L1 CSPT Write Accesses: 2755592
L1 CSPT Read Accesses: 3251217
L1 RR Filter Tag Write Accesses: 1573062
L1 RR Filter Tag Read Accesses: 460650780
L1 IP Table Tag Write Accesses: 49963275
L1 IP Table Tag Read Accesses: 49963275
L1 RST Tag Write Accesses: 0
L1 RST Tag Read Accesses: 24794872
L1 RR Filter Write Accesses: 0
L1 RR Filter Read Accesses: 23585716
test: 55486
LLC TOTAL     ACCESS:    1074700  HIT:     329467  MISS:     745233  HIT %:    30.6566  MISS %:    69.3434   MPKI: 3.7256
LLC LOAD      ACCESS:       5845  HIT:          0  MISS:       5845  HIT %:          0  MISS %:        100   MPKI: 0.0292206
LLC RFO       ACCESS:     357712  HIT:          0  MISS:     357712  HIT %:          0  MISS %:        100   MPKI: 1.78829
LLC PREFETCH  ACCESS:     351879  HIT:          0  MISS:     351879  HIT %:          0  MISS %:        100   MPKI: 1.75913
LLC WRITEBACK ACCESS:     357842  HIT:     329466  MISS:      28376  HIT %:    92.0702  MISS %:    7.92976   MPKI: 0.141859

RAW hits: 0
Loads Generated: 42781081
Loads sent to L1D: 42781079
Stores Generated: 22893593
Stores sent to L1D: 22893593

CPU 2 cumulative IPC: 1.13917 instructions: 200020970 cycles: 175585395
ITLB TOTAL     ACCESS:   33183985  HIT:   33183985  MISS:          0  HIT %:        100  MISS %:          0   MPKI: 0
ITLB LOAD      ACCESS:          0  HIT:          0  MISS:          0  HIT %:       -nan  MISS %:       -nan   MPKI: 0
ITLB RFO       ACCESS:          0  HIT:          0  MISS:          0  HIT %:       -nan  MISS %:       -nan   MPKI: 0
ITLB PREFETCH  ACCESS:          0  HIT:          0  MISS:          0  HIT %:       -nan  MISS %:       -nan   MPKI: 0
ITLB WRITEBACK ACCESS:          0  HIT:          0  MISS:          0  HIT %:       -nan  MISS %:       -nan   MPKI: 0
DTLB TOTAL     ACCESS:   33841707  HIT:   33830526  MISS:      11181  HIT %:     99.967  MISS %:  0.0330391   MPKI: 0.0558991
DTLB LOAD      ACCESS:          0  HIT:          0  MISS:          0  HIT %:       -nan  MISS %:       -nan   MPKI: 0
DTLB RFO       ACCESS:          0  HIT:          0  MISS:          0  HIT %:       -nan  MISS %:       -nan   MPKI: 0
DTLB PREFETCH  ACCESS:          0  HIT:          0  MISS:          0  HIT %:       -nan  MISS %:       -nan   MPKI: 0
DTLB WRITEBACK ACCESS:          0  HIT:          0  MISS:          0  HIT %:       -nan  MISS %:       -nan   MPKI: 0
STLB TOTAL     ACCESS:     342663  HIT:     331482  MISS:      11181  HIT %:     96.737  MISS %:    3.26297   MPKI: 0.0558991
STLB LOAD      ACCESS:          0  HIT:          0  MISS:          0  HIT %:       -nan  MISS %:       -nan   MPKI: 0
STLB RFO       ACCESS:          0  HIT:          0  MISS:          0  HIT %:       -nan  MISS %:       -nan   MPKI: 0
STLB PREFETCH  ACCESS:          0  HIT:          0  MISS:          0  HIT %:       -nan  MISS %:       -nan   MPKI: 0
STLB WRITEBACK ACCESS:          0  HIT:          0  MISS:          0  HIT %:       -nan  MISS %:       -nan   MPKI: 0
L1D TOTAL     ACCESS:   25144102  HIT:   24428698  MISS:     715404  HIT %:    97.1548  MISS %:    2.84522   MPKI: 3.57664
L1D LOAD      ACCESS:   12466924  HIT:   12460803  MISS:       6121  HIT %:    99.9509  MISS %:  0.0490979   MPKI: 0.0306018
L1D RFO       ACCESS:   12284299  HIT:   11926603  MISS:     357696  HIT %:    97.0882  MISS %:    2.91181   MPKI: 1.78829
L1D PREFETCH  ACCESS:     392879  HIT:      41292  MISS:     351587  HIT %:    10.5101  MISS %:    89.4899   MPKI: 1.75775
L1D WRITEBACK ACCESS:          0  HIT:          0  MISS:          0  HIT %:       -nan  MISS %:       -nan   MPKI: 0
L1I TOTAL     ACCESS:   33183984  HIT:   33183984  MISS:          0  HIT %:        100  MISS %:          0   MPKI: 0
L1I LOAD      ACCESS:   33183984  HIT:   33183984  MISS:          0  HIT %:        100  MISS %:          0   MPKI: 0
L1I RFO       ACCESS:          0  HIT:          0  MISS:          0  HIT %:       -nan  MISS %:       -nan   MPKI: 0
L1I PREFETCH  ACCESS:          0  HIT:          0  MISS:          0  HIT %:       -nan  MISS %:       -nan   MPKI: 0
L1I WRITEBACK ACCESS:          0  HIT:          0  MISS:          0  HIT %:       -nan  MISS %:       -nan   MPKI: 0
L2C TOTAL     ACCESS:    1084272  HIT:     220000  MISS:     864272  HIT %:    20.2901  MISS %:    79.7099   MPKI: 4.32091
L2C LOAD      ACCESS:       6033  HIT:          0  MISS:       6033  HIT %:          0  MISS %:        100   MPKI: 0.0301618
L2C RFO       ACCESS:     357696  HIT:          0  MISS:     357696  HIT %:          0  MISS %:        100   MPKI: 1.78829
L2C PREFETCH  ACCESS:     351675  HIT:          0  MISS:     351675  HIT %:          0  MISS %:        100   MPKI: 1.75819
L2C WRITEBACK ACCESS:     357687  HIT:     210241  MISS:     147446  HIT %:    58.7779  MISS %:    41.2221   MPKI: 0.737153
PSCL5 TOTAL     ACCESS:      11181  HIT:      11181  MISS:          0  HIT %:        100  MISS %:          0   MPKI: 0
PSCL5 LOAD      ACCESS:          0  HIT:          0  MISS:          0  HIT %:       -nan  MISS %:       -nan   MPKI: 0
PSCL5 RFO       ACCESS:          0  HIT:          0  MISS:          0  HIT %:       -nan  MISS %:       -nan   MPKI: 0
PSCL5 PREFETCH  ACCESS:          0  HIT:          0  MISS:          0  HIT %:       -nan  MISS %:       -nan   MPKI: 0
PSCL5 WRITEBACK ACCESS:          0  HIT:          0  MISS:          0  HIT %:       -nan  MISS %:       -nan   MPKI: 0
PSCL4 TOTAL     ACCESS:      11181  HIT:      11181  MISS:          0  HIT %:        100  MISS %:          0   MPKI: 0
PSCL4 LOAD      ACCESS:          0  HIT:          0  MISS:          0  HIT %:       -nan  MISS %:       -nan   MPKI: 0
PSCL4 RFO       ACCESS:          0  HIT:          0  MISS:          0  HIT %:       -nan  MISS %:       -nan   MPKI: 0
PSCL4 PREFETCH  ACCESS:          0  HIT:          0  MISS:          0  HIT %:       -nan  MISS %:       -nan   MPKI: 0
PSCL4 WRITEBACK ACCESS:          0  HIT:          0  MISS:          0  HIT %:       -nan  MISS %:       -nan   MPKI: 0
PSCL3 TOTAL     ACCESS:      11181  HIT:      11181  MISS:          0  HIT %:        100  MISS %:          0   MPKI: 0
PSCL3 LOAD      ACCESS:          0  HIT:          0  MISS:          0  HIT %:       -nan  MISS %:       -nan   MPKI: 0
PSCL3 RFO       ACCESS:          0  HIT:          0  MISS:          0  HIT %:       -nan  MISS %:       -nan   MPKI: 0
PSCL3 PREFETCH  ACCESS:          0  HIT:          0  MISS:          0  HIT %:       -nan  MISS %:       -nan   MPKI: 0
PSCL3 WRITEBACK ACCESS:          0  HIT:          0  MISS:          0  HIT %:       -nan  MISS %:       -nan   MPKI: 0
PSCL2 TOTAL     ACCESS:      11181  HIT:      11159  MISS:         22  HIT %:    99.8032  MISS %:   0.196762   MPKI: 0.000109988
PSCL2 LOAD      ACCESS:          0  HIT:          0  MISS:          0  HIT %:       -nan  MISS %:       -nan   MPKI: 0
PSCL2 RFO       ACCESS:          0  HIT:          0  MISS:          0  HIT %:       -nan  MISS %:       -nan   MPKI: 0
PSCL2 PREFETCH  ACCESS:          0  HIT:          0  MISS:          0  HIT %:       -nan  MISS %:       -nan   MPKI: 0
PSCL2 WRITEBACK ACCESS:          0  HIT:          0  MISS:          0  HIT %:       -nan  MISS %:       -nan   MPKI: 0

stream: 
stream:times selected: 867817
stream:pref_filled: 349692
stream:pref_useful: 349680
stream:pref_late: 79
stream:misses: 17
stream:misses_by_poll: 0

CS: 
CS:times selected: 825686
CS:pref_filled: 1759
CS:pref_useful: 1759
CS:pref_late: 9
CS:misses: 186397
CS:misses_by_poll: 6

CPLX: 
CPLX:times selected: 42078
CPLX:pref_filled: 136
CPLX:pref_useful: 136
CPLX:pref_late: 0
CPLX:misses: 0
CPLX:misses_by_poll: 0

NL_L1: 
NL:times selected: 2
NL:pref_filled: 0
NL:pref_useful: 0
NL:pref_late: 0
NL:misses: 0
NL:misses_by_poll: 0

total selections: 1735583
total_filled: 351587
total_useful: 351575
total_late: 88
total_polluted: 6
total_misses_after_warmup: 29458
conflicts: 0
Degree Incremented Times: 463189
Degree Decremented Times: 0

L1 IP Table Write Accesses: 49963275
L1 IP Table Read Accesses: 49963275
L1 RST Write Accesses: 2755592
L1 RST Read Accesses: 5511184
L1 CSPT Write Accesses: 2755592
L1 CSPT Read Accesses: 3251217
L1 RR Filter Tag Write Accesses: 1573062
L1 RR Filter Tag Read Accesses: 460650780
L1 IP Table Tag Write Accesses: 49963275
L1 IP Table Tag Read Accesses: 49963275
L1 RST Tag Write Accesses: 0
L1 RST Tag Read Accesses: 24794872
L1 RR Filter Write Accesses: 0
L1 RR Filter Read Accesses: 23585716
test: 55486
LLC TOTAL     ACCESS:    1073170  HIT:     327806  MISS:     745364  HIT %:    30.5456  MISS %:    69.4544   MPKI: 3.72643
LLC LOAD      ACCESS:       6033  HIT:          0  MISS:       6033  HIT %:          0  MISS %:        100   MPKI: 0.0301618
LLC RFO       ACCESS:     357696  HIT:          0  MISS:     357696  HIT %:          0  MISS %:        100   MPKI: 1.78829
LLC PREFETCH  ACCESS:     351675  HIT:          0  MISS:     351675  HIT %:          0  MISS %:        100   MPKI: 1.75819
LLC WRITEBACK ACCESS:     356344  HIT:     327805  MISS:      28539  HIT %:    91.9912  MISS %:    8.00883   MPKI: 0.14268

RAW hits: 0
Loads Generated: 42779125
Loads sent to L1D: 42779123
Stores Generated: 22892548
Stores sent to L1D: 22892546

CPU 3 cumulative IPC: 1.13905 instructions: 200000000 cycles: 175585395
ITLB TOTAL     ACCESS:   33180567  HIT:   33180567  MISS:          0  HIT %:        100  MISS %:          0   MPKI: 0
ITLB LOAD      ACCESS:          0  HIT:          0  MISS:          0  HIT %:       -nan  MISS %:       -nan   MPKI: 0
ITLB RFO       ACCESS:          0  HIT:          0  MISS:          0  HIT %:       -nan  MISS %:       -nan   MPKI: 0
ITLB PREFETCH  ACCESS:          0  HIT:          0  MISS:          0  HIT %:       -nan  MISS %:       -nan   MPKI: 0
ITLB WRITEBACK ACCESS:          0  HIT:          0  MISS:          0  HIT %:       -nan  MISS %:       -nan   MPKI: 0
DTLB TOTAL     ACCESS:   33837601  HIT:   33826424  MISS:      11177  HIT %:     99.967  MISS %:  0.0330313   MPKI: 0.055885
DTLB LOAD      ACCESS:          0  HIT:          0  MISS:          0  HIT %:       -nan  MISS %:       -nan   MPKI: 0
DTLB RFO       ACCESS:          0  HIT:          0  MISS:          0  HIT %:       -nan  MISS %:       -nan   MPKI: 0
DTLB PREFETCH  ACCESS:          0  HIT:          0  MISS:          0  HIT %:       -nan  MISS %:       -nan   MPKI: 0
DTLB WRITEBACK ACCESS:          0  HIT:          0  MISS:          0  HIT %:       -nan  MISS %:       -nan   MPKI: 0
STLB TOTAL     ACCESS:     342019  HIT:     330842  MISS:      11177  HIT %:    96.7321  MISS %:    3.26795   MPKI: 0.055885
STLB LOAD      ACCESS:          0  HIT:          0  MISS:          0  HIT %:       -nan  MISS %:       -nan   MPKI: 0
STLB RFO       ACCESS:          0  HIT:          0  MISS:          0  HIT %:       -nan  MISS %:       -nan   MPKI: 0
STLB PREFETCH  ACCESS:          0  HIT:          0  MISS:          0  HIT %:       -nan  MISS %:       -nan   MPKI: 0
STLB WRITEBACK ACCESS:          0  HIT:          0  MISS:          0  HIT %:       -nan  MISS %:       -nan   MPKI: 0
L1D TOTAL     ACCESS:   25093005  HIT:   24377683  MISS:     715322  HIT %:    97.1493  MISS %:    2.85068   MPKI: 3.57661
L1D LOAD      ACCESS:   12462957  HIT:   12456603  MISS:       6354  HIT %:     99.949  MISS %:  0.0509831   MPKI: 0.03177
L1D RFO       ACCESS:   12237054  HIT:   11879396  MISS:     357658  HIT %:    97.0773  MISS %:    2.92275   MPKI: 1.78829
L1D PREFETCH  ACCESS:     392994  HIT:      41684  MISS:     351310  HIT %:    10.6068  MISS %:    89.3932   MPKI: 1.75655
L1D WRITEBACK ACCESS:          0  HIT:          0  MISS:          0  HIT %:       -nan  MISS %:       -nan   MPKI: 0
L1I TOTAL     ACCESS:   33180567  HIT:   33180567  MISS:          0  HIT %:        100  MISS %:          0   MPKI: 0
L1I LOAD      ACCESS:   33180567  HIT:   33180567  MISS:          0  HIT %:        100  MISS %:          0   MPKI: 0
L1I RFO       ACCESS:          0  HIT:          0  MISS:          0  HIT %:       -nan  MISS %:       -nan   MPKI: 0
L1I PREFETCH  ACCESS:          0  HIT:          0  MISS:          0  HIT %:       -nan  MISS %:       -nan   MPKI: 0
L1I WRITEBACK ACCESS:          0  HIT:          0  MISS:          0  HIT %:       -nan  MISS %:       -nan   MPKI: 0
L2C TOTAL     ACCESS:    1084157  HIT:     211524  MISS:     872633  HIT %:    19.5105  MISS %:    80.4895   MPKI: 4.36317
L2C LOAD      ACCESS:       6247  HIT:          0  MISS:       6247  HIT %:          0  MISS %:        100   MPKI: 0.031235
L2C RFO       ACCESS:     357658  HIT:          0  MISS:     357658  HIT %:          0  MISS %:        100   MPKI: 1.78829
L2C PREFETCH  ACCESS:     351417  HIT:          0  MISS:     351417  HIT %:          0  MISS %:        100   MPKI: 1.75709
L2C WRITEBACK ACCESS:     357658  HIT:     201767  MISS:     155891  HIT %:    56.4134  MISS %:    43.5866   MPKI: 0.779455
PSCL5 TOTAL     ACCESS:      11178  HIT:      11178  MISS:          0  HIT %:        100  MISS %:          0   MPKI: 0
PSCL5 LOAD      ACCESS:          0  HIT:          0  MISS:          0  HIT %:       -nan  MISS %:       -nan   MPKI: 0
PSCL5 RFO       ACCESS:          0  HIT:          0  MISS:          0  HIT %:       -nan  MISS %:       -nan   MPKI: 0
PSCL5 PREFETCH  ACCESS:          0  HIT:          0  MISS:          0  HIT %:       -nan  MISS %:       -nan   MPKI: 0
PSCL5 WRITEBACK ACCESS:          0  HIT:          0  MISS:          0  HIT %:       -nan  MISS %:       -nan   MPKI: 0
PSCL4 TOTAL     ACCESS:      11178  HIT:      11178  MISS:          0  HIT %:        100  MISS %:          0   MPKI: 0
PSCL4 LOAD      ACCESS:          0  HIT:          0  MISS:          0  HIT %:       -nan  MISS %:       -nan   MPKI: 0
PSCL4 RFO       ACCESS:          0  HIT:          0  MISS:          0  HIT %:       -nan  MISS %:       -nan   MPKI: 0
PSCL4 PREFETCH  ACCESS:          0  HIT:          0  MISS:          0  HIT %:       -nan  MISS %:       -nan   MPKI: 0
PSCL4 WRITEBACK ACCESS:          0  HIT:          0  MISS:          0  HIT %:       -nan  MISS %:       -nan   MPKI: 0
PSCL3 TOTAL     ACCESS:      11178  HIT:      11178  MISS:          0  HIT %:        100  MISS %:          0   MPKI: 0
PSCL3 LOAD      ACCESS:          0  HIT:          0  MISS:          0  HIT %:       -nan  MISS %:       -nan   MPKI: 0
PSCL3 RFO       ACCESS:          0  HIT:          0  MISS:          0  HIT %:       -nan  MISS %:       -nan   MPKI: 0
PSCL3 PREFETCH  ACCESS:          0  HIT:          0  MISS:          0  HIT %:       -nan  MISS %:       -nan   MPKI: 0
PSCL3 WRITEBACK ACCESS:          0  HIT:          0  MISS:          0  HIT %:       -nan  MISS %:       -nan   MPKI: 0
PSCL2 TOTAL     ACCESS:      11178  HIT:      11156  MISS:         22  HIT %:    99.8032  MISS %:   0.196815   MPKI: 0.00011
PSCL2 LOAD      ACCESS:          0  HIT:          0  MISS:          0  HIT %:       -nan  MISS %:       -nan   MPKI: 0
PSCL2 RFO       ACCESS:          0  HIT:          0  MISS:          0  HIT %:       -nan  MISS %:       -nan   MPKI: 0
PSCL2 PREFETCH  ACCESS:          0  HIT:          0  MISS:          0  HIT %:       -nan  MISS %:       -nan   MPKI: 0
PSCL2 WRITEBACK ACCESS:          0  HIT:          0  MISS:          0  HIT %:       -nan  MISS %:       -nan   MPKI: 0

stream: 
stream:times selected: 867754
stream:pref_filled: 349283
stream:pref_useful: 349277
stream:pref_late: 96
stream:misses: 16
stream:misses_by_poll: 0

CS: 
CS:times selected: 825750
CS:pref_filled: 1901
CS:pref_useful: 1901
CS:pref_late: 10
CS:misses: 188095
CS:misses_by_poll: 3

CPLX: 
CPLX:times selected: 41947
CPLX:pref_filled: 126
CPLX:pref_useful: 126
CPLX:pref_late: 1
CPLX:misses: 0
CPLX:misses_by_poll: 0

NL_L1: 
NL:times selected: 2
NL:pref_filled: 0
NL:pref_useful: 0
NL:pref_late: 0
NL:misses: 0
NL:misses_by_poll: 0

total selections: 1735453
total_filled: 351310
total_useful: 351304
total_late: 107
total_polluted: 3
total_misses_after_warmup: 31005
conflicts: 0
Degree Incremented Times: 463189
Degree Decremented Times: 0

L1 IP Table Write Accesses: 49963275
L1 IP Table Read Accesses: 49963275
L1 RST Write Accesses: 2755592
L1 RST Read Accesses: 5511184
L1 CSPT Write Accesses: 2755592
L1 CSPT Read Accesses: 3251217
L1 RR Filter Tag Write Accesses: 1573062
L1 RR Filter Tag Read Accesses: 460650780
L1 IP Table Tag Write Accesses: 49963275
L1 IP Table Tag Read Accesses: 49963275
L1 RST Tag Write Accesses: 0
L1 RST Tag Read Accesses: 24794872
L1 RR Filter Write Accesses: 0
L1 RR Filter Read Accesses: 23585716
test: 55486
LLC TOTAL     ACCESS:    1073801  HIT:     326946  MISS:     746855  HIT %:    30.4475  MISS %:    69.5525   MPKI: 3.73427
LLC LOAD      ACCESS:       6247  HIT:          0  MISS:       6247  HIT %:          0  MISS %:        100   MPKI: 0.031235
LLC RFO       ACCESS:     357658  HIT:          0  MISS:     357658  HIT %:          0  MISS %:        100   MPKI: 1.78829
LLC PREFETCH  ACCESS:     351417  HIT:          0  MISS:     351417  HIT %:          0  MISS %:        100   MPKI: 1.75709
LLC WRITEBACK ACCESS:     357059  HIT:     326945  MISS:      30114  HIT %:    91.5661  MISS %:     8.4339   MPKI: 0.15057

RAW hits: 0
Loads Generated: 42774636
Loads sent to L1D: 42774636
Stores Generated: 22890146
Stores sent to L1D: 22890146

Region of Interest Statistics

CPU 0 cumulative IPC: 1.13935 instructions: 200000001 cycles: 175539397
ITLB TOTAL     ACCESS:   33180426  HIT:   33180426  MISS:          0  HIT %:        100  MISS %:          0   MPKI: 0
ITLB LOAD TRANSLATION ACCESS:   33180426  HIT:   33180426  MISS:          0  HIT %:        100  MISS %:          0   MPKI: 0
ITLB PREFETCH  REQUESTED:          0  ISSUED:          0  USEFUL:          0  USELESS:          0
ITLB USEFUL LOAD PREFETCHES:          0 PREFETCH ISSUED TO LOWER LEVEL:          0  ACCURACY: -nan
ITLB TIMELY PREFETCHES:          0 LATE PREFETCHES: 0 DROPPED PREFETCHES: 0
ITLB PREFETCHES SAME FILL-ORIGIN LEVEL: 0 DIFFERENT FILL-ORIGIN LEVEL: 0
ITLB AVERAGE MISS LATENCY: -nan cycles
ITLB RQ	ACCESS:   33189035	FORWARD:          0	MERGED:          0	TO_CACHE:   33189035

DTLB TOTAL     ACCESS:   33839961  HIT:   33828783  MISS:      11178  HIT %:     99.967  MISS %:   0.033032   MPKI: 0.05589
DTLB LOAD TRANSLATION ACCESS:   33839961  HIT:   33828783  MISS:      11178  HIT %:     99.967  MISS %:   0.033032   MPKI: 0.05589
DTLB PREFETCH  REQUESTED:          0  ISSUED:          0  USEFUL:          0  USELESS:          0
DTLB USEFUL LOAD PREFETCHES:          0 PREFETCH ISSUED TO LOWER LEVEL:          0  ACCURACY: -nan
DTLB TIMELY PREFETCHES:          0 LATE PREFETCHES: 0 DROPPED PREFETCHES: 0
DTLB PREFETCHES SAME FILL-ORIGIN LEVEL: 0 DIFFERENT FILL-ORIGIN LEVEL: 0
DTLB AVERAGE MISS LATENCY: 150.753 cycles
DTLB RQ	ACCESS:   35390282	FORWARD:          0	MERGED:    1507648	TO_CACHE:   33882634

STLB TOTAL     ACCESS:     344071  HIT:     332893  MISS:      11178  HIT %:    96.7513  MISS %:    3.24875   MPKI: 0.05589
STLB LOAD TRANSLATION ACCESS:      11178  HIT:          0  MISS:      11178  HIT %:          0  MISS %:        100   MPKI: 0.05589
STLB TRANSLATION FROM L1D PREFETCHER ACCESS:     332893  HIT:     332893  MISS:          0  HIT %:        100  MISS %:          0   MPKI: 0
STLB PREFETCH  REQUESTED:          0  ISSUED:          0  USEFUL:          0  USELESS:          0
STLB USEFUL LOAD PREFETCHES:          0 PREFETCH ISSUED TO LOWER LEVEL:          0  ACCURACY: -nan
STLB TIMELY PREFETCHES:          0 LATE PREFETCHES: 0 DROPPED PREFETCHES: 0
STLB PREFETCHES SAME FILL-ORIGIN LEVEL: 0 DIFFERENT FILL-ORIGIN LEVEL: 0
STLB AVERAGE MISS LATENCY: 141.749 cycles
STLB RQ	ACCESS:     404925	FORWARD:          0	MERGED:      60766	TO_CACHE:     344159

STLB Hit, L1D data hit: 0
STLB Hit, L2C data hit: 0
STLB Hit, LLC data hit: 0
STLB Hit, LLC data miss: 0
STLB STLB hints to L2: 0
L1D TOTAL     ACCESS:   25129405  HIT:   24414084  MISS:     715321  HIT %:    97.1535  MISS %:    2.84655   MPKI: 3.5766
L1D LOAD      ACCESS:   12469851  HIT:   12464180  MISS:       5671  HIT %:    99.9545  MISS %:  0.0454777   MPKI: 0.028355
L1D RFO       ACCESS:   12265989  HIT:   11908331  MISS:     357658  HIT %:    97.0841  MISS %:    2.91585   MPKI: 1.78829
L1D PREFETCH  ACCESS:     393565  HIT:      41573  MISS:     351992  HIT %:    10.5632  MISS %:    89.4368   MPKI: 1.75996
L1D PREFETCH  REQUESTED:     787484  ISSUED:     787484  USEFUL:     352078  USELESS:          0
L1D USEFUL LOAD PREFETCHES:     352078 PREFETCH ISSUED TO LOWER LEVEL:     352165  ACCURACY: 99.9753
L1D TIMELY PREFETCHES:     352078 LATE PREFETCHES: 81 DROPPED PREFETCHES: 0
L1D PREFETCHES SAME FILL-ORIGIN LEVEL: 352165 DIFFERENT FILL-ORIGIN LEVEL: 0
L1D AVERAGE MISS LATENCY: 224.245 cycles
L1D RQ	ACCESS:   42785732	FORWARD:          0	MERGED:   30291531	TO_CACHE:   12494201
L1D WQ	ACCESS:   22896081	FORWARD:          0	MERGED:          0	TO_CACHE:   22896081
L1D PQ	ACCESS:     393742	FORWARD:          0	MERGED:          0	TO_CACHE:     393742

L1D UNIQUE REGIONS ACCESSED: 0
L1D REGIONS CONFLICTS: 0
L1D Cross Page Prefetch Requests: 0
L1D Same Page Prefetch Requests: 481976
L1D ROI Sum of L1D PQ occupancy: 4352064
L1D PREFETCHES PUSHED FROM L2C: 0
L1I TOTAL     ACCESS:   33180426  HIT:   33180426  MISS:          0  HIT %:        100  MISS %:          0   MPKI: 0
L1I LOAD      ACCESS:   33180426  HIT:   33180426  MISS:          0  HIT %:        100  MISS %:          0   MPKI: 0
L1I PREFETCH  REQUESTED:          0  ISSUED:          0  USEFUL:          0  USELESS:          0
L1I USEFUL LOAD PREFETCHES:          0 PREFETCH ISSUED TO LOWER LEVEL:          0  ACCURACY: -nan
L1I TIMELY PREFETCHES:          0 LATE PREFETCHES: 0 DROPPED PREFETCHES: 0
L1I PREFETCHES SAME FILL-ORIGIN LEVEL: 0 DIFFERENT FILL-ORIGIN LEVEL: 0
L1I AVERAGE MISS LATENCY: -nan cycles
L1I RQ	ACCESS:   55505600	FORWARD:          0	MERGED:   22316565	TO_CACHE:   33189035

BTB TOTAL     ACCESS:   45780289  HIT:   45780288  MISS:          1  HIT %:        100  MISS %: 2.18435e-06   MPKI: 5e-06
BTB BRANCH_DIRECT_JUMP	ACCESS:          0  HIT:          0  MISS:          0
BTB BRANCH_INDIRECT	ACCESS:          0  HIT:          0  MISS:          0
BTB BRANCH_CONDITIONAL	ACCESS:   45780289  HIT:   45780288  MISS:          1
BTB BRANCH_DIRECT_CALL	ACCESS:          0  HIT:          0  MISS:          0
BTB BRANCH_INDIRECT_CALL	ACCESS:          0  HIT:          0  MISS:          0
BTB BRANCH_RETURN	ACCESS:          0  HIT:          0  MISS:          0
BTB BRANCH_OTHER ACCESS:          0  HIT:          0  MISS:          0

L2C TOTAL     ACCESS:    1084162  HIT:     214777  MISS:     869385  HIT %:    19.8104  MISS %:    80.1896   MPKI: 4.34692
L2C LOAD      ACCESS:       5590  HIT:          0  MISS:       5590  HIT %:          0  MISS %:        100   MPKI: 0.02795
L2C DATA LOAD MPKI: 0.02795
L2C INSTRUCTION LOAD MPKI: 0
L2C RFO       ACCESS:     357658  HIT:          0  MISS:     357658  HIT %:          0  MISS %:        100   MPKI: 1.78829
L2C PREFETCH  ACCESS:     352073  HIT:          0  MISS:     352073  HIT %:          0  MISS %:        100   MPKI: 1.76036
L2C DATA PREFETCH MPKI: 1.76036
L2C INSTRUCTION PREFETCH MPKI: 0
L2C WRITEBACK ACCESS:     357663  HIT:     205020  MISS:     152643  HIT %:    57.3221  MISS %:    42.6779   MPKI: 0.763215
L2C LOAD TRANSLATION ACCESS:      11178  HIT:       9757  MISS:       1421  HIT %:    87.2875  MISS %:    12.7125   MPKI: 0.007105
L2C PREFETCH  REQUESTED:          0  ISSUED:          0  USEFUL:          0  USELESS:     353846
L2C USEFUL LOAD PREFETCHES:          0 PREFETCH ISSUED TO LOWER LEVEL:     352165  ACCURACY: 0
L2C TIMELY PREFETCHES:          0 LATE PREFETCHES: 0 DROPPED PREFETCHES: 0
L2C PREFETCHES SAME FILL-ORIGIN LEVEL: 0 DIFFERENT FILL-ORIGIN LEVEL: 0
L2C AVERAGE MISS LATENCY: 174.192 cycles
L2C RQ	ACCESS:     374527	FORWARD:          0	MERGED:          0	TO_CACHE:     374527
L2C WQ	ACCESS:     357742	FORWARD:          0	MERGED:          0	TO_CACHE:     357742
L2C PQ	ACCESS:     352165	FORWARD:          0	MERGED:          0	TO_CACHE:     352165

L2C Instructions Evicting Data 0
L2C Translations Evicting Data 1420
L2C Data Evicting Data 714207
L2C Instructions Evicting Instructions 0
L2C Translations Evicting Instructions 0
L2C Data Evicting Instructions 0
L2C Instructions Evicting Translations 0
L2C Translations Evicting Translations 3
L2C Data Evicting Translations 1301
L2C Dense regions hint from L2: 0
PSCL5 TOTAL     ACCESS:      11178  HIT:      11178  MISS:          0  HIT %:        100  MISS %:          0   MPKI: 0
PSCL5 LOAD TRANSLATION ACCESS:      11178  HIT:      11178  MISS:          0  HIT %:        100  MISS %:          0   MPKI: 0
PSCL5 PREFETCH  REQUESTED:          0  ISSUED:          0  USEFUL:          0  USELESS:          0
PSCL5 USEFUL LOAD PREFETCHES:          0 PREFETCH ISSUED TO LOWER LEVEL:          0  ACCURACY: -nan
PSCL5 TIMELY PREFETCHES:          0 LATE PREFETCHES: 0 DROPPED PREFETCHES: 0
PSCL5 PREFETCHES SAME FILL-ORIGIN LEVEL: 0 DIFFERENT FILL-ORIGIN LEVEL: 0

PSCL4 TOTAL     ACCESS:      11178  HIT:      11178  MISS:          0  HIT %:        100  MISS %:          0   MPKI: 0
PSCL4 LOAD TRANSLATION ACCESS:      11178  HIT:      11178  MISS:          0  HIT %:        100  MISS %:          0   MPKI: 0
PSCL4 PREFETCH  REQUESTED:          0  ISSUED:          0  USEFUL:          0  USELESS:          0
PSCL4 USEFUL LOAD PREFETCHES:          0 PREFETCH ISSUED TO LOWER LEVEL:          0  ACCURACY: -nan
PSCL4 TIMELY PREFETCHES:          0 LATE PREFETCHES: 0 DROPPED PREFETCHES: 0
PSCL4 PREFETCHES SAME FILL-ORIGIN LEVEL: 0 DIFFERENT FILL-ORIGIN LEVEL: 0

PSCL3 TOTAL     ACCESS:      11178  HIT:      11178  MISS:          0  HIT %:        100  MISS %:          0   MPKI: 0
PSCL3 LOAD TRANSLATION ACCESS:      11178  HIT:      11178  MISS:          0  HIT %:        100  MISS %:          0   MPKI: 0
PSCL3 PREFETCH  REQUESTED:          0  ISSUED:          0  USEFUL:          0  USELESS:          0
PSCL3 USEFUL LOAD PREFETCHES:          0 PREFETCH ISSUED TO LOWER LEVEL:          0  ACCURACY: -nan
PSCL3 TIMELY PREFETCHES:          0 LATE PREFETCHES: 0 DROPPED PREFETCHES: 0
PSCL3 PREFETCHES SAME FILL-ORIGIN LEVEL: 0 DIFFERENT FILL-ORIGIN LEVEL: 0

PSCL2 TOTAL     ACCESS:      11178  HIT:      11156  MISS:         22  HIT %:    99.8032  MISS %:   0.196815   MPKI: 0.00011
PSCL2 LOAD TRANSLATION ACCESS:      11178  HIT:      11156  MISS:         22  HIT %:    99.8032  MISS %:   0.196815   MPKI: 0.00011
PSCL2 PREFETCH  REQUESTED:          0  ISSUED:          0  USEFUL:          0  USELESS:          0
PSCL2 USEFUL LOAD PREFETCHES:          0 PREFETCH ISSUED TO LOWER LEVEL:          0  ACCURACY: -nan
PSCL2 TIMELY PREFETCHES:          0 LATE PREFETCHES: 0 DROPPED PREFETCHES: 0
PSCL2 PREFETCHES SAME FILL-ORIGIN LEVEL: 0 DIFFERENT FILL-ORIGIN LEVEL: 0

LLC TOTAL     ACCESS:    1072749  HIT:     330273  MISS:     742476  HIT %:    30.7875  MISS %:    69.2125   MPKI: 3.71238
LLC LOAD      ACCESS:       5590  HIT:          0  MISS:       5590  HIT %:          0  MISS %:        100   MPKI: 0.02795
LLC RFO       ACCESS:     357658  HIT:          0  MISS:     357658  HIT %:          0  MISS %:        100   MPKI: 1.78829
LLC PREFETCH  ACCESS:     352073  HIT:          0  MISS:     352073  HIT %:          0  MISS %:        100   MPKI: 1.76036
LLC WRITEBACK ACCESS:     356007  HIT:     330272  MISS:      25735  HIT %:    92.7712  MISS %:    7.22879   MPKI: 0.128675
LLC LOAD TRANSLATION ACCESS:       1421  HIT:          1  MISS:       1420  HIT %:   0.070373  MISS %:    99.9296   MPKI: 0.0071
LLC PREFETCH  REQUESTED:          0  ISSUED:          0  USEFUL:          0  USELESS:    1362269
LLC USEFUL LOAD PREFETCHES:          0 PREFETCH ISSUED TO LOWER LEVEL:    1407136  ACCURACY: 0
LLC TIMELY PREFETCHES:          0 LATE PREFETCHES: 0 DROPPED PREFETCHES: 0
LLC PREFETCHES SAME FILL-ORIGIN LEVEL: 0 DIFFERENT FILL-ORIGIN LEVEL: 0
LLC AVERAGE MISS LATENCY: 695.688 cycles
LLC RQ	ACCESS:    1460223	FORWARD:          0	MERGED:          0	TO_CACHE:    1460223
LLC WQ	ACCESS:    1427346	FORWARD:          0	MERGED:          0	TO_CACHE:    1427346
LLC PQ	ACCESS:    1407136	FORWARD:          0	MERGED:          0	TO_CACHE:    1407136

LLC Dense regions hint to LLC: 0

RAW hits: 0
Loads Generated: 42774635
Loads sent to L1D: 42774635
Stores Generated: 22890147
Stores sent to L1D: 22890146
Major fault: 0 Minor fault: 14010
Allocated PAGES: 56040

CPU 1 cumulative IPC: 1.13922 instructions: 200000001 cycles: 175558877
ITLB TOTAL     ACCESS:   33180548  HIT:   33180548  MISS:          0  HIT %:        100  MISS %:          0   MPKI: 0
ITLB LOAD TRANSLATION ACCESS:   33180548  HIT:   33180548  MISS:          0  HIT %:        100  MISS %:          0   MPKI: 0
ITLB PREFETCH  REQUESTED:          0  ISSUED:          0  USEFUL:          0  USELESS:          0
ITLB USEFUL LOAD PREFETCHES:          0 PREFETCH ISSUED TO LOWER LEVEL:          0  ACCURACY: -nan
ITLB TIMELY PREFETCHES:          0 LATE PREFETCHES: 0 DROPPED PREFETCHES: 0
ITLB PREFETCHES SAME FILL-ORIGIN LEVEL: 0 DIFFERENT FILL-ORIGIN LEVEL: 0
ITLB AVERAGE MISS LATENCY: -nan cycles
ITLB RQ	ACCESS:   33185545	FORWARD:          0	MERGED:          0	TO_CACHE:   33185545

DTLB TOTAL     ACCESS:   33839309  HIT:   33828131  MISS:      11178  HIT %:     99.967  MISS %:  0.0330326   MPKI: 0.05589
DTLB LOAD TRANSLATION ACCESS:   33839309  HIT:   33828131  MISS:      11178  HIT %:     99.967  MISS %:  0.0330326   MPKI: 0.05589
DTLB PREFETCH  REQUESTED:          0  ISSUED:          0  USEFUL:          0  USELESS:          0
DTLB USEFUL LOAD PREFETCHES:          0 PREFETCH ISSUED TO LOWER LEVEL:          0  ACCURACY: -nan
DTLB TIMELY PREFETCHES:          0 LATE PREFETCHES: 0 DROPPED PREFETCHES: 0
DTLB PREFETCHES SAME FILL-ORIGIN LEVEL: 0 DIFFERENT FILL-ORIGIN LEVEL: 0
DTLB AVERAGE MISS LATENCY: 151.099 cycles
DTLB RQ	ACCESS:   35384796	FORWARD:          0	MERGED:    1506390	TO_CACHE:   33878406

STLB TOTAL     ACCESS:     343598  HIT:     332420  MISS:      11178  HIT %:    96.7468  MISS %:    3.25322   MPKI: 0.05589
STLB LOAD TRANSLATION ACCESS:      11178  HIT:          0  MISS:      11178  HIT %:          0  MISS %:        100   MPKI: 0.05589
STLB TRANSLATION FROM L1D PREFETCHER ACCESS:     332420  HIT:     332420  MISS:          0  HIT %:        100  MISS %:          0   MPKI: 0
STLB PREFETCH  REQUESTED:          0  ISSUED:          0  USEFUL:          0  USELESS:          0
STLB USEFUL LOAD PREFETCHES:          0 PREFETCH ISSUED TO LOWER LEVEL:          0  ACCURACY: -nan
STLB TIMELY PREFETCHES:          0 LATE PREFETCHES: 0 DROPPED PREFETCHES: 0
STLB PREFETCHES SAME FILL-ORIGIN LEVEL: 0 DIFFERENT FILL-ORIGIN LEVEL: 0
STLB AVERAGE MISS LATENCY: 142.097 cycles
STLB RQ	ACCESS:     404372	FORWARD:          0	MERGED:      60722	TO_CACHE:     343650

STLB Hit, L1D data hit: 0
STLB Hit, L2C data hit: 0
STLB Hit, LLC data hit: 0
STLB Hit, LLC data miss: 0
STLB STLB hints to L2: 0
L1D TOTAL     ACCESS:   25029410  HIT:   24314086  MISS:     715324  HIT %:    97.1421  MISS %:    2.85793   MPKI: 3.57662
L1D LOAD      ACCESS:   12466864  HIT:   12460940  MISS:       5924  HIT %:    99.9525  MISS %:   0.047518   MPKI: 0.02962
L1D RFO       ACCESS:   12169498  HIT:   11811840  MISS:     357658  HIT %:     97.061  MISS %:    2.93897   MPKI: 1.78829
L1D PREFETCH  ACCESS:     393048  HIT:      41306  MISS:     351742  HIT %:    10.5091  MISS %:    89.4909   MPKI: 1.75871
L1D PREFETCH  REQUESTED:     786382  ISSUED:     786382  USEFUL:     351787  USELESS:          0
L1D USEFUL LOAD PREFETCHES:     351787 PREFETCH ISSUED TO LOWER LEVEL:     351879  ACCURACY: 99.9739
L1D TIMELY PREFETCHES:     351787 LATE PREFETCHES: 80 DROPPED PREFETCHES: 0
L1D PREFETCHES SAME FILL-ORIGIN LEVEL: 351879 DIFFERENT FILL-ORIGIN LEVEL: 0
L1D AVERAGE MISS LATENCY: 222.212 cycles
L1D RQ	ACCESS:   42781079	FORWARD:          0	MERGED:   30289876	TO_CACHE:   12491203
L1D WQ	ACCESS:   22893593	FORWARD:          0	MERGED:          0	TO_CACHE:   22893593
L1D PQ	ACCESS:     393191	FORWARD:          0	MERGED:          0	TO_CACHE:     393191

L1D UNIQUE REGIONS ACCESSED: 0
L1D REGIONS CONFLICTS: 0
L1D Cross Page Prefetch Requests: 0
L1D Same Page Prefetch Requests: 393194
L1D ROI Sum of L1D PQ occupancy: 4346513
L1D PREFETCHES PUSHED FROM L2C: 0
L1I TOTAL     ACCESS:   33180547  HIT:   33180547  MISS:          0  HIT %:        100  MISS %:          0   MPKI: 0
L1I LOAD      ACCESS:   33180547  HIT:   33180547  MISS:          0  HIT %:        100  MISS %:          0   MPKI: 0
L1I PREFETCH  REQUESTED:          0  ISSUED:          0  USEFUL:          0  USELESS:          0
L1I USEFUL LOAD PREFETCHES:          0 PREFETCH ISSUED TO LOWER LEVEL:          0  ACCURACY: -nan
L1I TIMELY PREFETCHES:          0 LATE PREFETCHES: 0 DROPPED PREFETCHES: 0
L1I PREFETCHES SAME FILL-ORIGIN LEVEL: 0 DIFFERENT FILL-ORIGIN LEVEL: 0
L1I AVERAGE MISS LATENCY: -nan cycles
L1I RQ	ACCESS:   55499066	FORWARD:          0	MERGED:   22313521	TO_CACHE:   33185545

BTB TOTAL     ACCESS:   45780288  HIT:   45780287  MISS:          1  HIT %:        100  MISS %: 2.18435e-06   MPKI: 5e-06
BTB BRANCH_DIRECT_JUMP	ACCESS:          0  HIT:          0  MISS:          0
BTB BRANCH_INDIRECT	ACCESS:          0  HIT:          0  MISS:          0
BTB BRANCH_CONDITIONAL	ACCESS:   45780288  HIT:   45780287  MISS:          1
BTB BRANCH_DIRECT_CALL	ACCESS:          0  HIT:          0  MISS:          0
BTB BRANCH_INDIRECT_CALL	ACCESS:          0  HIT:          0  MISS:          0
BTB BRANCH_RETURN	ACCESS:          0  HIT:          0  MISS:          0
BTB BRANCH_OTHER ACCESS:          0  HIT:          0  MISS:          0

L2C TOTAL     ACCESS:    1084162  HIT:     207674  MISS:     876488  HIT %:    19.1553  MISS %:    80.8447   MPKI: 4.38244
L2C LOAD      ACCESS:       5844  HIT:          0  MISS:       5844  HIT %:          0  MISS %:        100   MPKI: 0.02922
L2C DATA LOAD MPKI: 0.02922
L2C INSTRUCTION LOAD MPKI: 0
L2C RFO       ACCESS:     357658  HIT:          0  MISS:     357658  HIT %:          0  MISS %:        100   MPKI: 1.78829
L2C PREFETCH  ACCESS:     351823  HIT:          0  MISS:     351823  HIT %:          0  MISS %:        100   MPKI: 1.75911
L2C DATA PREFETCH MPKI: 1.75911
L2C INSTRUCTION PREFETCH MPKI: 0
L2C WRITEBACK ACCESS:     357659  HIT:     197917  MISS:     159742  HIT %:    55.3368  MISS %:    44.6632   MPKI: 0.79871
L2C LOAD TRANSLATION ACCESS:      11178  HIT:       9757  MISS:       1421  HIT %:    87.2875  MISS %:    12.7125   MPKI: 0.007105
L2C PREFETCH  REQUESTED:          0  ISSUED:          0  USEFUL:          0  USELESS:     347759
L2C USEFUL LOAD PREFETCHES:          0 PREFETCH ISSUED TO LOWER LEVEL:     351879  ACCURACY: 0
L2C TIMELY PREFETCHES:          0 LATE PREFETCHES: 0 DROPPED PREFETCHES: 0
L2C PREFETCHES SAME FILL-ORIGIN LEVEL: 0 DIFFERENT FILL-ORIGIN LEVEL: 0
L2C AVERAGE MISS LATENCY: 171.124 cycles
L2C RQ	ACCESS:     374739	FORWARD:          0	MERGED:          0	TO_CACHE:     374739
L2C WQ	ACCESS:     357709	FORWARD:          0	MERGED:          0	TO_CACHE:     357709
L2C PQ	ACCESS:     351879	FORWARD:          0	MERGED:          0	TO_CACHE:     351879

L2C Instructions Evicting Data 0
L2C Translations Evicting Data 1422
L2C Data Evicting Data 714156
L2C Instructions Evicting Instructions 0
L2C Translations Evicting Instructions 0
L2C Data Evicting Instructions 0
L2C Instructions Evicting Translations 0
L2C Translations Evicting Translations 0
L2C Data Evicting Translations 1280
L2C Dense regions hint from L2: 0
PSCL5 TOTAL     ACCESS:      11178  HIT:      11178  MISS:          0  HIT %:        100  MISS %:          0   MPKI: 0
PSCL5 LOAD TRANSLATION ACCESS:      11178  HIT:      11178  MISS:          0  HIT %:        100  MISS %:          0   MPKI: 0
PSCL5 PREFETCH  REQUESTED:          0  ISSUED:          0  USEFUL:          0  USELESS:          0
PSCL5 USEFUL LOAD PREFETCHES:          0 PREFETCH ISSUED TO LOWER LEVEL:          0  ACCURACY: -nan
PSCL5 TIMELY PREFETCHES:          0 LATE PREFETCHES: 0 DROPPED PREFETCHES: 0
PSCL5 PREFETCHES SAME FILL-ORIGIN LEVEL: 0 DIFFERENT FILL-ORIGIN LEVEL: 0

PSCL4 TOTAL     ACCESS:      11178  HIT:      11178  MISS:          0  HIT %:        100  MISS %:          0   MPKI: 0
PSCL4 LOAD TRANSLATION ACCESS:      11178  HIT:      11178  MISS:          0  HIT %:        100  MISS %:          0   MPKI: 0
PSCL4 PREFETCH  REQUESTED:          0  ISSUED:          0  USEFUL:          0  USELESS:          0
PSCL4 USEFUL LOAD PREFETCHES:          0 PREFETCH ISSUED TO LOWER LEVEL:          0  ACCURACY: -nan
PSCL4 TIMELY PREFETCHES:          0 LATE PREFETCHES: 0 DROPPED PREFETCHES: 0
PSCL4 PREFETCHES SAME FILL-ORIGIN LEVEL: 0 DIFFERENT FILL-ORIGIN LEVEL: 0

PSCL3 TOTAL     ACCESS:      11178  HIT:      11178  MISS:          0  HIT %:        100  MISS %:          0   MPKI: 0
PSCL3 LOAD TRANSLATION ACCESS:      11178  HIT:      11178  MISS:          0  HIT %:        100  MISS %:          0   MPKI: 0
PSCL3 PREFETCH  REQUESTED:          0  ISSUED:          0  USEFUL:          0  USELESS:          0
PSCL3 USEFUL LOAD PREFETCHES:          0 PREFETCH ISSUED TO LOWER LEVEL:          0  ACCURACY: -nan
PSCL3 TIMELY PREFETCHES:          0 LATE PREFETCHES: 0 DROPPED PREFETCHES: 0
PSCL3 PREFETCHES SAME FILL-ORIGIN LEVEL: 0 DIFFERENT FILL-ORIGIN LEVEL: 0

PSCL2 TOTAL     ACCESS:      11178  HIT:      11156  MISS:         22  HIT %:    99.8032  MISS %:   0.196815   MPKI: 0.00011
PSCL2 LOAD TRANSLATION ACCESS:      11178  HIT:      11156  MISS:         22  HIT %:    99.8032  MISS %:   0.196815   MPKI: 0.00011
PSCL2 PREFETCH  REQUESTED:          0  ISSUED:          0  USEFUL:          0  USELESS:          0
PSCL2 USEFUL LOAD PREFETCHES:          0 PREFETCH ISSUED TO LOWER LEVEL:          0  ACCURACY: -nan
PSCL2 TIMELY PREFETCHES:          0 LATE PREFETCHES: 0 DROPPED PREFETCHES: 0
PSCL2 PREFETCHES SAME FILL-ORIGIN LEVEL: 0 DIFFERENT FILL-ORIGIN LEVEL: 0

LLC TOTAL     ACCESS:    1074587  HIT:     329465  MISS:     745122  HIT %:    30.6597  MISS %:    69.3403   MPKI: 3.72561
LLC LOAD      ACCESS:       5844  HIT:          0  MISS:       5844  HIT %:          0  MISS %:        100   MPKI: 0.02922
LLC RFO       ACCESS:     357658  HIT:          0  MISS:     357658  HIT %:          0  MISS %:        100   MPKI: 1.78829
LLC PREFETCH  ACCESS:     351824  HIT:          0  MISS:     351824  HIT %:          0  MISS %:        100   MPKI: 1.75912
LLC WRITEBACK ACCESS:     357840  HIT:     329464  MISS:      28376  HIT %:    92.0702  MISS %:     7.9298   MPKI: 0.14188
LLC LOAD TRANSLATION ACCESS:       1421  HIT:          1  MISS:       1420  HIT %:   0.070373  MISS %:    99.9296   MPKI: 0.0071
LLC PREFETCH  REQUESTED:          0  ISSUED:          0  USEFUL:          0  USELESS:    1362269
LLC USEFUL LOAD PREFETCHES:          0 PREFETCH ISSUED TO LOWER LEVEL:    1407136  ACCURACY: 0
LLC TIMELY PREFETCHES:          0 LATE PREFETCHES: 0 DROPPED PREFETCHES: 0
LLC PREFETCHES SAME FILL-ORIGIN LEVEL: 0 DIFFERENT FILL-ORIGIN LEVEL: 0
LLC AVERAGE MISS LATENCY: 693.217 cycles
LLC RQ	ACCESS:    1460223	FORWARD:          0	MERGED:          0	TO_CACHE:    1460223
LLC WQ	ACCESS:    1427346	FORWARD:          0	MERGED:          0	TO_CACHE:    1427346
LLC PQ	ACCESS:    1407136	FORWARD:          0	MERGED:          0	TO_CACHE:    1407136

LLC Dense regions hint to LLC: 0

RAW hits: 0
Loads Generated: 42774636
Loads sent to L1D: 42774636
Stores Generated: 22890147
Stores sent to L1D: 22890147
Major fault: 0 Minor fault: 14010
Allocated PAGES: 56040

CPU 2 cumulative IPC: 1.13917 instructions: 200000002 cycles: 175566552
ITLB TOTAL     ACCESS:   33180503  HIT:   33180503  MISS:          0  HIT %:        100  MISS %:          0   MPKI: 0
ITLB LOAD TRANSLATION ACCESS:   33180503  HIT:   33180503  MISS:          0  HIT %:        100  MISS %:          0   MPKI: 0
ITLB PREFETCH  REQUESTED:          0  ISSUED:          0  USEFUL:          0  USELESS:          0
ITLB USEFUL LOAD PREFETCHES:          0 PREFETCH ISSUED TO LOWER LEVEL:          0  ACCURACY: -nan
ITLB TIMELY PREFETCHES:          0 LATE PREFETCHES: 0 DROPPED PREFETCHES: 0
ITLB PREFETCHES SAME FILL-ORIGIN LEVEL: 0 DIFFERENT FILL-ORIGIN LEVEL: 0
ITLB AVERAGE MISS LATENCY: -nan cycles
ITLB RQ	ACCESS:   33183984	FORWARD:          0	MERGED:          0	TO_CACHE:   33183984

DTLB TOTAL     ACCESS:   33838171  HIT:   33826993  MISS:      11178  HIT %:     99.967  MISS %:  0.0330337   MPKI: 0.05589
DTLB LOAD TRANSLATION ACCESS:   33838171  HIT:   33826993  MISS:      11178  HIT %:     99.967  MISS %:  0.0330337   MPKI: 0.05589
DTLB PREFETCH  REQUESTED:          0  ISSUED:          0  USEFUL:          0  USELESS:          0
DTLB USEFUL LOAD PREFETCHES:          0 PREFETCH ISSUED TO LOWER LEVEL:          0  ACCURACY: -nan
DTLB TIMELY PREFETCHES:          0 LATE PREFETCHES: 0 DROPPED PREFETCHES: 0
DTLB PREFETCHES SAME FILL-ORIGIN LEVEL: 0 DIFFERENT FILL-ORIGIN LEVEL: 0
DTLB AVERAGE MISS LATENCY: 151.211 cycles
DTLB RQ	ACCESS:   35382808	FORWARD:          0	MERGED:    1506392	TO_CACHE:   33876416

STLB TOTAL     ACCESS:     342627  HIT:     331449  MISS:      11178  HIT %:    96.7376  MISS %:    3.26244   MPKI: 0.05589
STLB LOAD TRANSLATION ACCESS:      11178  HIT:          0  MISS:      11178  HIT %:          0  MISS %:        100   MPKI: 0.05589
STLB TRANSLATION FROM L1D PREFETCHER ACCESS:     331449  HIT:     331449  MISS:          0  HIT %:        100  MISS %:          0   MPKI: 0
STLB PREFETCH  REQUESTED:          0  ISSUED:          0  USEFUL:          0  USELESS:          0
STLB USEFUL LOAD PREFETCHES:          0 PREFETCH ISSUED TO LOWER LEVEL:          0  ACCURACY: -nan
STLB TIMELY PREFETCHES:          0 LATE PREFETCHES: 0 DROPPED PREFETCHES: 0
STLB PREFETCHES SAME FILL-ORIGIN LEVEL: 0 DIFFERENT FILL-ORIGIN LEVEL: 0
STLB AVERAGE MISS LATENCY: 142.208 cycles
STLB RQ	ACCESS:     404165	FORWARD:          0	MERGED:      61502	TO_CACHE:     342663

STLB Hit, L1D data hit: 0
STLB Hit, L2C data hit: 0
STLB Hit, LLC data hit: 0
STLB Hit, LLC data miss: 0
STLB STLB hints to L2: 0
L1D TOTAL     ACCESS:   25141624  HIT:   24426299  MISS:     715325  HIT %:    97.1548  MISS %:    2.84518   MPKI: 3.57662
L1D LOAD      ACCESS:   12465604  HIT:   12459484  MISS:       6120  HIT %:    99.9509  MISS %:  0.0490951   MPKI: 0.0306
L1D RFO       ACCESS:   12283181  HIT:   11925523  MISS:     357658  HIT %:    97.0882  MISS %:    2.91177   MPKI: 1.78829
L1D PREFETCH  ACCESS:     392839  HIT:      41292  MISS:     351547  HIT %:    10.5112  MISS %:    89.4888   MPKI: 1.75773
L1D PREFETCH  REQUESTED:     785968  ISSUED:     785968  USEFUL:     351575  USELESS:          0
L1D USEFUL LOAD PREFETCHES:     351575 PREFETCH ISSUED TO LOWER LEVEL:     351675  ACCURACY: 99.9716
L1D TIMELY PREFETCHES:     351575 LATE PREFETCHES: 88 DROPPED PREFETCHES: 0
L1D PREFETCHES SAME FILL-ORIGIN LEVEL: 351675 DIFFERENT FILL-ORIGIN LEVEL: 0
L1D AVERAGE MISS LATENCY: 223.717 cycles
L1D RQ	ACCESS:   42779123	FORWARD:          0	MERGED:   30288861	TO_CACHE:   12490262
L1D WQ	ACCESS:   22892546	FORWARD:          0	MERGED:          0	TO_CACHE:   22892546
L1D PQ	ACCESS:     392984	FORWARD:          0	MERGED:          0	TO_CACHE:     392984

L1D UNIQUE REGIONS ACCESSED: 0
L1D REGIONS CONFLICTS: 0
L1D Cross Page Prefetch Requests: 0
L1D Same Page Prefetch Requests: 392984
L1D ROI Sum of L1D PQ occupancy: 4344495
L1D PREFETCHES PUSHED FROM L2C: 0
L1I TOTAL     ACCESS:   33180502  HIT:   33180502  MISS:          0  HIT %:        100  MISS %:          0   MPKI: 0
L1I LOAD      ACCESS:   33180502  HIT:   33180502  MISS:          0  HIT %:        100  MISS %:          0   MPKI: 0
L1I PREFETCH  REQUESTED:          0  ISSUED:          0  USEFUL:          0  USELESS:          0
L1I USEFUL LOAD PREFETCHES:          0 PREFETCH ISSUED TO LOWER LEVEL:          0  ACCURACY: -nan
L1I TIMELY PREFETCHES:          0 LATE PREFETCHES: 0 DROPPED PREFETCHES: 0
L1I PREFETCHES SAME FILL-ORIGIN LEVEL: 0 DIFFERENT FILL-ORIGIN LEVEL: 0
L1I AVERAGE MISS LATENCY: -nan cycles
L1I RQ	ACCESS:   55496763	FORWARD:          0	MERGED:   22312779	TO_CACHE:   33183984

BTB TOTAL     ACCESS:   45780289  HIT:   45780287  MISS:          2  HIT %:        100  MISS %: 4.36869e-06   MPKI: 1e-05
BTB BRANCH_DIRECT_JUMP	ACCESS:          0  HIT:          0  MISS:          0
BTB BRANCH_INDIRECT	ACCESS:          0  HIT:          0  MISS:          0
BTB BRANCH_CONDITIONAL	ACCESS:   45780289  HIT:   45780287  MISS:          2
BTB BRANCH_DIRECT_CALL	ACCESS:          0  HIT:          0  MISS:          0
BTB BRANCH_INDIRECT_CALL	ACCESS:          0  HIT:          0  MISS:          0
BTB BRANCH_RETURN	ACCESS:          0  HIT:          0  MISS:          0
BTB BRANCH_OTHER ACCESS:          0  HIT:          0  MISS:          0

L2C TOTAL     ACCESS:    1084164  HIT:     219990  MISS:     864174  HIT %:    20.2912  MISS %:    79.7088   MPKI: 4.32087
L2C LOAD      ACCESS:       6032  HIT:          0  MISS:       6032  HIT %:          0  MISS %:        100   MPKI: 0.03016
L2C DATA LOAD MPKI: 0.03016
L2C INSTRUCTION LOAD MPKI: 0
L2C RFO       ACCESS:     357658  HIT:          0  MISS:     357658  HIT %:          0  MISS %:        100   MPKI: 1.78829
L2C PREFETCH  ACCESS:     351636  HIT:          0  MISS:     351636  HIT %:          0  MISS %:        100   MPKI: 1.75818
L2C DATA PREFETCH MPKI: 1.75818
L2C INSTRUCTION PREFETCH MPKI: 0
L2C WRITEBACK ACCESS:     357660  HIT:     210233  MISS:     147427  HIT %:    58.7801  MISS %:    41.2199   MPKI: 0.737135
L2C LOAD TRANSLATION ACCESS:      11178  HIT:       9757  MISS:       1421  HIT %:    87.2875  MISS %:    12.7125   MPKI: 0.007105
L2C PREFETCH  REQUESTED:          0  ISSUED:          0  USEFUL:          0  USELESS:     349255
L2C USEFUL LOAD PREFETCHES:          0 PREFETCH ISSUED TO LOWER LEVEL:     351675  ACCURACY: 0
L2C TIMELY PREFETCHES:          0 LATE PREFETCHES: 0 DROPPED PREFETCHES: 0
L2C PREFETCHES SAME FILL-ORIGIN LEVEL: 0 DIFFERENT FILL-ORIGIN LEVEL: 0
L2C AVERAGE MISS LATENCY: 174.81 cycles
L2C RQ	ACCESS:     374910	FORWARD:          0	MERGED:          0	TO_CACHE:     374910
L2C WQ	ACCESS:     357687	FORWARD:          0	MERGED:          0	TO_CACHE:     357687
L2C PQ	ACCESS:     351675	FORWARD:          0	MERGED:          0	TO_CACHE:     351675

L2C Instructions Evicting Data 0
L2C Translations Evicting Data 1422
L2C Data Evicting Data 714137
L2C Instructions Evicting Instructions 0
L2C Translations Evicting Instructions 0
L2C Data Evicting Instructions 0
L2C Instructions Evicting Translations 0
L2C Translations Evicting Translations 0
L2C Data Evicting Translations 1267
L2C Dense regions hint from L2: 0
PSCL5 TOTAL     ACCESS:      11178  HIT:      11178  MISS:          0  HIT %:        100  MISS %:          0   MPKI: 0
PSCL5 LOAD TRANSLATION ACCESS:      11178  HIT:      11178  MISS:          0  HIT %:        100  MISS %:          0   MPKI: 0
PSCL5 PREFETCH  REQUESTED:          0  ISSUED:          0  USEFUL:          0  USELESS:          0
PSCL5 USEFUL LOAD PREFETCHES:          0 PREFETCH ISSUED TO LOWER LEVEL:          0  ACCURACY: -nan
PSCL5 TIMELY PREFETCHES:          0 LATE PREFETCHES: 0 DROPPED PREFETCHES: 0
PSCL5 PREFETCHES SAME FILL-ORIGIN LEVEL: 0 DIFFERENT FILL-ORIGIN LEVEL: 0

PSCL4 TOTAL     ACCESS:      11178  HIT:      11178  MISS:          0  HIT %:        100  MISS %:          0   MPKI: 0
PSCL4 LOAD TRANSLATION ACCESS:      11178  HIT:      11178  MISS:          0  HIT %:        100  MISS %:          0   MPKI: 0
[...]
LLC LOAD      ACCESS:       6032  HIT:          0  MISS:       6032  HIT %:          0  MISS %:        100   MPKI: 0.03016
LLC RFO       ACCESS:     357658  HIT:          0  MISS:     357658  HIT %:          0  MISS %:        100   MPKI: 1.78829
LLC PREFETCH  ACCESS:     351637  HIT:          0  MISS:     351637  HIT %:          0  MISS %:        100   MPKI: 1.75818
LLC WRITEBACK ACCESS:     356269  HIT:     327748  MISS:      28521  HIT %:    91.9945  MISS %:    8.00547   MPKI: 0.142605
LLC LOAD TRANSLATION ACCESS:       1421  HIT:          1  MISS:       1420  HIT %:   0.070373  MISS %:    99.9296   MPKI: 0.0071
LLC PREFETCH  REQUESTED:          0  ISSUED:          0  USEFUL:          0  USELESS:    1362269
LLC USEFUL LOAD PREFETCHES:          0 PREFETCH ISSUED TO LOWER LEVEL:    1407136  ACCURACY: 0
LLC TIMELY PREFETCHES:          0 LATE PREFETCHES: 0 DROPPED PREFETCHES: 0
LLC PREFETCHES SAME FILL-ORIGIN LEVEL: 0 DIFFERENT FILL-ORIGIN LEVEL: 0
LLC AVERAGE MISS LATENCY: 693.081 cycles
LLC RQ	ACCESS:    1460223	FORWARD:          0	MERGED:          0	TO_CACHE:    1460223
LLC WQ	ACCESS:    1427346	FORWARD:          0	MERGED:          0	TO_CACHE:    1427346
LLC PQ	ACCESS:    1407136	FORWARD:          0	MERGED:          0	TO_CACHE:    1407136

LLC Dense regions hint to LLC: 0

RAW hits: 0
Loads Generated: 42774636
Loads sent to L1D: 42774636
Stores Generated: 22890148
Stores sent to L1D: 22890147
Major fault: 0 Minor fault: 14010
Allocated PAGES: 56040

CPU 3 cumulative IPC: 1.13905 instructions: 200000000 cycles: 175585395
ITLB TOTAL     ACCESS:   33180567  HIT:   33180567  MISS:          0  HIT %:        100  MISS %:          0   MPKI: 0
ITLB LOAD TRANSLATION ACCESS:   33180567  HIT:   33180567  MISS:          0  HIT %:        100  MISS %:          0   MPKI: 0
ITLB PREFETCH  REQUESTED:          0  ISSUED:          0  USEFUL:          0  USELESS:          0
ITLB USEFUL LOAD PREFETCHES:          0 PREFETCH ISSUED TO LOWER LEVEL:          0  ACCURACY: -nan
ITLB TIMELY PREFETCHES:          0 LATE PREFETCHES: 0 DROPPED PREFETCHES: 0
ITLB PREFETCHES SAME FILL-ORIGIN LEVEL: 0 DIFFERENT FILL-ORIGIN LEVEL: 0
ITLB AVERAGE MISS LATENCY: -nan cycles
ITLB RQ	ACCESS:   33180567	FORWARD:          0	MERGED:          0	TO_CACHE:   33180567

DTLB TOTAL     ACCESS:   33837601  HIT:   33826424  MISS:      11177  HIT %:     99.967  MISS %:  0.0330313   MPKI: 0.055885
DTLB LOAD TRANSLATION ACCESS:   33837601  HIT:   33826424  MISS:      11177  HIT %:     99.967  MISS %:  0.0330313   MPKI: 0.055885
DTLB PREFETCH  REQUESTED:          0  ISSUED:          0  USEFUL:          0  USELESS:          0
DTLB USEFUL LOAD PREFETCHES:          0 PREFETCH ISSUED TO LOWER LEVEL:          0  ACCURACY: -nan
DTLB TIMELY PREFETCHES:          0 LATE PREFETCHES: 0 DROPPED PREFETCHES: 0
DTLB PREFETCHES SAME FILL-ORIGIN LEVEL: 0 DIFFERENT FILL-ORIGIN LEVEL: 0
DTLB AVERAGE MISS LATENCY: 151.458 cycles
DTLB RQ	ACCESS:   35377754	FORWARD:          0	MERGED:    1505739	TO_CACHE:   33872015

STLB TOTAL     ACCESS:     342019  HIT:     330842  MISS:      11177  HIT %:    96.7321  MISS %:    3.26795   MPKI: 0.055885
STLB LOAD TRANSLATION ACCESS:      11177  HIT:          0  MISS:      11177  HIT %:          0  MISS %:        100   MPKI: 0.055885
STLB TRANSLATION FROM L1D PREFETCHER ACCESS:     330842  HIT:     330842  MISS:          0  HIT %:        100  MISS %:          0   MPKI: 0
STLB PREFETCH  REQUESTED:          0  ISSUED:          0  USEFUL:          0  USELESS:          0
STLB USEFUL LOAD PREFETCHES:          0 PREFETCH ISSUED TO LOWER LEVEL:          0  ACCURACY: -nan
STLB TIMELY PREFETCHES:          0 LATE PREFETCHES: 0 DROPPED PREFETCHES: 0
STLB PREFETCHES SAME FILL-ORIGIN LEVEL: 0 DIFFERENT FILL-ORIGIN LEVEL: 0
STLB AVERAGE MISS LATENCY: 142.458 cycles
STLB RQ	ACCESS:     404323	FORWARD:          0	MERGED:      62303	TO_CACHE:     342020

STLB Hit, L1D data hit: 0
STLB Hit, L2C data hit: 0
STLB Hit, LLC data hit: 0
STLB Hit, LLC data miss: 0
STLB STLB hints to L2: 0
L1D TOTAL     ACCESS:   25093005  HIT:   24377683  MISS:     715322  HIT %:    97.1493  MISS %:    2.85068   MPKI: 3.57661
L1D LOAD      ACCESS:   12462957  HIT:   12456603  MISS:       6354  HIT %:     99.949  MISS %:  0.0509831   MPKI: 0.03177
L1D RFO       ACCESS:   12237054  HIT:   11879396  MISS:     357658  HIT %:    97.0773  MISS %:    2.92275   MPKI: 1.78829
L1D PREFETCH  ACCESS:     392994  HIT:      41684  MISS:     351310  HIT %:    10.6068  MISS %:    89.3932   MPKI: 1.75655
L1D PREFETCH  REQUESTED:     786290  ISSUED:     786290  USEFUL:     351304  USELESS:          0
L1D USEFUL LOAD PREFETCHES:     351304 PREFETCH ISSUED TO LOWER LEVEL:     351417  ACCURACY: 99.9678
L1D TIMELY PREFETCHES:     351304 LATE PREFETCHES: 107 DROPPED PREFETCHES: 0
L1D PREFETCHES SAME FILL-ORIGIN LEVEL: 351417 DIFFERENT FILL-ORIGIN LEVEL: 0
L1D AVERAGE MISS LATENCY: 222.78 cycles
L1D RQ	ACCESS:   42774636	FORWARD:          0	MERGED:   30287028	TO_CACHE:   12487608
L1D WQ	ACCESS:   22890146	FORWARD:          0	MERGED:          0	TO_CACHE:   22890146
L1D PQ	ACCESS:     393145	FORWARD:          0	MERGED:          0	TO_CACHE:     393145

L1D UNIQUE REGIONS ACCESSED: 0
L1D REGIONS CONFLICTS: 0
L1D Cross Page Prefetch Requests: 0
L1D Same Page Prefetch Requests: 393145
L1D ROI Sum of L1D PQ occupancy: 4346193
L1D PREFETCHES PUSHED FROM L2C: 0
L1I TOTAL     ACCESS:   33180567  HIT:   33180567  MISS:          0  HIT %:        100  MISS %:          0   MPKI: 0
L1I LOAD      ACCESS:   33180567  HIT:   33180567  MISS:          0  HIT %:        100  MISS %:          0   MPKI: 0
L1I PREFETCH  REQUESTED:          0  ISSUED:          0  USEFUL:          0  USELESS:          0
L1I USEFUL LOAD PREFETCHES:          0 PREFETCH ISSUED TO LOWER LEVEL:          0  ACCURACY: -nan
L1I TIMELY PREFETCHES:          0 LATE PREFETCHES: 0 DROPPED PREFETCHES: 0
L1I PREFETCHES SAME FILL-ORIGIN LEVEL: 0 DIFFERENT FILL-ORIGIN LEVEL: 0
L1I AVERAGE MISS LATENCY: -nan cycles
L1I RQ	ACCESS:   55491110	FORWARD:          0	MERGED:   22310543	TO_CACHE:   33180567

BTB TOTAL     ACCESS:   45780287  HIT:   45780285  MISS:          2  HIT %:        100  MISS %: 4.36869e-06   MPKI: 1e-05
BTB BRANCH_DIRECT_JUMP	ACCESS:          0  HIT:          0  MISS:          0
BTB BRANCH_INDIRECT	ACCESS:          0  HIT:          0  MISS:          0
BTB BRANCH_CONDITIONAL	ACCESS:   45780287  HIT:   45780285  MISS:          2
BTB BRANCH_DIRECT_CALL	ACCESS:          0  HIT:          0  MISS:          0
BTB BRANCH_INDIRECT_CALL	ACCESS:          0  HIT:          0  MISS:          0
BTB BRANCH_RETURN	ACCESS:          0  HIT:          0  MISS:          0
BTB BRANCH_OTHER ACCESS:          0  HIT:          0  MISS:          0

L2C TOTAL     ACCESS:    1084157  HIT:     211524  MISS:     872633  HIT %:    19.5105  MISS %:    80.4895   MPKI: 4.36317
L2C LOAD      ACCESS:       6247  HIT:          0  MISS:       6247  HIT %:          0  MISS %:        100   MPKI: 0.031235
L2C DATA LOAD MPKI: 0.031235
L2C INSTRUCTION LOAD MPKI: 0
L2C RFO       ACCESS:     357658  HIT:          0  MISS:     357658  HIT %:          0  MISS %:        100   MPKI: 1.78829
L2C PREFETCH  ACCESS:     351417  HIT:          0  MISS:     351417  HIT %:          0  MISS %:        100   MPKI: 1.75709
L2C DATA PREFETCH MPKI: 1.75709
L2C INSTRUCTION PREFETCH MPKI: 0
L2C WRITEBACK ACCESS:     357658  HIT:     201767  MISS:     155891  HIT %:    56.4134  MISS %:    43.5866   MPKI: 0.779455
L2C LOAD TRANSLATION ACCESS:      11177  HIT:       9757  MISS:       1420  HIT %:    87.2953  MISS %:    12.7047   MPKI: 0.0071
L2C PREFETCH  REQUESTED:          0  ISSUED:          0  USEFUL:          0  USELESS:     348458
L2C USEFUL LOAD PREFETCHES:          0 PREFETCH ISSUED TO LOWER LEVEL:     351417  ACCURACY: 0
L2C TIMELY PREFETCHES:          0 LATE PREFETCHES: 0 DROPPED PREFETCHES: 0
L2C PREFETCHES SAME FILL-ORIGIN LEVEL: 0 DIFFERENT FILL-ORIGIN LEVEL: 0
L2C AVERAGE MISS LATENCY: 172.359 cycles
L2C RQ	ACCESS:     375083	FORWARD:          0	MERGED:          0	TO_CACHE:     375083
L2C WQ	ACCESS:     357658	FORWARD:          0	MERGED:          0	TO_CACHE:     357658
L2C PQ	ACCESS:     351417	FORWARD:          0	MERGED:          0	TO_CACHE:     351417

L2C Instructions Evicting Data 0
L2C Translations Evicting Data 1420
L2C Data Evicting Data 714049
L2C Instructions Evicting Instructions 0
L2C Translations Evicting Instructions 0
L2C Data Evicting Instructions 0
L2C Instructions Evicting Translations 0
L2C Translations Evicting Translations 0
L2C Data Evicting Translations 1273
L2C Dense regions hint from L2: 0
PSCL5 TOTAL     ACCESS:      11178  HIT:      11178  MISS:          0  HIT %:        100  MISS %:          0   MPKI: 0
PSCL5 LOAD TRANSLATION ACCESS:      11178  HIT:      11178  MISS:          0  HIT %:        100  MISS %:          0   MPKI: 0
PSCL5 PREFETCH  REQUESTED:          0  ISSUED:          0  USEFUL:          0  USELESS:          0
PSCL5 USEFUL LOAD PREFETCHES:          0 PREFETCH ISSUED TO LOWER LEVEL:          0  ACCURACY: -nan
PSCL5 TIMELY PREFETCHES:          0 LATE PREFETCHES: 0 DROPPED PREFETCHES: 0
PSCL5 PREFETCHES SAME FILL-ORIGIN LEVEL: 0 DIFFERENT FILL-ORIGIN LEVEL: 0

PSCL4 TOTAL     ACCESS:      11178  HIT:      11178  MISS:          0  HIT %:        100  MISS %:          0   MPKI: 0
PSCL4 LOAD TRANSLATION ACCESS:      11178  HIT:      11178  MISS:          0  HIT %:        100  MISS %:          0   MPKI: 0
PSCL4 PREFETCH  REQUESTED:          0  ISSUED:          0  USEFUL:          0  USELESS:          0
PSCL4 USEFUL LOAD PREFETCHES:          0 PREFETCH ISSUED TO LOWER LEVEL:          0  ACCURACY: -nan
PSCL4 TIMELY PREFETCHES:          0 LATE PREFETCHES: 0 DROPPED PREFETCHES: 0
PSCL4 PREFETCHES SAME FILL-ORIGIN LEVEL: 0 DIFFERENT FILL-ORIGIN LEVEL: 0

PSCL3 TOTAL     ACCESS:      11178  HIT:      11178  MISS:          0  HIT %:        100  MISS %:          0   MPKI: 0
PSCL3 LOAD TRANSLATION ACCESS:      11178  HIT:      11178  MISS:          0  HIT %:        100  MISS %:          0   MPKI: 0
PSCL3 PREFETCH  REQUESTED:          0  ISSUED:          0  USEFUL:          0  USELESS:          0
PSCL3 USEFUL LOAD PREFETCHES:          0 PREFETCH ISSUED TO LOWER LEVEL:          0  ACCURACY: -nan
PSCL3 TIMELY PREFETCHES:          0 LATE PREFETCHES: 0 DROPPED PREFETCHES: 0
PSCL3 PREFETCHES SAME FILL-ORIGIN LEVEL: 0 DIFFERENT FILL-ORIGIN LEVEL: 0

PSCL2 TOTAL     ACCESS:      11178  HIT:      11156  MISS:         22  HIT %:    99.8032  MISS %:   0.196815   MPKI: 0.00011
PSCL2 LOAD TRANSLATION ACCESS:      11178  HIT:      11156  MISS:         22  HIT %:    99.8032  MISS %:   0.196815   MPKI: 0.00011
PSCL2 PREFETCH  REQUESTED:          0  ISSUED:          0  USEFUL:          0  USELESS:          0
PSCL2 USEFUL LOAD PREFETCHES:          0 PREFETCH ISSUED TO LOWER LEVEL:          0  ACCURACY: -nan
PSCL2 TIMELY PREFETCHES:          0 LATE PREFETCHES: 0 DROPPED PREFETCHES: 0
PSCL2 PREFETCHES SAME FILL-ORIGIN LEVEL: 0 DIFFERENT FILL-ORIGIN LEVEL: 0

LLC TOTAL     ACCESS:    1073801  HIT:     326946  MISS:     746855  HIT %:    30.4475  MISS %:    69.5525   MPKI: 3.73427
LLC LOAD      ACCESS:       6247  HIT:          0  MISS:       6247  HIT %:          0  MISS %:        100   MPKI: 0.031235
LLC RFO       ACCESS:     357658  HIT:          0  MISS:     357658  HIT %:          0  MISS %:        100   MPKI: 1.78829
LLC PREFETCH  ACCESS:     351417  HIT:          0  MISS:     351417  HIT %:          0  MISS %:        100   MPKI: 1.75709
LLC WRITEBACK ACCESS:     357059  HIT:     326945  MISS:      30114  HIT %:    91.5661  MISS %:     8.4339   MPKI: 0.15057
LLC LOAD TRANSLATION ACCESS:       1420  HIT:          1  MISS:       1419  HIT %:  0.0704225  MISS %:    99.9296   MPKI: 0.007095
LLC PREFETCH  REQUESTED:          0  ISSUED:          0  USEFUL:          0  USELESS:    1362269
LLC USEFUL LOAD PREFETCHES:          0 PREFETCH ISSUED TO LOWER LEVEL:    1407136  ACCURACY: 0
LLC TIMELY PREFETCHES:          0 LATE PREFETCHES: 0 DROPPED PREFETCHES: 0
LLC PREFETCHES SAME FILL-ORIGIN LEVEL: 0 DIFFERENT FILL-ORIGIN LEVEL: 0
LLC AVERAGE MISS LATENCY: 691.609 cycles
LLC RQ	ACCESS:    1460223	FORWARD:          0	MERGED:          0	TO_CACHE:    1460223
LLC WQ	ACCESS:    1427346	FORWARD:          0	MERGED:          0	TO_CACHE:    1427346
LLC PQ	ACCESS:    1407136	FORWARD:          0	MERGED:          0	TO_CACHE:    1407136

LLC Dense regions hint to LLC: 0

RAW hits: 0
Loads Generated: 42774636
Loads sent to L1D: 42774636
Stores Generated: 22890146
Stores sent to L1D: 22890146
Major fault: 0 Minor fault: 14010
Allocated PAGES: 56040

stream: 
stream:times selected: 867882
stream:pref_filled: 437898
stream:pref_useful: 437886
stream:pref_late: 78
stream:misses: 13
stream:misses_by_poll: 0

CS: 
CS:times selected: 825885
CS:pref_filled: 2110
CS:pref_useful: 2110
CS:pref_late: 3
CS:misses: 29526
CS:misses_by_poll: 8

CPLX: 
CPLX:times selected: 41939
CPLX:pref_filled: 134
CPLX:pref_useful: 134
CPLX:pref_late: 0
CPLX:misses: 0
CPLX:misses_by_poll: 0

NL_L1: 
NL:times selected: 4
NL:pref_filled: 0
NL:pref_useful: 0
NL:pref_late: 0
NL:misses: 0
NL:misses_by_poll: 0

total selections: 1735710
total_filled: 352084
total_useful: 352078
total_late: 81
total_polluted: 8
total_misses_after_warmup: 26784
conflicts: 0
Degree Incremented Times: 463189
Degree Decremented Times: 0

L1 IP Table Write Accesses: 49963275
L1 IP Table Read Accesses: 49963275
L1 RST Write Accesses: 2755592
L1 RST Read Accesses: 5511184
L1 CSPT Write Accesses: 2755592
L1 CSPT Read Accesses: 3251217
L1 RR Filter Tag Write Accesses: 1573062
L1 RR Filter Tag Read Accesses: 460650780
L1 IP Table Tag Write Accesses: 49963275
L1 IP Table Tag Read Accesses: 49963275
L1 RST Tag Write Accesses: 0
L1 RST Tag Read Accesses: 24794872
L1 RR Filter Write Accesses: 0
L1 RR Filter Read Accesses: 23585716
test: 55486

stream: 
stream:times selected: 867766
stream:pref_filled: 349952
stream:pref_useful: 349940
stream:pref_late: 78
stream:misses: 17
stream:misses_by_poll: 0

CS: 
CS:times selected: 825600
CS:pref_filled: 1702
CS:pref_useful: 1702
CS:pref_late: 2
CS:misses: 151759
CS:misses_by_poll: 2

CPLX: 
CPLX:times selected: 42108
CPLX:pref_filled: 148
CPLX:pref_useful: 148
CPLX:pref_late: 0
CPLX:misses: 0
CPLX:misses_by_poll: 0

NL_L1: 
NL:times selected: 2
NL:pref_filled: 0
NL:pref_useful: 0
NL:pref_late: 0
NL:misses: 0
NL:misses_by_poll: 0

total selections: 1735476
total_filled: 351799
total_useful: 351787
total_late: 80
total_polluted: 2
total_misses_after_warmup: 28373
conflicts: 0
Degree Incremented Times: 463189
Degree Decremented Times: 0

L1 IP Table Write Accesses: 49963275
L1 IP Table Read Accesses: 49963275
L1 RST Write Accesses: 2755592
L1 RST Read Accesses: 5511184
L1 CSPT Write Accesses: 2755592
L1 CSPT Read Accesses: 3251217
L1 RR Filter Tag Write Accesses: 1573062
L1 RR Filter Tag Read Accesses: 460650780
L1 IP Table Tag Write Accesses: 49963275
L1 IP Table Tag Read Accesses: 49963275
L1 RST Tag Write Accesses: 0
L1 RST Tag Read Accesses: 24794872
L1 RR Filter Write Accesses: 0
L1 RR Filter Read Accesses: 23585716
test: 55486

stream: 
stream:times selected: 867817
stream:pref_filled: 349692
stream:pref_useful: 349680
stream:pref_late: 79
stream:misses: 17
stream:misses_by_poll: 0

CS: 
CS:times selected: 825686
CS:pref_filled: 1759
CS:pref_useful: 1759
CS:pref_late: 9
CS:misses: 186397
CS:misses_by_poll: 6

CPLX: 
CPLX:times selected: 42078
CPLX:pref_filled: 136
CPLX:pref_useful: 136
CPLX:pref_late: 0
CPLX:misses: 0
CPLX:misses_by_poll: 0

NL_L1: 
NL:times selected: 2
NL:pref_filled: 0
NL:pref_useful: 0
NL:pref_late: 0
NL:misses: 0
NL:misses_by_poll: 0

total selections: 1735583
total_filled: 351587
total_useful: 351575
total_late: 88
total_polluted: 6
total_misses_after_warmup: 29458
conflicts: 0
Degree Incremented Times: 463189
Degree Decremented Times: 0

L1 IP Table Write Accesses: 49963275
L1 IP Table Read Accesses: 49963275
L1 RST Write Accesses: 2755592
L1 RST Read Accesses: 5511184
L1 CSPT Write Accesses: 2755592
L1 CSPT Read Accesses: 3251217
L1 RR Filter Tag Write Accesses: 1573062
L1 RR Filter Tag Read Accesses: 460650780
L1 IP Table Tag Write Accesses: 49963275
L1 IP Table Tag Read Accesses: 49963275
L1 RST Tag Write Accesses: 0
L1 RST Tag Read Accesses: 24794872
L1 RR Filter Write Accesses: 0
L1 RR Filter Read Accesses: 23585716
test: 55486

stream: 
stream:times selected: 867754
stream:pref_filled: 349283
stream:pref_useful: 349277
stream:pref_late: 96
stream:misses: 16
stream:misses_by_poll: 0

CS: 
CS:times selected: 825750
CS:pref_filled: 1901
CS:pref_useful: 1901
CS:pref_late: 10
CS:misses: 188095
CS:misses_by_poll: 3

CPLX: 
CPLX:times selected: 41947
CPLX:pref_filled: 126
CPLX:pref_useful: 126
CPLX:pref_late: 1
CPLX:misses: 0
CPLX:misses_by_poll: 0

NL_L1: 
NL:times selected: 2
NL:pref_filled: 0
NL:pref_useful: 0
NL:pref_late: 0
NL:misses: 0
NL:misses_by_poll: 0

total selections: 1735453
total_filled: 351310
total_useful: 351304
total_late: 107
total_polluted: 3
total_misses_after_warmup: 31005
conflicts: 0
Degree Incremented Times: 463189
Degree Decremented Times: 0

L1 IP Table Write Accesses: 49963275
L1 IP Table Read Accesses: 49963275
L1 RST Write Accesses: 2755592
L1 RST Read Accesses: 5511184
L1 CSPT Write Accesses: 2755592
L1 CSPT Read Accesses: 3251217
L1 RR Filter Tag Write Accesses: 1573062
L1 RR Filter Tag Read Accesses: 460650780
L1 IP Table Tag Write Accesses: 49963275
L1 IP Table Tag Read Accesses: 49963275
L1 RST Tag Write Accesses: 0
L1 RST Tag Read Accesses: 24794872
L1 RR Filter Write Accesses: 0
L1 RR Filter Read Accesses: 23585716
test: 55486

DRAM Statistics
 CHANNEL 0
 RQ ROW_BUFFER_HIT:    1363012  ROW_BUFFER_MISS:    1504341
 DBUS_CONGESTED:       1402
 WQ ROW_BUFFER_HIT:     717646  ROW_BUFFER_MISS:     714356  FULL:        316

 AVG_CONGESTED_CYCLE: 5
 All warmup complete: 5
Channel 0 Bank busy for read cycles: 0
Channel 0 Bank busy for write cycles: 0
Channel 0
Rank 0
0banks busy for read cycles: 536100
0banks busy for write cycles: 424
1banks busy for read cycles: 41555149
1banks busy for write cycles: 333529
2banks busy for read cycles: 52470864
2banks busy for write cycles: 361283
3banks busy for read cycles: 31045400
3banks busy for write cycles: 398101
4banks busy for read cycles: 8340119
4banks busy for write cycles: 446781
5banks busy for read cycles: 986182
5banks busy for write cycles: 517205
6banks busy for read cycles: 544453
6banks busy for write cycles: 668766
7banks busy for read cycles: 1729170
7banks busy for write cycles: 2562787
8banks busy for read cycles: 436791
8banks busy for write cycles: 32652292

CPU 0 Branch Prediction Accuracy: 99.4144% MPKI: 1.34044 Average ROB Occupancy at Mispredict: 33.0166
Branch types
NOT_BRANCH: 154259725 77.1099%
BRANCH_DIRECT_JUMP: 0 0%
BRANCH_INDIRECT: 0 0%
BRANCH_CONDITIONAL: 45792169 22.8901%
BRANCH_DIRECT_CALL: 0 0%
BRANCH_INDIRECT_CALL: 0 0%
BRANCH_RETURN: 0 0%
BRANCH_OTHER: 0 0%


CPU 1 Branch Prediction Accuracy: 99.4144% MPKI: 1.34046 Average ROB Occupancy at Mispredict: 33.0907
Branch types
NOT_BRANCH: 154242949 77.1099%
BRANCH_DIRECT_JUMP: 0 0%
BRANCH_INDIRECT: 0 0%
BRANCH_CONDITIONAL: 45787189 22.8901%
BRANCH_DIRECT_CALL: 0 0%
BRANCH_INDIRECT_CALL: 0 0%
BRANCH_RETURN: 0 0%
BRANCH_OTHER: 0 0%


CPU 2 Branch Prediction Accuracy: 99.4144% MPKI: 1.34045 Average ROB Occupancy at Mispredict: 33.1239
Branch types
NOT_BRANCH: 154235899 77.1099%
BRANCH_DIRECT_JUMP: 0 0%
BRANCH_INDIRECT: 0 0%
BRANCH_CONDITIONAL: 45785098 22.8901%
BRANCH_DIRECT_CALL: 0 0%
BRANCH_INDIRECT_CALL: 0 0%
BRANCH_RETURN: 0 0%
BRANCH_OTHER: 0 0%


CPU 3 Branch Prediction Accuracy: 99.4144% MPKI: 1.34044 Average ROB Occupancy at Mispredict: 33.1503
Branch types
NOT_BRANCH: 154219701 77.1099%
BRANCH_DIRECT_JUMP: 0 0%
BRANCH_INDIRECT: 0 0%
BRANCH_CONDITIONAL: 45780290 22.8901%
BRANCH_DIRECT_CALL: 0 0%
BRANCH_INDIRECT_CALL: 0 0%
BRANCH_RETURN: 0 0%
BRANCH_OTHER: 0 0%

DRAM PAGES: 1048576
Allocated PAGES: 56040
