
*** ChampSim Multicore Out-of-Order Simulator ***

Warmup Instructions: 50000000
Simulation Instructions: 200000000
Number of CPUs: 4
LLC sets: 8192
LLC ways: 16
Off-chip DRAM Size: 4096 MB Channels: 1 Width: 64-bit Data Rate: 6400 MT/s
CPU 0 runs ./traces/spec/649.fotonik3d_s-10881B.champsimtrace.xz
.xz
CPU 1 runs ./traces/spec/649.fotonik3d_s-10881B.champsimtrace.xz
.xz
CPU 2 runs ./traces/spec/649.fotonik3d_s-10881B.champsimtrace.xz
.xz
CPU 3 runs ./traces/spec/649.fotonik3d_s-10881B.champsimtrace.xz
.xz
BTB has LRU replacement policy
ITLB has LRU replacement policy
DTLB has LRU replacement policy
STLB has LRU replacement policy
L1I has LRU replacement policy
IP Table Entries: 1024
CSPT Entries: 128
RR_ENTRIES: 32
RST_ENTRIES: 8
L1D has LRU replacement policy
Initialize SRRIP state for L2C
Initialize DRRIP state for LLC
BTB has LRU replacement policy
ITLB has LRU replacement policy
DTLB has LRU replacement policy
STLB has LRU replacement policy
L1I has LRU replacement policy
IP Table Entries: 1024
CSPT Entries: 128
RR_ENTRIES: 32
RST_ENTRIES: 8
L1D has LRU replacement policy
Initialize SRRIP state for L2C
Initialize DRRIP state for LLC
BTB has LRU replacement policy
ITLB has LRU replacement policy
DTLB has LRU replacement policy
STLB has LRU replacement policy
L1I has LRU replacement policy
IP Table Entries: 1024
CSPT Entries: 128
RR_ENTRIES: 32
RST_ENTRIES: 8
L1D has LRU replacement policy
Initialize SRRIP state for L2C
Initialize DRRIP state for LLC
BTB has LRU replacement policy
ITLB has LRU replacement policy
DTLB has LRU replacement policy
STLB has LRU replacement policy
L1I has LRU replacement policy
IP Table Entries: 1024
CSPT Entries: 128
RR_ENTRIES: 32
RST_ENTRIES: 8
L1D has LRU replacement policy
Initialize SRRIP state for L2C
Initialize DRRIP state for LLC
Heartbeat CPU 0 instructions: 10000003 cycles: 5057557 heartbeat IPC: 1.97724 cumulative IPC: 1.97724 (Simulation time: 0 hr 6 min 18 sec) 
Heartbeat CPU 1 instructions: 10000003 cycles: 5057653 heartbeat IPC: 1.9772 cumulative IPC: 1.9772 (Simulation time: 0 hr 6 min 18 sec) 
Heartbeat CPU 3 instructions: 10000003 cycles: 5057765 heartbeat IPC: 1.97716 cumulative IPC: 1.97716 (Simulation time: 0 hr 6 min 18 sec) 
Heartbeat CPU 2 instructions: 10000003 cycles: 5057873 heartbeat IPC: 1.97712 cumulative IPC: 1.97712 (Simulation time: 0 hr 6 min 18 sec) 
Heartbeat CPU 0 instructions: 20000000 cycles: 10124812 heartbeat IPC: 1.97345 cumulative IPC: 1.97535 (Simulation time: 0 hr 12 min 32 sec) 
Heartbeat CPU 1 instructions: 20000000 cycles: 10124866 heartbeat IPC: 1.97347 cumulative IPC: 1.97533 (Simulation time: 0 hr 12 min 32 sec) 
Heartbeat CPU 3 instructions: 20000000 cycles: 10125221 heartbeat IPC: 1.97338 cumulative IPC: 1.97527 (Simulation time: 0 hr 12 min 32 sec) 
Heartbeat CPU 2 instructions: 20000000 cycles: 10125652 heartbeat IPC: 1.97325 cumulative IPC: 1.97518 (Simulation time: 0 hr 12 min 32 sec) 
Heartbeat CPU 0 instructions: 30000000 cycles: 15198909 heartbeat IPC: 1.97079 cumulative IPC: 1.97383 (Simulation time: 0 hr 19 min 1 sec) 
Heartbeat CPU 1 instructions: 30000000 cycles: 15199144 heartbeat IPC: 1.97072 cumulative IPC: 1.9738 (Simulation time: 0 hr 19 min 1 sec) 
Heartbeat CPU 3 instructions: 30000000 cycles: 15199954 heartbeat IPC: 1.97055 cumulative IPC: 1.97369 (Simulation time: 0 hr 19 min 2 sec) 
Heartbeat CPU 2 instructions: 30000000 cycles: 15200007 heartbeat IPC: 1.97069 cumulative IPC: 1.97368 (Simulation time: 0 hr 19 min 2 sec) 
Heartbeat CPU 0 instructions: 40000002 cycles: 20264383 heartbeat IPC: 1.97415 cumulative IPC: 1.97391 (Simulation time: 0 hr 25 min 42 sec) 
Heartbeat CPU 1 instructions: 40000002 cycles: 20264498 heartbeat IPC: 1.9742 cumulative IPC: 1.9739 (Simulation time: 0 hr 25 min 42 sec) 
Heartbeat CPU 3 instructions: 40000002 cycles: 20265447 heartbeat IPC: 1.97414 cumulative IPC: 1.9738 (Simulation time: 0 hr 25 min 42 sec) 
Heartbeat CPU 2 instructions: 40000002 cycles: 20265549 heartbeat IPC: 1.97412 cumulative IPC: 1.97379 (Simulation time: 0 hr 25 min 42 sec) 
Heartbeat CPU 0 instructions: 50000002 cycles: 25325473 heartbeat IPC: 1.97586 cumulative IPC: 1.9743 (Simulation time: 0 hr 32 min 7 sec) 
Heartbeat CPU 1 instructions: 50000002 cycles: 25325548 heartbeat IPC: 1.97587 cumulative IPC: 1.97429 (Simulation time: 0 hr 32 min 7 sec) 
Heartbeat CPU 3 instructions: 50000002 cycles: 25326539 heartbeat IPC: 1.97586 cumulative IPC: 1.97421 (Simulation time: 0 hr 32 min 7 sec) 
Heartbeat CPU 2 instructions: 50000002 cycles: 25326640 heartbeat IPC: 1.97586 cumulative IPC: 1.97421 (Simulation time: 0 hr 32 min 7 sec) 

Warmup complete CPU 0 instructions: 50002305 cycles: 25326640 (Simulation time: 0 hr 32 min 7 sec) 
Warmup complete CPU 1 instructions: 50002146 cycles: 25326640 (Simulation time: 0 hr 32 min 7 sec) 
Warmup complete CPU 2 instructions: 50000002 cycles: 25326640 (Simulation time: 0 hr 32 min 7 sec) 
Warmup complete CPU 3 instructions: 50000196 cycles: 25326639 (Simulation time: 0 hr 32 min 7 sec) 

Heartbeat CPU 3 instructions: 60000000 cycles: 56303887 heartbeat IPC: 0.322816 cumulative IPC: 0.322811 (Simulation time: 0 hr 39 min 10 sec) 
Heartbeat CPU 2 instructions: 60000000 cycles: 56428178 heartbeat IPC: 0.321527 cumulative IPC: 0.321527 (Simulation time: 0 hr 39 min 11 sec) 
Heartbeat CPU 1 instructions: 60000000 cycles: 56550533 heartbeat IPC: 0.320256 cumulative IPC: 0.320199 (Simulation time: 0 hr 39 min 13 sec) 
Heartbeat CPU 0 instructions: 60000000 cycles: 56570012 heartbeat IPC: 0.320056 cumulative IPC: 0.319994 (Simulation time: 0 hr 39 min 13 sec) 
Heartbeat CPU 3 instructions: 70000000 cycles: 87267123 heartbeat IPC: 0.322964 cumulative IPC: 0.322887 (Simulation time: 0 hr 45 min 59 sec) 
Heartbeat CPU 1 instructions: 70000000 cycles: 87631763 heartbeat IPC: 0.321738 cumulative IPC: 0.320966 (Simulation time: 0 hr 46 min 4 sec) 
Heartbeat CPU 0 instructions: 70000000 cycles: 87711932 heartbeat IPC: 0.321111 cumulative IPC: 0.320551 (Simulation time: 0 hr 46 min 5 sec) 
Heartbeat CPU 2 instructions: 70000000 cycles: 87715246 heartbeat IPC: 0.319621 cumulative IPC: 0.320571 (Simulation time: 0 hr 46 min 5 sec) 
Heartbeat CPU 3 instructions: 80000001 cycles: 118390805 heartbeat IPC: 0.321299 cumulative IPC: 0.322356 (Simulation time: 0 hr 52 min 41 sec) 
Heartbeat CPU 1 instructions: 80000001 cycles: 118518956 heartbeat IPC: 0.323759 cumulative IPC: 0.321892 (Simulation time: 0 hr 52 min 43 sec) 
Heartbeat CPU 2 instructions: 80000001 cycles: 118689596 heartbeat IPC: 0.322848 cumulative IPC: 0.321327 (Simulation time: 0 hr 52 min 45 sec) 
Heartbeat CPU 0 instructions: 80000001 cycles: 118821761 heartbeat IPC: 0.321442 cumulative IPC: 0.320848 (Simulation time: 0 hr 52 min 47 sec) 
Heartbeat CPU 3 instructions: 90000003 cycles: 149387680 heartbeat IPC: 0.322613 cumulative IPC: 0.32242 (Simulation time: 0 hr 59 min 17 sec) 
Heartbeat CPU 2 instructions: 90000003 cycles: 149658399 heartbeat IPC: 0.322906 cumulative IPC: 0.32172 (Simulation time: 0 hr 59 min 21 sec) 
Heartbeat CPU 1 instructions: 90000003 cycles: 149802635 heartbeat IPC: 0.319656 cumulative IPC: 0.32133 (Simulation time: 0 hr 59 min 23 sec) 
Heartbeat CPU 0 instructions: 90000003 cycles: 149860510 heartbeat IPC: 0.322178 cumulative IPC: 0.321179 (Simulation time: 0 hr 59 min 24 sec) 
Heartbeat CPU 3 instructions: 100000003 cycles: 180372229 heartbeat IPC: 0.322742 cumulative IPC: 0.322485 (Simulation time: 1 hr 5 min 31 sec) 
Heartbeat CPU 2 instructions: 100000003 cycles: 180871459 heartbeat IPC: 0.320379 cumulative IPC: 0.321451 (Simulation time: 1 hr 5 min 36 sec) 
Heartbeat CPU 1 instructions: 100000003 cycles: 180906499 heartbeat IPC: 0.321503 cumulative IPC: 0.321365 (Simulation time: 1 hr 5 min 36 sec) 
Heartbeat CPU 0 instructions: 100000003 cycles: 180990658 heartbeat IPC: 0.321232 cumulative IPC: 0.32119 (Simulation time: 1 hr 5 min 37 sec) 
Heartbeat CPU 3 instructions: 110000000 cycles: 2217789103 heartbeat IPC: 0.00490817 cumulative IPC: 0.0273664 (Simulation time: 1 hr 15 min 26 sec) 
Heartbeat CPU 2 instructions: 110000000 cycles: 2253947625 heartbeat IPC: 0.00482375 cumulative IPC: 0.0269225 (Simulation time: 1 hr 15 min 36 sec) 
Heartbeat CPU 1 instructions: 110000000 cycles: 2260011770 heartbeat IPC: 0.00480976 cumulative IPC: 0.0268485 (Simulation time: 1 hr 15 min 38 sec) 
Heartbeat CPU 0 instructions: 110000000 cycles: 2265447652 heartbeat IPC: 0.00479741 cumulative IPC: 0.0267832 (Simulation time: 1 hr 15 min 39 sec) 
Heartbeat CPU 3 instructions: 120000003 cycles: 4785350148 heartbeat IPC: 0.00389475 cumulative IPC: 0.0147058 (Simulation time: 1 hr 26 min 13 sec) 
Heartbeat CPU 2 instructions: 120000003 cycles: 4821492994 heartbeat IPC: 0.00389477 cumulative IPC: 0.014595 (Simulation time: 1 hr 26 min 22 sec) 
Heartbeat CPU 1 instructions: 120000003 cycles: 4827563661 heartbeat IPC: 0.00389476 cumulative IPC: 0.0145761 (Simulation time: 1 hr 26 min 24 sec) 
Heartbeat CPU 0 instructions: 120000003 cycles: 4832999886 heartbeat IPC: 0.00389476 cumulative IPC: 0.0145596 (Simulation time: 1 hr 26 min 25 sec) 
Heartbeat CPU 3 instructions: 130000000 cycles: 7352696743 heartbeat IPC: 0.00389507 cumulative IPC: 0.0109179 (Simulation time: 1 hr 37 min 17 sec) 
Heartbeat CPU 2 instructions: 130000000 cycles: 7388835179 heartbeat IPC: 0.00389508 cumulative IPC: 0.0108644 (Simulation time: 1 hr 37 min 26 sec) 
Heartbeat CPU 1 instructions: 130000000 cycles: 7394911501 heartbeat IPC: 0.00389507 cumulative IPC: 0.0108551 (Simulation time: 1 hr 37 min 28 sec) 
Heartbeat CPU 0 instructions: 130000000 cycles: 7400353005 heartbeat IPC: 0.00389506 cumulative IPC: 0.0108471 (Simulation time: 1 hr 37 min 29 sec) 
Heartbeat CPU 3 instructions: 140000002 cycles: 9920071404 heartbeat IPC: 0.00389503 cumulative IPC: 0.00909572 (Simulation time: 1 hr 48 min 23 sec) 
Heartbeat CPU 2 instructions: 140000002 cycles: 9956202611 heartbeat IPC: 0.00389504 cumulative IPC: 0.00906265 (Simulation time: 1 hr 48 min 32 sec) 
Heartbeat CPU 1 instructions: 140000002 cycles: 9962286782 heartbeat IPC: 0.00389503 cumulative IPC: 0.00905688 (Simulation time: 1 hr 48 min 34 sec) 
Heartbeat CPU 0 instructions: 140000002 cycles: 9967715486 heartbeat IPC: 0.00389505 cumulative IPC: 0.00905192 (Simulation time: 1 hr 48 min 35 sec) 
Heartbeat CPU 3 instructions: 150000003 cycles: 12487304936 heartbeat IPC: 0.00389524 cumulative IPC: 0.00802439 (Simulation time: 1 hr 59 min 32 sec) 
Heartbeat CPU 2 instructions: 150000003 cycles: 12523455279 heartbeat IPC: 0.00389521 cumulative IPC: 0.0080012 (Simulation time: 1 hr 59 min 42 sec) 
Heartbeat CPU 1 instructions: 150000003 cycles: 12529526666 heartbeat IPC: 0.00389523 cumulative IPC: 0.00799714 (Simulation time: 1 hr 59 min 43 sec) 
Heartbeat CPU 0 instructions: 150000003 cycles: 12534959296 heartbeat IPC: 0.00389523 cumulative IPC: 0.00799366 (Simulation time: 1 hr 59 min 45 sec) 
Heartbeat CPU 3 instructions: 160000001 cycles: 15054902601 heartbeat IPC: 0.00389469 cumulative IPC: 0.00731889 (Simulation time: 2 hr 11 min 16 sec) 
Heartbeat CPU 2 instructions: 160000001 cycles: 15091052581 heartbeat IPC: 0.00389469 cumulative IPC: 0.00730134 (Simulation time: 2 hr 11 min 26 sec) 
Heartbeat CPU 1 instructions: 160000001 cycles: 15097125660 heartbeat IPC: 0.00389469 cumulative IPC: 0.00729826 (Simulation time: 2 hr 11 min 28 sec) 
Heartbeat CPU 0 instructions: 160000001 cycles: 15102575544 heartbeat IPC: 0.00389466 cumulative IPC: 0.00729561 (Simulation time: 2 hr 11 min 29 sec) 
Heartbeat CPU 3 instructions: 170000001 cycles: 17622508658 heartbeat IPC: 0.00389468 cumulative IPC: 0.00681926 (Simulation time: 2 hr 22 min 53 sec) 
Heartbeat CPU 2 instructions: 170000001 cycles: 17658659845 heartbeat IPC: 0.00389468 cumulative IPC: 0.00680529 (Simulation time: 2 hr 23 min 3 sec) 
Heartbeat CPU 1 instructions: 170000001 cycles: 17664746985 heartbeat IPC: 0.00389466 cumulative IPC: 0.00680282 (Simulation time: 2 hr 23 min 5 sec) 
Heartbeat CPU 0 instructions: 170000001 cycles: 17670179271 heartbeat IPC: 0.00389468 cumulative IPC: 0.00680072 (Simulation time: 2 hr 23 min 7 sec) 
Heartbeat CPU 3 instructions: 180000002 cycles: 20190048985 heartbeat IPC: 0.00389478 cumulative IPC: 0.00644689 (Simulation time: 2 hr 34 min 25 sec) 
Heartbeat CPU 2 instructions: 180000002 cycles: 20226217103 heartbeat IPC: 0.00389475 cumulative IPC: 0.00643536 (Simulation time: 2 hr 34 min 35 sec) 
Heartbeat CPU 1 instructions: 180000002 cycles: 20232289059 heartbeat IPC: 0.00389478 cumulative IPC: 0.00643332 (Simulation time: 2 hr 34 min 37 sec) 
Heartbeat CPU 0 instructions: 180000002 cycles: 20237740331 heartbeat IPC: 0.00389475 cumulative IPC: 0.00643158 (Simulation time: 2 hr 34 min 39 sec) 
