
*** ChampSim Multicore Out-of-Order Simulator ***

Warmup Instructions: 50000000
Simulation Instructions: 200000000
Number of CPUs: 4
LLC sets: 8192
LLC ways: 16
Off-chip DRAM Size: 4096 MB Channels: 1 Width: 64-bit Data Rate: 6400 MT/s
CPU 0 runs ./traces/spec/607.cactuBSSN_s-3477B.champsimtrace.xz
.xz
CPU 1 runs ./traces/spec/459.GemsFDTD-1211B.champsimtrace.xz
.xz
CPU 2 runs ./traces/spec/481.wrf-1254B.champsimtrace.xz
.xz
CPU 3 runs ./traces/ligra/ligra_Components-Shortcut.com-lj.ungraph.gcc_6.3.0_O3.drop_3500M.length_250M.champsimtrace.xz
.xz
BTB has LRU replacement policy
ITLB has LRU replacement policy
DTLB has LRU replacement policy
STLB has LRU replacement policy
L1I has LRU replacement policy
IP Table Entries: 1024
CSPT Entries: 128
RR_ENTRIES: 32
RST_ENTRIES: 8
L1D has LRU replacement policy
Initialize SRRIP state for L2C
Initialize DRRIP state for LLC
BTB has LRU replacement policy
ITLB has LRU replacement policy
DTLB has LRU replacement policy
STLB has LRU replacement policy
L1I has LRU replacement policy
IP Table Entries: 1024
CSPT Entries: 128
RR_ENTRIES: 32
RST_ENTRIES: 8
L1D has LRU replacement policy
Initialize SRRIP state for L2C
Initialize DRRIP state for LLC
BTB has LRU replacement policy
ITLB has LRU replacement policy
DTLB has LRU replacement policy
STLB has LRU replacement policy
L1I has LRU replacement policy
IP Table Entries: 1024
CSPT Entries: 128
RR_ENTRIES: 32
RST_ENTRIES: 8
L1D has LRU replacement policy
Initialize SRRIP state for L2C
Initialize DRRIP state for LLC
BTB has LRU replacement policy
ITLB has LRU replacement policy
DTLB has LRU replacement policy
STLB has LRU replacement policy
L1I has LRU replacement policy
IP Table Entries: 1024
CSPT Entries: 128
RR_ENTRIES: 32
RST_ENTRIES: 8
L1D has LRU replacement policy
Initialize SRRIP state for L2C
Initialize DRRIP state for LLC
Heartbeat CPU 2 instructions: 10000000 cycles: 3291203 heartbeat IPC: 3.0384 cumulative IPC: 3.0384 (Simulation time: 0 hr 3 min 19 sec) 
Heartbeat CPU 3 instructions: 10000000 cycles: 3333347 heartbeat IPC: 2.99999 cumulative IPC: 2.99999 (Simulation time: 0 hr 3 min 21 sec) 
Heartbeat CPU 0 instructions: 10000000 cycles: 3672366 heartbeat IPC: 2.72304 cumulative IPC: 2.72304 (Simulation time: 0 hr 3 min 46 sec) 
Heartbeat CPU 1 instructions: 10000000 cycles: 5064919 heartbeat IPC: 1.97437 cumulative IPC: 1.97437 (Simulation time: 0 hr 5 min 18 sec) 
Heartbeat CPU 2 instructions: 20000001 cycles: 6256080 heartbeat IPC: 3.37282 cumulative IPC: 3.19689 (Simulation time: 0 hr 6 min 38 sec) 
Heartbeat CPU 3 instructions: 20000001 cycles: 6666681 heartbeat IPC: 3 cumulative IPC: 2.99999 (Simulation time: 0 hr 7 min 7 sec) 
Heartbeat CPU 0 instructions: 20000003 cycles: 7343107 heartbeat IPC: 2.72425 cumulative IPC: 2.72364 (Simulation time: 0 hr 7 min 51 sec) 
Heartbeat CPU 2 instructions: 30000002 cycles: 9024435 heartbeat IPC: 3.61225 cumulative IPC: 3.32431 (Simulation time: 0 hr 9 min 46 sec) 
Heartbeat CPU 3 instructions: 30000000 cycles: 10000014 heartbeat IPC: 3 cumulative IPC: 3 (Simulation time: 0 hr 10 min 46 sec) 
Heartbeat CPU 1 instructions: 20000001 cycles: 10125700 heartbeat IPC: 1.97598 cumulative IPC: 1.97517 (Simulation time: 0 hr 10 min 53 sec) 
Heartbeat CPU 0 instructions: 30000000 cycles: 11013612 heartbeat IPC: 2.72442 cumulative IPC: 2.7239 (Simulation time: 0 hr 11 min 44 sec) 
Heartbeat CPU 2 instructions: 40000001 cycles: 11791252 heartbeat IPC: 3.61426 cumulative IPC: 3.39235 (Simulation time: 0 hr 12 min 39 sec) 
Heartbeat CPU 3 instructions: 40000002 cycles: 13333348 heartbeat IPC: 3 cumulative IPC: 3 (Simulation time: 0 hr 14 min 32 sec) 
Heartbeat CPU 2 instructions: 50000001 cycles: 14569989 heartbeat IPC: 3.59876 cumulative IPC: 3.43171 (Simulation time: 0 hr 15 min 59 sec) 
Heartbeat CPU 0 instructions: 40000003 cycles: 14684182 heartbeat IPC: 2.72437 cumulative IPC: 2.72402 (Simulation time: 0 hr 16 min 6 sec) 
Heartbeat CPU 1 instructions: 30000002 cycles: 15187982 heartbeat IPC: 1.97539 cumulative IPC: 1.97525 (Simulation time: 0 hr 16 min 40 sec) 
Heartbeat CPU 3 instructions: 50000002 cycles: 16666681 heartbeat IPC: 3 cumulative IPC: 3 (Simulation time: 0 hr 18 min 7 sec) 
Heartbeat CPU 2 instructions: 60000000 cycles: 17346012 heartbeat IPC: 3.60228 cumulative IPC: 0.576501 (Simulation time: 0 hr 18 min 45 sec) 
Heartbeat CPU 0 instructions: 50000000 cycles: 18356786 heartbeat IPC: 2.72286 cumulative IPC: 2.72379 (Simulation time: 0 hr 19 min 43 sec) 
Heartbeat CPU 3 instructions: 60000002 cycles: 20070586 heartbeat IPC: 2.9378 cumulative IPC: 0.498242 (Simulation time: 0 hr 21 min 6 sec) 
Heartbeat CPU 2 instructions: 70000001 cycles: 20176318 heartbeat IPC: 3.53319 cumulative IPC: 0.991261 (Simulation time: 0 hr 21 min 11 sec) 
Heartbeat CPU 1 instructions: 40000000 cycles: 20250200 heartbeat IPC: 1.97542 cumulative IPC: 1.97529 (Simulation time: 0 hr 21 min 15 sec) 
Heartbeat CPU 0 instructions: 60000003 cycles: 22014311 heartbeat IPC: 2.73409 cumulative IPC: 0.45425 (Simulation time: 0 hr 22 min 58 sec) 
Heartbeat CPU 2 instructions: 80000001 cycles: 23073906 heartbeat IPC: 3.45115 cumulative IPC: 1.30017 (Simulation time: 0 hr 23 min 58 sec) 
Heartbeat CPU 3 instructions: 70000001 cycles: 23480889 heartbeat IPC: 2.93229 cumulative IPC: 0.851757 (Simulation time: 0 hr 24 min 20 sec) 
Heartbeat CPU 1 instructions: 50000003 cycles: 25307580 heartbeat IPC: 1.97731 cumulative IPC: 1.97569 (Simulation time: 0 hr 25 min 56 sec) 

Warmup complete CPU 0 instructions: 69006466 cycles: 25307580 (Simulation time: 0 hr 25 min 56 sec) 
Warmup complete CPU 1 instructions: 50000003 cycles: 25307580 (Simulation time: 0 hr 25 min 56 sec) 
Warmup complete CPU 2 instructions: 87384691 cycles: 25307579 (Simulation time: 0 hr 25 min 56 sec) 
Warmup complete CPU 3 instructions: 75387990 cycles: 25307579 (Simulation time: 0 hr 25 min 56 sec) 

Heartbeat CPU 0 instructions: 70000001 cycles: 26350569 heartbeat IPC: 2.30614 cumulative IPC: 0.952584 (Simulation time: 0 hr 26 min 20 sec) 
Heartbeat CPU 2 instructions: 90000002 cycles: 27926677 heartbeat IPC: 2.06068 cumulative IPC: 0.998554 (Simulation time: 0 hr 26 min 57 sec) 
Heartbeat CPU 3 instructions: 80000001 cycles: 29395863 heartbeat IPC: 1.69062 cumulative IPC: 1.1281 (Simulation time: 0 hr 27 min 26 sec) 
Heartbeat CPU 2 instructions: 100000000 cycles: 37059424 heartbeat IPC: 1.09496 cumulative IPC: 1.07347 (Simulation time: 0 hr 30 min 28 sec) 
Heartbeat CPU 0 instructions: 80000003 cycles: 37109465 heartbeat IPC: 0.929464 cumulative IPC: 0.931507 (Simulation time: 0 hr 30 min 29 sec) 
Heartbeat CPU 3 instructions: 90000003 cycles: 38226232 heartbeat IPC: 1.13246 cumulative IPC: 1.13108 (Simulation time: 0 hr 30 min 55 sec) 
Heartbeat CPU 1 instructions: 60000001 cycles: 41115900 heartbeat IPC: 0.632578 cumulative IPC: 0.632578 (Simulation time: 0 hr 32 min 3 sec) 
Heartbeat CPU 2 instructions: 110000000 cycles: 44326139 heartbeat IPC: 1.37614 cumulative IPC: 1.18912 (Simulation time: 0 hr 33 min 24 sec) 
Heartbeat CPU 3 instructions: 100000001 cycles: 47035548 heartbeat IPC: 1.13516 cumulative IPC: 1.13273 (Simulation time: 0 hr 34 min 36 sec) 
Heartbeat CPU 0 instructions: 90000000 cycles: 47524203 heartbeat IPC: 0.960177 cumulative IPC: 0.944947 (Simulation time: 0 hr 34 min 48 sec) 
Heartbeat CPU 2 instructions: 120000002 cycles: 50819769 heartbeat IPC: 1.53997 cumulative IPC: 1.27842 (Simulation time: 0 hr 36 min 13 sec) 
Heartbeat CPU 1 instructions: 70000003 cycles: 55765112 heartbeat IPC: 0.682631 cumulative IPC: 0.656652 (Simulation time: 0 hr 38 min 23 sec) 
Heartbeat CPU 3 instructions: 110000000 cycles: 55824485 heartbeat IPC: 1.13779 cumulative IPC: 1.13419 (Simulation time: 0 hr 38 min 25 sec) 
Heartbeat CPU 2 instructions: 130000002 cycles: 57113340 heartbeat IPC: 1.58892 cumulative IPC: 1.33986 (Simulation time: 0 hr 38 min 53 sec) 
Heartbeat CPU 0 instructions: 100000000 cycles: 57284671 heartbeat IPC: 1.02454 cumulative IPC: 0.969242 (Simulation time: 0 hr 38 min 58 sec) 
Heartbeat CPU 2 instructions: 140000003 cycles: 62818607 heartbeat IPC: 1.75277 cumulative IPC: 1.40266 (Simulation time: 0 hr 41 min 34 sec) 
Heartbeat CPU 3 instructions: 120000001 cycles: 64634577 heartbeat IPC: 1.13506 cumulative IPC: 1.13439 (Simulation time: 0 hr 42 min 23 sec) 
Heartbeat CPU 0 instructions: 110000000 cycles: 66964211 heartbeat IPC: 1.03311 cumulative IPC: 0.984082 (Simulation time: 0 hr 43 min 28 sec) 
Heartbeat CPU 2 instructions: 150000002 cycles: 68509914 heartbeat IPC: 1.75707 cumulative IPC: 1.44935 (Simulation time: 0 hr 44 min 9 sec) 
Heartbeat CPU 1 instructions: 80000000 cycles: 70230268 heartbeat IPC: 0.691316 cumulative IPC: 0.667814 (Simulation time: 0 hr 44 min 56 sec) 
Heartbeat CPU 3 instructions: 130000000 cycles: 73464033 heartbeat IPC: 1.13257 cumulative IPC: 1.13405 (Simulation time: 0 hr 46 min 22 sec) 
Heartbeat CPU 2 instructions: 160000002 cycles: 74627657 heartbeat IPC: 1.63459 cumulative IPC: 1.47233 (Simulation time: 0 hr 46 min 52 sec) 
Heartbeat CPU 0 instructions: 120000003 cycles: 76760013 heartbeat IPC: 1.02085 cumulative IPC: 0.991081 (Simulation time: 0 hr 47 min 45 sec) 
Heartbeat CPU 2 instructions: 170000001 cycles: 81501069 heartbeat IPC: 1.45488 cumulative IPC: 1.47019 (Simulation time: 0 hr 49 min 44 sec) 
Heartbeat CPU 3 instructions: 140000001 cycles: 82286451 heartbeat IPC: 1.13348 cumulative IPC: 1.13396 (Simulation time: 0 hr 50 min 1 sec) 
Heartbeat CPU 1 instructions: 90000000 cycles: 84757375 heartbeat IPC: 0.688368 cumulative IPC: 0.672837 (Simulation time: 0 hr 51 min 0 sec) 
Heartbeat CPU 0 instructions: 130000002 cycles: 86828937 heartbeat IPC: 0.993155 cumulative IPC: 0.991421 (Simulation time: 0 hr 51 min 49 sec) 
Heartbeat CPU 2 instructions: 180000003 cycles: 89315764 heartbeat IPC: 1.27964 cumulative IPC: 1.44693 (Simulation time: 0 hr 52 min 47 sec) 
Heartbeat CPU 3 instructions: 150000000 cycles: 91122056 heartbeat IPC: 1.13178 cumulative IPC: 1.13367 (Simulation time: 0 hr 53 min 23 sec) 
Heartbeat CPU 0 instructions: 140000000 cycles: 97466427 heartbeat IPC: 0.940071 cumulative IPC: 0.983851 (Simulation time: 0 hr 55 min 49 sec) 
Heartbeat CPU 2 instructions: 190000000 cycles: 98620176 heartbeat IPC: 1.07476 cumulative IPC: 1.3997 (Simulation time: 0 hr 56 min 17 sec) 
Heartbeat CPU 3 instructions: 160000000 cycles: 99980962 heartbeat IPC: 1.12881 cumulative IPC: 1.13309 (Simulation time: 0 hr 56 min 52 sec) 
Heartbeat CPU 1 instructions: 100000002 cycles: 100497154 heartbeat IPC: 0.635333 cumulative IPC: 0.664986 (Simulation time: 0 hr 57 min 5 sec) 
Heartbeat CPU 2 instructions: 200000000 cycles: 105611957 heartbeat IPC: 1.43025 cumulative IPC: 1.40236 (Simulation time: 0 hr 59 min 9 sec) 
Heartbeat CPU 0 instructions: 150000000 cycles: 108119041 heartbeat IPC: 0.938737 cumulative IPC: 0.978047 (Simulation time: 1 hr 0 min 12 sec) 
Heartbeat CPU 3 instructions: 170000002 cycles: 108738111 heartbeat IPC: 1.14192 cumulative IPC: 1.13402 (Simulation time: 1 hr 0 min 28 sec) 
Heartbeat CPU 2 instructions: 210000001 cycles: 111498044 heartbeat IPC: 1.69892 cumulative IPC: 1.42261 (Simulation time: 1 hr 1 min 42 sec) 
Heartbeat CPU 1 instructions: 110000000 cycles: 115516415 heartbeat IPC: 0.665812 cumulative IPC: 0.665123 (Simulation time: 1 hr 3 min 10 sec) 
Heartbeat CPU 2 instructions: 220000000 cycles: 117326236 heartbeat IPC: 1.7158 cumulative IPC: 1.44118 (Simulation time: 1 hr 3 min 48 sec) 
Heartbeat CPU 3 instructions: 180000002 cycles: 117550338 heartbeat IPC: 1.13479 cumulative IPC: 1.13409 (Simulation time: 1 hr 3 min 53 sec) 
Heartbeat CPU 0 instructions: 160000001 cycles: 117987286 heartbeat IPC: 1.01335 cumulative IPC: 0.981806 (Simulation time: 1 hr 4 min 2 sec) 
Heartbeat CPU 2 instructions: 230000001 cycles: 123037010 heartbeat IPC: 1.75108 cumulative IPC: 1.45929 (Simulation time: 1 hr 6 min 19 sec) 
Heartbeat CPU 3 instructions: 190000000 cycles: 126418559 heartbeat IPC: 1.12762 cumulative IPC: 1.13353 (Simulation time: 1 hr 7 min 48 sec) 
Heartbeat CPU 0 instructions: 170000000 cycles: 127748236 heartbeat IPC: 1.02449 cumulative IPC: 0.985874 (Simulation time: 1 hr 8 min 24 sec) 
Heartbeat CPU 2 instructions: 240000000 cycles: 128723108 heartbeat IPC: 1.75868 cumulative IPC: 1.47575 (Simulation time: 1 hr 8 min 50 sec) 
Heartbeat CPU 1 instructions: 120000000 cycles: 129924048 heartbeat IPC: 0.694077 cumulative IPC: 0.669111 (Simulation time: 1 hr 9 min 23 sec) 
Heartbeat CPU 2 instructions: 250000003 cycles: 134789822 heartbeat IPC: 1.64834 cumulative IPC: 1.48531 (Simulation time: 1 hr 11 min 23 sec) 
Heartbeat CPU 3 instructions: 200000002 cycles: 135308126 heartbeat IPC: 1.12491 cumulative IPC: 1.13283 (Simulation time: 1 hr 11 min 37 sec) 
Heartbeat CPU 0 instructions: 180000000 cycles: 137465725 heartbeat IPC: 1.02907 cumulative IPC: 0.989616 (Simulation time: 1 hr 12 min 30 sec) 
Heartbeat CPU 2 instructions: 260000001 cycles: 141654043 heartbeat IPC: 1.45683 cumulative IPC: 1.48363 (Simulation time: 1 hr 14 min 18 sec) 
Heartbeat CPU 3 instructions: 210000001 cycles: 144182213 heartbeat IPC: 1.12688 cumulative IPC: 1.13239 (Simulation time: 1 hr 15 min 20 sec) 
Heartbeat CPU 1 instructions: 130000002 cycles: 144411096 heartbeat IPC: 0.690272 cumulative IPC: 0.671685 (Simulation time: 1 hr 15 min 26 sec) 
Heartbeat CPU 0 instructions: 190000000 cycles: 147360817 heartbeat IPC: 1.0106 cumulative IPC: 0.991318 (Simulation time: 1 hr 16 min 35 sec) 
Heartbeat CPU 2 instructions: 270000000 cycles: 149295361 heartbeat IPC: 1.30867 cumulative IPC: 1.47285 (Simulation time: 1 hr 17 min 19 sec) 
Heartbeat CPU 3 instructions: 220000000 cycles: 153173041 heartbeat IPC: 1.11224 cumulative IPC: 1.13097 (Simulation time: 1 hr 18 min 45 sec) 
Heartbeat CPU 0 instructions: 200000000 cycles: 158487457 heartbeat IPC: 0.898744 cumulative IPC: 0.983584 (Simulation time: 1 hr 20 min 40 sec) 
Heartbeat CPU 2 instructions: 280000002 cycles: 158838826 heartbeat IPC: 1.04784 cumulative IPC: 1.44247 (Simulation time: 1 hr 20 min 48 sec) 
Heartbeat CPU 1 instructions: 140000003 cycles: 160063424 heartbeat IPC: 0.638883 cumulative IPC: 0.667875 (Simulation time: 1 hr 21 min 18 sec) 
Heartbeat CPU 3 instructions: 230000001 cycles: 162052595 heartbeat IPC: 1.12618 cumulative IPC: 1.13066 (Simulation time: 1 hr 22 min 2 sec) 
Finished CPU 2 instructions: 200000000 cycles: 139239053 cumulative IPC: 1.43638 (Simulation time: 1 hr 23 min 1 sec) 
Heartbeat CPU 2 instructions: 290000001 cycles: 166224259 heartbeat IPC: 1.35402 cumulative IPC: 1.43784 (Simulation time: 1 hr 23 min 44 sec) 
Heartbeat CPU 0 instructions: 210000001 cycles: 169059496 heartbeat IPC: 0.945891 cumulative IPC: 0.980812 (Simulation time: 1 hr 24 min 57 sec) 
Heartbeat CPU 3 instructions: 240000003 cycles: 170896027 heartbeat IPC: 1.13078 cumulative IPC: 1.13067 (Simulation time: 1 hr 25 min 46 sec) 
Heartbeat CPU 2 instructions: 300000001 cycles: 172628947 heartbeat IPC: 1.56136 cumulative IPC: 1.44321 (Simulation time: 1 hr 26 min 31 sec) 
Heartbeat CPU 1 instructions: 150000002 cycles: 174839886 heartbeat IPC: 0.676752 cumulative IPC: 0.668752 (Simulation time: 1 hr 27 min 31 sec) 
Heartbeat CPU 0 instructions: 220000000 cycles: 178752714 heartbeat IPC: 1.03165 cumulative IPC: 0.984023 (Simulation time: 1 hr 29 min 6 sec) 
Heartbeat CPU 2 instructions: 310000002 cycles: 178837778 heartbeat IPC: 1.61061 cumulative IPC: 1.44998 (Simulation time: 1 hr 29 min 8 sec) 
*** Reached end of trace for Core: 3 Repeating trace: ./traces/ligra/ligra_Components-Shortcut.com-lj.ungraph.gcc_6.3.0_O3.drop_3500M.length_250M.champsimtrace.xz
Heartbeat CPU 3 instructions: 250000003 cycles: 179677401 heartbeat IPC: 1.13877 cumulative IPC: 1.13113 (Simulation time: 1 hr 29 min 31 sec) 
Heartbeat CPU 2 instructions: 320000001 cycles: 184562484 heartbeat IPC: 1.74681 cumulative IPC: 1.46065 (Simulation time: 1 hr 31 min 45 sec) 
Heartbeat CPU 3 instructions: 260000002 cycles: 188398587 heartbeat IPC: 1.14663 cumulative IPC: 1.13196 (Simulation time: 1 hr 33 min 30 sec) 
Heartbeat CPU 0 instructions: 230000000 cycles: 188442702 heartbeat IPC: 1.03199 cumulative IPC: 0.986872 (Simulation time: 1 hr 33 min 31 sec) 
Heartbeat CPU 1 instructions: 160000003 cycles: 188650963 heartbeat IPC: 0.724057 cumulative IPC: 0.673428 (Simulation time: 1 hr 33 min 35 sec) 
Heartbeat CPU 2 instructions: 330000000 cycles: 190234366 heartbeat IPC: 1.76308 cumulative IPC: 1.47105 (Simulation time: 1 hr 34 min 14 sec) 
Heartbeat CPU 2 instructions: 340000001 cycles: 196245867 heartbeat IPC: 1.66348 cumulative IPC: 1.47782 (Simulation time: 1 hr 36 min 46 sec) 
Heartbeat CPU 3 instructions: 270000002 cycles: 197149872 heartbeat IPC: 1.14269 cumulative IPC: 1.1325 (Simulation time: 1 hr 37 min 8 sec) 
Heartbeat CPU 0 instructions: 240000000 cycles: 198164997 heartbeat IPC: 1.02856 cumulative IPC: 0.989217 (Simulation time: 1 hr 37 min 34 sec) 
Finished CPU 3 instructions: 200000002 cycles: 176561447 cumulative IPC: 1.13275 (Simulation time: 1 hr 39 min 7 sec) 
Heartbeat CPU 1 instructions: 170000003 cycles: 202650687 heartbeat IPC: 0.7143 cumulative IPC: 0.676654 (Simulation time: 1 hr 39 min 23 sec) 
Heartbeat CPU 2 instructions: 350000001 cycles: 203134889 heartbeat IPC: 1.45158 cumulative IPC: 1.4768 (Simulation time: 1 hr 39 min 33 sec) 
Heartbeat CPU 3 instructions: 280000000 cycles: 205866719 heartbeat IPC: 1.1472 cumulative IPC: 1.13321 (Simulation time: 1 hr 40 min 28 sec) 
Heartbeat CPU 0 instructions: 250000001 cycles: 207996768 heartbeat IPC: 1.01711 cumulative IPC: 0.990718 (Simulation time: 1 hr 41 min 13 sec) 
Heartbeat CPU 2 instructions: 360000000 cycles: 210645619 heartbeat IPC: 1.33143 cumulative IPC: 1.47091 (Simulation time: 1 hr 42 min 14 sec) 
Heartbeat CPU 3 instructions: 290000000 cycles: 214643581 heartbeat IPC: 1.13936 cumulative IPC: 1.1335 (Simulation time: 1 hr 43 min 29 sec) 
Heartbeat CPU 1 instructions: 180000000 cycles: 217430586 heartbeat IPC: 0.676594 cumulative IPC: 0.67665 (Simulation time: 1 hr 44 min 21 sec) 
Heartbeat CPU 0 instructions: 260000003 cycles: 218589225 heartbeat IPC: 0.944068 cumulative IPC: 0.988162 (Simulation time: 1 hr 44 min 44 sec) 
Heartbeat CPU 2 instructions: 370000003 cycles: 220346926 heartbeat IPC: 1.03079 cumulative IPC: 1.44902 (Simulation time: 1 hr 45 min 17 sec) 
Heartbeat CPU 3 instructions: 300000002 cycles: 223433305 heartbeat IPC: 1.13769 cumulative IPC: 1.13368 (Simulation time: 1 hr 46 min 15 sec) 
Finished CPU 0 instructions: 200000000 cycles: 202302283 cumulative IPC: 0.98862 (Simulation time: 1 hr 47 min 41 sec) 
Heartbeat CPU 0 instructions: 270000000 cycles: 228471721 heartbeat IPC: 1.01189 cumulative IPC: 0.989316 (Simulation time: 1 hr 48 min 2 sec) 
Heartbeat CPU 1 instructions: 190000003 cycles: 230958850 heartbeat IPC: 0.739193 cumulative IPC: 0.680764 (Simulation time: 1 hr 49 min 5 sec) 
Heartbeat CPU 3 instructions: 310000002 cycles: 232108871 heartbeat IPC: 1.15266 cumulative IPC: 1.13448 (Simulation time: 1 hr 49 min 33 sec) 
Heartbeat CPU 2 instructions: 380000001 cycles: 233754211 heartbeat IPC: 0.745863 cumulative IPC: 1.40379 (Simulation time: 1 hr 50 min 15 sec) 
Heartbeat CPU 0 instructions: 280000001 cycles: 237326513 heartbeat IPC: 1.12933 cumulative IPC: 0.995164 (Simulation time: 1 hr 51 min 43 sec) 
Heartbeat CPU 3 instructions: 320000001 cycles: 240814311 heartbeat IPC: 1.14871 cumulative IPC: 1.13506 (Simulation time: 1 hr 53 min 11 sec) 
Heartbeat CPU 1 instructions: 200000001 cycles: 242522886 heartbeat IPC: 0.86475 cumulative IPC: 0.690559 (Simulation time: 1 hr 53 min 53 sec) 
Heartbeat CPU 0 instructions: 290000000 cycles: 246231317 heartbeat IPC: 1.12299 cumulative IPC: 1.00032 (Simulation time: 1 hr 55 min 26 sec) 
Heartbeat CPU 3 instructions: 330000000 cycles: 249484955 heartbeat IPC: 1.15332 cumulative IPC: 1.13576 (Simulation time: 1 hr 56 min 48 sec) 
Heartbeat CPU 2 instructions: 390000000 cycles: 249583295 heartbeat IPC: 0.631748 cumulative IPC: 1.3493 (Simulation time: 1 hr 56 min 51 sec) 
Heartbeat CPU 1 instructions: 210000000 cycles: 254085688 heartbeat IPC: 0.864842 cumulative IPC: 0.699368 (Simulation time: 1 hr 58 min 43 sec) 
Heartbeat CPU 0 instructions: 300000002 cycles: 255055951 heartbeat IPC: 1.13319 cumulative IPC: 1.00542 (Simulation time: 1 hr 59 min 5 sec) 
Heartbeat CPU 3 instructions: 340000002 cycles: 258192352 heartbeat IPC: 1.14845 cumulative IPC: 1.13624 (Simulation time: 2 hr 0 min 17 sec) 
Heartbeat CPU 0 instructions: 310000000 cycles: 263919275 heartbeat IPC: 1.12824 cumulative IPC: 1.00998 (Simulation time: 2 hr 2 min 13 sec) 
Heartbeat CPU 2 instructions: 400000000 cycles: 265415529 heartbeat IPC: 0.631623 cumulative IPC: 1.30198 (Simulation time: 2 hr 2 min 43 sec) 
Heartbeat CPU 1 instructions: 220000000 cycles: 265612969 heartbeat IPC: 0.867507 cumulative IPC: 0.707433 (Simulation time: 2 hr 2 min 47 sec) 
Heartbeat CPU 3 instructions: 350000000 cycles: 266882491 heartbeat IPC: 1.15073 cumulative IPC: 1.13676 (Simulation time: 2 hr 3 min 13 sec) 
Heartbeat CPU 0 instructions: 320000000 cycles: 272741734 heartbeat IPC: 1.13347 cumulative IPC: 1.01439 (Simulation time: 2 hr 5 min 32 sec) 
Heartbeat CPU 3 instructions: 360000001 cycles: 275583539 heartbeat IPC: 1.14929 cumulative IPC: 1.13719 (Simulation time: 2 hr 6 min 44 sec) 
Heartbeat CPU 1 instructions: 230000000 cycles: 277149633 heartbeat IPC: 0.866802 cumulative IPC: 0.714734 (Simulation time: 2 hr 7 min 25 sec) 
Heartbeat CPU 2 instructions: 410000002 cycles: 281220256 heartbeat IPC: 0.632722 cumulative IPC: 1.26065 (Simulation time: 2 hr 9 min 7 sec) 
Heartbeat CPU 0 instructions: 330000000 cycles: 281591984 heartbeat IPC: 1.12991 cumulative IPC: 1.01837 (Simulation time: 2 hr 9 min 16 sec) 
Heartbeat CPU 3 instructions: 370000002 cycles: 284317289 heartbeat IPC: 1.14498 cumulative IPC: 1.13746 (Simulation time: 2 hr 10 min 28 sec) 
Heartbeat CPU 1 instructions: 240000001 cycles: 288689704 heartbeat IPC: 0.866546 cumulative IPC: 0.721385 (Simulation time: 2 hr 12 min 16 sec) 
Heartbeat CPU 0 instructions: 340000001 cycles: 290381053 heartbeat IPC: 1.13778 cumulative IPC: 1.02233 (Simulation time: 2 hr 12 min 57 sec) 
Heartbeat CPU 3 instructions: 380000000 cycles: 293057704 heartbeat IPC: 1.14411 cumulative IPC: 1.13767 (Simulation time: 2 hr 14 min 6 sec) 
Heartbeat CPU 2 instructions: 420000002 cycles: 297048760 heartbeat IPC: 0.631772 cumulative IPC: 1.22402 (Simulation time: 2 hr 15 min 50 sec) 
Heartbeat CPU 0 instructions: 350000000 cycles: 299216232 heartbeat IPC: 1.13184 cumulative IPC: 1.02587 (Simulation time: 2 hr 16 min 46 sec) 
Heartbeat CPU 1 instructions: 250000000 cycles: 300205301 heartbeat IPC: 0.868387 cumulative IPC: 0.727543 (Simulation time: 2 hr 17 min 13 sec) 
Finished CPU 1 instructions: 200000001 cycles: 274897729 cumulative IPC: 0.727543 (Simulation time: 2 hr 17 min 13 sec) 

ChampSim completed all CPUs

Total Simulation Statistics (not including warmup)

CPU 0 cumulative IPC: 1.02628 instructions: 282121270 cycles: 274897729
ITLB TOTAL     ACCESS:   40116871  HIT:   40116871  MISS:          0  HIT %:        100  MISS %:          0   MPKI: 0
ITLB LOAD      ACCESS:          0  HIT:          0  MISS:          0  HIT %:       -nan  MISS %:       -nan   MPKI: 0
ITLB RFO       ACCESS:          0  HIT:          0  MISS:          0  HIT %:       -nan  MISS %:       -nan   MPKI: 0
ITLB PREFETCH  ACCESS:          0  HIT:          0  MISS:          0  HIT %:       -nan  MISS %:       -nan   MPKI: 0
ITLB WRITEBACK ACCESS:          0  HIT:          0  MISS:          0  HIT %:       -nan  MISS %:       -nan   MPKI: 0
DTLB TOTAL     ACCESS:   79925708  HIT:   69251450  MISS:   10674258  HIT %:    86.6448  MISS %:    13.3552   MPKI: 37.8357
DTLB LOAD      ACCESS:          0  HIT:          0  MISS:          0  HIT %:       -nan  MISS %:       -nan   MPKI: 0
DTLB RFO       ACCESS:          0  HIT:          0  MISS:          0  HIT %:       -nan  MISS %:       -nan   MPKI: 0
DTLB PREFETCH  ACCESS:          0  HIT:          0  MISS:          0  HIT %:       -nan  MISS %:       -nan   MPKI: 0
DTLB WRITEBACK ACCESS:          0  HIT:          0  MISS:          0  HIT %:       -nan  MISS %:       -nan   MPKI: 0
STLB TOTAL     ACCESS:   12239095  HIT:   12227470  MISS:      11625  HIT %:     99.905  MISS %:  0.0949825   MPKI: 0.0412057
STLB LOAD      ACCESS:          0  HIT:          0  MISS:          0  HIT %:       -nan  MISS %:       -nan   MPKI: 0
STLB RFO       ACCESS:          0  HIT:          0  MISS:          0  HIT %:       -nan  MISS %:       -nan   MPKI: 0
STLB PREFETCH  ACCESS:          0  HIT:          0  MISS:          0  HIT %:       -nan  MISS %:       -nan   MPKI: 0
STLB WRITEBACK ACCESS:          0  HIT:          0  MISS:          0  HIT %:       -nan  MISS %:       -nan   MPKI: 0
L1D TOTAL     ACCESS:  111843979  HIT:   89549409  MISS:   22294570  HIT %:    80.0664  MISS %:    19.9336   MPKI: 79.0248
L1D LOAD      ACCESS:   88003426  HIT:   68696966  MISS:   19306460  HIT %:    78.0617  MISS %:    21.9383   MPKI: 68.4332
L1D RFO       ACCESS:   22248081  HIT:   20535091  MISS:    1712990  HIT %:    92.3005  MISS %:     7.6995   MPKI: 6.07182
L1D PREFETCH  ACCESS:    1592472  HIT:     317352  MISS:    1275120  HIT %:    19.9283  MISS %:    80.0717   MPKI: 4.51976
L1D WRITEBACK ACCESS:          0  HIT:          0  MISS:          0  HIT %:       -nan  MISS %:       -nan   MPKI: 0
L1I TOTAL     ACCESS:   44702812  HIT:   36543257  MISS:    8159555  HIT %:    81.7471  MISS %:    18.2529   MPKI: 28.9222
L1I LOAD      ACCESS:   44702812  HIT:   36543257  MISS:    8159555  HIT %:    81.7471  MISS %:    18.2529   MPKI: 28.9222
L1I RFO       ACCESS:          0  HIT:          0  MISS:          0  HIT %:       -nan  MISS %:       -nan   MPKI: 0
L1I PREFETCH  ACCESS:          0  HIT:          0  MISS:          0  HIT %:       -nan  MISS %:       -nan   MPKI: 0
L1I WRITEBACK ACCESS:          0  HIT:          0  MISS:          0  HIT %:       -nan  MISS %:       -nan   MPKI: 0
L2C TOTAL     ACCESS:   32312615  HIT:   30814679  MISS:    1497936  HIT %:    95.3642  MISS %:    4.63576   MPKI: 5.30955
L2C LOAD      ACCESS:   27463207  HIT:   26767185  MISS:     696022  HIT %:    97.4656  MISS %:    2.53438   MPKI: 2.4671
L2C RFO       ACCESS:    1706423  HIT:    1541232  MISS:     165191  HIT %:    90.3195  MISS %:    9.68054   MPKI: 0.585532
L2C PREFETCH  ACCESS:    1275699  HIT:     657154  MISS:     618545  HIT %:    51.5132  MISS %:    48.4868   MPKI: 2.19248
L2C WRITEBACK ACCESS:    1849687  HIT:    1847255  MISS:       2432  HIT %:    99.8685  MISS %:   0.131482   MPKI: 0.00862041
PSCL5 TOTAL     ACCESS:      11625  HIT:      11625  MISS:          0  HIT %:        100  MISS %:          0   MPKI: 0
PSCL5 LOAD      ACCESS:          0  HIT:          0  MISS:          0  HIT %:       -nan  MISS %:       -nan   MPKI: 0
PSCL5 RFO       ACCESS:          0  HIT:          0  MISS:          0  HIT %:       -nan  MISS %:       -nan   MPKI: 0
PSCL5 PREFETCH  ACCESS:          0  HIT:          0  MISS:          0  HIT %:       -nan  MISS %:       -nan   MPKI: 0
PSCL5 WRITEBACK ACCESS:          0  HIT:          0  MISS:          0  HIT %:       -nan  MISS %:       -nan   MPKI: 0
PSCL4 TOTAL     ACCESS:      11625  HIT:      11625  MISS:          0  HIT %:        100  MISS %:          0   MPKI: 0
PSCL4 LOAD      ACCESS:          0  HIT:          0  MISS:          0  HIT %:       -nan  MISS %:       -nan   MPKI: 0
PSCL4 RFO       ACCESS:          0  HIT:          0  MISS:          0  HIT %:       -nan  MISS %:       -nan   MPKI: 0
PSCL4 PREFETCH  ACCESS:          0  HIT:          0  MISS:          0  HIT %:       -nan  MISS %:       -nan   MPKI: 0
PSCL4 WRITEBACK ACCESS:          0  HIT:          0  MISS:          0  HIT %:       -nan  MISS %:       -nan   MPKI: 0
PSCL3 TOTAL     ACCESS:      11613  HIT:      11611  MISS:          2  HIT %:    99.9828  MISS %:  0.0172221   MPKI: 7.08915e-06
PSCL3 LOAD      ACCESS:          0  HIT:          0  MISS:          0  HIT %:       -nan  MISS %:       -nan   MPKI: 0
PSCL3 RFO       ACCESS:          0  HIT:          0  MISS:          0  HIT %:       -nan  MISS %:       -nan   MPKI: 0
PSCL3 PREFETCH  ACCESS:          0  HIT:          0  MISS:          0  HIT %:       -nan  MISS %:       -nan   MPKI: 0
PSCL3 WRITEBACK ACCESS:          0  HIT:          0  MISS:          0  HIT %:       -nan  MISS %:       -nan   MPKI: 0
PSCL2 TOTAL     ACCESS:      11625  HIT:       5643  MISS:       5982  HIT %:    48.5419  MISS %:    51.4581   MPKI: 0.0212036
PSCL2 LOAD      ACCESS:          0  HIT:          0  MISS:          0  HIT %:       -nan  MISS %:       -nan   MPKI: 0
PSCL2 RFO       ACCESS:          0  HIT:          0  MISS:          0  HIT %:       -nan  MISS %:       -nan   MPKI: 0
PSCL2 PREFETCH  ACCESS:          0  HIT:          0  MISS:          0  HIT %:       -nan  MISS %:       -nan   MPKI: 0
PSCL2 WRITEBACK ACCESS:          0  HIT:          0  MISS:          0  HIT %:       -nan  MISS %:       -nan   MPKI: 0

stream: 
stream:times selected: 2073854
stream:pref_filled: 1593655
stream:pref_useful: 56624
stream:pref_late: 668
stream:misses: 7195
stream:misses_by_poll: 0

CS: 
CS:times selected: 1692461
CS:pref_filled: 5106
CS:pref_useful: 180
CS:pref_late: 2
CS:misses: 9159
CS:misses_by_poll: 0

CPLX: 
CPLX:times selected: 2072337
CPLX:pref_filled: 13344
CPLX:pref_useful: 2401
CPLX:pref_late: 1
CPLX:misses: 8534472
CPLX:misses_by_poll: 3

NL_L1: 
NL:times selected: 189
NL:pref_filled: 106
NL:pref_useful: 4
NL:pref_late: 0
NL:misses: 121
NL:misses_by_poll: 0

total selections: 5838841
total_filled: 1275120
total_useful: 47168
total_late: 733
total_polluted: 3
total_misses_after_warmup: 21429816
conflicts: 23228369
Degree Incremented Times: 1196550
Degree Decremented Times: 1628337

L1 IP Table Write Accesses: 247128879
L1 IP Table Read Accesses: 223900510
L1 RST Write Accesses: 12100374
L1 RST Read Accesses: 24200748
L1 CSPT Write Accesses: 12100374
L1 CSPT Read Accesses: 20684426
L1 RR Filter Tag Write Accesses: 25294996
L1 RR Filter Tag Read Accesses: 1701570449
L1 IP Table Tag Write Accesses: 287264562
L1 IP Table Tag Read Accesses: 287264562
L1 RST Tag Write Accesses: 0
L1 RST Tag Read Accesses: 110805910
L1 RR Filter Write Accesses: 0
L1 RR Filter Read Accesses: 67846956
test: 804248
LLC TOTAL     ACCESS:    1662983  HIT:     889584  MISS:     773399  HIT %:    53.4933  MISS %:    46.5067   MPKI: 2.74137
LLC LOAD      ACCESS:     696022  HIT:     360342  MISS:     335680  HIT %:    51.7716  MISS %:    48.2284   MPKI: 1.18984
LLC RFO       ACCESS:     165188  HIT:         29  MISS:     165159  HIT %:  0.0175558  MISS %:    99.9824   MPKI: 0.585418
LLC PREFETCH  ACCESS:     618545  HIT:     358689  MISS:     259856  HIT %:    57.9892  MISS %:    42.0108   MPKI: 0.921079
LLC WRITEBACK ACCESS:     167482  HIT:     156748  MISS:      10734  HIT %:     93.591  MISS %:    6.40905   MPKI: 0.0380475

RAW hits: 1006535
Loads Generated: 109796653
Loads sent to L1D: 108790119
Stores Generated: 22592622
Stores sent to L1D: 22592625

CPU 1 cumulative IPC: 0.727543 instructions: 200000001 cycles: 274897729
ITLB TOTAL     ACCESS:   34649107  HIT:   34649106  MISS:          1  HIT %:        100  MISS %: 2.88608e-06   MPKI: 5e-06
ITLB LOAD      ACCESS:          0  HIT:          0  MISS:          0  HIT %:       -nan  MISS %:       -nan   MPKI: 0
ITLB RFO       ACCESS:          0  HIT:          0  MISS:          0  HIT %:       -nan  MISS %:       -nan   MPKI: 0
ITLB PREFETCH  ACCESS:          0  HIT:          0  MISS:          0  HIT %:       -nan  MISS %:       -nan   MPKI: 0
ITLB WRITEBACK ACCESS:          0  HIT:          0  MISS:          0  HIT %:       -nan  MISS %:       -nan   MPKI: 0
DTLB TOTAL     ACCESS:   90313436  HIT:   88502493  MISS:    1810943  HIT %:    97.9948  MISS %:    2.00518   MPKI: 9.05471
DTLB LOAD      ACCESS:          0  HIT:          0  MISS:          0  HIT %:       -nan  MISS %:       -nan   MPKI: 0
DTLB RFO       ACCESS:          0  HIT:          0  MISS:          0  HIT %:       -nan  MISS %:       -nan   MPKI: 0
DTLB PREFETCH  ACCESS:          0  HIT:          0  MISS:          0  HIT %:       -nan  MISS %:       -nan   MPKI: 0
DTLB WRITEBACK ACCESS:          0  HIT:          0  MISS:          0  HIT %:       -nan  MISS %:       -nan   MPKI: 0
STLB TOTAL     ACCESS:    4736740  HIT:    4582891  MISS:     153849  HIT %:     96.752  MISS %:    3.24799   MPKI: 0.769245
STLB LOAD      ACCESS:          0  HIT:          0  MISS:          0  HIT %:       -nan  MISS %:       -nan   MPKI: 0
STLB RFO       ACCESS:          0  HIT:          0  MISS:          0  HIT %:       -nan  MISS %:       -nan   MPKI: 0
STLB PREFETCH  ACCESS:          0  HIT:          0  MISS:          0  HIT %:       -nan  MISS %:       -nan   MPKI: 0
STLB WRITEBACK ACCESS:          0  HIT:          0  MISS:          0  HIT %:       -nan  MISS %:       -nan   MPKI: 0
L1D TOTAL     ACCESS:  118127738  HIT:  115514635  MISS:    2613103  HIT %:    97.7879  MISS %:     2.2121   MPKI: 13.0655
L1D LOAD      ACCESS:   97024795  HIT:   96722285  MISS:     302510  HIT %:    99.6882  MISS %:   0.311786   MPKI: 1.51255
L1D RFO       ACCESS:   14226033  HIT:   14226027  MISS:          6  HIT %:        100  MISS %: 4.21762e-05   MPKI: 3e-05
L1D PREFETCH  ACCESS:    6876910  HIT:    4566323  MISS:    2310587  HIT %:    66.4008  MISS %:    33.5992   MPKI: 11.5529
L1D WRITEBACK ACCESS:          0  HIT:          0  MISS:          0  HIT %:       -nan  MISS %:       -nan   MPKI: 0
L1I TOTAL     ACCESS:   41816024  HIT:   41815985  MISS:         39  HIT %:    99.9999  MISS %: 9.32657e-05   MPKI: 0.000195
L1I LOAD      ACCESS:   41816024  HIT:   41815985  MISS:         39  HIT %:    99.9999  MISS %: 9.32657e-05   MPKI: 0.000195
L1I RFO       ACCESS:          0  HIT:          0  MISS:          0  HIT %:       -nan  MISS %:       -nan   MPKI: 0
L1I PREFETCH  ACCESS:          0  HIT:          0  MISS:          0  HIT %:       -nan  MISS %:       -nan   MPKI: 0
L1I WRITEBACK ACCESS:          0  HIT:          0  MISS:          0  HIT %:       -nan  MISS %:       -nan   MPKI: 0
L2C TOTAL     ACCESS:    3590322  HIT:    1115830  MISS:    2474492  HIT %:    31.0788  MISS %:    68.9212   MPKI: 12.3725
L2C LOAD      ACCESS:     299174  HIT:      27591  MISS:     271583  HIT %:    9.22239  MISS %:    90.7776   MPKI: 1.35791
L2C RFO       ACCESS:          6  HIT:          0  MISS:          6  HIT %:          0  MISS %:        100   MPKI: 3e-05
L2C PREFETCH  ACCESS:    2313962  HIT:     184237  MISS:    2129725  HIT %:    7.96197  MISS %:     92.038   MPKI: 10.6486
L2C WRITEBACK ACCESS:     822945  HIT:     770550  MISS:      52395  HIT %:    93.6332  MISS %:    6.36677   MPKI: 0.261975
PSCL5 TOTAL     ACCESS:     153849  HIT:     153849  MISS:          0  HIT %:        100  MISS %:          0   MPKI: 0
PSCL5 LOAD      ACCESS:          0  HIT:          0  MISS:          0  HIT %:       -nan  MISS %:       -nan   MPKI: 0
PSCL5 RFO       ACCESS:          0  HIT:          0  MISS:          0  HIT %:       -nan  MISS %:       -nan   MPKI: 0
PSCL5 PREFETCH  ACCESS:          0  HIT:          0  MISS:          0  HIT %:       -nan  MISS %:       -nan   MPKI: 0
PSCL5 WRITEBACK ACCESS:          0  HIT:          0  MISS:          0  HIT %:       -nan  MISS %:       -nan   MPKI: 0
PSCL4 TOTAL     ACCESS:     153849  HIT:     153849  MISS:          0  HIT %:        100  MISS %:          0   MPKI: 0
PSCL4 LOAD      ACCESS:          0  HIT:          0  MISS:          0  HIT %:       -nan  MISS %:       -nan   MPKI: 0
PSCL4 RFO       ACCESS:          0  HIT:          0  MISS:          0  HIT %:       -nan  MISS %:       -nan   MPKI: 0
PSCL4 PREFETCH  ACCESS:          0  HIT:          0  MISS:          0  HIT %:       -nan  MISS %:       -nan   MPKI: 0
PSCL4 WRITEBACK ACCESS:          0  HIT:          0  MISS:          0  HIT %:       -nan  MISS %:       -nan   MPKI: 0
PSCL3 TOTAL     ACCESS:     153849  HIT:     153849  MISS:          0  HIT %:        100  MISS %:          0   MPKI: 0
PSCL3 LOAD      ACCESS:          0  HIT:          0  MISS:          0  HIT %:       -nan  MISS %:       -nan   MPKI: 0
PSCL3 RFO       ACCESS:          0  HIT:          0  MISS:          0  HIT %:       -nan  MISS %:       -nan   MPKI: 0
PSCL3 PREFETCH  ACCESS:          0  HIT:          0  MISS:          0  HIT %:       -nan  MISS %:       -nan   MPKI: 0
PSCL3 WRITEBACK ACCESS:          0  HIT:          0  MISS:          0  HIT %:       -nan  MISS %:       -nan   MPKI: 0
PSCL2 TOTAL     ACCESS:     153849  HIT:     153354  MISS:        495  HIT %:    99.6783  MISS %:   0.321744   MPKI: 0.002475
PSCL2 LOAD      ACCESS:          0  HIT:          0  MISS:          0  HIT %:       -nan  MISS %:       -nan   MPKI: 0
PSCL2 RFO       ACCESS:          0  HIT:          0  MISS:          0  HIT %:       -nan  MISS %:       -nan   MPKI: 0
PSCL2 PREFETCH  ACCESS:          0  HIT:          0  MISS:          0  HIT %:       -nan  MISS %:       -nan   MPKI: 0
PSCL2 WRITEBACK ACCESS:          0  HIT:          0  MISS:          0  HIT %:       -nan  MISS %:       -nan   MPKI: 0

stream: 
stream:times selected: 5155914
stream:pref_filled: 1085163
stream:pref_useful: 387745
stream:pref_late: 2529
stream:misses: 51454
stream:misses_by_poll: 0

CS: 
CS:times selected: 1517418
CS:pref_filled: 786395
CS:pref_useful: 748718
CS:pref_late: 243
CS:misses: 28487
CS:misses_by_poll: 1969

CPLX: 
CPLX:times selected: 3638273
CPLX:pref_filled: 1469854
CPLX:pref_useful: 699224
CPLX:pref_late: 1112
CPLX:misses: 442042
CPLX:misses_by_poll: 8991

NL_L1: 
NL:times selected: 952
NL:pref_filled: 859
NL:pref_useful: 70
NL:pref_late: 4
NL:misses: 525
NL:misses_by_poll: 0

total selections: 10312557
total_filled: 2310587
total_useful: 1404348
total_late: 4024
total_polluted: 10960
total_misses_after_warmup: 303706
conflicts: 23228369
Degree Incremented Times: 1196550
Degree Decremented Times: 1628337

L1 IP Table Write Accesses: 247128879
L1 IP Table Read Accesses: 223900510
L1 RST Write Accesses: 12100374
L1 RST Read Accesses: 24200748
L1 CSPT Write Accesses: 12100374
L1 CSPT Read Accesses: 20684426
L1 RR Filter Tag Write Accesses: 25294996
L1 RR Filter Tag Read Accesses: 1701570449
L1 IP Table Tag Write Accesses: 287264562
L1 IP Table Tag Read Accesses: 287264562
L1 RST Tag Write Accesses: 0
L1 RST Tag Read Accesses: 110805910
L1 RR Filter Write Accesses: 0
L1 RR Filter Read Accesses: 67846956
test: 804248
LLC TOTAL     ACCESS:    3242798  HIT:    1177699  MISS:    2065099  HIT %:    36.3174  MISS %:    63.6826   MPKI: 10.3255
LLC LOAD      ACCESS:     271583  HIT:      44695  MISS:     226888  HIT %:    16.4572  MISS %:    83.5428   MPKI: 1.13444
LLC RFO       ACCESS:          6  HIT:          0  MISS:          6  HIT %:          0  MISS %:        100   MPKI: 3e-05
LLC PREFETCH  ACCESS:    2129725  HIT:     329681  MISS:    1800044  HIT %:      15.48  MISS %:      84.52   MPKI: 9.00022
LLC WRITEBACK ACCESS:     820701  HIT:     802581  MISS:      18120  HIT %:    97.7921  MISS %:    2.20787   MPKI: 0.0906

RAW hits: 9665511
Loads Generated: 132288069
Loads sent to L1D: 122622560
Stores Generated: 14226038
Stores sent to L1D: 14226038

CPU 2 cumulative IPC: 1.21722 instructions: 334611104 cycles: 274897730
ITLB TOTAL     ACCESS:   50267447  HIT:   50267441  MISS:          6  HIT %:        100  MISS %: 1.19362e-05   MPKI: 1.79313e-05
ITLB LOAD      ACCESS:          0  HIT:          0  MISS:          0  HIT %:       -nan  MISS %:       -nan   MPKI: 0
ITLB RFO       ACCESS:          0  HIT:          0  MISS:          0  HIT %:       -nan  MISS %:       -nan   MPKI: 0
ITLB PREFETCH  ACCESS:          0  HIT:          0  MISS:          0  HIT %:       -nan  MISS %:       -nan   MPKI: 0
ITLB WRITEBACK ACCESS:          0  HIT:          0  MISS:          0  HIT %:       -nan  MISS %:       -nan   MPKI: 0
DTLB TOTAL     ACCESS:   65288207  HIT:   65257231  MISS:      30976  HIT %:    99.9526  MISS %:   0.047445   MPKI: 0.0925731
DTLB LOAD      ACCESS:          0  HIT:          0  MISS:          0  HIT %:       -nan  MISS %:       -nan   MPKI: 0
DTLB RFO       ACCESS:          0  HIT:          0  MISS:          0  HIT %:       -nan  MISS %:       -nan   MPKI: 0
DTLB PREFETCH  ACCESS:          0  HIT:          0  MISS:          0  HIT %:       -nan  MISS %:       -nan   MPKI: 0
DTLB WRITEBACK ACCESS:          0  HIT:          0  MISS:          0  HIT %:       -nan  MISS %:       -nan   MPKI: 0
STLB TOTAL     ACCESS:    2998388  HIT:    2981573  MISS:      16815  HIT %:    99.4392  MISS %:   0.560801   MPKI: 0.0502524
STLB LOAD      ACCESS:          0  HIT:          0  MISS:          0  HIT %:       -nan  MISS %:       -nan   MPKI: 0
STLB RFO       ACCESS:          0  HIT:          0  MISS:          0  HIT %:       -nan  MISS %:       -nan   MPKI: 0
STLB PREFETCH  ACCESS:          0  HIT:          0  MISS:          0  HIT %:       -nan  MISS %:       -nan   MPKI: 0
STLB WRITEBACK ACCESS:          0  HIT:          0  MISS:          0  HIT %:       -nan  MISS %:       -nan   MPKI: 0
L1D TOTAL     ACCESS:   77346129  HIT:   74696245  MISS:    2649884  HIT %:     96.574  MISS %:    3.42601   MPKI: 7.91929
L1D LOAD      ACCESS:   52419238  HIT:   52253266  MISS:     165972  HIT %:    99.6834  MISS %:   0.316624   MPKI: 0.496015
L1D RFO       ACCESS:   15059867  HIT:   14551372  MISS:     508495  HIT %:    96.6235  MISS %:    3.37649   MPKI: 1.51966
L1D PREFETCH  ACCESS:    9867024  HIT:    7891607  MISS:    1975417  HIT %:    79.9796  MISS %:    20.0204   MPKI: 5.90362
L1D WRITEBACK ACCESS:          0  HIT:          0  MISS:          0  HIT %:       -nan  MISS %:       -nan   MPKI: 0
L1I TOTAL     ACCESS:   60751111  HIT:   60750917  MISS:        194  HIT %:    99.9997  MISS %: 0.000319336   MPKI: 0.000579778
L1I LOAD      ACCESS:   60751111  HIT:   60750917  MISS:        194  HIT %:    99.9997  MISS %: 0.000319336   MPKI: 0.000579778
L1I RFO       ACCESS:          0  HIT:          0  MISS:          0  HIT %:       -nan  MISS %:       -nan   MPKI: 0
L1I PREFETCH  ACCESS:          0  HIT:          0  MISS:          0  HIT %:       -nan  MISS %:       -nan   MPKI: 0
L1I WRITEBACK ACCESS:          0  HIT:          0  MISS:          0  HIT %:       -nan  MISS %:       -nan   MPKI: 0
L2C TOTAL     ACCESS:    3598771  HIT:    1648668  MISS:    1950103  HIT %:     45.812  MISS %:     54.188   MPKI: 5.82797
L2C LOAD      ACCESS:      96529  HIT:      48096  MISS:      48433  HIT %:    49.8254  MISS %:    50.1746   MPKI: 0.144744
L2C RFO       ACCESS:     508462  HIT:      88320  MISS:     420142  HIT %:      17.37  MISS %:      82.63   MPKI: 1.25561
L2C PREFETCH  ACCESS:    2044994  HIT:     626010  MISS:    1418984  HIT %:    30.6118  MISS %:    69.3882   MPKI: 4.2407
L2C WRITEBACK ACCESS:     931935  HIT:     871992  MISS:      59943  HIT %:    93.5679  MISS %:     6.4321   MPKI: 0.179142
PSCL5 TOTAL     ACCESS:      16815  HIT:      16815  MISS:          0  HIT %:        100  MISS %:          0   MPKI: 0
PSCL5 LOAD      ACCESS:          0  HIT:          0  MISS:          0  HIT %:       -nan  MISS %:       -nan   MPKI: 0
PSCL5 RFO       ACCESS:          0  HIT:          0  MISS:          0  HIT %:       -nan  MISS %:       -nan   MPKI: 0
PSCL5 PREFETCH  ACCESS:          0  HIT:          0  MISS:          0  HIT %:       -nan  MISS %:       -nan   MPKI: 0
PSCL5 WRITEBACK ACCESS:          0  HIT:          0  MISS:          0  HIT %:       -nan  MISS %:       -nan   MPKI: 0
PSCL4 TOTAL     ACCESS:      16815  HIT:      16815  MISS:          0  HIT %:        100  MISS %:          0   MPKI: 0
PSCL4 LOAD      ACCESS:          0  HIT:          0  MISS:          0  HIT %:       -nan  MISS %:       -nan   MPKI: 0
PSCL4 RFO       ACCESS:          0  HIT:          0  MISS:          0  HIT %:       -nan  MISS %:       -nan   MPKI: 0
PSCL4 PREFETCH  ACCESS:          0  HIT:          0  MISS:          0  HIT %:       -nan  MISS %:       -nan   MPKI: 0
PSCL4 WRITEBACK ACCESS:          0  HIT:          0  MISS:          0  HIT %:       -nan  MISS %:       -nan   MPKI: 0
PSCL3 TOTAL     ACCESS:      16815  HIT:      16815  MISS:          0  HIT %:        100  MISS %:          0   MPKI: 0
PSCL3 LOAD      ACCESS:          0  HIT:          0  MISS:          0  HIT %:       -nan  MISS %:       -nan   MPKI: 0
PSCL3 RFO       ACCESS:          0  HIT:          0  MISS:          0  HIT %:       -nan  MISS %:       -nan   MPKI: 0
PSCL3 PREFETCH  ACCESS:          0  HIT:          0  MISS:          0  HIT %:       -nan  MISS %:       -nan   MPKI: 0
PSCL3 WRITEBACK ACCESS:          0  HIT:          0  MISS:          0  HIT %:       -nan  MISS %:       -nan   MPKI: 0
PSCL2 TOTAL     ACCESS:      16815  HIT:      16760  MISS:         55  HIT %:    99.6729  MISS %:   0.327089   MPKI: 0.00016437
PSCL2 LOAD      ACCESS:          0  HIT:          0  MISS:          0  HIT %:       -nan  MISS %:       -nan   MPKI: 0
PSCL2 RFO       ACCESS:          0  HIT:          0  MISS:          0  HIT %:       -nan  MISS %:       -nan   MPKI: 0
PSCL2 PREFETCH  ACCESS:          0  HIT:          0  MISS:          0  HIT %:       -nan  MISS %:       -nan   MPKI: 0
PSCL2 WRITEBACK ACCESS:          0  HIT:          0  MISS:          0  HIT %:       -nan  MISS %:       -nan   MPKI: 0

stream: 
stream:times selected: 5191602
stream:pref_filled: 2563227
stream:pref_useful: 2473296
stream:pref_late: 68456
stream:misses: 198
stream:misses_by_poll: 0

CS: 
CS:times selected: 5002734
CS:pref_filled: 9484
CS:pref_useful: 9348
CS:pref_late: 862
CS:misses: 490715
CS:misses_by_poll: 47

CPLX: 
CPLX:times selected: 188801
CPLX:pref_filled: 5092
CPLX:pref_useful: 3260
CPLX:pref_late: 21
CPLX:misses: 4431
CPLX:misses_by_poll: 11

NL_L1: 
NL:times selected: 52
NL:pref_filled: 1
NL:pref_useful: 1
NL:pref_late: 0
NL:misses: 6
NL:misses_by_poll: 0

total selections: 10383189
total_filled: 1975417
total_useful: 1904608
total_late: 69880
total_polluted: 58
total_misses_after_warmup: 511712
conflicts: 23228369
Degree Incremented Times: 1196550
Degree Decremented Times: 1628337

L1 IP Table Write Accesses: 247128879
L1 IP Table Read Accesses: 223900510
L1 RST Write Accesses: 12100374
L1 RST Read Accesses: 24200748
L1 CSPT Write Accesses: 12100374
L1 CSPT Read Accesses: 20684426
L1 RR Filter Tag Write Accesses: 25294996
L1 RR Filter Tag Read Accesses: 1701570449
L1 IP Table Tag Write Accesses: 287264562
L1 IP Table Tag Read Accesses: 287264562
L1 RST Tag Write Accesses: 0
L1 RST Tag Read Accesses: 110805910
L1 RR Filter Write Accesses: 0
L1 RR Filter Read Accesses: 67846956
test: 804248
LLC TOTAL     ACCESS:    2689980  HIT:     990333  MISS:    1699647  HIT %:    36.8156  MISS %:    63.1844   MPKI: 5.07947
LLC LOAD      ACCESS:      48433  HIT:       4349  MISS:      44084  HIT %:    8.97941  MISS %:    91.0206   MPKI: 0.131747
LLC RFO       ACCESS:     420141  HIT:      79487  MISS:     340654  HIT %:    18.9191  MISS %:    81.0809   MPKI: 1.01806
LLC PREFETCH  ACCESS:    1418982  HIT:     133819  MISS:    1285163  HIT %:    9.43063  MISS %:    90.5694   MPKI: 3.84077
LLC WRITEBACK ACCESS:     799823  HIT:     772503  MISS:      27320  HIT %:    96.5842  MISS %:    3.41576   MPKI: 0.081647

RAW hits: 3150718
Loads Generated: 80257203
Loads sent to L1D: 77106483
Stores Generated: 21097516
Stores sent to L1D: 21097517

CPU 3 cumulative IPC: 1.13785 instructions: 312791286 cycles: 274897730
ITLB TOTAL     ACCESS:   51898501  HIT:   51898501  MISS:          0  HIT %:        100  MISS %:          0   MPKI: 0
ITLB LOAD      ACCESS:          0  HIT:          0  MISS:          0  HIT %:       -nan  MISS %:       -nan   MPKI: 0
ITLB RFO       ACCESS:          0  HIT:          0  MISS:          0  HIT %:       -nan  MISS %:       -nan   MPKI: 0
ITLB PREFETCH  ACCESS:          0  HIT:          0  MISS:          0  HIT %:       -nan  MISS %:       -nan   MPKI: 0
ITLB WRITEBACK ACCESS:          0  HIT:          0  MISS:          0  HIT %:       -nan  MISS %:       -nan   MPKI: 0
DTLB TOTAL     ACCESS:   52901053  HIT:   52883570  MISS:      17483  HIT %:     99.967  MISS %:  0.0330485   MPKI: 0.0558935
DTLB LOAD      ACCESS:          0  HIT:          0  MISS:          0  HIT %:       -nan  MISS %:       -nan   MPKI: 0
DTLB RFO       ACCESS:          0  HIT:          0  MISS:          0  HIT %:       -nan  MISS %:       -nan   MPKI: 0
DTLB PREFETCH  ACCESS:          0  HIT:          0  MISS:          0  HIT %:       -nan  MISS %:       -nan   MPKI: 0
DTLB WRITEBACK ACCESS:          0  HIT:          0  MISS:          0  HIT %:       -nan  MISS %:       -nan   MPKI: 0
STLB TOTAL     ACCESS:     690169  HIT:     672686  MISS:      17483  HIT %:    97.4669  MISS %:    2.53315   MPKI: 0.0558935
STLB LOAD      ACCESS:          0  HIT:          0  MISS:          0  HIT %:       -nan  MISS %:       -nan   MPKI: 0
STLB RFO       ACCESS:          0  HIT:          0  MISS:          0  HIT %:       -nan  MISS %:       -nan   MPKI: 0
STLB PREFETCH  ACCESS:          0  HIT:          0  MISS:          0  HIT %:       -nan  MISS %:       -nan   MPKI: 0
STLB WRITEBACK ACCESS:          0  HIT:          0  MISS:          0  HIT %:       -nan  MISS %:       -nan   MPKI: 0
L1D TOTAL     ACCESS:   36107902  HIT:   34989105  MISS:    1118797  HIT %:    96.9015  MISS %:    3.09848   MPKI: 3.57682
L1D LOAD      ACCESS:   19481743  HIT:   19471951  MISS:       9792  HIT %:    99.9497  MISS %:  0.0502624   MPKI: 0.0313052
L1D RFO       ACCESS:   14075172  HIT:   13515776  MISS:     559396  HIT %:    96.0257  MISS %:    3.97435   MPKI: 1.7884
L1D PREFETCH  ACCESS:    2550987  HIT:    2001378  MISS:     549609  HIT %:     78.455  MISS %:     21.545   MPKI: 1.75711
L1D WRITEBACK ACCESS:          0  HIT:          0  MISS:          0  HIT %:       -nan  MISS %:       -nan   MPKI: 0
L1I TOTAL     ACCESS:   51898500  HIT:   51898500  MISS:          0  HIT %:        100  MISS %:          0   MPKI: 0
L1I LOAD      ACCESS:   51898500  HIT:   51898500  MISS:          0  HIT %:        100  MISS %:          0   MPKI: 0
L1I RFO       ACCESS:          0  HIT:          0  MISS:          0  HIT %:       -nan  MISS %:       -nan   MPKI: 0
L1I PREFETCH  ACCESS:          0  HIT:          0  MISS:          0  HIT %:       -nan  MISS %:       -nan   MPKI: 0
L1I WRITEBACK ACCESS:          0  HIT:          0  MISS:          0  HIT %:       -nan  MISS %:       -nan   MPKI: 0
L2C TOTAL     ACCESS:    1695676  HIT:     506200  MISS:    1189476  HIT %:    29.8524  MISS %:    70.1476   MPKI: 3.80278
L2C LOAD      ACCESS:       8770  HIT:          0  MISS:       8770  HIT %:          0  MISS %:        100   MPKI: 0.0280379
L2C RFO       ACCESS:     559396  HIT:         31  MISS:     559365  HIT %: 0.00554169  MISS %:    99.9945   MPKI: 1.7883
L2C PREFETCH  ACCESS:     550631  HIT:         26  MISS:     550605  HIT %: 0.00472186  MISS %:    99.9953   MPKI: 1.7603
L2C WRITEBACK ACCESS:     559396  HIT:     490891  MISS:      68505  HIT %:    87.7538  MISS %:    12.2462   MPKI: 0.219012
PSCL5 TOTAL     ACCESS:      17483  HIT:      17483  MISS:          0  HIT %:        100  MISS %:          0   MPKI: 0
PSCL5 LOAD      ACCESS:          0  HIT:          0  MISS:          0  HIT %:       -nan  MISS %:       -nan   MPKI: 0
PSCL5 RFO       ACCESS:          0  HIT:          0  MISS:          0  HIT %:       -nan  MISS %:       -nan   MPKI: 0
PSCL5 PREFETCH  ACCESS:          0  HIT:          0  MISS:          0  HIT %:       -nan  MISS %:       -nan   MPKI: 0
PSCL5 WRITEBACK ACCESS:          0  HIT:          0  MISS:          0  HIT %:       -nan  MISS %:       -nan   MPKI: 0
PSCL4 TOTAL     ACCESS:      17483  HIT:      17483  MISS:          0  HIT %:        100  MISS %:          0   MPKI: 0
PSCL4 LOAD      ACCESS:          0  HIT:          0  MISS:          0  HIT %:       -nan  MISS %:       -nan   MPKI: 0
PSCL4 RFO       ACCESS:          0  HIT:          0  MISS:          0  HIT %:       -nan  MISS %:       -nan   MPKI: 0
PSCL4 PREFETCH  ACCESS:          0  HIT:          0  MISS:          0  HIT %:       -nan  MISS %:       -nan   MPKI: 0
PSCL4 WRITEBACK ACCESS:          0  HIT:          0  MISS:          0  HIT %:       -nan  MISS %:       -nan   MPKI: 0
PSCL3 TOTAL     ACCESS:      17483  HIT:      17483  MISS:          0  HIT %:        100  MISS %:          0   MPKI: 0
PSCL3 LOAD      ACCESS:          0  HIT:          0  MISS:          0  HIT %:       -nan  MISS %:       -nan   MPKI: 0
PSCL3 RFO       ACCESS:          0  HIT:          0  MISS:          0  HIT %:       -nan  MISS %:       -nan   MPKI: 0
PSCL3 PREFETCH  ACCESS:          0  HIT:          0  MISS:          0  HIT %:       -nan  MISS %:       -nan   MPKI: 0
PSCL3 WRITEBACK ACCESS:          0  HIT:          0  MISS:          0  HIT %:       -nan  MISS %:       -nan   MPKI: 0
PSCL2 TOTAL     ACCESS:      17483  HIT:      17464  MISS:         19  HIT %:    99.8913  MISS %:   0.108677   MPKI: 6.07434e-05
PSCL2 LOAD      ACCESS:          0  HIT:          0  MISS:          0  HIT %:       -nan  MISS %:       -nan   MPKI: 0
PSCL2 RFO       ACCESS:          0  HIT:          0  MISS:          0  HIT %:       -nan  MISS %:       -nan   MPKI: 0
PSCL2 PREFETCH  ACCESS:          0  HIT:          0  MISS:          0  HIT %:       -nan  MISS %:       -nan   MPKI: 0
PSCL2 WRITEBACK ACCESS:          0  HIT:          0  MISS:          0  HIT %:       -nan  MISS %:       -nan   MPKI: 0

stream: 
stream:times selected: 1342056
stream:pref_filled: 678818
stream:pref_useful: 678807
stream:pref_late: 962
stream:misses: 25
stream:misses_by_poll: 0

CS: 
CS:times selected: 1274839
CS:pref_filled: 3334
CS:pref_useful: 3334
CS:pref_late: 57
CS:misses: 49876
CS:misses_by_poll: 2

CPLX: 
CPLX:times selected: 67169
CPLX:pref_filled: 209
CPLX:pref_useful: 209
CPLX:pref_late: 1
CPLX:misses: 7
CPLX:misses_by_poll: 0

NL_L1: 
NL:times selected: 2
NL:pref_filled: 0
NL:pref_useful: 0
NL:pref_late: 0
NL:misses: 0
NL:misses_by_poll: 0

total selections: 2684066
total_filled: 549609
total_useful: 549604
total_late: 1022
total_polluted: 2
total_misses_after_warmup: 47137
conflicts: 23228369
Degree Incremented Times: 1196550
Degree Decremented Times: 1628337

L1 IP Table Write Accesses: 247128879
L1 IP Table Read Accesses: 223900510
L1 RST Write Accesses: 12100374
L1 RST Read Accesses: 24200748
L1 CSPT Write Accesses: 12100374
L1 CSPT Read Accesses: 20684426
L1 RR Filter Tag Write Accesses: 25294996
L1 RR Filter Tag Read Accesses: 1701570449
L1 IP Table Tag Write Accesses: 287264562
L1 IP Table Tag Read Accesses: 287264562
L1 RST Tag Write Accesses: 0
L1 RST Tag Read Accesses: 110805910
L1 RR Filter Write Accesses: 0
L1 RR Filter Read Accesses: 67846956
test: 804248
LLC TOTAL     ACCESS:    1680036  HIT:     485257  MISS:    1194779  HIT %:    28.8837  MISS %:    71.1163   MPKI: 3.81973
LLC LOAD      ACCESS:       8770  HIT:          0  MISS:       8770  HIT %:          0  MISS %:        100   MPKI: 0.0280379
LLC RFO       ACCESS:     559365  HIT:          1  MISS:     559364  HIT %: 0.000178774  MISS %:    99.9998   MPKI: 1.7883
LLC PREFETCH  ACCESS:     550606  HIT:          0  MISS:     550606  HIT %:          0  MISS %:        100   MPKI: 1.7603
LLC WRITEBACK ACCESS:     559064  HIT:     485232  MISS:      73832  HIT %:    86.7936  MISS %:    13.2064   MPKI: 0.236042

RAW hits: 0
Loads Generated: 66892436
Loads sent to L1D: 66892436
Stores Generated: 35801288
Stores sent to L1D: 35801286

Region of Interest Statistics

CPU 0 cumulative IPC: 0.98862 instructions: 200000000 cycles: 202302283
ITLB TOTAL     ACCESS:   28441661  HIT:   28441661  MISS:          0  HIT %:        100  MISS %:          0   MPKI: 0
ITLB LOAD TRANSLATION ACCESS:   28441661  HIT:   28441661  MISS:          0  HIT %:        100  MISS %:          0   MPKI: 0
ITLB PREFETCH  REQUESTED:          0  ISSUED:          0  USEFUL:          0  USELESS:          0
ITLB USEFUL LOAD PREFETCHES:          0 PREFETCH ISSUED TO LOWER LEVEL:          0  ACCURACY: -nan
ITLB TIMELY PREFETCHES:          0 LATE PREFETCHES: 0 DROPPED PREFETCHES: 0
ITLB PREFETCHES SAME FILL-ORIGIN LEVEL: 0 DIFFERENT FILL-ORIGIN LEVEL: 0
ITLB AVERAGE MISS LATENCY: -nan cycles
ITLB RQ	ACCESS:   48875905	FORWARD:          0	MERGED:    8759034	TO_CACHE:   40116871

DTLB TOTAL     ACCESS:   56654545  HIT:   49087830  MISS:    7566715  HIT %:    86.6441  MISS %:    13.3559   MPKI: 37.8336
DTLB LOAD TRANSLATION ACCESS:   56654545  HIT:   49087830  MISS:    7566715  HIT %:    86.6441  MISS %:    13.3559   MPKI: 37.8336
DTLB PREFETCH  REQUESTED:          0  ISSUED:          0  USEFUL:          0  USELESS:          0
DTLB USEFUL LOAD PREFETCHES:          0 PREFETCH ISSUED TO LOWER LEVEL:          0  ACCURACY: -nan
DTLB TIMELY PREFETCHES:          0 LATE PREFETCHES: 0 DROPPED PREFETCHES: 0
DTLB PREFETCHES SAME FILL-ORIGIN LEVEL: 0 DIFFERENT FILL-ORIGIN LEVEL: 0
DTLB AVERAGE MISS LATENCY: 14.1717 cycles
DTLB RQ	ACCESS:  111252966	FORWARD:          0	MERGED:   30056170	TO_CACHE:   81196796

STLB TOTAL     ACCESS:    8676667  HIT:    8668376  MISS:       8291  HIT %:    99.9044  MISS %:  0.0955551   MPKI: 0.041455
STLB LOAD TRANSLATION ACCESS:    7566715  HIT:    7558424  MISS:       8291  HIT %:    99.8904  MISS %:   0.109572   MPKI: 0.041455
STLB TRANSLATION FROM L1D PREFETCHER ACCESS:    1109952  HIT:    1109952  MISS:          0  HIT %:        100  MISS %:          0   MPKI: 0
STLB PREFETCH  REQUESTED:          0  ISSUED:          0  USEFUL:          0  USELESS:          0
STLB USEFUL LOAD PREFETCHES:          0 PREFETCH ISSUED TO LOWER LEVEL:          0  ACCURACY: -nan
STLB TIMELY PREFETCHES:          0 LATE PREFETCHES: 0 DROPPED PREFETCHES: 0
STLB PREFETCHES SAME FILL-ORIGIN LEVEL: 0 DIFFERENT FILL-ORIGIN LEVEL: 0
STLB AVERAGE MISS LATENCY: 913.521 cycles
STLB RQ	ACCESS:   12277573	FORWARD:          0	MERGED:      38478	TO_CACHE:   12239095

STLB Hit, L1D data hit: 0
STLB Hit, L2C data hit: 0
STLB Hit, LLC data hit: 0
STLB Hit, LLC data miss: 0
STLB STLB hints to L2: 0
L1D TOTAL     ACCESS:   79282511  HIT:   63478217  MISS:   15804294  HIT %:    80.0659  MISS %:    19.9341   MPKI: 79.0215
L1D LOAD      ACCESS:   62380351  HIT:   48693537  MISS:   13686814  HIT %:    78.0591  MISS %:    21.9409   MPKI: 68.4341
L1D RFO       ACCESS:   15771969  HIT:   14557917  MISS:    1214052  HIT %:    92.3025  MISS %:    7.69753   MPKI: 6.07026
L1D PREFETCH  ACCESS:    1130191  HIT:     226763  MISS:     903428  HIT %:    20.0641  MISS %:    79.9359   MPKI: 4.51714
L1D PREFETCH  REQUESTED:    3206635  ISSUED:    3206632  USEFUL:      47168  USELESS:    1227958
L1D USEFUL LOAD PREFETCHES:      47168 PREFETCH ISSUED TO LOWER LEVEL:    1275699  ACCURACY: 3.69742
L1D TIMELY PREFETCHES:      47168 LATE PREFETCHES: 579 DROPPED PREFETCHES: 0
L1D PREFETCHES SAME FILL-ORIGIN LEVEL: 1275699 DIFFERENT FILL-ORIGIN LEVEL: 0
L1D AVERAGE MISS LATENCY: 50.9301 cycles
L1D RQ	ACCESS:  108790119	FORWARD:          0	MERGED:   19922376	TO_CACHE:   88821117
L1D WQ	ACCESS:   22583542	FORWARD:      46627	MERGED:     151693	TO_CACHE:   22431849
L1D PQ	ACCESS:    1603317	FORWARD:          0	MERGED:          1	TO_CACHE:    1603315

L1D UNIQUE REGIONS ACCESSED: 0
L1D REGIONS CONFLICTS: 0
L1D Cross Page Prefetch Requests: 0
L1D Same Page Prefetch Requests: 2026856
L1D ROI Sum of L1D PQ occupancy: 32357288
L1D PREFETCHES PUSHED FROM L2C: 0
L1I TOTAL     ACCESS:   31692970  HIT:   25908529  MISS:    5784441  HIT %:    81.7485  MISS %:    18.2515   MPKI: 28.9222
L1I LOAD      ACCESS:   31692970  HIT:   25908529  MISS:    5784441  HIT %:    81.7485  MISS %:    18.2515   MPKI: 28.9222
L1I PREFETCH  REQUESTED:          0  ISSUED:          0  USEFUL:          0  USELESS:          0
L1I USEFUL LOAD PREFETCHES:          0 PREFETCH ISSUED TO LOWER LEVEL:          0  ACCURACY: -nan
L1I TIMELY PREFETCHES:          0 LATE PREFETCHES: 0 DROPPED PREFETCHES: 0
L1I PREFETCHES SAME FILL-ORIGIN LEVEL: 0 DIFFERENT FILL-ORIGIN LEVEL: 0
L1I AVERAGE MISS LATENCY: 17.0515 cycles
L1I RQ	ACCESS:   68352833	FORWARD:          0	MERGED:   19476928	TO_CACHE:   48875905

BTB TOTAL     ACCESS:    1176349  HIT:    1103848  MISS:      72501  HIT %:    93.8368  MISS %:    6.16322   MPKI: 0.362505
BTB BRANCH_DIRECT_JUMP	ACCESS:     217102  HIT:     217076  MISS:         26
BTB BRANCH_INDIRECT	ACCESS:      36159  HIT:      36158  MISS:          1
BTB BRANCH_CONDITIONAL	ACCESS:     489126  HIT:     489051  MISS:         75
BTB BRANCH_DIRECT_CALL	ACCESS:     216981  HIT:     216942  MISS:         39
BTB BRANCH_INDIRECT_CALL	ACCESS:          0  HIT:          0  MISS:          0
BTB BRANCH_RETURN	ACCESS:     216981  HIT:     144621  MISS:      72360
BTB BRANCH_OTHER ACCESS:          0  HIT:          0  MISS:          0

L2C TOTAL     ACCESS:   22905291  HIT:   21840556  MISS:    1064735  HIT %:    95.3516  MISS %:    4.64842   MPKI: 5.32367
L2C LOAD      ACCESS:   19469259  HIT:   18976349  MISS:     492910  HIT %:    97.4683  MISS %:    2.53173   MPKI: 2.46455
L2C DATA LOAD MPKI: 2.46233
L2C INSTRUCTION LOAD MPKI: 0.002215
L2C RFO       ACCESS:    1208628  HIT:    1091543  MISS:     117085  HIT %:    90.3126  MISS %:    9.68743   MPKI: 0.585425
L2C PREFETCH  ACCESS:     903821  HIT:     462290  MISS:     441531  HIT %:    51.1484  MISS %:    48.8516   MPKI: 2.20765
L2C DATA PREFETCH MPKI: 2.20765
L2C INSTRUCTION PREFETCH MPKI: 0
L2C WRITEBACK ACCESS:    1311032  HIT:    1308853  MISS:       2179  HIT %:    99.8338  MISS %:   0.166205   MPKI: 0.010895
L2C LOAD TRANSLATION ACCESS:      12551  HIT:       1521  MISS:      11030  HIT %:    12.1186  MISS %:    87.8814   MPKI: 0.05515
L2C PREFETCH  REQUESTED:          0  ISSUED:          0  USEFUL:     591828  USELESS:      26740
L2C USEFUL LOAD PREFETCHES:     591828 PREFETCH ISSUED TO LOWER LEVEL:     618545  ACCURACY: 95.6807
L2C TIMELY PREFETCHES:     591828 LATE PREFETCHES: 0 DROPPED PREFETCHES: 0
L2C PREFETCHES SAME FILL-ORIGIN LEVEL: 0 DIFFERENT FILL-ORIGIN LEVEL: 0
L2C AVERAGE MISS LATENCY: 472.839 cycles
L2C RQ	ACCESS:   29196026	FORWARD:          0	MERGED:          0	TO_CACHE:   29187230
L2C WQ	ACCESS:    1849687	FORWARD:       8796	MERGED:          0	TO_CACHE:    1849687
L2C PQ	ACCESS:    1275699	FORWARD:          0	MERGED:          0	TO_CACHE:    1275699

L2C Instructions Evicting Data 568
L2C Translations Evicting Data 15598
L2C Data Evicting Data 1462979
L2C Instructions Evicting Instructions 14
L2C Translations Evicting Instructions 8
L2C Data Evicting Instructions 559
L2C Instructions Evicting Translations 4
L2C Translations Evicting Translations 140
L2C Data Evicting Translations 15634
L2C Dense regions hint from L2: 0
PSCL5 TOTAL     ACCESS:       8291  HIT:       8291  MISS:          0  HIT %:        100  MISS %:          0   MPKI: 0
PSCL5 LOAD TRANSLATION ACCESS:       8291  HIT:       8291  MISS:          0  HIT %:        100  MISS %:          0   MPKI: 0
PSCL5 PREFETCH  REQUESTED:          0  ISSUED:          0  USEFUL:          0  USELESS:          0
PSCL5 USEFUL LOAD PREFETCHES:          0 PREFETCH ISSUED TO LOWER LEVEL:          0  ACCURACY: -nan
PSCL5 TIMELY PREFETCHES:          0 LATE PREFETCHES: 0 DROPPED PREFETCHES: 0
PSCL5 PREFETCHES SAME FILL-ORIGIN LEVEL: 0 DIFFERENT FILL-ORIGIN LEVEL: 0

PSCL4 TOTAL     ACCESS:       8291  HIT:       8291  MISS:          0  HIT %:        100  MISS %:          0   MPKI: 0
PSCL4 LOAD TRANSLATION ACCESS:       8291  HIT:       8291  MISS:          0  HIT %:        100  MISS %:          0   MPKI: 0
PSCL4 PREFETCH  REQUESTED:          0  ISSUED:          0  USEFUL:          0  USELESS:          0
PSCL4 USEFUL LOAD PREFETCHES:          0 PREFETCH ISSUED TO LOWER LEVEL:          0  ACCURACY: -nan
PSCL4 TIMELY PREFETCHES:          0 LATE PREFETCHES: 0 DROPPED PREFETCHES: 0
PSCL4 PREFETCHES SAME FILL-ORIGIN LEVEL: 0 DIFFERENT FILL-ORIGIN LEVEL: 0

PSCL3 TOTAL     ACCESS:       8279  HIT:       8277  MISS:          2  HIT %:    99.9758  MISS %:  0.0241575   MPKI: 1e-05
PSCL3 LOAD TRANSLATION ACCESS:       8279  HIT:       8277  MISS:          2  HIT %:    99.9758  MISS %:  0.0241575   MPKI: 1e-05
PSCL3 PREFETCH  REQUESTED:          0  ISSUED:          0  USEFUL:          0  USELESS:          0
PSCL3 USEFUL LOAD PREFETCHES:          0 PREFETCH ISSUED TO LOWER LEVEL:          0  ACCURACY: -nan
PSCL3 TIMELY PREFETCHES:          0 LATE PREFETCHES: 0 DROPPED PREFETCHES: 0
PSCL3 PREFETCHES SAME FILL-ORIGIN LEVEL: 0 DIFFERENT FILL-ORIGIN LEVEL: 0

PSCL2 TOTAL     ACCESS:       8291  HIT:       4026  MISS:       4265  HIT %:    48.5587  MISS %:    51.4413   MPKI: 0.021325
PSCL2 LOAD TRANSLATION ACCESS:       8291  HIT:       4026  MISS:       4265  HIT %:    48.5587  MISS %:    51.4413   MPKI: 0.021325
PSCL2 PREFETCH  REQUESTED:          0  ISSUED:          0  USEFUL:          0  USELESS:          0
PSCL2 USEFUL LOAD PREFETCHES:          0 PREFETCH ISSUED TO LOWER LEVEL:          0  ACCURACY: -nan
PSCL2 TIMELY PREFETCHES:          0 LATE PREFETCHES: 0 DROPPED PREFETCHES: 0
PSCL2 PREFETCHES SAME FILL-ORIGIN LEVEL: 0 DIFFERENT FILL-ORIGIN LEVEL: 0

LLC TOTAL     ACCESS:    1181774  HIT:     623864  MISS:     557910  HIT %:    52.7905  MISS %:    47.2095   MPKI: 2.78955
LLC LOAD      ACCESS:     492910  HIT:     251275  MISS:     241635  HIT %:    50.9779  MISS %:    49.0221   MPKI: 1.20817
LLC RFO       ACCESS:     117085  HIT:          1  MISS:     117084  HIT %: 0.00085408  MISS %:    99.9991   MPKI: 0.58542
LLC PREFETCH  ACCESS:     441531  HIT:     254115  MISS:     187416  HIT %:    57.5532  MISS %:    42.4468   MPKI: 0.93708
LLC WRITEBACK ACCESS:     119218  HIT:     108962  MISS:      10256  HIT %:    91.3973  MISS %:    8.60273   MPKI: 0.05128
LLC LOAD TRANSLATION ACCESS:      11030  HIT:       9511  MISS:       1519  HIT %:    86.2285  MISS %:    13.7715   MPKI: 0.007595
LLC PREFETCH  REQUESTED:          0  ISSUED:          0  USEFUL:     104060  USELESS:    3786680
LLC USEFUL LOAD PREFETCHES:     104060 PREFETCH ISSUED TO LOWER LEVEL:    3895669  ACCURACY: 2.67117
LLC TIMELY PREFETCHES:     104060 LATE PREFETCHES: 0 DROPPED PREFETCHES: 0
LLC PREFETCHES SAME FILL-ORIGIN LEVEL: 0 DIFFERENT FILL-ORIGIN LEVEL: 0
LLC AVERAGE MISS LATENCY: 3900.1 cycles
LLC RQ	ACCESS:    2210873	FORWARD:          0	MERGED:          0	TO_CACHE:    2210869
LLC WQ	ACCESS:    2347071	FORWARD:          6	MERGED:          0	TO_CACHE:    2347071
LLC PQ	ACCESS:    4717860	FORWARD:          0	MERGED:          0	TO_CACHE:    4717858

LLC Dense regions hint to LLC: 0

RAW hits: 714275
Loads Generated: 77835776
Loads sent to L1D: 77121501
Stores Generated: 16016206
Stores sent to L1D: 16016207
Major fault: 0 Minor fault: 10353
Allocated PAGES: 194147

CPU 1 cumulative IPC: 0.727543 instructions: 200000001 cycles: 274897729
ITLB TOTAL     ACCESS:   34649107  HIT:   34649106  MISS:          1  HIT %:        100  MISS %: 2.88608e-06   MPKI: 5e-06
ITLB LOAD TRANSLATION ACCESS:   34649107  HIT:   34649106  MISS:          1  HIT %:        100  MISS %: 2.88608e-06   MPKI: 5e-06
ITLB PREFETCH  REQUESTED:          0  ISSUED:          0  USEFUL:          0  USELESS:          0
ITLB USEFUL LOAD PREFETCHES:          0 PREFETCH ISSUED TO LOWER LEVEL:          0  ACCURACY: -nan
ITLB TIMELY PREFETCHES:          0 LATE PREFETCHES: 0 DROPPED PREFETCHES: 0
ITLB PREFETCHES SAME FILL-ORIGIN LEVEL: 0 DIFFERENT FILL-ORIGIN LEVEL: 0
ITLB AVERAGE MISS LATENCY: 1519 cycles
ITLB RQ	ACCESS:   41816039	FORWARD:          0	MERGED:    7166931	TO_CACHE:   34649108

DTLB TOTAL     ACCESS:   90313436  HIT:   88502493  MISS:    1810943  HIT %:    97.9948  MISS %:    2.00518   MPKI: 9.05471
DTLB LOAD TRANSLATION ACCESS:   90313436  HIT:   88502493  MISS:    1810943  HIT %:    97.9948  MISS %:    2.00518   MPKI: 9.05471
DTLB PREFETCH  REQUESTED:          0  ISSUED:          0  USEFUL:          0  USELESS:          0
DTLB USEFUL LOAD PREFETCHES:          0 PREFETCH ISSUED TO LOWER LEVEL:          0  ACCURACY: -nan
DTLB TIMELY PREFETCHES:          0 LATE PREFETCHES: 0 DROPPED PREFETCHES: 0
DTLB PREFETCHES SAME FILL-ORIGIN LEVEL: 0 DIFFERENT FILL-ORIGIN LEVEL: 0
DTLB AVERAGE MISS LATENCY: 22.7994 cycles
DTLB RQ	ACCESS:  111252026	FORWARD:          0	MERGED:   20809484	TO_CACHE:   90442542

STLB TOTAL     ACCESS:    4736740  HIT:    4582891  MISS:     153849  HIT %:     96.752  MISS %:    3.24799   MPKI: 0.769245
STLB LOAD TRANSLATION ACCESS:    1810944  HIT:    1657095  MISS:     153849  HIT %:    91.5045  MISS %:    8.49551   MPKI: 0.769245
STLB TRANSLATION FROM L1D PREFETCHER ACCESS:    2925796  HIT:    2925796  MISS:          0  HIT %:        100  MISS %:          0   MPKI: 0
STLB PREFETCH  REQUESTED:          0  ISSUED:          0  USEFUL:          0  USELESS:          0
STLB USEFUL LOAD PREFETCHES:          0 PREFETCH ISSUED TO LOWER LEVEL:          0  ACCURACY: -nan
STLB TIMELY PREFETCHES:          0 LATE PREFETCHES: 0 DROPPED PREFETCHES: 0
STLB PREFETCHES SAME FILL-ORIGIN LEVEL: 0 DIFFERENT FILL-ORIGIN LEVEL: 0
STLB AVERAGE MISS LATENCY: 159.799 cycles
STLB RQ	ACCESS:    8720825	FORWARD:          0	MERGED:    3984084	TO_CACHE:    4736741

STLB Hit, L1D data hit: 0
STLB Hit, L2C data hit: 0
STLB Hit, LLC data hit: 0
STLB Hit, LLC data miss: 0
STLB STLB hints to L2: 0
L1D TOTAL     ACCESS:  118127738  HIT:  115514635  MISS:    2613103  HIT %:    97.7879  MISS %:     2.2121   MPKI: 13.0655
L1D LOAD      ACCESS:   97024795  HIT:   96722285  MISS:     302510  HIT %:    99.6882  MISS %:   0.311786   MPKI: 1.51255
L1D RFO       ACCESS:   14226033  HIT:   14226027  MISS:          6  HIT %:        100  MISS %: 4.21762e-05   MPKI: 3e-05
L1D PREFETCH  ACCESS:    6876910  HIT:    4566323  MISS:    2310587  HIT %:    66.4008  MISS %:    33.5992   MPKI: 11.5529
L1D PREFETCH  REQUESTED:   13821028  ISSUED:   13819831  USEFUL:    1404348  USELESS:     906468
L1D USEFUL LOAD PREFETCHES:    1404348 PREFETCH ISSUED TO LOWER LEVEL:    2313962  ACCURACY: 60.6902
L1D TIMELY PREFETCHES:    1404348 LATE PREFETCHES: 3375 DROPPED PREFETCHES: 0
L1D PREFETCHES SAME FILL-ORIGIN LEVEL: 2313962 DIFFERENT FILL-ORIGIN LEVEL: 0
L1D AVERAGE MISS LATENCY: 327.719 cycles
L1D RQ	ACCESS:  122622560	FORWARD:          0	MERGED:   25321589	TO_CACHE:   97025988
L1D WQ	ACCESS:   14226038	FORWARD:     274983	MERGED:          0	TO_CACHE:   14226038
L1D PQ	ACCESS:    6909950	FORWARD:          0	MERGED:         69	TO_CACHE:    6909881

L1D UNIQUE REGIONS ACCESSED: 0
L1D REGIONS CONFLICTS: 0
L1D Cross Page Prefetch Requests: 0
L1D Same Page Prefetch Requests: 9203299
L1D ROI Sum of L1D PQ occupancy: 83777823
L1D PREFETCHES PUSHED FROM L2C: 0
L1I TOTAL     ACCESS:   41816024  HIT:   41815985  MISS:         39  HIT %:    99.9999  MISS %: 9.32657e-05   MPKI: 0.000195
L1I LOAD      ACCESS:   41816024  HIT:   41815985  MISS:         39  HIT %:    99.9999  MISS %: 9.32657e-05   MPKI: 0.000195
L1I PREFETCH  REQUESTED:          0  ISSUED:          0  USEFUL:          0  USELESS:          0
L1I USEFUL LOAD PREFETCHES:          0 PREFETCH ISSUED TO LOWER LEVEL:          0  ACCURACY: -nan
L1I TIMELY PREFETCHES:          0 LATE PREFETCHES: 0 DROPPED PREFETCHES: 0
L1I PREFETCHES SAME FILL-ORIGIN LEVEL: 0 DIFFERENT FILL-ORIGIN LEVEL: 0
L1I AVERAGE MISS LATENCY: 287.59 cycles
L1I RQ	ACCESS:   60922809	FORWARD:          0	MERGED:   19106770	TO_CACHE:   41816039

BTB TOTAL     ACCESS:     989278  HIT:     989271  MISS:          7  HIT %:    99.9993  MISS %: 0.000707587   MPKI: 3.5e-05
BTB BRANCH_DIRECT_JUMP	ACCESS:        124  HIT:        122  MISS:          2
BTB BRANCH_INDIRECT	ACCESS:          0  HIT:          0  MISS:          0
BTB BRANCH_CONDITIONAL	ACCESS:     989154  HIT:     989149  MISS:          5
BTB BRANCH_DIRECT_CALL	ACCESS:          0  HIT:          0  MISS:          0
BTB BRANCH_INDIRECT_CALL	ACCESS:          0  HIT:          0  MISS:          0
BTB BRANCH_RETURN	ACCESS:          0  HIT:          0  MISS:          0
BTB BRANCH_OTHER ACCESS:          0  HIT:          0  MISS:          0

L2C TOTAL     ACCESS:    3590322  HIT:    1115830  MISS:    2474492  HIT %:    31.0788  MISS %:    68.9212   MPKI: 12.3725
L2C LOAD      ACCESS:     299174  HIT:      27591  MISS:     271583  HIT %:    9.22239  MISS %:    90.7776   MPKI: 1.35791
L2C DATA LOAD MPKI: 1.35772
L2C INSTRUCTION LOAD MPKI: 0.000195
L2C RFO       ACCESS:          6  HIT:          0  MISS:          6  HIT %:          0  MISS %:        100   MPKI: 3e-05
L2C PREFETCH  ACCESS:    2313962  HIT:     184237  MISS:    2129725  HIT %:    7.96197  MISS %:     92.038   MPKI: 10.6486
L2C DATA PREFETCH MPKI: 10.6486
L2C INSTRUCTION PREFETCH MPKI: 0
L2C WRITEBACK ACCESS:     822945  HIT:     770550  MISS:      52395  HIT %:    93.6332  MISS %:    6.36677   MPKI: 0.261975
L2C LOAD TRANSLATION ACCESS:     154235  HIT:     133452  MISS:      20783  HIT %:    86.5251  MISS %:    13.4749   MPKI: 0.103915
L2C PREFETCH  REQUESTED:          0  ISSUED:          0  USEFUL:       2452  USELESS:    2126261
L2C USEFUL LOAD PREFETCHES:       2452 PREFETCH ISSUED TO LOWER LEVEL:    2129725  ACCURACY: 0.115132
L2C TIMELY PREFETCHES:       2452 LATE PREFETCHES: 0 DROPPED PREFETCHES: 0
L2C PREFETCHES SAME FILL-ORIGIN LEVEL: 0 DIFFERENT FILL-ORIGIN LEVEL: 0
L2C AVERAGE MISS LATENCY: 335.095 cycles
L2C RQ	ACCESS:     453415	FORWARD:          0	MERGED:          0	TO_CACHE:     453415
L2C WQ	ACCESS:     822945	FORWARD:          0	MERGED:          0	TO_CACHE:     822945
L2C PQ	ACCESS:    2313962	FORWARD:          0	MERGED:          0	TO_CACHE:    2313962

L2C Instructions Evicting Data 35
L2C Translations Evicting Data 20584
L2C Data Evicting Data 2381046
L2C Instructions Evicting Instructions 0
L2C Translations Evicting Instructions 0
L2C Data Evicting Instructions 39
L2C Instructions Evicting Translations 4
L2C Translations Evicting Translations 199
L2C Data Evicting Translations 20142
L2C Dense regions hint from L2: 0
PSCL5 TOTAL     ACCESS:     153849  HIT:     153849  MISS:          0  HIT %:        100  MISS %:          0   MPKI: 0
PSCL5 LOAD TRANSLATION ACCESS:     153849  HIT:     153849  MISS:          0  HIT %:        100  MISS %:          0   MPKI: 0
PSCL5 PREFETCH  REQUESTED:          0  ISSUED:          0  USEFUL:          0  USELESS:          0
PSCL5 USEFUL LOAD PREFETCHES:          0 PREFETCH ISSUED TO LOWER LEVEL:          0  ACCURACY: -nan
PSCL5 TIMELY PREFETCHES:          0 LATE PREFETCHES: 0 DROPPED PREFETCHES: 0
PSCL5 PREFETCHES SAME FILL-ORIGIN LEVEL: 0 DIFFERENT FILL-ORIGIN LEVEL: 0

PSCL4 TOTAL     ACCESS:     153849  HIT:     153849  MISS:          0  HIT %:        100  MISS %:          0   MPKI: 0
PSCL4 LOAD TRANSLATION ACCESS:     153849  HIT:     153849  MISS:          0  HIT %:        100  MISS %:          0   MPKI: 0
PSCL4 PREFETCH  REQUESTED:          0  ISSUED:          0  USEFUL:          0  USELESS:          0
PSCL4 USEFUL LOAD PREFETCHES:          0 PREFETCH ISSUED TO LOWER LEVEL:          0  ACCURACY: -nan
PSCL4 TIMELY PREFETCHES:          0 LATE PREFETCHES: 0 DROPPED PREFETCHES: 0
PSCL4 PREFETCHES SAME FILL-ORIGIN LEVEL: 0 DIFFERENT FILL-ORIGIN LEVEL: 0

PSCL3 TOTAL     ACCESS:     153849  HIT:     153849  MISS:          0  HIT %:        100  MISS %:          0   MPKI: 0
PSCL3 LOAD TRANSLATION ACCESS:     153849  HIT:     153849  MISS:          0  HIT %:        100  MISS %:          0   MPKI: 0
PSCL3 PREFETCH  REQUESTED:          0  ISSUED:          0  USEFUL:          0  USELESS:          0
PSCL3 USEFUL LOAD PREFETCHES:          0 PREFETCH ISSUED TO LOWER LEVEL:          0  ACCURACY: -nan
PSCL3 TIMELY PREFETCHES:          0 LATE PREFETCHES: 0 DROPPED PREFETCHES: 0
PSCL3 PREFETCHES SAME FILL-ORIGIN LEVEL: 0 DIFFERENT FILL-ORIGIN LEVEL: 0

PSCL2 TOTAL     ACCESS:     153849  HIT:     153354  MISS:        495  HIT %:    99.6783  MISS %:   0.321744   MPKI: 0.002475
PSCL2 LOAD TRANSLATION ACCESS:     153849  HIT:     153354  MISS:        495  HIT %:    99.6783  MISS %:   0.321744   MPKI: 0.002475
PSCL2 PREFETCH  REQUESTED:          0  ISSUED:          0  USEFUL:          0  USELESS:          0
PSCL2 USEFUL LOAD PREFETCHES:          0 PREFETCH ISSUED TO LOWER LEVEL:          0  ACCURACY: -nan
PSCL2 TIMELY PREFETCHES:          0 LATE PREFETCHES: 0 DROPPED PREFETCHES: 0
PSCL2 PREFETCHES SAME FILL-ORIGIN LEVEL: 0 DIFFERENT FILL-ORIGIN LEVEL: 0

LLC TOTAL     ACCESS:    3242798  HIT:    1177699  MISS:    2065099  HIT %:    36.3174  MISS %:    63.6826   MPKI: 10.3255
LLC LOAD      ACCESS:     271583  HIT:      44695  MISS:     226888  HIT %:    16.4572  MISS %:    83.5428   MPKI: 1.13444
LLC RFO       ACCESS:          6  HIT:          0  MISS:          6  HIT %:          0  MISS %:        100   MPKI: 3e-05
LLC PREFETCH  ACCESS:    2129725  HIT:     329681  MISS:    1800044  HIT %:      15.48  MISS %:      84.52   MPKI: 9.00022
LLC WRITEBACK ACCESS:     820701  HIT:     802581  MISS:      18120  HIT %:    97.7921  MISS %:    2.20787   MPKI: 0.0906
LLC LOAD TRANSLATION ACCESS:      20783  HIT:        742  MISS:      20041  HIT %:    3.57023  MISS %:    96.4298   MPKI: 0.100205
LLC PREFETCH  REQUESTED:          0  ISSUED:          0  USEFUL:     104060  USELESS:    3786680
LLC USEFUL LOAD PREFETCHES:     104060 PREFETCH ISSUED TO LOWER LEVEL:    3895669  ACCURACY: 2.67117
LLC TIMELY PREFETCHES:     104060 LATE PREFETCHES: 0 DROPPED PREFETCHES: 0
LLC PREFETCHES SAME FILL-ORIGIN LEVEL: 0 DIFFERENT FILL-ORIGIN LEVEL: 0
LLC AVERAGE MISS LATENCY: 1053.66 cycles
LLC RQ	ACCESS:    2210873	FORWARD:          0	MERGED:          0	TO_CACHE:    2210869
LLC WQ	ACCESS:    2347071	FORWARD:          6	MERGED:          0	TO_CACHE:    2347071
LLC PQ	ACCESS:    4717860	FORWARD:          0	MERGED:          0	TO_CACHE:    4717858

LLC Dense regions hint to LLC: 0

RAW hits: 9665511
Loads Generated: 132288069
Loads sent to L1D: 122622560
Stores Generated: 14226038
Stores sent to L1D: 14226038
Major fault: 0 Minor fault: 159276
Allocated PAGES: 194147

CPU 2 cumulative IPC: 1.43638 instructions: 200000000 cycles: 139239053
ITLB TOTAL     ACCESS:   30395327  HIT:   30395327  MISS:          0  HIT %:        100  MISS %:          0   MPKI: 0
ITLB LOAD TRANSLATION ACCESS:   30395327  HIT:   30395327  MISS:          0  HIT %:        100  MISS %:          0   MPKI: 0
ITLB PREFETCH  REQUESTED:          0  ISSUED:          0  USEFUL:          0  USELESS:          0
ITLB USEFUL LOAD PREFETCHES:          0 PREFETCH ISSUED TO LOWER LEVEL:          0  ACCURACY: -nan
ITLB TIMELY PREFETCHES:          0 LATE PREFETCHES: 0 DROPPED PREFETCHES: 0
ITLB PREFETCHES SAME FILL-ORIGIN LEVEL: 0 DIFFERENT FILL-ORIGIN LEVEL: 0
ITLB AVERAGE MISS LATENCY: inf cycles
ITLB RQ	ACCESS:   60751193	FORWARD:          0	MERGED:   10483745	TO_CACHE:   50267448

DTLB TOTAL     ACCESS:   39743920  HIT:   39722339  MISS:      21581  HIT %:    99.9457  MISS %:  0.0543001   MPKI: 0.107905
DTLB LOAD TRANSLATION ACCESS:   39743920  HIT:   39722339  MISS:      21581  HIT %:    99.9457  MISS %:  0.0543001   MPKI: 0.107905
DTLB PREFETCH  REQUESTED:          0  ISSUED:          0  USEFUL:          0  USELESS:          0
DTLB USEFUL LOAD PREFETCHES:          0 PREFETCH ISSUED TO LOWER LEVEL:          0  ACCURACY: -nan
DTLB TIMELY PREFETCHES:          0 LATE PREFETCHES: 0 DROPPED PREFETCHES: 0
DTLB PREFETCHES SAME FILL-ORIGIN LEVEL: 0 DIFFERENT FILL-ORIGIN LEVEL: 0
DTLB AVERAGE MISS LATENCY: 99.5613 cycles
DTLB RQ	ACCESS:   73014565	FORWARD:          0	MERGED:    7677102	TO_CACHE:   65337463

STLB TOTAL     ACCESS:    2049549  HIT:    2037840  MISS:      11709  HIT %:    99.4287  MISS %:   0.571296   MPKI: 0.058545
STLB LOAD TRANSLATION ACCESS:      21581  HIT:       9877  MISS:      11704  HIT %:    45.7671  MISS %:    54.2329   MPKI: 0.05852
STLB TRANSLATION FROM L1D PREFETCHER ACCESS:    2027968  HIT:    2027963  MISS:          5  HIT %:    99.9998  MISS %: 0.000246552   MPKI: 2.5e-05
STLB PREFETCH  REQUESTED:          0  ISSUED:          0  USEFUL:          7  USELESS:          0
STLB USEFUL LOAD PREFETCHES:          7 PREFETCH ISSUED TO LOWER LEVEL:          0  ACCURACY: inf
[...]
LLC LOAD TRANSLATION ACCESS:       1788  HIT:        110  MISS:       1678  HIT %:    6.15213  MISS %:    93.8479   MPKI: 0.00839
LLC TRANSLATION FROM L1D PREFETCHER ACCESS:          5  HIT:          0  MISS:          5  HIT %:          0  MISS %:        100   MPKI: 2.5e-05
LLC PREFETCH  REQUESTED:          0  ISSUED:          0  USEFUL:     104060  USELESS:    3786680
LLC USEFUL LOAD PREFETCHES:     104060 PREFETCH ISSUED TO LOWER LEVEL:    3895669  ACCURACY: 2.67117
LLC TIMELY PREFETCHES:     104060 LATE PREFETCHES: 0 DROPPED PREFETCHES: 0
LLC PREFETCHES SAME FILL-ORIGIN LEVEL: 0 DIFFERENT FILL-ORIGIN LEVEL: 0
LLC AVERAGE MISS LATENCY: 1845.79 cycles
LLC RQ	ACCESS:    2210873	FORWARD:          0	MERGED:          0	TO_CACHE:    2210869
LLC WQ	ACCESS:    2347071	FORWARD:          6	MERGED:          0	TO_CACHE:    2347071
LLC PQ	ACCESS:    4717860	FORWARD:          0	MERGED:          0	TO_CACHE:    4717858

LLC Dense regions hint to LLC: 0

RAW hits: 47651
Loads Generated: 47744433
Loads sent to L1D: 47696779
Stores Generated: 11624444
Stores sent to L1D: 11624443
Major fault: 0 Minor fault: 10508
Allocated PAGES: 194147

CPU 3 cumulative IPC: 1.13275 instructions: 200000002 cycles: 176561447
ITLB TOTAL     ACCESS:   33180944  HIT:   33180944  MISS:          0  HIT %:        100  MISS %:          0   MPKI: 0
ITLB LOAD TRANSLATION ACCESS:   33180944  HIT:   33180944  MISS:          0  HIT %:        100  MISS %:          0   MPKI: 0
ITLB PREFETCH  REQUESTED:          0  ISSUED:          0  USEFUL:          0  USELESS:          0
ITLB USEFUL LOAD PREFETCHES:          0 PREFETCH ISSUED TO LOWER LEVEL:          0  ACCURACY: -nan
ITLB TIMELY PREFETCHES:          0 LATE PREFETCHES: 0 DROPPED PREFETCHES: 0
ITLB PREFETCHES SAME FILL-ORIGIN LEVEL: 0 DIFFERENT FILL-ORIGIN LEVEL: 0
ITLB AVERAGE MISS LATENCY: -nan cycles
ITLB RQ	ACCESS:   51898501	FORWARD:          0	MERGED:          0	TO_CACHE:   51898501

DTLB TOTAL     ACCESS:   33830080  HIT:   33818901  MISS:      11179  HIT %:     99.967  MISS %:  0.0330446   MPKI: 0.055895
DTLB LOAD TRANSLATION ACCESS:   33830080  HIT:   33818901  MISS:      11179  HIT %:     99.967  MISS %:  0.0330446   MPKI: 0.055895
DTLB PREFETCH  REQUESTED:          0  ISSUED:          0  USEFUL:          0  USELESS:          0
DTLB USEFUL LOAD PREFETCHES:          0 PREFETCH ISSUED TO LOWER LEVEL:          0  ACCURACY: -nan
DTLB TIMELY PREFETCHES:          0 LATE PREFETCHES: 0 DROPPED PREFETCHES: 0
DTLB PREFETCHES SAME FILL-ORIGIN LEVEL: 0 DIFFERENT FILL-ORIGIN LEVEL: 0
DTLB AVERAGE MISS LATENCY: 197.586 cycles
DTLB RQ	ACCESS:   55319051	FORWARD:          0	MERGED:    2354572	TO_CACHE:   52964479

STLB TOTAL     ACCESS:     447079  HIT:     435900  MISS:      11179  HIT %:    97.4995  MISS %:    2.50045   MPKI: 0.055895
STLB LOAD TRANSLATION ACCESS:      11179  HIT:          0  MISS:      11179  HIT %:          0  MISS %:        100   MPKI: 0.055895
STLB TRANSLATION FROM L1D PREFETCHER ACCESS:     435900  HIT:     435900  MISS:          0  HIT %:        100  MISS %:          0   MPKI: 0
STLB PREFETCH  REQUESTED:          0  ISSUED:          0  USEFUL:          0  USELESS:          0
STLB USEFUL LOAD PREFETCHES:          0 PREFETCH ISSUED TO LOWER LEVEL:          0  ACCURACY: -nan
STLB TIMELY PREFETCHES:          0 LATE PREFETCHES: 0 DROPPED PREFETCHES: 0
STLB PREFETCHES SAME FILL-ORIGIN LEVEL: 0 DIFFERENT FILL-ORIGIN LEVEL: 0
STLB AVERAGE MISS LATENCY: 183.511 cycles
STLB RQ	ACCESS:    2677311	FORWARD:          0	MERGED:    1987142	TO_CACHE:     690169

STLB Hit, L1D data hit: 0
STLB Hit, L2C data hit: 0
STLB Hit, LLC data hit: 0
STLB Hit, LLC data miss: 0
STLB STLB hints to L2: 0
L1D TOTAL     ACCESS:   22439972  HIT:   21724662  MISS:     715310  HIT %:    96.8123  MISS %:    3.18766   MPKI: 3.57655
L1D LOAD      ACCESS:   12459756  HIT:   12453343  MISS:       6413  HIT %:    99.9485  MISS %:  0.0514697   MPKI: 0.032065
L1D RFO       ACCESS:    8171473  HIT:    7813821  MISS:     357652  HIT %:    95.6232  MISS %:    4.37684   MPKI: 1.78826
L1D PREFETCH  ACCESS:    1808743  HIT:    1457498  MISS:     351245  HIT %:    80.5807  MISS %:    19.4193   MPKI: 1.75622
L1D PREFETCH  REQUESTED:    5319680  ISSUED:    5319680  USEFUL:     549604  USELESS:          6
L1D USEFUL LOAD PREFETCHES:     549604 PREFETCH ISSUED TO LOWER LEVEL:     550632  ACCURACY: 99.8133
L1D TIMELY PREFETCHES:     549604 LATE PREFETCHES: 1022 DROPPED PREFETCHES: 0
L1D PREFETCHES SAME FILL-ORIGIN LEVEL: 550632 DIFFERENT FILL-ORIGIN LEVEL: 0
L1D AVERAGE MISS LATENCY: 555.197 cycles
L1D RQ	ACCESS:   66892436	FORWARD:          0	MERGED:   47374671	TO_CACHE:   19517765
L1D WQ	ACCESS:   35801286	FORWARD:          0	MERGED:          0	TO_CACHE:   35801286
L1D PQ	ACCESS:    2659852	FORWARD:          0	MERGED:         24	TO_CACHE:    2659828

L1D UNIQUE REGIONS ACCESSED: 0
L1D REGIONS CONFLICTS: 0
L1D Cross Page Prefetch Requests: 0
L1D Same Page Prefetch Requests: 3323961
L1D ROI Sum of L1D PQ occupancy: 31508328
L1D PREFETCHES PUSHED FROM L2C: 0
L1I TOTAL     ACCESS:   33180944  HIT:   33180944  MISS:          0  HIT %:        100  MISS %:          0   MPKI: 0
L1I LOAD      ACCESS:   33180944  HIT:   33180944  MISS:          0  HIT %:        100  MISS %:          0   MPKI: 0
L1I PREFETCH  REQUESTED:          0  ISSUED:          0  USEFUL:          0  USELESS:          0
L1I USEFUL LOAD PREFETCHES:          0 PREFETCH ISSUED TO LOWER LEVEL:          0  ACCURACY: -nan
L1I TIMELY PREFETCHES:          0 LATE PREFETCHES: 0 DROPPED PREFETCHES: 0
L1I PREFETCHES SAME FILL-ORIGIN LEVEL: 0 DIFFERENT FILL-ORIGIN LEVEL: 0
L1I AVERAGE MISS LATENCY: -nan cycles
L1I RQ	ACCESS:   86771740	FORWARD:          0	MERGED:   34873239	TO_CACHE:   51898501

BTB TOTAL     ACCESS:   45779381  HIT:   45779381  MISS:          0  HIT %:        100  MISS %:          0   MPKI: 0
BTB BRANCH_DIRECT_JUMP	ACCESS:          0  HIT:          0  MISS:          0
BTB BRANCH_INDIRECT	ACCESS:          0  HIT:          0  MISS:          0
BTB BRANCH_CONDITIONAL	ACCESS:   45779381  HIT:   45779381  MISS:          0
BTB BRANCH_DIRECT_CALL	ACCESS:          0  HIT:          0  MISS:          0
BTB BRANCH_INDIRECT_CALL	ACCESS:          0  HIT:          0  MISS:          0
BTB BRANCH_RETURN	ACCESS:          0  HIT:          0  MISS:          0
BTB BRANCH_OTHER ACCESS:          0  HIT:          0  MISS:          0

L2C TOTAL     ACCESS:    1084141  HIT:     323673  MISS:     760468  HIT %:    29.8552  MISS %:    70.1448   MPKI: 3.80234
L2C LOAD      ACCESS:       5605  HIT:          0  MISS:       5605  HIT %:          0  MISS %:        100   MPKI: 0.028025
L2C DATA LOAD MPKI: 0.028025
L2C INSTRUCTION LOAD MPKI: 0
L2C RFO       ACCESS:     357652  HIT:         10  MISS:     357642  HIT %: 0.00279601  MISS %:    99.9972   MPKI: 1.78821
L2C PREFETCH  ACCESS:     352053  HIT:         13  MISS:     352040  HIT %: 0.00369263  MISS %:    99.9963   MPKI: 1.7602
L2C DATA PREFETCH MPKI: 1.7602
L2C INSTRUCTION PREFETCH MPKI: 0
L2C WRITEBACK ACCESS:     357652  HIT:     313904  MISS:      43748  HIT %:     87.768  MISS %:     12.232   MPKI: 0.21874
L2C LOAD TRANSLATION ACCESS:      11179  HIT:       9746  MISS:       1433  HIT %:    87.1813  MISS %:    12.8187   MPKI: 0.007165
L2C PREFETCH  REQUESTED:          0  ISSUED:          0  USEFUL:          0  USELESS:     550812
L2C USEFUL LOAD PREFETCHES:          0 PREFETCH ISSUED TO LOWER LEVEL:     550606  ACCURACY: 0
L2C TIMELY PREFETCHES:          0 LATE PREFETCHES: 0 DROPPED PREFETCHES: 0
L2C PREFETCHES SAME FILL-ORIGIN LEVEL: 0 DIFFERENT FILL-ORIGIN LEVEL: 0
L2C AVERAGE MISS LATENCY: 506.223 cycles
L2C RQ	ACCESS:     585649	FORWARD:          0	MERGED:          0	TO_CACHE:     585649
L2C WQ	ACCESS:     559396	FORWARD:          0	MERGED:          0	TO_CACHE:     559396
L2C PQ	ACCESS:     550632	FORWARD:          0	MERGED:          0	TO_CACHE:     550632

L2C Instructions Evicting Data 0
L2C Translations Evicting Data 2231
L2C Data Evicting Data 1116561
L2C Instructions Evicting Instructions 0
L2C Translations Evicting Instructions 0
L2C Data Evicting Instructions 0
L2C Instructions Evicting Translations 0
L2C Translations Evicting Translations 0
L2C Data Evicting Translations 2113
L2C Dense regions hint from L2: 0
PSCL5 TOTAL     ACCESS:      11179  HIT:      11179  MISS:          0  HIT %:        100  MISS %:          0   MPKI: 0
PSCL5 LOAD TRANSLATION ACCESS:      11179  HIT:      11179  MISS:          0  HIT %:        100  MISS %:          0   MPKI: 0
PSCL5 PREFETCH  REQUESTED:          0  ISSUED:          0  USEFUL:          0  USELESS:          0
PSCL5 USEFUL LOAD PREFETCHES:          0 PREFETCH ISSUED TO LOWER LEVEL:          0  ACCURACY: -nan
PSCL5 TIMELY PREFETCHES:          0 LATE PREFETCHES: 0 DROPPED PREFETCHES: 0
PSCL5 PREFETCHES SAME FILL-ORIGIN LEVEL: 0 DIFFERENT FILL-ORIGIN LEVEL: 0

PSCL4 TOTAL     ACCESS:      11179  HIT:      11179  MISS:          0  HIT %:        100  MISS %:          0   MPKI: 0
PSCL4 LOAD TRANSLATION ACCESS:      11179  HIT:      11179  MISS:          0  HIT %:        100  MISS %:          0   MPKI: 0
PSCL4 PREFETCH  REQUESTED:          0  ISSUED:          0  USEFUL:          0  USELESS:          0
PSCL4 USEFUL LOAD PREFETCHES:          0 PREFETCH ISSUED TO LOWER LEVEL:          0  ACCURACY: -nan
PSCL4 TIMELY PREFETCHES:          0 LATE PREFETCHES: 0 DROPPED PREFETCHES: 0
PSCL4 PREFETCHES SAME FILL-ORIGIN LEVEL: 0 DIFFERENT FILL-ORIGIN LEVEL: 0

PSCL3 TOTAL     ACCESS:      11179  HIT:      11179  MISS:          0  HIT %:        100  MISS %:          0   MPKI: 0
PSCL3 LOAD TRANSLATION ACCESS:      11179  HIT:      11179  MISS:          0  HIT %:        100  MISS %:          0   MPKI: 0
PSCL3 PREFETCH  REQUESTED:          0  ISSUED:          0  USEFUL:          0  USELESS:          0
PSCL3 USEFUL LOAD PREFETCHES:          0 PREFETCH ISSUED TO LOWER LEVEL:          0  ACCURACY: -nan
PSCL3 TIMELY PREFETCHES:          0 LATE PREFETCHES: 0 DROPPED PREFETCHES: 0
PSCL3 PREFETCHES SAME FILL-ORIGIN LEVEL: 0 DIFFERENT FILL-ORIGIN LEVEL: 0

PSCL2 TOTAL     ACCESS:      11179  HIT:      11160  MISS:         19  HIT %:      99.83  MISS %:   0.169962   MPKI: 9.5e-05
PSCL2 LOAD TRANSLATION ACCESS:      11179  HIT:      11160  MISS:         19  HIT %:      99.83  MISS %:   0.169962   MPKI: 9.5e-05
PSCL2 PREFETCH  REQUESTED:          0  ISSUED:          0  USEFUL:          0  USELESS:          0
PSCL2 USEFUL LOAD PREFETCHES:          0 PREFETCH ISSUED TO LOWER LEVEL:          0  ACCURACY: -nan
PSCL2 TIMELY PREFETCHES:          0 LATE PREFETCHES: 0 DROPPED PREFETCHES: 0
PSCL2 PREFETCHES SAME FILL-ORIGIN LEVEL: 0 DIFFERENT FILL-ORIGIN LEVEL: 0

LLC TOTAL     ACCESS:    1074280  HIT:     299819  MISS:     774461  HIT %:    27.9088  MISS %:    72.0912   MPKI: 3.8723
LLC LOAD      ACCESS:       5605  HIT:          0  MISS:       5605  HIT %:          0  MISS %:        100   MPKI: 0.028025
LLC RFO       ACCESS:     357642  HIT:          0  MISS:     357642  HIT %:          0  MISS %:        100   MPKI: 1.78821
LLC PREFETCH  ACCESS:     352040  HIT:          0  MISS:     352040  HIT %:          0  MISS %:        100   MPKI: 1.7602
LLC WRITEBACK ACCESS:     357560  HIT:     299805  MISS:      57755  HIT %:    83.8475  MISS %:    16.1525   MPKI: 0.288775
LLC LOAD TRANSLATION ACCESS:       1433  HIT:         14  MISS:       1419  HIT %:   0.976971  MISS %:     99.023   MPKI: 0.007095
LLC PREFETCH  REQUESTED:          0  ISSUED:          0  USEFUL:     104060  USELESS:    3786680
LLC USEFUL LOAD PREFETCHES:     104060 PREFETCH ISSUED TO LOWER LEVEL:    3895669  ACCURACY: 2.67117
LLC TIMELY PREFETCHES:     104060 LATE PREFETCHES: 0 DROPPED PREFETCHES: 0
LLC PREFETCHES SAME FILL-ORIGIN LEVEL: 0 DIFFERENT FILL-ORIGIN LEVEL: 0
LLC AVERAGE MISS LATENCY: 2809.57 cycles
LLC RQ	ACCESS:    2210873	FORWARD:          0	MERGED:          0	TO_CACHE:    2210869
LLC WQ	ACCESS:    2347071	FORWARD:          6	MERGED:          0	TO_CACHE:    2347071
LLC PQ	ACCESS:    4717860	FORWARD:          0	MERGED:          0	TO_CACHE:    4717858

LLC Dense regions hint to LLC: 0

RAW hits: 0
Loads Generated: 42775785
Loads sent to L1D: 42775783
Stores Generated: 22889690
Stores sent to L1D: 22889689
Major fault: 0 Minor fault: 14010
Allocated PAGES: 194147

stream: 
stream:times selected: 2073854
stream:pref_filled: 1593655
stream:pref_useful: 56624
stream:pref_late: 668
stream:misses: 7195
stream:misses_by_poll: 0

CS: 
CS:times selected: 1692461
CS:pref_filled: 5106
CS:pref_useful: 180
CS:pref_late: 2
CS:misses: 9159
CS:misses_by_poll: 0

CPLX: 
CPLX:times selected: 2072337
CPLX:pref_filled: 13344
CPLX:pref_useful: 2401
CPLX:pref_late: 1
CPLX:misses: 8534472
CPLX:misses_by_poll: 3

NL_L1: 
NL:times selected: 189
NL:pref_filled: 106
NL:pref_useful: 4
NL:pref_late: 0
NL:misses: 121
NL:misses_by_poll: 0

total selections: 5838841
total_filled: 1275120
total_useful: 47168
total_late: 733
total_polluted: 3
total_misses_after_warmup: 21429816
conflicts: 23228369
Degree Incremented Times: 1196550
Degree Decremented Times: 1628337

L1 IP Table Write Accesses: 247128879
L1 IP Table Read Accesses: 223900510
L1 RST Write Accesses: 12100374
L1 RST Read Accesses: 24200748
L1 CSPT Write Accesses: 12100374
L1 CSPT Read Accesses: 20684426
L1 RR Filter Tag Write Accesses: 25294996
L1 RR Filter Tag Read Accesses: 1701570449
L1 IP Table Tag Write Accesses: 287264562
L1 IP Table Tag Read Accesses: 287264562
L1 RST Tag Write Accesses: 0
L1 RST Tag Read Accesses: 110805910
L1 RR Filter Write Accesses: 0
L1 RR Filter Read Accesses: 67846956
test: 804248

stream: 
stream:times selected: 5155914
stream:pref_filled: 1085163
stream:pref_useful: 387745
stream:pref_late: 2529
stream:misses: 51454
stream:misses_by_poll: 0

CS: 
CS:times selected: 1517418
CS:pref_filled: 786395
CS:pref_useful: 748718
CS:pref_late: 243
CS:misses: 28487
CS:misses_by_poll: 1969

CPLX: 
CPLX:times selected: 3638273
CPLX:pref_filled: 1469854
CPLX:pref_useful: 699224
CPLX:pref_late: 1112
CPLX:misses: 442042
CPLX:misses_by_poll: 8991

NL_L1: 
NL:times selected: 952
NL:pref_filled: 859
NL:pref_useful: 70
NL:pref_late: 4
NL:misses: 525
NL:misses_by_poll: 0

total selections: 10312557
total_filled: 2310587
total_useful: 1404348
total_late: 4024
total_polluted: 10960
total_misses_after_warmup: 303706
conflicts: 23228369
Degree Incremented Times: 1196550
Degree Decremented Times: 1628337

L1 IP Table Write Accesses: 247128879
L1 IP Table Read Accesses: 223900510
L1 RST Write Accesses: 12100374
L1 RST Read Accesses: 24200748
L1 CSPT Write Accesses: 12100374
L1 CSPT Read Accesses: 20684426
L1 RR Filter Tag Write Accesses: 25294996
L1 RR Filter Tag Read Accesses: 1701570449
L1 IP Table Tag Write Accesses: 287264562
L1 IP Table Tag Read Accesses: 287264562
L1 RST Tag Write Accesses: 0
L1 RST Tag Read Accesses: 110805910
L1 RR Filter Write Accesses: 0
L1 RR Filter Read Accesses: 67846956
test: 804248

stream: 
stream:times selected: 5191602
stream:pref_filled: 2563227
stream:pref_useful: 2473296
stream:pref_late: 68456
stream:misses: 198
stream:misses_by_poll: 0

CS: 
CS:times selected: 5002734
CS:pref_filled: 9484
CS:pref_useful: 9348
CS:pref_late: 862
CS:misses: 490715
CS:misses_by_poll: 47

CPLX: 
CPLX:times selected: 188801
CPLX:pref_filled: 5092
CPLX:pref_useful: 3260
CPLX:pref_late: 21
CPLX:misses: 4431
CPLX:misses_by_poll: 11

NL_L1: 
NL:times selected: 52
NL:pref_filled: 1
NL:pref_useful: 1
NL:pref_late: 0
NL:misses: 6
NL:misses_by_poll: 0

total selections: 10383189
total_filled: 1975417
total_useful: 1904608
total_late: 69880
total_polluted: 58
total_misses_after_warmup: 511712
conflicts: 23228369
Degree Incremented Times: 1196550
Degree Decremented Times: 1628337

L1 IP Table Write Accesses: 247128879
L1 IP Table Read Accesses: 223900510
L1 RST Write Accesses: 12100374
L1 RST Read Accesses: 24200748
L1 CSPT Write Accesses: 12100374
L1 CSPT Read Accesses: 20684426
L1 RR Filter Tag Write Accesses: 25294996
L1 RR Filter Tag Read Accesses: 1701570449
L1 IP Table Tag Write Accesses: 287264562
L1 IP Table Tag Read Accesses: 287264562
L1 RST Tag Write Accesses: 0
L1 RST Tag Read Accesses: 110805910
L1 RR Filter Write Accesses: 0
L1 RR Filter Read Accesses: 67846956
test: 804248

stream: 
stream:times selected: 1342056
stream:pref_filled: 678818
stream:pref_useful: 678807
stream:pref_late: 962
stream:misses: 25
stream:misses_by_poll: 0

CS: 
CS:times selected: 1274839
CS:pref_filled: 3334
CS:pref_useful: 3334
CS:pref_late: 57
CS:misses: 49876
CS:misses_by_poll: 2

CPLX: 
CPLX:times selected: 67169
CPLX:pref_filled: 209
CPLX:pref_useful: 209
CPLX:pref_late: 1
CPLX:misses: 7
CPLX:misses_by_poll: 0

NL_L1: 
NL:times selected: 2
NL:pref_filled: 0
NL:pref_useful: 0
NL:pref_late: 0
NL:misses: 0
NL:misses_by_poll: 0

total selections: 2684066
total_filled: 549609
total_useful: 549604
total_late: 1022
total_polluted: 2
total_misses_after_warmup: 47137
conflicts: 23228369
Degree Incremented Times: 1196550
Degree Decremented Times: 1628337

L1 IP Table Write Accesses: 247128879
L1 IP Table Read Accesses: 223900510
L1 RST Write Accesses: 12100374
L1 RST Read Accesses: 24200748
L1 CSPT Write Accesses: 12100374
L1 CSPT Read Accesses: 20684426
L1 RR Filter Tag Write Accesses: 25294996
L1 RR Filter Tag Read Accesses: 1701570449
L1 IP Table Tag Write Accesses: 287264562
L1 IP Table Tag Read Accesses: 287264562
L1 RST Tag Write Accesses: 0
L1 RST Tag Read Accesses: 110805910
L1 RR Filter Write Accesses: 0
L1 RR Filter Read Accesses: 67846956
test: 804248

DRAM Statistics
 CHANNEL 0
 RQ ROW_BUFFER_HIT:    1481889  ROW_BUFFER_MISS:    4120759
 DBUS_CONGESTED:        589
 WQ ROW_BUFFER_HIT:     254280  ROW_BUFFER_MISS:    1941451  FULL:          0

 AVG_CONGESTED_CYCLE: 5
 All warmup complete: 5
Channel 0 Bank busy for read cycles: 0
Channel 0 Bank busy for write cycles: 0
Channel 0
Rank 0
0banks busy for read cycles: 438906
0banks busy for write cycles: 1654
1banks busy for read cycles: 39008794
1banks busy for write cycles: 609750
2banks busy for read cycles: 40989943
2banks busy for write cycles: 861998
3banks busy for read cycles: 35450329
3banks busy for write cycles: 1175376
4banks busy for read cycles: 29454766
4banks busy for write cycles: 1530478
5banks busy for read cycles: 23014415
5banks busy for write cycles: 1964623
6banks busy for read cycles: 17266786
6banks busy for write cycles: 3469066
7banks busy for read cycles: 13910467
7banks busy for write cycles: 13233452
8banks busy for read cycles: 8608724
8banks busy for write cycles: 43908203

CPU 0 Branch Prediction Accuracy: 99.9871% MPKI: 0.00106931 Average ROB Occupancy at Mispredict: 45.3199
Branch types
NOT_BRANCH: 279619436 99.1132%
BRANCH_DIRECT_JUMP: 306172 0.108525%
BRANCH_INDIRECT: 51003 0.0180784%
BRANCH_CONDITIONAL: 1532247 0.543116%
BRANCH_DIRECT_CALL: 306051 0.108482%
BRANCH_INDIRECT_CALL: 0 0%
BRANCH_RETURN: 306051 0.108482%
BRANCH_OTHER: 0 0%


CPU 1 Branch Prediction Accuracy: 99.8231% MPKI: 0.009225 Average ROB Occupancy at Mispredict: 330.295
Branch types
NOT_BRANCH: 198956749 99.4784%
BRANCH_DIRECT_JUMP: 124 6.2e-05%
BRANCH_INDIRECT: 0 0%
BRANCH_CONDITIONAL: 1043130 0.521565%
BRANCH_DIRECT_CALL: 0 0%
BRANCH_INDIRECT_CALL: 0 0%
BRANCH_RETURN: 0 0%
BRANCH_OTHER: 0 0%


CPU 2 Branch Prediction Accuracy: 99.9705% MPKI: 0.0170378 Average ROB Occupancy at Mispredict: 84.6971
Branch types
NOT_BRANCH: 313115604 93.576%
BRANCH_DIRECT_JUMP: 228161 0.0681869%
BRANCH_INDIRECT: 0 0%
BRANCH_CONDITIONAL: 20005487 5.97873%
BRANCH_DIRECT_CALL: 630937 0.188558%
BRANCH_INDIRECT_CALL: 0 0%
BRANCH_RETURN: 630936 0.188558%
BRANCH_OTHER: 0 0%


CPU 3 Branch Prediction Accuracy: 99.4276% MPKI: 1.21192 Average ROB Occupancy at Mispredict: 33.4975
Branch types
NOT_BRANCH: 241188740 77.1085%
BRANCH_DIRECT_JUMP: 0 0%
BRANCH_INDIRECT: 0 0%
BRANCH_CONDITIONAL: 71602576 22.8915%
BRANCH_DIRECT_CALL: 0 0%
BRANCH_INDIRECT_CALL: 0 0%
BRANCH_RETURN: 0 0%
BRANCH_OTHER: 0 0%

DRAM PAGES: 1048576
Allocated PAGES: 194147
