
*** ChampSim Multicore Out-of-Order Simulator ***

Warmup Instructions: 50000000
Simulation Instructions: 200000000
Number of CPUs: 4
LLC sets: 8192
LLC ways: 16
Off-chip DRAM Size: 4096 MB Channels: 1 Width: 64-bit Data Rate: 6400 MT/s
CPU 0 runs ./traces/ligra/ligra_Triangle.com-lj.ungraph.gcc_6.3.0_O3.drop_6000M.length_250M.champsimtrace.xz
.xz
CPU 1 runs ./traces/spec/437.leslie3d-265B.champsimtrace.xz
.xz
CPU 2 runs ./traces/spec/654.roms_s-1390B.champsimtrace.xz
.xz
CPU 3 runs ./traces/ligra/ligra_Components.com-lj.ungraph.gcc_6.3.0_O3.drop_22750M.length_250M.champsimtrace.xz
.xz
BTB has LRU replacement policy
ITLB has LRU replacement policy
DTLB has LRU replacement policy
STLB has LRU replacement policy
L1I has LRU replacement policy
IP Table Entries: 1024
CSPT Entries: 128
RR_ENTRIES: 32
RST_ENTRIES: 8
L1D has LRU replacement policy
Initialize SRRIP state for L2C
Initialize DRRIP state for LLC
BTB has LRU replacement policy
ITLB has LRU replacement policy
DTLB has LRU replacement policy
STLB has LRU replacement policy
L1I has LRU replacement policy
IP Table Entries: 1024
CSPT Entries: 128
RR_ENTRIES: 32
RST_ENTRIES: 8
L1D has LRU replacement policy
Initialize SRRIP state for L2C
Initialize DRRIP state for LLC
BTB has LRU replacement policy
ITLB has LRU replacement policy
DTLB has LRU replacement policy
STLB has LRU replacement policy
L1I has LRU replacement policy
IP Table Entries: 1024
CSPT Entries: 128
RR_ENTRIES: 32
RST_ENTRIES: 8
L1D has LRU replacement policy
Initialize SRRIP state for L2C
Initialize DRRIP state for LLC
BTB has LRU replacement policy
ITLB has LRU replacement policy
DTLB has LRU replacement policy
STLB has LRU replacement policy
L1I has LRU replacement policy
IP Table Entries: 1024
CSPT Entries: 128
RR_ENTRIES: 32
RST_ENTRIES: 8
L1D has LRU replacement policy
Initialize SRRIP state for L2C
Initialize DRRIP state for LLC
Heartbeat CPU 3 instructions: 10000003 cycles: 3002989 heartbeat IPC: 3.33002 cumulative IPC: 3.33002 (Simulation time: 0 hr 4 min 45 sec) 
Heartbeat CPU 1 instructions: 10000002 cycles: 3214473 heartbeat IPC: 3.11093 cumulative IPC: 3.11093 (Simulation time: 0 hr 5 min 5 sec) 
Heartbeat CPU 2 instructions: 10000001 cycles: 3756301 heartbeat IPC: 2.66219 cumulative IPC: 2.66219 (Simulation time: 0 hr 5 min 51 sec) 
Heartbeat CPU 0 instructions: 10000001 cycles: 3836068 heartbeat IPC: 2.60684 cumulative IPC: 2.60684 (Simulation time: 0 hr 5 min 57 sec) 
Heartbeat CPU 3 instructions: 20000003 cycles: 6012270 heartbeat IPC: 3.32305 cumulative IPC: 3.32653 (Simulation time: 0 hr 9 min 3 sec) 
Heartbeat CPU 1 instructions: 20000002 cycles: 6426887 heartbeat IPC: 3.11292 cumulative IPC: 3.11193 (Simulation time: 0 hr 9 min 37 sec) 
Heartbeat CPU 2 instructions: 20000000 cycles: 7249061 heartbeat IPC: 2.86307 cumulative IPC: 2.75898 (Simulation time: 0 hr 10 min 47 sec) 
Heartbeat CPU 0 instructions: 20000001 cycles: 7672061 heartbeat IPC: 2.60689 cumulative IPC: 2.60686 (Simulation time: 0 hr 11 min 17 sec) 
Heartbeat CPU 3 instructions: 30000002 cycles: 9010024 heartbeat IPC: 3.33583 cumulative IPC: 3.32963 (Simulation time: 0 hr 12 min 48 sec) 
Heartbeat CPU 1 instructions: 30000000 cycles: 9640350 heartbeat IPC: 3.11191 cumulative IPC: 3.11192 (Simulation time: 0 hr 13 min 37 sec) 
Heartbeat CPU 2 instructions: 30000003 cycles: 10665791 heartbeat IPC: 2.92678 cumulative IPC: 2.81273 (Simulation time: 0 hr 15 min 2 sec) 
Heartbeat CPU 0 instructions: 30000002 cycles: 11508021 heartbeat IPC: 2.60691 cumulative IPC: 2.60688 (Simulation time: 0 hr 16 min 14 sec) 
Heartbeat CPU 3 instructions: 40000000 cycles: 11999181 heartbeat IPC: 3.34542 cumulative IPC: 3.33356 (Simulation time: 0 hr 16 min 51 sec) 
Heartbeat CPU 1 instructions: 40000001 cycles: 12852961 heartbeat IPC: 3.11273 cumulative IPC: 3.11212 (Simulation time: 0 hr 18 min 7 sec) 
Heartbeat CPU 2 instructions: 40000002 cycles: 14439480 heartbeat IPC: 2.64993 cumulative IPC: 2.77018 (Simulation time: 0 hr 20 min 12 sec) 
Heartbeat CPU 3 instructions: 50000000 cycles: 14982994 heartbeat IPC: 3.35142 cumulative IPC: 3.33712 (Simulation time: 0 hr 20 min 52 sec) 
Heartbeat CPU 0 instructions: 40000000 cycles: 15344057 heartbeat IPC: 2.60686 cumulative IPC: 2.60687 (Simulation time: 0 hr 21 min 15 sec) 
Heartbeat CPU 1 instructions: 50000002 cycles: 16067344 heartbeat IPC: 3.11102 cumulative IPC: 3.1119 (Simulation time: 0 hr 22 min 2 sec) 
Heartbeat CPU 2 instructions: 50000000 cycles: 18786902 heartbeat IPC: 2.30021 cumulative IPC: 2.66143 (Simulation time: 0 hr 24 min 43 sec) 
Heartbeat CPU 3 instructions: 60000001 cycles: 18857636 heartbeat IPC: 2.58088 cumulative IPC: 0.530289 (Simulation time: 0 hr 24 min 47 sec) 
Heartbeat CPU 0 instructions: 50000002 cycles: 19180021 heartbeat IPC: 2.60691 cumulative IPC: 2.60688 (Simulation time: 0 hr 25 min 3 sec) 

Warmup complete CPU 0 instructions: 50000002 cycles: 19180021 (Simulation time: 0 hr 25 min 3 sec) 
Warmup complete CPU 1 instructions: 59667807 cycles: 19180020 (Simulation time: 0 hr 25 min 3 sec) 
Warmup complete CPU 2 instructions: 51187021 cycles: 19180020 (Simulation time: 0 hr 25 min 3 sec) 
Warmup complete CPU 3 instructions: 60816849 cycles: 19180020 (Simulation time: 0 hr 25 min 3 sec) 

Heartbeat CPU 1 instructions: 60000001 cycles: 19438019 heartbeat IPC: 2.96676 cumulative IPC: 1.28758 (Simulation time: 0 hr 25 min 8 sec) 
Heartbeat CPU 2 instructions: 60000001 cycles: 26373982 heartbeat IPC: 1.31803 cumulative IPC: 1.22505 (Simulation time: 0 hr 27 min 54 sec) 
Heartbeat CPU 1 instructions: 70000000 cycles: 26682570 heartbeat IPC: 1.38035 cumulative IPC: 1.37716 (Simulation time: 0 hr 28 min 2 sec) 
Heartbeat CPU 0 instructions: 60000001 cycles: 27477797 heartbeat IPC: 1.20514 cumulative IPC: 1.20514 (Simulation time: 0 hr 28 min 22 sec) 
Heartbeat CPU 1 instructions: 80000002 cycles: 33824208 heartbeat IPC: 1.40024 cumulative IPC: 1.38841 (Simulation time: 0 hr 30 min 32 sec) 
Heartbeat CPU 2 instructions: 70000002 cycles: 34190022 heartbeat IPC: 1.27942 cumulative IPC: 1.25336 (Simulation time: 0 hr 30 min 39 sec) 
Heartbeat CPU 0 instructions: 70000002 cycles: 35699755 heartbeat IPC: 1.21626 cumulative IPC: 1.21067 (Simulation time: 0 hr 31 min 14 sec) 
Heartbeat CPU 1 instructions: 90000003 cycles: 40935145 heartbeat IPC: 1.40628 cumulative IPC: 1.39426 (Simulation time: 0 hr 33 min 21 sec) 
Heartbeat CPU 2 instructions: 80000002 cycles: 42036904 heartbeat IPC: 1.27439 cumulative IPC: 1.26058 (Simulation time: 0 hr 33 min 46 sec) 
Heartbeat CPU 0 instructions: 80000002 cycles: 43880834 heartbeat IPC: 1.22233 cumulative IPC: 1.21453 (Simulation time: 0 hr 34 min 27 sec) 
Heartbeat CPU 1 instructions: 100000000 cycles: 48350593 heartbeat IPC: 1.34854 cumulative IPC: 1.38263 (Simulation time: 0 hr 36 min 4 sec) 
Heartbeat CPU 0 instructions: 90000000 cycles: 52293632 heartbeat IPC: 1.18866 cumulative IPC: 1.20796 (Simulation time: 0 hr 37 min 28 sec) 
Heartbeat CPU 1 instructions: 110000000 cycles: 56153324 heartbeat IPC: 1.2816 cumulative IPC: 1.36131 (Simulation time: 0 hr 38 min 52 sec) 
Heartbeat CPU 2 instructions: 90000003 cycles: 57666321 heartbeat IPC: 0.639819 cumulative IPC: 1.00849 (Simulation time: 0 hr 39 min 25 sec) 
Heartbeat CPU 0 instructions: 100000001 cycles: 60651580 heartbeat IPC: 1.19647 cumulative IPC: 1.20565 (Simulation time: 0 hr 40 min 34 sec) 
Heartbeat CPU 1 instructions: 120000003 cycles: 63476954 heartbeat IPC: 1.36544 cumulative IPC: 1.36199 (Simulation time: 0 hr 41 min 29 sec) 
Heartbeat CPU 3 instructions: 70000002 cycles: 68627315 heartbeat IPC: 0.200926 cumulative IPC: 0.185716 (Simulation time: 0 hr 43 min 13 sec) 
Heartbeat CPU 0 instructions: 110000000 cycles: 69005000 heartbeat IPC: 1.19711 cumulative IPC: 1.20422 (Simulation time: 0 hr 43 min 22 sec) 
Heartbeat CPU 1 instructions: 130000001 cycles: 71048152 heartbeat IPC: 1.32079 cumulative IPC: 1.35598 (Simulation time: 0 hr 44 min 6 sec) 
Heartbeat CPU 2 instructions: 100000001 cycles: 75936421 heartbeat IPC: 0.547342 cumulative IPC: 0.860044 (Simulation time: 0 hr 45 min 47 sec) 
Heartbeat CPU 0 instructions: 120000002 cycles: 77368584 heartbeat IPC: 1.19566 cumulative IPC: 1.20299 (Simulation time: 0 hr 46 min 17 sec) 
Heartbeat CPU 1 instructions: 140000003 cycles: 78512688 heartbeat IPC: 1.33967 cumulative IPC: 1.35393 (Simulation time: 0 hr 46 min 37 sec) 
Heartbeat CPU 1 instructions: 150000003 cycles: 85565370 heartbeat IPC: 1.4179 cumulative IPC: 1.36072 (Simulation time: 0 hr 48 min 45 sec) 
Heartbeat CPU 0 instructions: 130000000 cycles: 85625210 heartbeat IPC: 1.21115 cumulative IPC: 1.204 (Simulation time: 0 hr 48 min 47 sec) 
Heartbeat CPU 1 instructions: 160000002 cycles: 92952718 heartbeat IPC: 1.35367 cumulative IPC: 1.36002 (Simulation time: 0 hr 51 min 13 sec) 
Heartbeat CPU 0 instructions: 140000002 cycles: 94239856 heartbeat IPC: 1.16081 cumulative IPC: 1.19904 (Simulation time: 0 hr 51 min 43 sec) 
Heartbeat CPU 2 instructions: 110000000 cycles: 95964197 heartbeat IPC: 0.499306 cumulative IPC: 0.765952 (Simulation time: 0 hr 52 min 20 sec) 
Heartbeat CPU 1 instructions: 170000002 cycles: 100128965 heartbeat IPC: 1.39349 cumulative IPC: 1.36299 (Simulation time: 0 hr 53 min 49 sec) 
Heartbeat CPU 0 instructions: 150000001 cycles: 102542474 heartbeat IPC: 1.20444 cumulative IPC: 1.19958 (Simulation time: 0 hr 54 min 42 sec) 
Heartbeat CPU 1 instructions: 180000002 cycles: 107297567 heartbeat IPC: 1.39497 cumulative IPC: 1.36559 (Simulation time: 0 hr 56 min 25 sec) 
Heartbeat CPU 2 instructions: 120000002 cycles: 108065251 heartbeat IPC: 0.826374 cumulative IPC: 0.774178 (Simulation time: 0 hr 56 min 41 sec) 
Heartbeat CPU 0 instructions: 160000002 cycles: 111110641 heartbeat IPC: 1.16711 cumulative IPC: 1.19655 (Simulation time: 0 hr 57 min 46 sec) 
Heartbeat CPU 1 instructions: 190000001 cycles: 114877963 heartbeat IPC: 1.31919 cumulative IPC: 1.36191 (Simulation time: 0 hr 58 min 51 sec) 
Heartbeat CPU 0 instructions: 170000000 cycles: 119645125 heartbeat IPC: 1.17172 cumulative IPC: 1.19444 (Simulation time: 1 hr 0 min 11 sec) 
Heartbeat CPU 1 instructions: 200000002 cycles: 123970386 heartbeat IPC: 1.09982 cumulative IPC: 1.33917 (Simulation time: 1 hr 1 min 26 sec) 
Heartbeat CPU 2 instructions: 130000000 cycles: 124898835 heartbeat IPC: 0.59405 cumulative IPC: 0.745496 (Simulation time: 1 hr 1 min 44 sec) 
Heartbeat CPU 0 instructions: 180000000 cycles: 128195052 heartbeat IPC: 1.1696 cumulative IPC: 1.1925 (Simulation time: 1 hr 2 min 41 sec) 
Heartbeat CPU 1 instructions: 210000003 cycles: 134635924 heartbeat IPC: 0.937599 cumulative IPC: 1.30207 (Simulation time: 1 hr 4 min 19 sec) 
Heartbeat CPU 3 instructions: 80000001 cycles: 135939094 heartbeat IPC: 0.148562 cumulative IPC: 0.164297 (Simulation time: 1 hr 4 min 37 sec) 
Heartbeat CPU 0 instructions: 190000001 cycles: 136979629 heartbeat IPC: 1.13836 cumulative IPC: 1.18846 (Simulation time: 1 hr 4 min 50 sec) 
Heartbeat CPU 0 instructions: 200000002 cycles: 145734293 heartbeat IPC: 1.14225 cumulative IPC: 1.18526 (Simulation time: 1 hr 7 min 6 sec) 
Heartbeat CPU 1 instructions: 220000000 cycles: 146026801 heartbeat IPC: 0.877895 cumulative IPC: 1.26398 (Simulation time: 1 hr 7 min 11 sec) 
Heartbeat CPU 1 instructions: 230000000 cycles: 153981115 heartbeat IPC: 1.25718 cumulative IPC: 1.26358 (Simulation time: 1 hr 10 min 3 sec) 
Heartbeat CPU 0 instructions: 210000002 cycles: 155217942 heartbeat IPC: 1.05445 cumulative IPC: 1.17614 (Simulation time: 1 hr 10 min 27 sec) 
Heartbeat CPU 2 instructions: 140000001 cycles: 158061180 heartbeat IPC: 0.301547 cumulative IPC: 0.639489 (Simulation time: 1 hr 11 min 9 sec) 
Heartbeat CPU 1 instructions: 240000001 cycles: 162061549 heartbeat IPC: 1.23756 cumulative IPC: 1.26211 (Simulation time: 1 hr 12 min 7 sec) 
Heartbeat CPU 1 instructions: 250000001 cycles: 170161421 heartbeat IPC: 1.23459 cumulative IPC: 1.26063 (Simulation time: 1 hr 14 min 7 sec) 
Finished CPU 1 instructions: 200000001 cycles: 159358959 cumulative IPC: 1.25503 (Simulation time: 1 hr 16 min 2 sec) 
Heartbeat CPU 1 instructions: 260000000 cycles: 178879626 heartbeat IPC: 1.14702 cumulative IPC: 1.25443 (Simulation time: 1 hr 16 min 7 sec) 
Heartbeat CPU 1 instructions: 270000002 cycles: 189147013 heartbeat IPC: 0.973958 cumulative IPC: 1.23749 (Simulation time: 1 hr 18 min 19 sec) 
Heartbeat CPU 2 instructions: 150000000 cycles: 191755725 heartbeat IPC: 0.296784 cumulative IPC: 0.572578 (Simulation time: 1 hr 18 min 50 sec) 
Heartbeat CPU 1 instructions: 280000002 cycles: 199634377 heartbeat IPC: 0.953528 cumulative IPC: 1.22099 (Simulation time: 1 hr 20 min 42 sec) 
Heartbeat CPU 0 instructions: 220000000 cycles: 204410809 heartbeat IPC: 0.203281 cumulative IPC: 0.917774 (Simulation time: 1 hr 21 min 57 sec) 
Heartbeat CPU 1 instructions: 290000000 cycles: 210150670 heartbeat IPC: 0.950905 cumulative IPC: 1.20611 (Simulation time: 1 hr 23 min 16 sec) 
Heartbeat CPU 2 instructions: 160000000 cycles: 213610347 heartbeat IPC: 0.457569 cumulative IPC: 0.55965 (Simulation time: 1 hr 24 min 5 sec) 
Heartbeat CPU 1 instructions: 300000001 cycles: 220819998 heartbeat IPC: 0.937266 cumulative IPC: 1.19189 (Simulation time: 1 hr 25 min 41 sec) 
Heartbeat CPU 1 instructions: 310000002 cycles: 231379066 heartbeat IPC: 0.947053 cumulative IPC: 1.1797 (Simulation time: 1 hr 28 min 16 sec) 
Heartbeat CPU 2 instructions: 170000000 cycles: 234104391 heartbeat IPC: 0.487947 cumulative IPC: 0.552813 (Simulation time: 1 hr 28 min 54 sec) 
Heartbeat CPU 1 instructions: 320000000 cycles: 241841317 heartbeat IPC: 0.955817 cumulative IPC: 1.16918 (Simulation time: 1 hr 30 min 31 sec) 
Heartbeat CPU 0 instructions: 230000001 cycles: 251290453 heartbeat IPC: 0.213312 cumulative IPC: 0.775493 (Simulation time: 1 hr 32 min 36 sec) 
Heartbeat CPU 3 instructions: 90000002 cycles: 251787625 heartbeat IPC: 0.0863196 cumulative IPC: 0.125461 (Simulation time: 1 hr 32 min 44 sec) 
Heartbeat CPU 1 instructions: 330000000 cycles: 252407467 heartbeat IPC: 0.946419 cumulative IPC: 1.15909 (Simulation time: 1 hr 32 min 52 sec) 
Heartbeat CPU 2 instructions: 180000003 cycles: 254272085 heartbeat IPC: 0.495843 cumulative IPC: 0.547926 (Simulation time: 1 hr 33 min 15 sec) 
Heartbeat CPU 1 instructions: 340000001 cycles: 262646330 heartbeat IPC: 0.976671 cumulative IPC: 1.15142 (Simulation time: 1 hr 35 min 12 sec) 
Heartbeat CPU 1 instructions: 350000003 cycles: 273081839 heartbeat IPC: 0.958267 cumulative IPC: 1.14348 (Simulation time: 1 hr 37 min 21 sec) 
Heartbeat CPU 2 instructions: 190000000 cycles: 276351926 heartbeat IPC: 0.452902 cumulative IPC: 0.539767 (Simulation time: 1 hr 38 min 3 sec) 
Heartbeat CPU 1 instructions: 360000003 cycles: 283580866 heartbeat IPC: 0.952469 cumulative IPC: 1.1359 (Simulation time: 1 hr 39 min 39 sec) 
Heartbeat CPU 1 instructions: 370000002 cycles: 293982991 heartbeat IPC: 0.961342 cumulative IPC: 1.12929 (Simulation time: 1 hr 41 min 37 sec) 
Heartbeat CPU 0 instructions: 240000001 cycles: 296874270 heartbeat IPC: 0.219376 cumulative IPC: 0.684206 (Simulation time: 1 hr 42 min 11 sec) 
Heartbeat CPU 1 instructions: 380000001 cycles: 304872021 heartbeat IPC: 0.918355 cumulative IPC: 1.12125 (Simulation time: 1 hr 43 min 47 sec) 
Heartbeat CPU 2 instructions: 200000003 cycles: 308784464 heartbeat IPC: 0.308332 cumulative IPC: 0.513849 (Simulation time: 1 hr 44 min 31 sec) 
Heartbeat CPU 1 instructions: 390000003 cycles: 315708179 heartbeat IPC: 0.922836 cumulative IPC: 1.114 (Simulation time: 1 hr 45 min 58 sec) 
Heartbeat CPU 1 instructions: 400000002 cycles: 326174199 heartbeat IPC: 0.955473 cumulative IPC: 1.10859 (Simulation time: 1 hr 48 min 24 sec) 
Heartbeat CPU 2 instructions: 210000001 cycles: 328854651 heartbeat IPC: 0.498251 cumulative IPC: 0.512838 (Simulation time: 1 hr 49 min 4 sec) 
Heartbeat CPU 1 instructions: 410000003 cycles: 336641830 heartbeat IPC: 0.955326 cumulative IPC: 1.10354 (Simulation time: 1 hr 50 min 42 sec) 
*** Reached end of trace for Core: 0 Repeating trace: ./traces/ligra/ligra_Triangle.com-lj.ungraph.gcc_6.3.0_O3.drop_6000M.length_250M.champsimtrace.xz
Heartbeat CPU 0 instructions: 250000002 cycles: 345121408 heartbeat IPC: 0.207266 cumulative IPC: 0.613607 (Simulation time: 1 hr 52 min 47 sec) 
Finished CPU 0 instructions: 200000000 cycles: 325941387 cumulative IPC: 0.613607 (Simulation time: 1 hr 52 min 47 sec) 
Heartbeat CPU 1 instructions: 420000001 cycles: 345901464 heartbeat IPC: 1.07996 cumulative IPC: 1.10287 (Simulation time: 1 hr 53 min 2 sec) 
Heartbeat CPU 0 instructions: 260000001 cycles: 354307866 heartbeat IPC: 1.08856 cumulative IPC: 0.626627 (Simulation time: 1 hr 55 min 32 sec) 
Heartbeat CPU 1 instructions: 430000000 cycles: 354385669 heartbeat IPC: 1.17866 cumulative IPC: 1.10479 (Simulation time: 1 hr 55 min 33 sec) 
Heartbeat CPU 2 instructions: 220000000 cycles: 358397516 heartbeat IPC: 0.338491 cumulative IPC: 0.497654 (Simulation time: 1 hr 56 min 48 sec) 
Heartbeat CPU 1 instructions: 440000000 cycles: 362754223 heartbeat IPC: 1.19495 cumulative IPC: 1.10699 (Simulation time: 1 hr 57 min 54 sec) 
Heartbeat CPU 0 instructions: 270000001 cycles: 363522604 heartbeat IPC: 1.08522 cumulative IPC: 0.638899 (Simulation time: 1 hr 58 min 5 sec) 
Heartbeat CPU 1 instructions: 450000001 cycles: 370718015 heartbeat IPC: 1.25568 cumulative IPC: 1.11036 (Simulation time: 2 hr 0 min 22 sec) 
Heartbeat CPU 3 instructions: 100000000 cycles: 371222303 heartbeat IPC: 0.0837278 cumulative IPC: 0.111302 (Simulation time: 2 hr 0 min 32 sec) 
Heartbeat CPU 0 instructions: 280000000 cycles: 372330327 heartbeat IPC: 1.13537 cumulative IPC: 0.651281 (Simulation time: 2 hr 0 min 53 sec) 
Heartbeat CPU 1 instructions: 460000003 cycles: 379967724 heartbeat IPC: 1.08112 cumulative IPC: 1.10961 (Simulation time: 2 hr 3 min 18 sec) 
Heartbeat CPU 0 instructions: 290000000 cycles: 381331975 heartbeat IPC: 1.11091 cumulative IPC: 0.662705 (Simulation time: 2 hr 3 min 40 sec) 
Heartbeat CPU 2 instructions: 230000002 cycles: 388203789 heartbeat IPC: 0.3355 cumulative IPC: 0.484557 (Simulation time: 2 hr 5 min 36 sec) 
Heartbeat CPU 0 instructions: 300000001 cycles: 390191941 heartbeat IPC: 1.12867 cumulative IPC: 0.673833 (Simulation time: 2 hr 6 min 8 sec) 
Heartbeat CPU 1 instructions: 470000002 cycles: 390642153 heartbeat IPC: 0.936818 cumulative IPC: 1.10464 (Simulation time: 2 hr 6 min 15 sec) 
Heartbeat CPU 0 instructions: 310000001 cycles: 398876550 heartbeat IPC: 1.15146 cumulative IPC: 0.684757 (Simulation time: 2 hr 8 min 20 sec) 
Heartbeat CPU 1 instructions: 480000000 cycles: 401318581 heartbeat IPC: 0.936643 cumulative IPC: 1.09995 (Simulation time: 2 hr 9 min 2 sec) 
Heartbeat CPU 0 instructions: 320000000 cycles: 408203001 heartbeat IPC: 1.07222 cumulative IPC: 0.694046 (Simulation time: 2 hr 11 min 24 sec) 
Heartbeat CPU 1 instructions: 490000001 cycles: 409288079 heartbeat IPC: 1.25478 cumulative IPC: 1.10311 (Simulation time: 2 hr 11 min 44 sec) 
Heartbeat CPU 2 instructions: 240000002 cycles: 414410801 heartbeat IPC: 0.381577 cumulative IPC: 0.477728 (Simulation time: 2 hr 13 min 27 sec) 
Heartbeat CPU 1 instructions: 500000002 cycles: 417110872 heartbeat IPC: 1.27832 cumulative IPC: 1.10655 (Simulation time: 2 hr 14 min 22 sec) 
Heartbeat CPU 0 instructions: 330000000 cycles: 417455033 heartbeat IPC: 1.08084 cumulative IPC: 0.703032 (Simulation time: 2 hr 14 min 29 sec) 
Heartbeat CPU 1 instructions: 510000001 cycles: 424926431 heartbeat IPC: 1.2795 cumulative IPC: 1.10989 (Simulation time: 2 hr 17 min 14 sec) 
Heartbeat CPU 0 instructions: 340000001 cycles: 426573357 heartbeat IPC: 1.09669 cumulative IPC: 0.711843 (Simulation time: 2 hr 17 min 44 sec) 
Heartbeat CPU 1 instructions: 520000002 cycles: 433602441 heartbeat IPC: 1.1526 cumulative IPC: 1.11078 (Simulation time: 2 hr 20 min 5 sec) 
Heartbeat CPU 2 instructions: 250000003 cycles: 433765344 heartbeat IPC: 0.516675 cumulative IPC: 0.479547 (Simulation time: 2 hr 20 min 9 sec) 
Heartbeat CPU 0 instructions: 350000001 cycles: 435149244 heartbeat IPC: 1.16606 cumulative IPC: 0.721207 (Simulation time: 2 hr 20 min 40 sec) 
Finished CPU 2 instructions: 200000003 cycles: 416607904 cumulative IPC: 0.480068 (Simulation time: 2 hr 20 min 53 sec) 
Heartbeat CPU 1 instructions: 530000000 cycles: 442143540 heartbeat IPC: 1.17081 cumulative IPC: 1.11199 (Simulation time: 2 hr 23 min 11 sec) 
Heartbeat CPU 0 instructions: 360000000 cycles: 443764293 heartbeat IPC: 1.16076 cumulative IPC: 0.730126 (Simulation time: 2 hr 23 min 43 sec) 
Heartbeat CPU 1 instructions: 540000003 cycles: 450253182 heartbeat IPC: 1.2331 cumulative IPC: 1.11427 (Simulation time: 2 hr 25 min 45 sec) 
Heartbeat CPU 2 instructions: 260000002 cycles: 450411362 heartbeat IPC: 0.600744 cumulative IPC: 0.484225 (Simulation time: 2 hr 25 min 48 sec) 
Heartbeat CPU 0 instructions: 370000000 cycles: 452167346 heartbeat IPC: 1.19004 cumulative IPC: 0.739052 (Simulation time: 2 hr 26 min 24 sec) 
Heartbeat CPU 3 instructions: 110000000 cycles: 457057743 heartbeat IPC: 0.116502 cumulative IPC: 0.112322 (Simulation time: 2 hr 28 min 12 sec) 
Heartbeat CPU 1 instructions: 550000000 cycles: 457834990 heartbeat IPC: 1.31895 cumulative IPC: 1.11781 (Simulation time: 2 hr 28 min 30 sec) 
Heartbeat CPU 2 instructions: 270000000 cycles: 458591354 heartbeat IPC: 1.22249 cumulative IPC: 0.497968 (Simulation time: 2 hr 28 min 47 sec) 
Heartbeat CPU 0 instructions: 380000001 cycles: 460365730 heartbeat IPC: 1.21975 cumulative IPC: 0.747984 (Simulation time: 2 hr 29 min 25 sec) 
Heartbeat CPU 1 instructions: 560000002 cycles: 465404370 heartbeat IPC: 1.32111 cumulative IPC: 1.12126 (Simulation time: 2 hr 31 min 10 sec) 
Heartbeat CPU 2 instructions: 280000002 cycles: 466505685 heartbeat IPC: 1.26353 cumulative IPC: 0.511513 (Simulation time: 2 hr 31 min 32 sec) 
Heartbeat CPU 0 instructions: 390000001 cycles: 468498183 heartbeat IPC: 1.22964 cumulative IPC: 0.756702 (Simulation time: 2 hr 32 min 15 sec) 
Heartbeat CPU 1 instructions: 570000002 cycles: 473017507 heartbeat IPC: 1.31352 cumulative IPC: 1.12448 (Simulation time: 2 hr 33 min 43 sec) 
Heartbeat CPU 2 instructions: 290000002 cycles: 475789649 heartbeat IPC: 1.07713 cumulative IPC: 0.523013 (Simulation time: 2 hr 34 min 40 sec) 
Heartbeat CPU 0 instructions: 400000001 cycles: 476732176 heartbeat IPC: 1.21448 cumulative IPC: 0.76494 (Simulation time: 2 hr 34 min 58 sec) 
Heartbeat CPU 1 instructions: 580000001 cycles: 481296125 heartbeat IPC: 1.20793 cumulative IPC: 1.12598 (Simulation time: 2 hr 36 min 22 sec) 
Heartbeat CPU 0 instructions: 410000000 cycles: 485250299 heartbeat IPC: 1.17397 cumulative IPC: 0.772416 (Simulation time: 2 hr 37 min 42 sec) 
Heartbeat CPU 1 instructions: 590000000 cycles: 489497134 heartbeat IPC: 1.21936 cumulative IPC: 1.12761 (Simulation time: 2 hr 39 min 13 sec) 
Heartbeat CPU 0 instructions: 420000001 cycles: 493532209 heartbeat IPC: 1.20745 cumulative IPC: 0.780011 (Simulation time: 2 hr 40 min 32 sec) 
Heartbeat CPU 2 instructions: 300000003 cycles: 494707697 heartbeat IPC: 0.528596 cumulative IPC: 0.523236 (Simulation time: 2 hr 40 min 52 sec) 
Heartbeat CPU 1 instructions: 600000001 cycles: 497291074 heartbeat IPC: 1.28305 cumulative IPC: 1.13014 (Simulation time: 2 hr 41 min 41 sec) 
Heartbeat CPU 0 instructions: 430000001 cycles: 501807272 heartbeat IPC: 1.20845 cumulative IPC: 0.787357 (Simulation time: 2 hr 43 min 11 sec) 
Heartbeat CPU 1 instructions: 610000002 cycles: 505284539 heartbeat IPC: 1.25102 cumulative IPC: 1.13213 (Simulation time: 2 hr 44 min 22 sec) 
Heartbeat CPU 0 instructions: 440000000 cycles: 510088727 heartbeat IPC: 1.20752 cumulative IPC: 0.794445 (Simulation time: 2 hr 45 min 58 sec) 
Heartbeat CPU 2 instructions: 310000003 cycles: 511166649 heartbeat IPC: 0.607572 cumulative IPC: 0.526057 (Simulation time: 2 hr 46 min 22 sec) 
Heartbeat CPU 1 instructions: 620000002 cycles: 513071205 heartbeat IPC: 1.28425 cumulative IPC: 1.13453 (Simulation time: 2 hr 47 min 1 sec) 
Heartbeat CPU 0 instructions: 450000000 cycles: 518388233 heartbeat IPC: 1.20489 cumulative IPC: 0.801269 (Simulation time: 2 hr 48 min 41 sec) 
Heartbeat CPU 1 instructions: 630000001 cycles: 521256193 heartbeat IPC: 1.22175 cumulative IPC: 1.13595 (Simulation time: 2 hr 49 min 31 sec) 
Heartbeat CPU 3 instructions: 120000002 cycles: 526797653 heartbeat IPC: 0.14339 cumulative IPC: 0.11659 (Simulation time: 2 hr 51 min 18 sec) 
Heartbeat CPU 0 instructions: 460000001 cycles: 527439445 heartbeat IPC: 1.10482 cumulative IPC: 0.806675 (Simulation time: 2 hr 51 min 26 sec) 
Heartbeat CPU 2 instructions: 320000000 cycles: 528265570 heartbeat IPC: 0.584832 cumulative IPC: 0.528031 (Simulation time: 2 hr 51 min 38 sec) 
Heartbeat CPU 1 instructions: 640000003 cycles: 529818318 heartbeat IPC: 1.16793 cumulative IPC: 1.13648 (Simulation time: 2 hr 51 min 59 sec) 
Heartbeat CPU 1 instructions: 650000003 cycles: 539354055 heartbeat IPC: 1.04869 cumulative IPC: 1.13487 (Simulation time: 2 hr 53 min 55 sec) 
Heartbeat CPU 2 instructions: 330000000 cycles: 544949006 heartbeat IPC: 0.599397 cumulative IPC: 0.530296 (Simulation time: 2 hr 55 min 9 sec) 
Heartbeat CPU 1 instructions: 660000000 cycles: 549098886 heartbeat IPC: 1.02618 cumulative IPC: 1.13288 (Simulation time: 2 hr 56 min 3 sec) 
Heartbeat CPU 1 instructions: 670000002 cycles: 563800865 heartbeat IPC: 0.680181 cumulative IPC: 1.12066 (Simulation time: 2 hr 58 min 43 sec) 
Heartbeat CPU 0 instructions: 470000001 cycles: 575879766 heartbeat IPC: 0.20644 cumulative IPC: 0.754446 (Simulation time: 3 hr 0 min 38 sec) 
Heartbeat CPU 2 instructions: 340000003 cycles: 581062828 heartbeat IPC: 0.276902 cumulative IPC: 0.514009 (Simulation time: 3 hr 1 min 26 sec) 
Heartbeat CPU 1 instructions: 680000000 cycles: 582076334 heartbeat IPC: 0.547181 cumulative IPC: 1.10204 (Simulation time: 3 hr 1 min 35 sec) 
Heartbeat CPU 1 instructions: 690000003 cycles: 601074047 heartbeat IPC: 0.526379 cumulative IPC: 1.08324 (Simulation time: 3 hr 4 min 33 sec) 
Heartbeat CPU 2 instructions: 350000000 cycles: 618913560 heartbeat IPC: 0.264196 cumulative IPC: 0.498243 (Simulation time: 3 hr 7 min 27 sec) 
Heartbeat CPU 1 instructions: 700000000 cycles: 619972536 heartbeat IPC: 0.529143 cumulative IPC: 1.06581 (Simulation time: 3 hr 7 min 34 sec) 
Heartbeat CPU 0 instructions: 480000001 cycles: 630541928 heartbeat IPC: 0.182942 cumulative IPC: 0.703348 (Simulation time: 3 hr 9 min 5 sec) 
Heartbeat CPU 1 instructions: 710000003 cycles: 638296082 heartbeat IPC: 0.545746 cumulative IPC: 1.05042 (Simulation time: 3 hr 10 min 23 sec) 
Heartbeat CPU 2 instructions: 360000002 cycles: 650723943 heartbeat IPC: 0.314363 cumulative IPC: 0.488981 (Simulation time: 3 hr 12 min 5 sec) 
Heartbeat CPU 3 instructions: 130000003 cycles: 660498462 heartbeat IPC: 0.0747939 cumulative IPC: 0.107876 (Simulation time: 3 hr 13 min 51 sec) 
Heartbeat CPU 1 instructions: 720000003 cycles: 663967362 heartbeat IPC: 0.38954 cumulative IPC: 1.02411 (Simulation time: 3 hr 14 min 38 sec) 
Heartbeat CPU 2 instructions: 370000000 cycles: 677764135 heartbeat IPC: 0.36982 cumulative IPC: 0.484088 (Simulation time: 3 hr 17 min 17 sec) 
Heartbeat CPU 1 instructions: 730000001 cycles: 678480009 heartbeat IPC: 0.689054 cumulative IPC: 1.01673 (Simulation time: 3 hr 17 min 27 sec) 
Heartbeat CPU 1 instructions: 740000002 cycles: 686434699 heartbeat IPC: 1.25712 cumulative IPC: 1.0196 (Simulation time: 3 hr 19 min 26 sec) 
Heartbeat CPU 0 instructions: 490000001 cycles: 686649759 heartbeat IPC: 0.178228 cumulative IPC: 0.659206 (Simulation time: 3 hr 19 min 29 sec) 
Heartbeat CPU 1 instructions: 750000003 cycles: 694723755 heartbeat IPC: 1.20641 cumulative IPC: 1.02189 (Simulation time: 3 hr 21 min 24 sec) 
Heartbeat CPU 2 instructions: 380000000 cycles: 699482114 heartbeat IPC: 0.460448 cumulative IPC: 0.483334 (Simulation time: 3 hr 22 min 22 sec) 
Heartbeat CPU 1 instructions: 760000001 cycles: 703041201 heartbeat IPC: 1.20229 cumulative IPC: 1.02409 (Simulation time: 3 hr 23 min 13 sec) 
Heartbeat CPU 1 instructions: 770000000 cycles: 711356333 heartbeat IPC: 1.20263 cumulative IPC: 1.02623 (Simulation time: 3 hr 25 min 14 sec) 
Heartbeat CPU 1 instructions: 780000000 cycles: 719466845 heartbeat IPC: 1.23297 cumulative IPC: 1.02862 (Simulation time: 3 hr 27 min 0 sec) 
Heartbeat CPU 2 instructions: 390000001 cycles: 725277051 heartbeat IPC: 0.387673 cumulative IPC: 0.479839 (Simulation time: 3 hr 28 min 15 sec) 
Heartbeat CPU 1 instructions: 790000001 cycles: 727635139 heartbeat IPC: 1.22425 cumulative IPC: 1.03088 (Simulation time: 3 hr 28 min 45 sec) 
Heartbeat CPU 1 instructions: 800000003 cycles: 736569910 heartbeat IPC: 1.11922 cumulative IPC: 1.03198 (Simulation time: 3 hr 30 min 41 sec) 
*** Reached end of trace for Core: 0 Repeating trace: ./traces/ligra/ligra_Triangle.com-lj.ungraph.gcc_6.3.0_O3.drop_6000M.length_250M.champsimtrace.xz
Heartbeat CPU 0 instructions: 500000001 cycles: 737054063 heartbeat IPC: 0.198396 cumulative IPC: 0.626851 (Simulation time: 3 hr 30 min 45 sec) 
Heartbeat CPU 2 instructions: 400000000 cycles: 743893528 heartbeat IPC: 0.537158 cumulative IPC: 0.481312 (Simulation time: 3 hr 32 min 41 sec) 
Heartbeat CPU 0 instructions: 510000002 cycles: 746160993 heartbeat IPC: 1.09807 cumulative IPC: 0.632754 (Simulation time: 3 hr 33 min 15 sec) 
Heartbeat CPU 1 instructions: 810000003 cycles: 748067075 heartbeat IPC: 0.86978 cumulative IPC: 1.02942 (Simulation time: 3 hr 33 min 47 sec) 
Heartbeat CPU 0 instructions: 520000002 cycles: 755146798 heartbeat IPC: 1.11287 cumulative IPC: 0.638616 (Simulation time: 3 hr 35 min 28 sec) 
Heartbeat CPU 1 instructions: 820000003 cycles: 759471519 heartbeat IPC: 0.876851 cumulative IPC: 1.02707 (Simulation time: 3 hr 36 min 33 sec) 
Heartbeat CPU 0 instructions: 530000000 cycles: 764347934 heartbeat IPC: 1.08682 cumulative IPC: 0.64415 (Simulation time: 3 hr 37 min 42 sec) 
Heartbeat CPU 1 instructions: 830000000 cycles: 769502265 heartbeat IPC: 0.996935 cumulative IPC: 1.02667 (Simulation time: 3 hr 39 min 10 sec) 
Heartbeat CPU 0 instructions: 540000001 cycles: 773859199 heartbeat IPC: 1.05138 cumulative IPC: 0.649283 (Simulation time: 3 hr 40 min 41 sec) 
Heartbeat CPU 2 instructions: 410000001 cycles: 774607783 heartbeat IPC: 0.325582 cumulative IPC: 0.47498 (Simulation time: 3 hr 40 min 58 sec) 
Heartbeat CPU 1 instructions: 840000003 cycles: 777064208 heartbeat IPC: 1.32241 cumulative IPC: 1.02962 (Simulation time: 3 hr 41 min 49 sec) 
Heartbeat CPU 3 instructions: 140000003 cycles: 779071250 heartbeat IPC: 0.0843364 cumulative IPC: 0.104203 (Simulation time: 3 hr 42 min 30 sec) 
Heartbeat CPU 0 instructions: 550000000 cycles: 782771781 heartbeat IPC: 1.12201 cumulative IPC: 0.6548 (Simulation time: 3 hr 43 min 46 sec) 
Heartbeat CPU 1 instructions: 850000000 cycles: 784548537 heartbeat IPC: 1.33612 cumulative IPC: 1.03262 (Simulation time: 3 hr 44 min 23 sec) 
Heartbeat CPU 0 instructions: 560000002 cycles: 791517254 heartbeat IPC: 1.14345 cumulative IPC: 0.660333 (Simulation time: 3 hr 46 min 42 sec) 
Heartbeat CPU 1 instructions: 860000000 cycles: 791913160 heartbeat IPC: 1.35784 cumulative IPC: 1.03572 (Simulation time: 3 hr 46 min 49 sec) 
Heartbeat CPU 2 instructions: 420000002 cycles: 793677658 heartbeat IPC: 0.524387 cumulative IPC: 0.476196 (Simulation time: 3 hr 47 min 20 sec) 
Heartbeat CPU 1 instructions: 870000001 cycles: 799461776 heartbeat IPC: 1.32475 cumulative IPC: 1.03851 (Simulation time: 3 hr 49 min 13 sec) 
Heartbeat CPU 0 instructions: 570000000 cycles: 799926683 heartbeat IPC: 1.18914 cumulative IPC: 0.666029 (Simulation time: 3 hr 49 min 20 sec) 
Heartbeat CPU 1 instructions: 880000000 cycles: 806901980 heartbeat IPC: 1.34405 cumulative IPC: 1.0414 (Simulation time: 3 hr 51 min 39 sec) 
Heartbeat CPU 0 instructions: 580000002 cycles: 808214981 heartbeat IPC: 1.20652 cumulative IPC: 0.671707 (Simulation time: 3 hr 52 min 3 sec) 
Heartbeat CPU 2 instructions: 430000000 cycles: 812878248 heartbeat IPC: 0.520817 cumulative IPC: 0.477276 (Simulation time: 3 hr 53 min 32 sec) 
Heartbeat CPU 1 instructions: 890000000 cycles: 814265347 heartbeat IPC: 1.35807 cumulative IPC: 1.04433 (Simulation time: 3 hr 53 min 55 sec) 
Heartbeat CPU 0 instructions: 590000001 cycles: 816575637 heartbeat IPC: 1.19608 cumulative IPC: 0.677205 (Simulation time: 3 hr 54 min 38 sec) 
Heartbeat CPU 1 instructions: 900000002 cycles: 821893650 heartbeat IPC: 1.31091 cumulative IPC: 1.04686 (Simulation time: 3 hr 56 min 7 sec) 
Heartbeat CPU 0 instructions: 600000002 cycles: 824981843 heartbeat IPC: 1.1896 cumulative IPC: 0.68255 (Simulation time: 3 hr 57 min 5 sec) 
Heartbeat CPU 1 instructions: 910000002 cycles: 829392461 heartbeat IPC: 1.33354 cumulative IPC: 1.04952 (Simulation time: 3 hr 58 min 25 sec) 
Heartbeat CPU 0 instructions: 610000000 cycles: 833282037 heartbeat IPC: 1.20479 cumulative IPC: 0.687874 (Simulation time: 3 hr 59 min 33 sec) 
Heartbeat CPU 1 instructions: 920000000 cycles: 836797380 heartbeat IPC: 1.35045 cumulative IPC: 1.05224 (Simulation time: 4 hr 0 min 33 sec) 
Heartbeat CPU 2 instructions: 440000000 cycles: 837503252 heartbeat IPC: 0.406091 cumulative IPC: 0.475134 (Simulation time: 4 hr 0 min 47 sec) 
Heartbeat CPU 0 instructions: 620000000 cycles: 841604230 heartbeat IPC: 1.20161 cumulative IPC: 0.693073 (Simulation time: 4 hr 1 min 56 sec) 
Heartbeat CPU 1 instructions: 930000001 cycles: 844344691 heartbeat IPC: 1.32498 cumulative IPC: 1.05474 (Simulation time: 4 hr 2 min 49 sec) 
Heartbeat CPU 0 instructions: 630000001 cycles: 850272219 heartbeat IPC: 1.15367 cumulative IPC: 0.697877 (Simulation time: 4 hr 4 min 57 sec) 
Heartbeat CPU 1 instructions: 940000001 cycles: 852291336 heartbeat IPC: 1.25839 cumulative IPC: 1.05668 (Simulation time: 4 hr 5 min 42 sec) 
Heartbeat CPU 2 instructions: 450000000 cycles: 857582168 heartbeat IPC: 0.498035 cumulative IPC: 0.475682 (Simulation time: 4 hr 7 min 27 sec) 
Heartbeat CPU 3 instructions: 150000000 cycles: 858868607 heartbeat IPC: 0.125317 cumulative IPC: 0.10621 (Simulation time: 4 hr 7 min 50 sec) 
Heartbeat CPU 0 instructions: 640000002 cycles: 858967439 heartbeat IPC: 1.15006 cumulative IPC: 0.702559 (Simulation time: 4 hr 7 min 52 sec) 
Heartbeat CPU 1 instructions: 950000001 cycles: 860183322 heartbeat IPC: 1.26711 cumulative IPC: 1.05865 (Simulation time: 4 hr 8 min 17 sec) 
Heartbeat CPU 0 instructions: 650000000 cycles: 867667714 heartbeat IPC: 1.14939 cumulative IPC: 0.707141 (Simulation time: 4 hr 10 min 41 sec) 
Heartbeat CPU 1 instructions: 960000000 cycles: 867999492 heartbeat IPC: 1.2794 cumulative IPC: 1.06069 (Simulation time: 4 hr 10 min 48 sec) 
Heartbeat CPU 2 instructions: 460000003 cycles: 875442379 heartbeat IPC: 0.559904 cumulative IPC: 0.477439 (Simulation time: 4 hr 13 min 15 sec) 
Heartbeat CPU 1 instructions: 970000000 cycles: 875824273 heartbeat IPC: 1.27799 cumulative IPC: 1.06267 (Simulation time: 4 hr 13 min 23 sec) 
Heartbeat CPU 0 instructions: 660000000 cycles: 876364446 heartbeat IPC: 1.14986 cumulative IPC: 0.711632 (Simulation time: 4 hr 13 min 33 sec) 
Heartbeat CPU 1 instructions: 980000000 cycles: 883705112 heartbeat IPC: 1.2689 cumulative IPC: 1.06455 (Simulation time: 4 hr 16 min 4 sec) 
Heartbeat CPU 0 instructions: 670000001 cycles: 884997272 heartbeat IPC: 1.15837 cumulative IPC: 0.716086 (Simulation time: 4 hr 16 min 27 sec) 
Heartbeat CPU 1 instructions: 990000000 cycles: 891474145 heartbeat IPC: 1.28716 cumulative IPC: 1.06653 (Simulation time: 4 hr 18 min 25 sec) 
Heartbeat CPU 2 instructions: 470000003 cycles: 891930137 heartbeat IPC: 0.606511 cumulative IPC: 0.479877 (Simulation time: 4 hr 18 min 34 sec) 
Heartbeat CPU 0 instructions: 680000001 cycles: 893567823 heartbeat IPC: 1.16679 cumulative IPC: 0.720504 (Simulation time: 4 hr 19 min 10 sec) 
Heartbeat CPU 1 instructions: 1000000003 cycles: 898877803 heartbeat IPC: 1.35068 cumulative IPC: 1.06893 (Simulation time: 4 hr 21 min 4 sec) 
Heartbeat CPU 2 instructions: 480000002 cycles: 900456153 heartbeat IPC: 1.17288 cumulative IPC: 0.486582 (Simulation time: 4 hr 21 min 32 sec) 
Heartbeat CPU 0 instructions: 690000000 cycles: 901848153 heartbeat IPC: 1.20768 cumulative IPC: 0.725074 (Simulation time: 4 hr 22 min 1 sec) 
Heartbeat CPU 1 instructions: 1010000000 cycles: 906292533 heartbeat IPC: 1.34867 cumulative IPC: 1.07126 (Simulation time: 4 hr 23 min 38 sec) 
Heartbeat CPU 2 instructions: 490000000 cycles: 909058466 heartbeat IPC: 1.16248 cumulative IPC: 0.493116 (Simulation time: 4 hr 24 min 32 sec) 
Heartbeat CPU 0 instructions: 700000000 cycles: 910218202 heartbeat IPC: 1.19474 cumulative IPC: 0.729486 (Simulation time: 4 hr 24 min 52 sec) 
Heartbeat CPU 1 instructions: 1020000002 cycles: 913892894 heartbeat IPC: 1.31573 cumulative IPC: 1.07334 (Simulation time: 4 hr 26 min 3 sec) 
Heartbeat CPU 0 instructions: 710000000 cycles: 919585272 heartbeat IPC: 1.06757 cumulative IPC: 0.733003 (Simulation time: 4 hr 27 min 49 sec) 
Heartbeat CPU 1 instructions: 1030000002 cycles: 922525455 heartbeat IPC: 1.1584 cumulative IPC: 1.07415 (Simulation time: 4 hr 28 min 26 sec) 
Heartbeat CPU 2 instructions: 500000002 cycles: 922768326 heartbeat IPC: 0.729402 cumulative IPC: 0.496701 (Simulation time: 4 hr 28 min 29 sec) 
Heartbeat CPU 1 instructions: 1040000001 cycles: 932565262 heartbeat IPC: 0.996035 cumulative IPC: 1.0733 (Simulation time: 4 hr 30 min 33 sec) 
Heartbeat CPU 1 instructions: 1050000001 cycles: 942044330 heartbeat IPC: 1.05496 cumulative IPC: 1.07311 (Simulation time: 4 hr 32 min 30 sec) 
Heartbeat CPU 1 instructions: 1060000003 cycles: 951523137 heartbeat IPC: 1.05499 cumulative IPC: 1.07292 (Simulation time: 4 hr 34 min 23 sec) 
Heartbeat CPU 3 instructions: 160000000 cycles: 951712973 heartbeat IPC: 0.107707 cumulative IPC: 0.106359 (Simulation time: 4 hr 34 min 24 sec) 
Heartbeat CPU 2 instructions: 510000000 cycles: 953493115 heartbeat IPC: 0.32547 cumulative IPC: 0.49107 (Simulation time: 4 hr 34 min 45 sec) 
Heartbeat CPU 1 instructions: 1070000002 cycles: 961040366 heartbeat IPC: 1.05073 cumulative IPC: 1.0727 (Simulation time: 4 hr 36 min 14 sec) 
Heartbeat CPU 0 instructions: 720000000 cycles: 972549288 heartbeat IPC: 0.188807 cumulative IPC: 0.702771 (Simulation time: 4 hr 38 min 18 sec) 
Heartbeat CPU 1 instructions: 1080000000 cycles: 974345606 heartbeat IPC: 0.751583 cumulative IPC: 1.06823 (Simulation time: 4 hr 38 min 37 sec) 
Heartbeat CPU 2 instructions: 520000002 cycles: 981654954 heartbeat IPC: 0.355091 cumulative IPC: 0.487091 (Simulation time: 4 hr 39 min 48 sec) 
Heartbeat CPU 1 instructions: 1090000001 cycles: 988579605 heartbeat IPC: 0.702543 cumulative IPC: 1.06286 (Simulation time: 4 hr 40 min 53 sec) 
Heartbeat CPU 1 instructions: 1100000000 cycles: 1002988217 heartbeat IPC: 0.694029 cumulative IPC: 1.05745 (Simulation time: 4 hr 43 min 8 sec) 
Heartbeat CPU 2 instructions: 530000002 cycles: 1008299168 heartbeat IPC: 0.375316 cumulative IPC: 0.48408 (Simulation time: 4 hr 44 min 19 sec) 
Heartbeat CPU 1 instructions: 1110000000 cycles: 1011678745 heartbeat IPC: 1.15068 cumulative IPC: 1.05827 (Simulation time: 4 hr 45 min 1 sec) 
Heartbeat CPU 1 instructions: 1120000002 cycles: 1020673448 heartbeat IPC: 1.11177 cumulative IPC: 1.05875 (Simulation time: 4 hr 46 min 58 sec) 
Heartbeat CPU 0 instructions: 730000000 cycles: 1028120582 heartbeat IPC: 0.179949 cumulative IPC: 0.673974 (Simulation time: 4 hr 48 min 41 sec) 
Heartbeat CPU 2 instructions: 540000000 cycles: 1029206577 heartbeat IPC: 0.478299 cumulative IPC: 0.483961 (Simulation time: 4 hr 48 min 55 sec) 
Heartbeat CPU 1 instructions: 1130000002 cycles: 1029267146 heartbeat IPC: 1.16364 cumulative IPC: 1.05964 (Simulation time: 4 hr 48 min 56 sec) 
Heartbeat CPU 1 instructions: 1140000000 cycles: 1038689285 heartbeat IPC: 1.06133 cumulative IPC: 1.05966 (Simulation time: 4 hr 50 min 53 sec) 
Heartbeat CPU 1 instructions: 1150000001 cycles: 1049593008 heartbeat IPC: 0.917118 cumulative IPC: 1.05815 (Simulation time: 4 hr 52 min 50 sec) 
Heartbeat CPU 1 instructions: 1160000000 cycles: 1060285078 heartbeat IPC: 0.935273 cumulative IPC: 1.05689 (Simulation time: 4 hr 54 min 42 sec) 
Heartbeat CPU 2 instructions: 550000000 cycles: 1066297017 heartbeat IPC: 0.269611 cumulative IPC: 0.476368 (Simulation time: 4 hr 55 min 51 sec) 
Heartbeat CPU 1 instructions: 1170000001 cycles: 1071391629 heartbeat IPC: 0.90037 cumulative IPC: 1.05524 (Simulation time: 4 hr 56 min 40 sec) 
Heartbeat CPU 0 instructions: 740000000 cycles: 1076265757 heartbeat IPC: 0.207705 cumulative IPC: 0.652738 (Simulation time: 4 hr 57 min 38 sec) 
Heartbeat CPU 1 instructions: 1180000000 cycles: 1082637079 heartbeat IPC: 0.889248 cumulative IPC: 1.05348 (Simulation time: 4 hr 58 min 57 sec) 
Heartbeat CPU 3 instructions: 170000002 cycles: 1091671987 heartbeat IPC: 0.0714495 cumulative IPC: 0.101803 (Simulation time: 5 hr 0 min 46 sec) 
Heartbeat CPU 1 instructions: 1190000000 cycles: 1093664823 heartbeat IPC: 0.906804 cumulative IPC: 1.05198 (Simulation time: 5 hr 1 min 6 sec) 
Heartbeat CPU 2 instructions: 560000001 cycles: 1102229642 heartbeat IPC: 0.278299 cumulative IPC: 0.469797 (Simulation time: 5 hr 2 min 31 sec) 
Heartbeat CPU 1 instructions: 1200000003 cycles: 1104912723 heartbeat IPC: 0.889055 cumulative IPC: 1.05029 (Simulation time: 5 hr 2 min 56 sec) 
Heartbeat CPU 1 instructions: 1210000000 cycles: 1116088383 heartbeat IPC: 0.894801 cumulative IPC: 1.0487 (Simulation time: 5 hr 5 min 8 sec) 
*** Reached end of trace for Core: 0 Repeating trace: ./traces/ligra/ligra_Triangle.com-lj.ungraph.gcc_6.3.0_O3.drop_6000M.length_250M.champsimtrace.xz
Heartbeat CPU 0 instructions: 750000000 cycles: 1125008337 heartbeat IPC: 0.205159 cumulative IPC: 0.63301 (Simulation time: 5 hr 7 min 6 sec) 
Heartbeat CPU 2 instructions: 570000002 cycles: 1125306393 heartbeat IPC: 0.433337 cumulative IPC: 0.469036 (Simulation time: 5 hr 7 min 11 sec) 
Heartbeat CPU 1 instructions: 1220000002 cycles: 1126629090 heartbeat IPC: 0.948703 cumulative IPC: 1.04775 (Simulation time: 5 hr 7 min 31 sec) 
Heartbeat CPU 0 instructions: 760000000 cycles: 1133723583 heartbeat IPC: 1.14741 cumulative IPC: 0.637032 (Simulation time: 5 hr 9 min 44 sec) 
Heartbeat CPU 1 instructions: 1230000001 cycles: 1135555463 heartbeat IPC: 1.12028 cumulative IPC: 1.04833 (Simulation time: 5 hr 10 min 18 sec) 
Heartbeat CPU 2 instructions: 580000003 cycles: 1141985311 heartbeat IPC: 0.599559 cumulative IPC: 0.470975 (Simulation time: 5 hr 12 min 28 sec) 
Heartbeat CPU 0 instructions: 770000000 cycles: 1142289903 heartbeat IPC: 1.16736 cumulative IPC: 0.641077 (Simulation time: 5 hr 12 min 35 sec) 
Heartbeat CPU 1 instructions: 1240000001 cycles: 1144203102 heartbeat IPC: 1.15638 cumulative IPC: 1.04916 (Simulation time: 5 hr 13 min 12 sec) 
Heartbeat CPU 0 instructions: 780000001 cycles: 1150831213 heartbeat IPC: 1.17078 cumulative IPC: 0.645075 (Simulation time: 5 hr 15 min 22 sec) 
Heartbeat CPU 1 instructions: 1250000003 cycles: 1152872349 heartbeat IPC: 1.1535 cumulative IPC: 1.04996 (Simulation time: 5 hr 16 min 2 sec) 
Heartbeat CPU 2 instructions: 590000001 cycles: 1156553612 heartbeat IPC: 0.686422 cumulative IPC: 0.473734 (Simulation time: 5 hr 17 min 19 sec) 
Heartbeat CPU 0 instructions: 790000001 cycles: 1159324262 heartbeat IPC: 1.17743 cumulative IPC: 0.649041 (Simulation time: 5 hr 18 min 17 sec) 
Heartbeat CPU 1 instructions: 1260000001 cycles: 1161517552 heartbeat IPC: 1.15671 cumulative IPC: 1.05077 (Simulation time: 5 hr 19 min 0 sec) 
Heartbeat CPU 0 instructions: 800000000 cycles: 1167731596 heartbeat IPC: 1.18944 cumulative IPC: 0.652996 (Simulation time: 5 hr 20 min 57 sec) 
Heartbeat CPU 1 instructions: 1270000000 cycles: 1170009631 heartbeat IPC: 1.17757 cumulative IPC: 1.0517 (Simulation time: 5 hr 21 min 39 sec) 
Heartbeat CPU 2 instructions: 600000003 cycles: 1173661715 heartbeat IPC: 0.584518 cumulative IPC: 0.475376 (Simulation time: 5 hr 22 min 51 sec) 
Heartbeat CPU 0 instructions: 810000000 cycles: 1176032644 heartbeat IPC: 1.20467 cumulative IPC: 0.656955 (Simulation time: 5 hr 23 min 35 sec) 
Heartbeat CPU 1 instructions: 1280000002 cycles: 1178461849 heartbeat IPC: 1.18312 cumulative IPC: 1.05266 (Simulation time: 5 hr 24 min 21 sec) 
Heartbeat CPU 0 instructions: 820000001 cycles: 1184408391 heartbeat IPC: 1.19392 cumulative IPC: 0.660815 (Simulation time: 5 hr 26 min 14 sec) 
Heartbeat CPU 2 instructions: 610000003 cycles: 1186266180 heartbeat IPC: 0.79337 cumulative IPC: 0.47881 (Simulation time: 5 hr 26 min 46 sec) 
Heartbeat CPU 1 instructions: 1290000003 cycles: 1187654871 heartbeat IPC: 1.08778 cumulative IPC: 1.05294 (Simulation time: 5 hr 27 min 9 sec) 
Heartbeat CPU 3 instructions: 180000003 cycles: 1190056383 heartbeat IPC: 0.101642 cumulative IPC: 0.10179 (Simulation time: 5 hr 27 min 52 sec) 
Heartbeat CPU 0 instructions: 830000001 cycles: 1193034145 heartbeat IPC: 1.15932 cumulative IPC: 0.664478 (Simulation time: 5 hr 28 min 44 sec) 
Heartbeat CPU 1 instructions: 1300000002 cycles: 1196566214 heartbeat IPC: 1.12217 cumulative IPC: 1.05346 (Simulation time: 5 hr 29 min 43 sec) 
Heartbeat CPU 0 instructions: 840000001 cycles: 1201940200 heartbeat IPC: 1.12283 cumulative IPC: 0.667929 (Simulation time: 5 hr 31 min 22 sec) 
Heartbeat CPU 1 instructions: 1310000001 cycles: 1204928191 heartbeat IPC: 1.19589 cumulative IPC: 1.05447 (Simulation time: 5 hr 32 min 15 sec) 
Heartbeat CPU 0 instructions: 850000000 cycles: 1210790687 heartbeat IPC: 1.12988 cumulative IPC: 0.67136 (Simulation time: 5 hr 34 min 8 sec) 
Heartbeat CPU 1 instructions: 1320000000 cycles: 1213189722 heartbeat IPC: 1.21043 cumulative IPC: 1.05555 (Simulation time: 5 hr 34 min 55 sec) 
Heartbeat CPU 2 instructions: 620000002 cycles: 1214784372 heartbeat IPC: 0.350653 cumulative IPC: 0.475754 (Simulation time: 5 hr 35 min 22 sec) 
Heartbeat CPU 0 instructions: 860000001 cycles: 1219331544 heartbeat IPC: 1.17084 cumulative IPC: 0.674915 (Simulation time: 5 hr 36 min 55 sec) 
Heartbeat CPU 1 instructions: 1330000000 cycles: 1221230969 heartbeat IPC: 1.24359 cumulative IPC: 1.0568 (Simulation time: 5 hr 37 min 34 sec) 
Heartbeat CPU 0 instructions: 870000001 cycles: 1228006799 heartbeat IPC: 1.1527 cumulative IPC: 0.678344 (Simulation time: 5 hr 39 min 48 sec) 
Heartbeat CPU 1 instructions: 1340000003 cycles: 1230751941 heartbeat IPC: 1.05031 cumulative IPC: 1.05675 (Simulation time: 5 hr 40 min 34 sec) 
Heartbeat CPU 2 instructions: 630000003 cycles: 1232996086 heartbeat IPC: 0.549097 cumulative IPC: 0.476854 (Simulation time: 5 hr 41 min 16 sec) 
Heartbeat CPU 0 instructions: 880000000 cycles: 1236655033 heartbeat IPC: 1.15631 cumulative IPC: 0.681739 (Simulation time: 5 hr 42 min 21 sec) 
Heartbeat CPU 1 instructions: 1350000001 cycles: 1241507561 heartbeat IPC: 0.929746 cumulative IPC: 1.05564 (Simulation time: 5 hr 43 min 51 sec) 
Heartbeat CPU 0 instructions: 890000000 cycles: 1245393855 heartbeat IPC: 1.14432 cumulative IPC: 0.685035 (Simulation time: 5 hr 44 min 59 sec) 
Heartbeat CPU 1 instructions: 1360000002 cycles: 1251469590 heartbeat IPC: 1.00381 cumulative IPC: 1.05522 (Simulation time: 5 hr 46 min 38 sec) 
Heartbeat CPU 0 instructions: 900000001 cycles: 1254354665 heartbeat IPC: 1.11597 cumulative IPC: 0.688162 (Simulation time: 5 hr 47 min 32 sec) 
Heartbeat CPU 2 instructions: 640000003 cycles: 1258186827 heartbeat IPC: 0.396971 cumulative IPC: 0.47523 (Simulation time: 5 hr 48 min 51 sec) 
Heartbeat CPU 1 instructions: 1370000000 cycles: 1259248335 heartbeat IPC: 1.28555 cumulative IPC: 1.05666 (Simulation time: 5 hr 49 min 12 sec) 
Heartbeat CPU 0 instructions: 910000001 cycles: 1263377031 heartbeat IPC: 1.10836 cumulative IPC: 0.691209 (Simulation time: 5 hr 50 min 28 sec) 
Heartbeat CPU 1 instructions: 1380000001 cycles: 1266895564 heartbeat IPC: 1.30766 cumulative IPC: 1.0582 (Simulation time: 5 hr 51 min 31 sec) 
Heartbeat CPU 0 instructions: 920000002 cycles: 1272288506 heartbeat IPC: 1.12215 cumulative IPC: 0.694273 (Simulation time: 5 hr 53 min 14 sec) 
Heartbeat CPU 1 instructions: 1390000000 cycles: 1275008508 heartbeat IPC: 1.2326 cumulative IPC: 1.05933 (Simulation time: 5 hr 54 min 2 sec) 
Heartbeat CPU 0 instructions: 930000001 cycles: 1280577292 heartbeat IPC: 1.20645 cumulative IPC: 0.697639 (Simulation time: 5 hr 55 min 49 sec) 
Heartbeat CPU 1 instructions: 1400000001 cycles: 1282738735 heartbeat IPC: 1.29362 cumulative IPC: 1.06076 (Simulation time: 5 hr 56 min 26 sec) 
Heartbeat CPU 2 instructions: 650000003 cycles: 1285796293 heartbeat IPC: 0.362195 cumulative IPC: 0.472766 (Simulation time: 5 hr 57 min 19 sec) 
Heartbeat CPU 0 instructions: 940000000 cycles: 1288908674 heartbeat IPC: 1.20028 cumulative IPC: 0.700937 (Simulation time: 5 hr 58 min 14 sec) 
Heartbeat CPU 3 instructions: 190000003 cycles: 1290575221 heartbeat IPC: 0.0994838 cumulative IPC: 0.101607 (Simulation time: 5 hr 58 min 50 sec) 
Heartbeat CPU 1 instructions: 1410000003 cycles: 1290701687 heartbeat IPC: 1.25582 cumulative IPC: 1.06198 (Simulation time: 5 hr 58 min 52 sec) 
Heartbeat CPU 0 instructions: 950000001 cycles: 1297475041 heartbeat IPC: 1.16736 cumulative IPC: 0.704063 (Simulation time: 6 hr 1 min 17 sec) 
Heartbeat CPU 1 instructions: 1420000002 cycles: 1298897053 heartbeat IPC: 1.2202 cumulative IPC: 1.06299 (Simulation time: 6 hr 1 min 48 sec) 
Heartbeat CPU 2 instructions: 660000000 cycles: 1303241943 heartbeat IPC: 0.573209 cumulative IPC: 0.474131 (Simulation time: 6 hr 3 min 22 sec) 
Heartbeat CPU 0 instructions: 960000003 cycles: 1306807647 heartbeat IPC: 1.07151 cumulative IPC: 0.706726 (Simulation time: 6 hr 4 min 33 sec) 
Heartbeat CPU 1 instructions: 1430000000 cycles: 1307354807 heartbeat IPC: 1.18235 cumulative IPC: 1.06378 (Simulation time: 6 hr 4 min 41 sec) 
Heartbeat CPU 1 instructions: 1440000000 cycles: 1316892452 heartbeat IPC: 1.04848 cumulative IPC: 1.06367 (Simulation time: 6 hr 7 min 3 sec) 
Heartbeat CPU 2 instructions: 670000000 cycles: 1324315023 heartbeat IPC: 0.474539 cumulative IPC: 0.474137 (Simulation time: 6 hr 8 min 52 sec) 
Heartbeat CPU 1 instructions: 1450000003 cycles: 1326584239 heartbeat IPC: 1.0318 cumulative IPC: 1.06343 (Simulation time: 6 hr 9 min 21 sec) 
Heartbeat CPU 1 instructions: 1460000001 cycles: 1336260959 heartbeat IPC: 1.03341 cumulative IPC: 1.06321 (Simulation time: 6 hr 11 min 30 sec) 
Heartbeat CPU 2 instructions: 680000000 cycles: 1344405184 heartbeat IPC: 0.497756 cumulative IPC: 0.474495 (Simulation time: 6 hr 13 min 18 sec) 
Heartbeat CPU 1 instructions: 1470000001 cycles: 1345730100 heartbeat IPC: 1.05606 cumulative IPC: 1.06316 (Simulation time: 6 hr 13 min 36 sec) 
Heartbeat CPU 0 instructions: 970000003 cycles: 1353807940 heartbeat IPC: 0.212765 cumulative IPC: 0.689331 (Simulation time: 6 hr 15 min 38 sec) 
Heartbeat CPU 1 instructions: 1480000002 cycles: 1354994181 heartbeat IPC: 1.07944 cumulative IPC: 1.06327 (Simulation time: 6 hr 15 min 55 sec) 
Heartbeat CPU 2 instructions: 690000002 cycles: 1355096071 heartbeat IPC: 0.935376 cumulative IPC: 0.478183 (Simulation time: 6 hr 15 min 57 sec) 
Heartbeat CPU 1 instructions: 1490000002 cycles: 1364198994 heartbeat IPC: 1.08639 cumulative IPC: 1.06343 (Simulation time: 6 hr 18 min 13 sec) 
Heartbeat CPU 2 instructions: 700000002 cycles: 1365694286 heartbeat IPC: 0.943555 cumulative IPC: 0.481846 (Simulation time: 6 hr 18 min 36 sec) 
Heartbeat CPU 1 instructions: 1500000003 cycles: 1373559810 heartbeat IPC: 1.06828 cumulative IPC: 1.06346 (Simulation time: 6 hr 20 min 27 sec) 
Heartbeat CPU 2 instructions: 710000003 cycles: 1383391315 heartbeat IPC: 0.565067 cumulative IPC: 0.482926 (Simulation time: 6 hr 22 min 33 sec) 
Heartbeat CPU 1 instructions: 1510000001 cycles: 1383405807 heartbeat IPC: 1.01564 cumulative IPC: 1.06312 (Simulation time: 6 hr 22 min 33 sec) 
Heartbeat CPU 1 instructions: 1520000000 cycles: 1393148492 heartbeat IPC: 1.02641 cumulative IPC: 1.06286 (Simulation time: 6 hr 24 min 37 sec) 
Heartbeat CPU 0 instructions: 980000003 cycles: 1399774466 heartbeat IPC: 0.21755 cumulative IPC: 0.673623 (Simulation time: 6 hr 25 min 57 sec) 
Heartbeat CPU 1 instructions: 1530000000 cycles: 1402479895 heartbeat IPC: 1.07165 cumulative IPC: 1.06292 (Simulation time: 6 hr 26 min 32 sec) 
Heartbeat CPU 2 instructions: 720000003 cycles: 1410964119 heartbeat IPC: 0.362676 cumulative IPC: 0.480544 (Simulation time: 6 hr 28 min 12 sec) 
Heartbeat CPU 1 instructions: 1540000000 cycles: 1411981596 heartbeat IPC: 1.05244 cumulative IPC: 1.06284 (Simulation time: 6 hr 28 min 25 sec) 
Heartbeat CPU 3 instructions: 200000001 cycles: 1420800164 heartbeat IPC: 0.0767902 cumulative IPC: 0.0993016 (Simulation time: 6 hr 29 min 55 sec) 
Heartbeat CPU 1 instructions: 1550000001 cycles: 1428960623 heartbeat IPC: 0.588962 cumulative IPC: 1.05714 (Simulation time: 6 hr 31 min 11 sec) 
Heartbeat CPU 2 instructions: 730000000 cycles: 1439467638 heartbeat IPC: 0.350834 cumulative IPC: 0.47794 (Simulation time: 6 hr 32 min 45 sec) 
Heartbeat CPU 1 instructions: 1560000003 cycles: 1447921016 heartbeat IPC: 0.527415 cumulative IPC: 1.05011 (Simulation time: 6 hr 33 min 56 sec) 
Heartbeat CPU 0 instructions: 990000000 cycles: 1450484714 heartbeat IPC: 0.197199 cumulative IPC: 0.656743 (Simulation time: 6 hr 34 min 21 sec) 
Heartbeat CPU 2 instructions: 740000001 cycles: 1463569611 heartbeat IPC: 0.414904 cumulative IPC: 0.476889 (Simulation time: 6 hr 36 min 25 sec) 
Heartbeat CPU 1 instructions: 1570000000 cycles: 1466834665 heartbeat IPC: 0.528719 cumulative IPC: 1.0433 (Simulation time: 6 hr 37 min 0 sec) 
Heartbeat CPU 2 instructions: 750000003 cycles: 1485413993 heartbeat IPC: 0.457784 cumulative IPC: 0.476604 (Simulation time: 6 hr 39 min 53 sec) 
Heartbeat CPU 1 instructions: 1580000003 cycles: 1486151132 heartbeat IPC: 0.517693 cumulative IPC: 1.03638 (Simulation time: 6 hr 40 min 1 sec) 
*** Reached end of trace for Core: 0 Repeating trace: ./traces/ligra/ligra_Triangle.com-lj.ungraph.gcc_6.3.0_O3.drop_6000M.length_250M.champsimtrace.xz
Heartbeat CPU 0 instructions: 1000000003 cycles: 1505352229 heartbeat IPC: 0.182257 cumulative IPC: 0.639226 (Simulation time: 6 hr 42 min 43 sec) 
Heartbeat CPU 0 instructions: 1010000000 cycles: 1515456234 heartbeat IPC: 0.989706 cumulative IPC: 0.641593 (Simulation time: 6 hr 44 min 33 sec) 
Heartbeat CPU 1 instructions: 1590000000 cycles: 1516145513 heartbeat IPC: 0.333396 cumulative IPC: 1.02229 (Simulation time: 6 hr 44 min 42 sec) 
Heartbeat CPU 1 instructions: 1600000003 cycles: 1525345052 heartbeat IPC: 1.08701 cumulative IPC: 1.02268 (Simulation time: 6 hr 47 min 5 sec) 
Heartbeat CPU 0 instructions: 1020000002 cycles: 1525683155 heartbeat IPC: 0.977812 cumulative IPC: 0.643875 (Simulation time: 6 hr 47 min 9 sec) 
Heartbeat CPU 2 instructions: 760000000 cycles: 1525999840 heartbeat IPC: 0.246391 cumulative IPC: 0.470403 (Simulation time: 6 hr 47 min 14 sec) 
Heartbeat CPU 1 instructions: 1610000003 cycles: 1533379541 heartbeat IPC: 1.24463 cumulative IPC: 1.02386 (Simulation time: 6 hr 49 min 35 sec) 
Heartbeat CPU 0 instructions: 1030000001 cycles: 1535128543 heartbeat IPC: 1.05872 cumulative IPC: 0.64646 (Simulation time: 6 hr 50 min 10 sec) 
Heartbeat CPU 1 instructions: 1620000000 cycles: 1540515107 heartbeat IPC: 1.40143 cumulative IPC: 1.02563 (Simulation time: 6 hr 51 min 51 sec) 
Heartbeat CPU 0 instructions: 1040000002 cycles: 1544148711 heartbeat IPC: 1.10863 cumulative IPC: 0.649194 (Simulation time: 6 hr 52 min 56 sec) 
Heartbeat CPU 1 instructions: 1630000002 cycles: 1547476430 heartbeat IPC: 1.43651 cumulative IPC: 1.02751 (Simulation time: 6 hr 53 min 51 sec) 
Heartbeat CPU 0 instructions: 1050000000 cycles: 1553043920 heartbeat IPC: 1.1242 cumulative IPC: 0.651948 (Simulation time: 6 hr 55 min 26 sec) 
Heartbeat CPU 1 instructions: 1640000003 cycles: 1554381638 heartbeat IPC: 1.44818 cumulative IPC: 1.0294 (Simulation time: 6 hr 55 min 52 sec) 
Heartbeat CPU 2 instructions: 770000000 cycles: 1555163004 heartbeat IPC: 0.342898 cumulative IPC: 0.467982 (Simulation time: 6 hr 56 min 5 sec) 
Heartbeat CPU 3 instructions: 210000000 cycles: 1561201372 heartbeat IPC: 0.0712245 cumulative IPC: 0.0967452 (Simulation time: 6 hr 57 min 52 sec) 
Heartbeat CPU 1 instructions: 1650000000 cycles: 1561311455 heartbeat IPC: 1.44304 cumulative IPC: 1.03126 (Simulation time: 6 hr 57 min 55 sec) 
Heartbeat CPU 0 instructions: 1060000000 cycles: 1561811293 heartbeat IPC: 1.14059 cumulative IPC: 0.654725 (Simulation time: 6 hr 58 min 5 sec) 
Heartbeat CPU 1 instructions: 1660000002 cycles: 1568289916 heartbeat IPC: 1.43298 cumulative IPC: 1.03307 (Simulation time: 7 hr 0 min 14 sec) 
Heartbeat CPU 0 instructions: 1070000001 cycles: 1570516307 heartbeat IPC: 1.14876 cumulative IPC: 0.657498 (Simulation time: 7 hr 0 min 58 sec) 
Heartbeat CPU 2 instructions: 780000000 cycles: 1573826971 heartbeat IPC: 0.535792 cumulative IPC: 0.468796 (Simulation time: 7 hr 1 min 59 sec) 
Heartbeat CPU 1 instructions: 1670000003 cycles: 1575189879 heartbeat IPC: 1.44928 cumulative IPC: 1.03491 (Simulation time: 7 hr 2 min 24 sec) 
Heartbeat CPU 0 instructions: 1080000002 cycles: 1579292132 heartbeat IPC: 1.13949 cumulative IPC: 0.660209 (Simulation time: 7 hr 3 min 45 sec) 
Heartbeat CPU 1 instructions: 1680000000 cycles: 1585338623 heartbeat IPC: 0.985343 cumulative IPC: 1.03459 (Simulation time: 7 hr 5 min 36 sec) 
Heartbeat CPU 0 instructions: 1090000000 cycles: 1588292320 heartbeat IPC: 1.11109 cumulative IPC: 0.662795 (Simulation time: 7 hr 6 min 29 sec) 
Heartbeat CPU 2 instructions: 790000003 cycles: 1593327543 heartbeat IPC: 0.512806 cumulative IPC: 0.469342 (Simulation time: 7 hr 8 min 2 sec) 
Heartbeat CPU 1 instructions: 1690000000 cycles: 1596912715 heartbeat IPC: 0.863999 cumulative IPC: 1.03334 (Simulation time: 7 hr 9 min 9 sec) 
Heartbeat CPU 0 instructions: 1100000000 cycles: 1597178498 heartbeat IPC: 1.12534 cumulative IPC: 0.6654 (Simulation time: 7 hr 9 min 14 sec) 
Heartbeat CPU 0 instructions: 1110000001 cycles: 1605987517 heartbeat IPC: 1.1352 cumulative IPC: 0.668008 (Simulation time: 7 hr 11 min 42 sec) 
Heartbeat CPU 1 instructions: 1700000002 cycles: 1608308656 heartbeat IPC: 0.877506 cumulative IPC: 1.03222 (Simulation time: 7 hr 12 min 23 sec) 
Heartbeat CPU 2 instructions: 800000003 cycles: 1611510009 heartbeat IPC: 0.54998 cumulative IPC: 0.470262 (Simulation time: 7 hr 13 min 29 sec) 
Heartbeat CPU 0 instructions: 1120000001 cycles: 1615026648 heartbeat IPC: 1.1063 cumulative IPC: 0.670491 (Simulation time: 7 hr 14 min 47 sec) 
Heartbeat CPU 1 instructions: 1710000003 cycles: 1615891020 heartbeat IPC: 1.31885 cumulative IPC: 1.03358 (Simulation time: 7 hr 15 min 4 sec) 
Heartbeat CPU 1 instructions: 1720000001 cycles: 1623336366 heartbeat IPC: 1.34312 cumulative IPC: 1.03502 (Simulation time: 7 hr 17 min 37 sec) 
Heartbeat CPU 0 instructions: 1130000000 cycles: 1623834755 heartbeat IPC: 1.13532 cumulative IPC: 0.673042 (Simulation time: 7 hr 17 min 48 sec) 
Heartbeat CPU 1 instructions: 1730000003 cycles: 1630719597 heartbeat IPC: 1.35442 cumulative IPC: 1.03648 (Simulation time: 7 hr 20 min 8 sec) 
Heartbeat CPU 0 instructions: 1140000000 cycles: 1632619720 heartbeat IPC: 1.13831 cumulative IPC: 0.675575 (Simulation time: 7 hr 20 min 49 sec) 
Heartbeat CPU 2 instructions: 810000001 cycles: 1632714837 heartbeat IPC: 0.471591 cumulative IPC: 0.47028 (Simulation time: 7 hr 20 min 51 sec) 
Heartbeat CPU 1 instructions: 1740000002 cycles: 1638199181 heartbeat IPC: 1.33697 cumulative IPC: 1.03787 (Simulation time: 7 hr 22 min 41 sec) 
Heartbeat CPU 0 instructions: 1150000001 cycles: 1641160581 heartbeat IPC: 1.17084 cumulative IPC: 0.678183 (Simulation time: 7 hr 23 min 39 sec) 
Heartbeat CPU 1 instructions: 1750000000 cycles: 1645817519 heartbeat IPC: 1.31262 cumulative IPC: 1.03916 (Simulation time: 7 hr 25 min 7 sec) 
Heartbeat CPU 2 instructions: 820000000 cycles: 1647727671 heartbeat IPC: 0.666097 cumulative IPC: 0.472085 (Simulation time: 7 hr 25 min 43 sec) 
Heartbeat CPU 0 instructions: 1160000001 cycles: 1649492277 heartbeat IPC: 1.20024 cumulative IPC: 0.680851 (Simulation time: 7 hr 26 min 16 sec) 
Heartbeat CPU 1 instructions: 1760000000 cycles: 1653310945 heartbeat IPC: 1.3345 cumulative IPC: 1.04051 (Simulation time: 7 hr 27 min 22 sec) 
Heartbeat CPU 0 instructions: 1170000000 cycles: 1658003424 heartbeat IPC: 1.17493 cumulative IPC: 0.683417 (Simulation time: 7 hr 28 min 47 sec) 
Heartbeat CPU 1 instructions: 1770000000 cycles: 1660983664 heartbeat IPC: 1.30332 cumulative IPC: 1.04174 (Simulation time: 7 hr 29 min 37 sec) 
Heartbeat CPU 3 instructions: 220000000 cycles: 1664024049 heartbeat IPC: 0.0972548 cumulative IPC: 0.0967771 (Simulation time: 7 hr 30 min 43 sec) 
Heartbeat CPU 0 instructions: 1180000000 cycles: 1666484999 heartbeat IPC: 1.17903 cumulative IPC: 0.685969 (Simulation time: 7 hr 31 min 32 sec) 
Heartbeat CPU 1 instructions: 1780000002 cycles: 1668609934 heartbeat IPC: 1.31126 cumulative IPC: 1.04299 (Simulation time: 7 hr 32 min 19 sec) 
Heartbeat CPU 2 instructions: 830000002 cycles: 1670451562 heartbeat IPC: 0.440066 cumulative IPC: 0.471644 (Simulation time: 7 hr 32 min 55 sec) 
Heartbeat CPU 0 instructions: 1190000000 cycles: 1674752339 heartbeat IPC: 1.20958 cumulative IPC: 0.688584 (Simulation time: 7 hr 34 min 26 sec) 
Heartbeat CPU 1 instructions: 1790000000 cycles: 1676016667 heartbeat IPC: 1.35012 cumulative IPC: 1.04436 (Simulation time: 7 hr 34 min 51 sec) 
Heartbeat CPU 0 instructions: 1200000001 cycles: 1682993289 heartbeat IPC: 1.21345 cumulative IPC: 0.691183 (Simulation time: 7 hr 37 min 14 sec) 
Heartbeat CPU 1 instructions: 1800000002 cycles: 1683437606 heartbeat IPC: 1.34754 cumulative IPC: 1.04571 (Simulation time: 7 hr 37 min 22 sec) 
Heartbeat CPU 2 instructions: 840000003 cycles: 1685412053 heartbeat IPC: 0.668427 cumulative IPC: 0.473411 (Simulation time: 7 hr 37 min 55 sec) 
Heartbeat CPU 1 instructions: 1810000001 cycles: 1690793936 heartbeat IPC: 1.35937 cumulative IPC: 1.04709 (Simulation time: 7 hr 39 min 49 sec) 
Heartbeat CPU 0 instructions: 1210000000 cycles: 1691863770 heartbeat IPC: 1.12733 cumulative IPC: 0.693496 (Simulation time: 7 hr 40 min 5 sec) 
Heartbeat CPU 1 instructions: 1820000002 cycles: 1699008252 heartbeat IPC: 1.21739 cumulative IPC: 1.04792 (Simulation time: 7 hr 41 min 34 sec) 
Heartbeat CPU 1 instructions: 1830000001 cycles: 1707661586 heartbeat IPC: 1.15562 cumulative IPC: 1.04848 (Simulation time: 7 hr 43 min 17 sec) 
Heartbeat CPU 2 instructions: 850000002 cycles: 1711962784 heartbeat IPC: 0.376637 cumulative IPC: 0.471893 (Simulation time: 7 hr 44 min 7 sec) 
Heartbeat CPU 1 instructions: 1840000003 cycles: 1716299781 heartbeat IPC: 1.15765 cumulative IPC: 1.04903 (Simulation time: 7 hr 45 min 2 sec) 
Heartbeat CPU 1 instructions: 1850000001 cycles: 1724972587 heartbeat IPC: 1.15303 cumulative IPC: 1.04956 (Simulation time: 7 hr 46 min 40 sec) 
Heartbeat CPU 1 instructions: 1860000003 cycles: 1733494158 heartbeat IPC: 1.17349 cumulative IPC: 1.05018 (Simulation time: 7 hr 48 min 13 sec) 
Heartbeat CPU 0 instructions: 1220000002 cycles: 1737710689 heartbeat IPC: 0.218117 cumulative IPC: 0.680814 (Simulation time: 7 hr 48 min 56 sec) 
Heartbeat CPU 1 instructions: 1870000000 cycles: 1742059964 heartbeat IPC: 1.16743 cumulative IPC: 1.05076 (Simulation time: 7 hr 49 min 52 sec) 
Heartbeat CPU 2 instructions: 860000002 cycles: 1748491578 heartbeat IPC: 0.273757 cumulative IPC: 0.467708 (Simulation time: 7 hr 51 min 16 sec) 
Heartbeat CPU 1 instructions: 1880000000 cycles: 1750841807 heartbeat IPC: 1.13871 cumulative IPC: 1.05121 (Simulation time: 7 hr 51 min 53 sec) 
Heartbeat CPU 1 instructions: 1890000002 cycles: 1760366836 heartbeat IPC: 1.04987 cumulative IPC: 1.0512 (Simulation time: 7 hr 54 min 11 sec) 
Heartbeat CPU 1 instructions: 1900000003 cycles: 1769898592 heartbeat IPC: 1.04912 cumulative IPC: 1.05119 (Simulation time: 7 hr 56 min 29 sec) 
Heartbeat CPU 2 instructions: 870000001 cycles: 1773536650 heartbeat IPC: 0.39928 cumulative IPC: 0.466731 (Simulation time: 7 hr 57 min 19 sec) 
Heartbeat CPU 1 instructions: 1910000003 cycles: 1779686700 heartbeat IPC: 1.02165 cumulative IPC: 1.05102 (Simulation time: 7 hr 58 min 45 sec) 
Heartbeat CPU 1 instructions: 1920000000 cycles: 1789365646 heartbeat IPC: 1.03317 cumulative IPC: 1.05092 (Simulation time: 8 hr 0 min 55 sec) 
Heartbeat CPU 0 instructions: 1230000003 cycles: 1789926472 heartbeat IPC: 0.191513 cumulative IPC: 0.666386 (Simulation time: 8 hr 1 min 3 sec) 
Heartbeat CPU 1 instructions: 1930000002 cycles: 1798936890 heartbeat IPC: 1.0448 cumulative IPC: 1.05089 (Simulation time: 8 hr 3 min 6 sec) 
Heartbeat CPU 2 instructions: 880000000 cycles: 1798997322 heartbeat IPC: 0.392763 cumulative IPC: 0.465673 (Simulation time: 8 hr 3 min 7 sec) 
Heartbeat CPU 3 instructions: 230000000 cycles: 1806389066 heartbeat IPC: 0.070242 cumulative IPC: 0.0946633 (Simulation time: 8 hr 4 min 38 sec) 
Heartbeat CPU 1 instructions: 1940000001 cycles: 1808450105 heartbeat IPC: 1.05117 cumulative IPC: 1.05089 (Simulation time: 8 hr 5 min 0 sec) 
Heartbeat CPU 1 instructions: 1950000002 cycles: 1819766647 heartbeat IPC: 0.883662 cumulative IPC: 1.04984 (Simulation time: 8 hr 7 min 7 sec) 
Heartbeat CPU 2 instructions: 890000002 cycles: 1820196746 heartbeat IPC: 0.471711 cumulative IPC: 0.465744 (Simulation time: 8 hr 7 min 12 sec) 
Heartbeat CPU 2 instructions: 900000002 cycles: 1832348311 heartbeat IPC: 0.822939 cumulative IPC: 0.468138 (Simulation time: 8 hr 9 min 29 sec) 
Heartbeat CPU 1 instructions: 1960000000 cycles: 1833592573 heartbeat IPC: 0.723279 cumulative IPC: 1.04735 (Simulation time: 8 hr 9 min 42 sec) 
Heartbeat CPU 0 instructions: 1240000000 cycles: 1842680127 heartbeat IPC: 0.18956 cumulative IPC: 0.652591 (Simulation time: 8 hr 11 min 17 sec) 
Heartbeat CPU 2 instructions: 910000000 cycles: 1844440625 heartbeat IPC: 0.826971 cumulative IPC: 0.470515 (Simulation time: 8 hr 11 min 33 sec) 
Heartbeat CPU 1 instructions: 1970000001 cycles: 1847678925 heartbeat IPC: 0.709907 cumulative IPC: 1.04475 (Simulation time: 8 hr 12 min 9 sec) 
Heartbeat CPU 1 instructions: 1980000000 cycles: 1858625344 heartbeat IPC: 0.913541 cumulative IPC: 1.04397 (Simulation time: 8 hr 14 min 17 sec) 
Heartbeat CPU 2 instructions: 920000001 cycles: 1867706756 heartbeat IPC: 0.429809 cumulative IPC: 0.470003 (Simulation time: 8 hr 16 min 15 sec) 
Heartbeat CPU 1 instructions: 1990000000 cycles: 1867780223 heartbeat IPC: 1.09231 cumulative IPC: 1.04421 (Simulation time: 8 hr 16 min 16 sec) 
*** Reached end of trace for Core: 1 Repeating trace: ./traces/spec/437.leslie3d-265B.champsimtrace.xz
Heartbeat CPU 1 instructions: 2000000002 cycles: 1876375188 heartbeat IPC: 1.16347 cumulative IPC: 1.04476 (Simulation time: 8 hr 18 min 7 sec) 
Heartbeat CPU 1 instructions: 2010000002 cycles: 1884916372 heartbeat IPC: 1.1708 cumulative IPC: 1.04534 (Simulation time: 8 hr 19 min 51 sec) 
Heartbeat CPU 1 instructions: 2020000003 cycles: 1893817212 heartbeat IPC: 1.12349 cumulative IPC: 1.04571 (Simulation time: 8 hr 21 min 36 sec) 
*** Reached end of trace for Core: 0 Repeating trace: ./traces/ligra/ligra_Triangle.com-lj.ungraph.gcc_6.3.0_O3.drop_6000M.length_250M.champsimtrace.xz
Heartbeat CPU 0 instructions: 1250000002 cycles: 1894437394 heartbeat IPC: 0.19321 cumulative IPC: 0.639912 (Simulation time: 8 hr 21 min 44 sec) 
Heartbeat CPU 2 instructions: 930000001 cycles: 1896135841 heartbeat IPC: 0.351752 cumulative IPC: 0.468212 (Simulation time: 8 hr 22 min 15 sec) 
Heartbeat CPU 1 instructions: 2030000000 cycles: 1901713495 heartbeat IPC: 1.26642 cumulative IPC: 1.04664 (Simulation time: 8 hr 24 min 0 sec) 
Heartbeat CPU 0 instructions: 1260000001 cycles: 1903116231 heartbeat IPC: 1.15223 cumulative IPC: 0.642272 (Simulation time: 8 hr 24 min 26 sec) 
Heartbeat CPU 1 instructions: 2040000001 cycles: 1909366898 heartbeat IPC: 1.30661 cumulative IPC: 1.04769 (Simulation time: 8 hr 26 min 11 sec) 
Heartbeat CPU 0 instructions: 1270000001 cycles: 1911609632 heartbeat IPC: 1.17738 cumulative IPC: 0.644674 (Simulation time: 8 hr 26 min 52 sec) 
Heartbeat CPU 2 instructions: 940000003 cycles: 1916048204 heartbeat IPC: 0.502201 cumulative IPC: 0.468569 (Simulation time: 8 hr 28 min 5 sec) 
Heartbeat CPU 1 instructions: 2050000001 cycles: 1917299108 heartbeat IPC: 1.26068 cumulative IPC: 1.04858 (Simulation time: 8 hr 28 min 29 sec) 
Heartbeat CPU 0 instructions: 1280000001 cycles: 1920411895 heartbeat IPC: 1.13607 cumulative IPC: 0.646949 (Simulation time: 8 hr 29 min 30 sec) 
Heartbeat CPU 1 instructions: 2060000001 cycles: 1925013883 heartbeat IPC: 1.29621 cumulative IPC: 1.04958 (Simulation time: 8 hr 30 min 56 sec) 
Heartbeat CPU 2 instructions: 950000000 cycles: 1928168319 heartbeat IPC: 0.825074 cumulative IPC: 0.470832 (Simulation time: 8 hr 31 min 55 sec) 
Heartbeat CPU 0 instructions: 1290000000 cycles: 1929029655 heartbeat IPC: 1.16039 cumulative IPC: 0.649266 (Simulation time: 8 hr 32 min 12 sec) 
Heartbeat CPU 1 instructions: 2070000000 cycles: 1932789956 heartbeat IPC: 1.286 cumulative IPC: 1.05054 (Simulation time: 8 hr 33 min 21 sec) 
Heartbeat CPU 0 instructions: 1300000001 cycles: 1937815142 heartbeat IPC: 1.13824 cumulative IPC: 0.651505 (Simulation time: 8 hr 34 min 52 sec) 
Heartbeat CPU 1 instructions: 2080000001 cycles: 1940705042 heartbeat IPC: 1.26341 cumulative IPC: 1.05142 (Simulation time: 8 hr 35 min 44 sec) 
Heartbeat CPU 2 instructions: 960000000 cycles: 1942479183 heartbeat IPC: 0.69877 cumulative IPC: 0.472528 (Simulation time: 8 hr 36 min 16 sec) 
Heartbeat CPU 0 instructions: 1310000001 cycles: 1946196437 heartbeat IPC: 1.19313 cumulative IPC: 0.653861 (Simulation time: 8 hr 37 min 23 sec) 
Heartbeat CPU 1 instructions: 2090000000 cycles: 1948242125 heartbeat IPC: 1.32677 cumulative IPC: 1.0525 (Simulation time: 8 hr 37 min 59 sec) 
Heartbeat CPU 3 instructions: 240000001 cycles: 1952955870 heartbeat IPC: 0.0682283 cumulative IPC: 0.0926597 (Simulation time: 8 hr 39 min 17 sec) 
Heartbeat CPU 0 instructions: 1320000000 cycles: 1954511346 heartbeat IPC: 1.20266 cumulative IPC: 0.656218 (Simulation time: 8 hr 39 min 44 sec) 
Heartbeat CPU 1 instructions: 2100000002 cycles: 1955807393 heartbeat IPC: 1.32183 cumulative IPC: 1.05355 (Simulation time: 8 hr 40 min 8 sec) 
Heartbeat CPU 0 instructions: 1330000000 cycles: 1962936805 heartbeat IPC: 1.18688 cumulative IPC: 0.658519 (Simulation time: 8 hr 42 min 7 sec) 
Heartbeat CPU 1 instructions: 2110000000 cycles: 1963517289 heartbeat IPC: 1.29703 cumulative IPC: 1.05451 (Simulation time: 8 hr 42 min 18 sec) 
Heartbeat CPU 2 instructions: 970000002 cycles: 1968125991 heartbeat IPC: 0.389912 cumulative IPC: 0.471441 (Simulation time: 8 hr 43 min 45 sec) 
Heartbeat CPU 1 instructions: 2120000000 cycles: 1971293980 heartbeat IPC: 1.28589 cumulative IPC: 1.05544 (Simulation time: 8 hr 44 min 45 sec) 
Heartbeat CPU 0 instructions: 1340000001 cycles: 1971497203 heartbeat IPC: 1.16817 cumulative IPC: 0.660753 (Simulation time: 8 hr 44 min 49 sec) 
Heartbeat CPU 1 instructions: 2130000001 cycles: 1979094110 heartbeat IPC: 1.28203 cumulative IPC: 1.05634 (Simulation time: 8 hr 47 min 17 sec) 
Heartbeat CPU 0 instructions: 1350000001 cycles: 1979977025 heartbeat IPC: 1.17927 cumulative IPC: 0.662996 (Simulation time: 8 hr 47 min 32 sec) 
Heartbeat CPU 1 instructions: 2140000003 cycles: 1987123629 heartbeat IPC: 1.2454 cumulative IPC: 1.05711 (Simulation time: 8 hr 49 min 23 sec) 
Heartbeat CPU 0 instructions: 1360000002 cycles: 1988661960 heartbeat IPC: 1.15142 cumulative IPC: 0.66515 (Simulation time: 8 hr 49 min 49 sec) 
Heartbeat CPU 2 instructions: 980000000 cycles: 1993513757 heartbeat IPC: 0.39389 cumulative IPC: 0.470444 (Simulation time: 8 hr 51 min 16 sec) 
Heartbeat CPU 1 instructions: 2150000001 cycles: 1994925035 heartbeat IPC: 1.28182 cumulative IPC: 1.058 (Simulation time: 8 hr 51 min 40 sec) 
Heartbeat CPU 0 instructions: 1370000001 cycles: 1997453405 heartbeat IPC: 1.13747 cumulative IPC: 0.667249 (Simulation time: 8 hr 52 min 30 sec) 
Heartbeat CPU 1 instructions: 2160000000 cycles: 2002989787 heartbeat IPC: 1.23996 cumulative IPC: 1.05874 (Simulation time: 8 hr 54 min 13 sec) 
Heartbeat CPU 0 instructions: 1380000000 cycles: 2006188825 heartbeat IPC: 1.14476 cumulative IPC: 0.669348 (Simulation time: 8 hr 55 min 18 sec) 
Heartbeat CPU 1 instructions: 2170000002 cycles: 2010913391 heartbeat IPC: 1.26205 cumulative IPC: 1.05955 (Simulation time: 8 hr 56 min 43 sec) 
Heartbeat CPU 2 instructions: 990000000 cycles: 2012318316 heartbeat IPC: 0.531786 cumulative IPC: 0.471022 (Simulation time: 8 hr 57 min 10 sec) 
Heartbeat CPU 0 instructions: 1390000001 cycles: 2014820051 heartbeat IPC: 1.15858 cumulative IPC: 0.671464 (Simulation time: 8 hr 58 min 1 sec) 
Heartbeat CPU 1 instructions: 2180000001 cycles: 2018742943 heartbeat IPC: 1.27721 cumulative IPC: 1.0604 (Simulation time: 8 hr 59 min 12 sec) 
Heartbeat CPU 0 instructions: 1400000002 cycles: 2023466488 heartbeat IPC: 1.15655 cumulative IPC: 0.673556 (Simulation time: 9 hr 0 min 45 sec) 
Heartbeat CPU 1 instructions: 2190000001 cycles: 2026494788 heartbeat IPC: 1.29002 cumulative IPC: 1.06128 (Simulation time: 9 hr 1 min 45 sec) 
Heartbeat CPU 2 instructions: 1000000000 cycles: 2029894830 heartbeat IPC: 0.568941 cumulative IPC: 0.471878 (Simulation time: 9 hr 2 min 53 sec) 
Heartbeat CPU 0 instructions: 1410000002 cycles: 2032157239 heartbeat IPC: 1.15065 cumulative IPC: 0.675616 (Simulation time: 9 hr 3 min 30 sec) 
Heartbeat CPU 1 instructions: 2200000000 cycles: 2036174777 heartbeat IPC: 1.03306 cumulative IPC: 1.06115 (Simulation time: 9 hr 4 min 40 sec) 
Heartbeat CPU 0 instructions: 1420000000 cycles: 2041001176 heartbeat IPC: 1.13072 cumulative IPC: 0.677607 (Simulation time: 9 hr 5 min 56 sec) 
Heartbeat CPU 1 instructions: 2210000002 cycles: 2047297626 heartbeat IPC: 0.89905 cumulative IPC: 1.06026 (Simulation time: 9 hr 7 min 45 sec) 
Heartbeat CPU 2 instructions: 1010000001 cycles: 2048050182 heartbeat IPC: 0.550802 cumulative IPC: 0.472585 (Simulation time: 9 hr 7 min 59 sec) 
Heartbeat CPU 0 instructions: 1430000000 cycles: 2049797385 heartbeat IPC: 1.13685 cumulative IPC: 0.679596 (Simulation time: 9 hr 8 min 30 sec) 
Heartbeat CPU 1 instructions: 2220000001 cycles: 2058388115 heartbeat IPC: 0.901673 cumulative IPC: 1.0594 (Simulation time: 9 hr 10 min 51 sec) 
Heartbeat CPU 0 instructions: 1440000003 cycles: 2058505187 heartbeat IPC: 1.1484 cumulative IPC: 0.681598 (Simulation time: 9 hr 10 min 53 sec) 
Heartbeat CPU 1 instructions: 2230000001 cycles: 2066248650 heartbeat IPC: 1.27218 cumulative IPC: 1.06021 (Simulation time: 9 hr 13 min 18 sec) 
Heartbeat CPU 0 instructions: 1450000002 cycles: 2067267250 heartbeat IPC: 1.14128 cumulative IPC: 0.683565 (Simulation time: 9 hr 13 min 38 sec) 
Heartbeat CPU 2 instructions: 1020000002 cycles: 2068914222 heartbeat IPC: 0.479294 cumulative IPC: 0.472653 (Simulation time: 9 hr 14 min 12 sec) 
Heartbeat CPU 1 instructions: 2240000001 cycles: 2073763440 heartbeat IPC: 1.33071 cumulative IPC: 1.0612 (Simulation time: 9 hr 15 min 47 sec) 
Heartbeat CPU 0 instructions: 1460000002 cycles: 2076819658 heartbeat IPC: 1.04686 cumulative IPC: 0.685251 (Simulation time: 9 hr 16 min 44 sec) 
Heartbeat CPU 1 instructions: 2250000001 cycles: 2081769295 heartbeat IPC: 1.24909 cumulative IPC: 1.06193 (Simulation time: 9 hr 17 min 50 sec) 
*** Reached end of trace for Core: 3 Repeating trace: ./traces/ligra/ligra_Components.com-lj.ungraph.gcc_6.3.0_O3.drop_22750M.length_250M.champsimtrace.xz
Heartbeat CPU 3 instructions: 250000000 cycles: 2085349763 heartbeat IPC: 0.0755322 cumulative IPC: 0.0915622 (Simulation time: 9 hr 18 min 37 sec) 
Heartbeat CPU 1 instructions: 2260000000 cycles: 2090609712 heartbeat IPC: 1.13117 cumulative IPC: 1.06223 (Simulation time: 9 hr 19 min 43 sec) 
Heartbeat CPU 2 instructions: 1030000003 cycles: 2093866734 heartbeat IPC: 0.400761 cumulative IPC: 0.471788 (Simulation time: 9 hr 20 min 22 sec) 
Heartbeat CPU 1 instructions: 2270000001 cycles: 2101819880 heartbeat IPC: 0.892047 cumulative IPC: 1.06131 (Simulation time: 9 hr 21 min 49 sec) 
Heartbeat CPU 1 instructions: 2280000002 cycles: 2112724423 heartbeat IPC: 0.917049 cumulative IPC: 1.06056 (Simulation time: 9 hr 24 min 9 sec) 
Heartbeat CPU 2 instructions: 1040000000 cycles: 2122271386 heartbeat IPC: 0.352055 cumulative IPC: 0.470171 (Simulation time: 9 hr 26 min 21 sec) 
Heartbeat CPU 1 instructions: 2290000000 cycles: 2123227471 heartbeat IPC: 0.952104 cumulative IPC: 1.06002 (Simulation time: 9 hr 26 min 35 sec) 
Heartbeat CPU 0 instructions: 1470000003 cycles: 2124899370 heartbeat IPC: 0.207988 cumulative IPC: 0.674354 (Simulation time: 9 hr 26 min 59 sec) 
Heartbeat CPU 1 instructions: 2300000001 cycles: 2133746474 heartbeat IPC: 0.950661 cumulative IPC: 1.05948 (Simulation time: 9 hr 29 min 6 sec) 
Heartbeat CPU 3 instructions: 260000000 cycles: 2135669301 heartbeat IPC: 0.19873 cumulative IPC: 0.0941102 (Simulation time: 9 hr 29 min 34 sec) 
Finished CPU 3 instructions: 200000001 cycles: 2119332072 cumulative IPC: 0.0943694 (Simulation time: 9 hr 30 min 19 sec) 

ChampSim completed all CPUs

Total Simulation Statistics (not including warmup)

CPU 0 cumulative IPC: 0.671449 instructions: 1423022688 cycles: 2119332071
ITLB TOTAL     ACCESS:  314271109  HIT:  314271100  MISS:          9  HIT %:        100  MISS %: 2.86377e-06   MPKI: 6.32457e-06
ITLB LOAD      ACCESS:          0  HIT:          0  MISS:          0  HIT %:       -nan  MISS %:       -nan   MPKI: 0
ITLB RFO       ACCESS:          0  HIT:          0  MISS:          0  HIT %:       -nan  MISS %:       -nan   MPKI: 0
ITLB PREFETCH  ACCESS:          0  HIT:          0  MISS:          0  HIT %:       -nan  MISS %:       -nan   MPKI: 0
ITLB WRITEBACK ACCESS:          0  HIT:          0  MISS:          0  HIT %:       -nan  MISS %:       -nan   MPKI: 0
DTLB TOTAL     ACCESS:  138703278  HIT:  138351787  MISS:     351491  HIT %:    99.7466  MISS %:   0.253412   MPKI: 0.247003
DTLB LOAD      ACCESS:          0  HIT:          0  MISS:          0  HIT %:       -nan  MISS %:       -nan   MPKI: 0
DTLB RFO       ACCESS:          0  HIT:          0  MISS:          0  HIT %:       -nan  MISS %:       -nan   MPKI: 0
DTLB PREFETCH  ACCESS:          0  HIT:          0  MISS:          0  HIT %:       -nan  MISS %:       -nan   MPKI: 0
DTLB WRITEBACK ACCESS:          0  HIT:          0  MISS:          0  HIT %:       -nan  MISS %:       -nan   MPKI: 0
STLB TOTAL     ACCESS:    8200673  HIT:    7849173  MISS:     351500  HIT %:    95.7138  MISS %:    4.28623   MPKI: 0.247009
STLB LOAD      ACCESS:          0  HIT:          0  MISS:          0  HIT %:       -nan  MISS %:       -nan   MPKI: 0
STLB RFO       ACCESS:          0  HIT:          0  MISS:          0  HIT %:       -nan  MISS %:       -nan   MPKI: 0
STLB PREFETCH  ACCESS:          0  HIT:          0  MISS:          0  HIT %:       -nan  MISS %:       -nan   MPKI: 0
STLB WRITEBACK ACCESS:          0  HIT:          0  MISS:          0  HIT %:       -nan  MISS %:       -nan   MPKI: 0
L1D TOTAL     ACCESS:  116113521  HIT:   93622432  MISS:   22491089  HIT %:    80.6301  MISS %:    19.3699   MPKI: 15.8052
L1D LOAD      ACCESS:   86725263  HIT:   82220663  MISS:    4504600  HIT %:    94.8059  MISS %:     5.1941   MPKI: 3.16552
L1D RFO       ACCESS:   12955270  HIT:    1717209  MISS:   11238061  HIT %:    13.2549  MISS %:    86.7451   MPKI: 7.89732
L1D PREFETCH  ACCESS:   16432988  HIT:    9684560  MISS:    6748428  HIT %:    58.9337  MISS %:    41.0663   MPKI: 4.74232
L1D WRITEBACK ACCESS:          0  HIT:          0  MISS:          0  HIT %:       -nan  MISS %:       -nan   MPKI: 0
[...]
LLC PREFETCH  REQUESTED:          0  ISSUED:          0  USEFUL:     788747  USELESS:   48600344
LLC USEFUL LOAD PREFETCHES:     788747 PREFETCH ISSUED TO LOWER LEVEL:   49550263  ACCURACY: 1.59181
LLC TIMELY PREFETCHES:     788747 LATE PREFETCHES: 0 DROPPED PREFETCHES: 0
LLC PREFETCHES SAME FILL-ORIGIN LEVEL: 0 DIFFERENT FILL-ORIGIN LEVEL: 0
LLC AVERAGE MISS LATENCY: 11621.6 cycles
LLC RQ	ACCESS:   32353870	FORWARD:          0	MERGED:          0	TO_CACHE:   32353863
LLC WQ	ACCESS:   23207432	FORWARD:          9	MERGED:          0	TO_CACHE:   23207432
LLC PQ	ACCESS:   55302886	FORWARD:          0	MERGED:          0	TO_CACHE:   55302884

LLC Dense regions hint to LLC: 0

RAW hits: 2280087
Loads Generated: 78788746
Loads sent to L1D: 76508645
Stores Generated: 12394651
Stores sent to L1D: 12394652
Major fault: 0 Minor fault: 93998
Allocated PAGES: 213503

CPU 3 cumulative IPC: 0.0943694 instructions: 200000001 cycles: 2119332072
ITLB TOTAL     ACCESS:   44607703  HIT:   44607703  MISS:          0  HIT %:        100  MISS %:          0   MPKI: 0
ITLB LOAD TRANSLATION ACCESS:   44607703  HIT:   44607703  MISS:          0  HIT %:        100  MISS %:          0   MPKI: 0
ITLB PREFETCH  REQUESTED:          0  ISSUED:          0  USEFUL:          0  USELESS:          0
ITLB USEFUL LOAD PREFETCHES:          0 PREFETCH ISSUED TO LOWER LEVEL:          0  ACCURACY: -nan
ITLB TIMELY PREFETCHES:          0 LATE PREFETCHES: 0 DROPPED PREFETCHES: 0
ITLB PREFETCHES SAME FILL-ORIGIN LEVEL: 0 DIFFERENT FILL-ORIGIN LEVEL: 0
ITLB AVERAGE MISS LATENCY: -nan cycles
ITLB RQ	ACCESS:   44607704	FORWARD:          0	MERGED:          0	TO_CACHE:   44607704

DTLB TOTAL     ACCESS:   55770537  HIT:   43728482  MISS:   12042055  HIT %:    78.4079  MISS %:    21.5921   MPKI: 60.2103
DTLB LOAD TRANSLATION ACCESS:   55770537  HIT:   43728482  MISS:   12042055  HIT %:    78.4079  MISS %:    21.5921   MPKI: 60.2103
DTLB PREFETCH  REQUESTED:          0  ISSUED:          0  USEFUL:          0  USELESS:          0
DTLB USEFUL LOAD PREFETCHES:          0 PREFETCH ISSUED TO LOWER LEVEL:          0  ACCURACY: -nan
DTLB TIMELY PREFETCHES:          0 LATE PREFETCHES: 0 DROPPED PREFETCHES: 0
DTLB PREFETCHES SAME FILL-ORIGIN LEVEL: 0 DIFFERENT FILL-ORIGIN LEVEL: 0
DTLB AVERAGE MISS LATENCY: 15.394 cycles
DTLB RQ	ACCESS:   58081649	FORWARD:          0	MERGED:    2139085	TO_CACHE:   55942564

STLB TOTAL     ACCESS:   32636412  HIT:   31055871  MISS:    1580541  HIT %:    95.1571  MISS %:    4.84288   MPKI: 7.9027
STLB LOAD TRANSLATION ACCESS:   12042055  HIT:   10461514  MISS:    1580541  HIT %:    86.8748  MISS %:    13.1252   MPKI: 7.9027
STLB TRANSLATION FROM L1D PREFETCHER ACCESS:   20594357  HIT:   20594357  MISS:          0  HIT %:        100  MISS %:          0   MPKI: 0
STLB PREFETCH  REQUESTED:          0  ISSUED:          0  USEFUL:          0  USELESS:          0
STLB USEFUL LOAD PREFETCHES:          0 PREFETCH ISSUED TO LOWER LEVEL:          0  ACCURACY: -nan
STLB TIMELY PREFETCHES:          0 LATE PREFETCHES: 0 DROPPED PREFETCHES: 0
STLB PREFETCHES SAME FILL-ORIGIN LEVEL: 0 DIFFERENT FILL-ORIGIN LEVEL: 0
STLB AVERAGE MISS LATENCY: 44.7407 cycles
STLB RQ	ACCESS:   38794206	FORWARD:          0	MERGED:    6157795	TO_CACHE:   32636411

STLB Hit, L1D data hit: 0
STLB Hit, L2C data hit: 0
STLB Hit, LLC data hit: 0
STLB Hit, LLC data miss: 0
STLB STLB hints to L2: 0
L1D TOTAL     ACCESS:   83647653  HIT:   58362033  MISS:   25285620  HIT %:    69.7713  MISS %:    30.2287   MPKI: 126.428
L1D LOAD      ACCESS:   55726521  HIT:   43751721  MISS:   11974800  HIT %:    78.5115  MISS %:    21.4885   MPKI: 59.874
L1D RFO       ACCESS:    1900891  HIT:    1870514  MISS:      30377  HIT %:     98.402  MISS %:    1.59804   MPKI: 0.151885
L1D PREFETCH  ACCESS:   26020241  HIT:   12739798  MISS:   13280443  HIT %:    48.9611  MISS %:    51.0389   MPKI: 66.4022
L1D PREFETCH  REQUESTED:   53593394  ISSUED:   53506009  USEFUL:    1989362  USELESS:   11291094
L1D USEFUL LOAD PREFETCHES:    1989362 PREFETCH ISSUED TO LOWER LEVEL:   13366559  ACCURACY: 14.8831
L1D TIMELY PREFETCHES:    1989362 LATE PREFETCHES: 86110 DROPPED PREFETCHES: 0
L1D PREFETCHES SAME FILL-ORIGIN LEVEL: 13366559 DIFFERENT FILL-ORIGIN LEVEL: 0
L1D AVERAGE MISS LATENCY: 500.911 cycles
L1D RQ	ACCESS:   78157920	FORWARD:          0	MERGED:   22017127	TO_CACHE:   56140793
L1D WQ	ACCESS:    1940856	FORWARD:          0	MERGED:          0	TO_CACHE:    1940856
L1D PQ	ACCESS:   26753858	FORWARD:          0	MERGED:       1707	TO_CACHE:   26752151

L1D UNIQUE REGIONS ACCESSED: 0
L1D REGIONS CONFLICTS: 0
L1D Cross Page Prefetch Requests: 0
L1D Same Page Prefetch Requests: 35287384
L1D ROI Sum of L1D PQ occupancy: 1139542340
L1D PREFETCHES PUSHED FROM L2C: 0
L1I TOTAL     ACCESS:   44607703  HIT:   44607703  MISS:          0  HIT %:        100  MISS %:          0   MPKI: 0
L1I LOAD      ACCESS:   44607703  HIT:   44607703  MISS:          0  HIT %:        100  MISS %:          0   MPKI: 0
L1I PREFETCH  REQUESTED:          0  ISSUED:          0  USEFUL:          0  USELESS:          0
L1I USEFUL LOAD PREFETCHES:          0 PREFETCH ISSUED TO LOWER LEVEL:          0  ACCURACY: -nan
L1I TIMELY PREFETCHES:          0 LATE PREFETCHES: 0 DROPPED PREFETCHES: 0
L1I PREFETCHES SAME FILL-ORIGIN LEVEL: 0 DIFFERENT FILL-ORIGIN LEVEL: 0
L1I AVERAGE MISS LATENCY: -nan cycles
L1I RQ	ACCESS:   48124878	FORWARD:          0	MERGED:    3517174	TO_CACHE:   44607704

BTB TOTAL     ACCESS:   48060645  HIT:   48060644  MISS:          1  HIT %:        100  MISS %: 2.0807e-06   MPKI: 5e-06
BTB BRANCH_DIRECT_JUMP	ACCESS:          0  HIT:          0  MISS:          0
BTB BRANCH_INDIRECT	ACCESS:          0  HIT:          0  MISS:          0
BTB BRANCH_CONDITIONAL	ACCESS:   48060645  HIT:   48060644  MISS:          1
BTB BRANCH_DIRECT_CALL	ACCESS:          0  HIT:          0  MISS:          0
BTB BRANCH_INDIRECT_CALL	ACCESS:          0  HIT:          0  MISS:          0
BTB BRANCH_RETURN	ACCESS:          0  HIT:          0  MISS:          0
BTB BRANCH_OTHER ACCESS:          0  HIT:          0  MISS:          0

L2C TOTAL     ACCESS:   26896559  HIT:    5617420  MISS:   21279139  HIT %:    20.8853  MISS %:    79.1147   MPKI: 106.396
L2C LOAD      ACCESS:   11888690  HIT:    2213248  MISS:    9675442  HIT %:    18.6164  MISS %:    81.3836   MPKI: 48.3772
L2C DATA LOAD MPKI: 48.3772
L2C INSTRUCTION LOAD MPKI: 0
L2C RFO       ACCESS:      30377  HIT:         48  MISS:      30329  HIT %:   0.158014  MISS %:     99.842   MPKI: 0.151645
L2C PREFETCH  ACCESS:   13366553  HIT:    2126967  MISS:   11239586  HIT %:    15.9126  MISS %:    84.0874   MPKI: 56.1979
L2C DATA PREFETCH MPKI: 56.1979
L2C INSTRUCTION PREFETCH MPKI: 0
L2C WRITEBACK ACCESS:      30376  HIT:      25649  MISS:       4727  HIT %:    84.4384  MISS %:    15.5616   MPKI: 0.023635
L2C LOAD TRANSLATION ACCESS:    1580563  HIT:    1251508  MISS:     329055  HIT %:    79.1812  MISS %:    20.8188   MPKI: 1.64527
L2C PREFETCH  REQUESTED:          0  ISSUED:          0  USEFUL:     581331  USELESS:   10658360
L2C USEFUL LOAD PREFETCHES:     581331 PREFETCH ISSUED TO LOWER LEVEL:   11239592  ACCURACY: 5.17217
L2C TIMELY PREFETCHES:     581331 LATE PREFETCHES: 0 DROPPED PREFETCHES: 0
L2C PREFETCHES SAME FILL-ORIGIN LEVEL: 0 DIFFERENT FILL-ORIGIN LEVEL: 0
L2C AVERAGE MISS LATENCY: 584.607 cycles
L2C RQ	ACCESS:   13499630	FORWARD:          0	MERGED:          0	TO_CACHE:   13499630
L2C WQ	ACCESS:      30376	FORWARD:          0	MERGED:          0	TO_CACHE:      30376
L2C PQ	ACCESS:   13366559	FORWARD:          0	MERGED:          0	TO_CACHE:   13366559

L2C Instructions Evicting Data 0
L2C Translations Evicting Data 326121
L2C Data Evicting Data 20619331
L2C Instructions Evicting Instructions 0
L2C Translations Evicting Instructions 0
L2C Data Evicting Instructions 0
L2C Instructions Evicting Translations 0
L2C Translations Evicting Translations 2934
L2C Data Evicting Translations 326026
L2C Dense regions hint from L2: 0
PSCL5 TOTAL     ACCESS:    1580541  HIT:    1580541  MISS:          0  HIT %:        100  MISS %:          0   MPKI: 0
PSCL5 LOAD TRANSLATION ACCESS:    1580541  HIT:    1580541  MISS:          0  HIT %:        100  MISS %:          0   MPKI: 0
PSCL5 PREFETCH  REQUESTED:          0  ISSUED:          0  USEFUL:          0  USELESS:          0
PSCL5 USEFUL LOAD PREFETCHES:          0 PREFETCH ISSUED TO LOWER LEVEL:          0  ACCURACY: -nan
PSCL5 TIMELY PREFETCHES:          0 LATE PREFETCHES: 0 DROPPED PREFETCHES: 0
PSCL5 PREFETCHES SAME FILL-ORIGIN LEVEL: 0 DIFFERENT FILL-ORIGIN LEVEL: 0

PSCL4 TOTAL     ACCESS:    1580541  HIT:    1580541  MISS:          0  HIT %:        100  MISS %:          0   MPKI: 0
PSCL4 LOAD TRANSLATION ACCESS:    1580541  HIT:    1580541  MISS:          0  HIT %:        100  MISS %:          0   MPKI: 0
PSCL4 PREFETCH  REQUESTED:          0  ISSUED:          0  USEFUL:          0  USELESS:          0
PSCL4 USEFUL LOAD PREFETCHES:          0 PREFETCH ISSUED TO LOWER LEVEL:          0  ACCURACY: -nan
PSCL4 TIMELY PREFETCHES:          0 LATE PREFETCHES: 0 DROPPED PREFETCHES: 0
PSCL4 PREFETCHES SAME FILL-ORIGIN LEVEL: 0 DIFFERENT FILL-ORIGIN LEVEL: 0

PSCL3 TOTAL     ACCESS:    1580541  HIT:    1580541  MISS:          0  HIT %:        100  MISS %:          0   MPKI: 0
PSCL3 LOAD TRANSLATION ACCESS:    1580541  HIT:    1580541  MISS:          0  HIT %:        100  MISS %:          0   MPKI: 0
PSCL3 PREFETCH  REQUESTED:          0  ISSUED:          0  USEFUL:          0  USELESS:          0
PSCL3 USEFUL LOAD PREFETCHES:          0 PREFETCH ISSUED TO LOWER LEVEL:          0  ACCURACY: -nan
PSCL3 TIMELY PREFETCHES:          0 LATE PREFETCHES: 0 DROPPED PREFETCHES: 0
PSCL3 PREFETCHES SAME FILL-ORIGIN LEVEL: 0 DIFFERENT FILL-ORIGIN LEVEL: 0

PSCL2 TOTAL     ACCESS:    1580541  HIT:    1580467  MISS:         74  HIT %:    99.9953  MISS %: 0.00468194   MPKI: 0.00037
PSCL2 LOAD TRANSLATION ACCESS:    1580541  HIT:    1580467  MISS:         74  HIT %:    99.9953  MISS %: 0.00468194   MPKI: 0.00037
PSCL2 PREFETCH  REQUESTED:          0  ISSUED:          0  USEFUL:          0  USELESS:          0
PSCL2 USEFUL LOAD PREFETCHES:          0 PREFETCH ISSUED TO LOWER LEVEL:          0  ACCURACY: -nan
PSCL2 TIMELY PREFETCHES:          0 LATE PREFETCHES: 0 DROPPED PREFETCHES: 0
PSCL2 PREFETCHES SAME FILL-ORIGIN LEVEL: 0 DIFFERENT FILL-ORIGIN LEVEL: 0

LLC TOTAL     ACCESS:   21304740  HIT:    9377617  MISS:   11927123  HIT %:    44.0166  MISS %:    55.9834   MPKI: 59.6356
LLC LOAD      ACCESS:    9675442  HIT:    4551020  MISS:    5124422  HIT %:    47.0368  MISS %:    52.9632   MPKI: 25.6221
LLC RFO       ACCESS:      30329  HIT:          1  MISS:      30328  HIT %: 0.00329717  MISS %:    99.9967   MPKI: 0.15164
LLC PREFETCH  ACCESS:   11239586  HIT:    4477294  MISS:    6762292  HIT %:     39.835  MISS %:     60.165   MPKI: 33.8115
LLC WRITEBACK ACCESS:      30328  HIT:      28919  MISS:       1409  HIT %:    95.3541  MISS %:    4.64587   MPKI: 0.007045
LLC LOAD TRANSLATION ACCESS:     329055  HIT:     320383  MISS:       8672  HIT %:    97.3646  MISS %:    2.63543   MPKI: 0.04336
LLC PREFETCH  REQUESTED:          0  ISSUED:          0  USEFUL:     788747  USELESS:   48600344
LLC USEFUL LOAD PREFETCHES:     788747 PREFETCH ISSUED TO LOWER LEVEL:   49550263  ACCURACY: 1.59181
LLC TIMELY PREFETCHES:     788747 LATE PREFETCHES: 0 DROPPED PREFETCHES: 0
LLC PREFETCHES SAME FILL-ORIGIN LEVEL: 0 DIFFERENT FILL-ORIGIN LEVEL: 0
LLC AVERAGE MISS LATENCY: 5447.97 cycles
LLC RQ	ACCESS:   32353870	FORWARD:          0	MERGED:          0	TO_CACHE:   32353863
LLC WQ	ACCESS:   23207432	FORWARD:          9	MERGED:          0	TO_CACHE:   23207432
LLC PQ	ACCESS:   55302886	FORWARD:          0	MERGED:          0	TO_CACHE:   55302884

LLC Dense regions hint to LLC: 0

RAW hits: 0
Loads Generated: 78157918
Loads sent to L1D: 78157920
Stores Generated: 1940857
Stores sent to L1D: 1940856
Major fault: 0 Minor fault: 35029
Allocated PAGES: 213503

stream: 
stream:times selected: 14408428
stream:pref_filled: 6874896
stream:pref_useful: 6874063
stream:pref_late: 4020337
stream:misses: 2803
stream:misses_by_poll: 0

CS: 
CS:times selected: 13524689
CS:pref_filled: 17590
CS:pref_useful: 17590
CS:pref_late: 10355
CS:misses: 7245434
CS:misses_by_poll: 74

CPLX: 
CPLX:times selected: 883681
CPLX:pref_filled: 2758
CPLX:pref_useful: 2758
CPLX:pref_late: 2260
CPLX:misses: 559902
CPLX:misses_by_poll: 2

NL_L1: 
NL:times selected: 200
NL:pref_filled: 3
NL:pref_useful: 3
NL:pref_late: 6
NL:misses: 159
NL:misses_by_poll: 0

total selections: 28816998
total_filled: 6748428
total_useful: 6747622
total_late: 4040461
total_polluted: 76
total_misses_after_warmup: 7802632
conflicts: 332724
Degree Incremented Times: 7860921
Degree Decremented Times: 1069187

L1 IP Table Write Accesses: 953233946
L1 IP Table Read Accesses: 952901222
L1 RST Write Accesses: 116432205
L1 RST Read Accesses: 232864410
L1 CSPT Write Accesses: 116432205
L1 CSPT Read Accesses: 149665168
L1 RR Filter Tag Write Accesses: 317114490
L1 RR Filter Tag Read Accesses: 21081756145
L1 IP Table Tag Write Accesses: 953665493
L1 IP Table Tag Read Accesses: 953665493
L1 RST Tag Write Accesses: 0
L1 RST Tag Read Accesses: 1041808827
L1 RR Filter Write Accesses: 0
L1 RR Filter Read Accesses: 808369680
test: 21576127

stream: 
stream:times selected: 33655179
stream:pref_filled: 18143549
stream:pref_useful: 14945640
stream:pref_late: 959229
stream:misses: 3911
stream:misses_by_poll: 0

CS: 
CS:times selected: 32875354
CS:pref_filled: 89663
CS:pref_useful: 84749
CS:pref_late: 6881
CS:misses: 3994939
CS:misses_by_poll: 683

CPLX: 
CPLX:times selected: 779748
CPLX:pref_filled: 46046
CPLX:pref_useful: 32722
CPLX:pref_late: 2321
CPLX:misses: 113367
CPLX:misses_by_poll: 418

NL_L1: 
NL:times selected: 138
NL:pref_filled: 30
NL:pref_useful: 16
NL:pref_late: 12
NL:misses: 56
NL:misses_by_poll: 0

total selections: 67310419
total_filled: 17667800
total_useful: 14676607
total_late: 972979
total_polluted: 1101
total_misses_after_warmup: 4463811
conflicts: 332724
Degree Incremented Times: 7860921
Degree Decremented Times: 1069187

L1 IP Table Write Accesses: 953233946
L1 IP Table Read Accesses: 952901222
L1 RST Write Accesses: 116432205
L1 RST Read Accesses: 232864410
L1 CSPT Write Accesses: 116432205
L1 CSPT Read Accesses: 149665168
L1 RR Filter Tag Write Accesses: 317114490
L1 RR Filter Tag Read Accesses: 21081756145
L1 IP Table Tag Write Accesses: 953665493
L1 IP Table Tag Read Accesses: 953665493
L1 RST Tag Write Accesses: 0
L1 RST Tag Read Accesses: 1041808827
L1 RR Filter Write Accesses: 0
L1 RR Filter Read Accesses: 808369680
test: 21576127

stream: 
stream:times selected: 44750908
stream:pref_filled: 21235850
stream:pref_useful: 20020881
stream:pref_late: 2395786
stream:misses: 8474
stream:misses_by_poll: 0

CS: 
CS:times selected: 42799043
CS:pref_filled: 83547
CS:pref_useful: 80220
CS:pref_late: 21385
CS:misses: 7240943
CS:misses_by_poll: 767

CPLX: 
CPLX:times selected: 1951685
CPLX:pref_filled: 62989
CPLX:pref_useful: 49086
CPLX:pref_late: 4918
CPLX:misses: 299725
CPLX:misses_by_poll: 209

NL_L1: 
NL:times selected: 1091
NL:pref_filled: 34
NL:pref_useful: 34
NL:pref_late: 55
NL:misses: 293
NL:misses_by_poll: 0

total selections: 89502727
total_filled: 19960900
total_useful: 18804415
total_late: 2430443
total_polluted: 976
total_misses_after_warmup: 7640815
conflicts: 332724
Degree Incremented Times: 7860921
Degree Decremented Times: 1069187

L1 IP Table Write Accesses: 953233946
L1 IP Table Read Accesses: 952901222
L1 RST Write Accesses: 116432205
L1 RST Read Accesses: 232864410
L1 CSPT Write Accesses: 116432205
L1 CSPT Read Accesses: 149665168
L1 RR Filter Tag Write Accesses: 317114490
L1 RR Filter Tag Read Accesses: 21081756145
L1 IP Table Tag Write Accesses: 953665493
L1 IP Table Tag Read Accesses: 953665493
L1 RST Tag Write Accesses: 0
L1 RST Tag Read Accesses: 1041808827
L1 RR Filter Write Accesses: 0
L1 RR Filter Read Accesses: 808369680
test: 21576127

stream: 
stream:times selected: 32321381
stream:pref_filled: 15205053
stream:pref_useful: 486738
stream:pref_late: 37762
stream:misses: 4009501
stream:misses_by_poll: 0

CS: 
CS:times selected: 2978345
CS:pref_filled: 2145126
CS:pref_useful: 2079465
CS:pref_late: 58016
CS:misses: 328051
CS:misses_by_poll: 2773

CPLX: 
CPLX:times selected: 29043222
CPLX:pref_filled: 576706
CPLX:pref_useful: 19479
CPLX:pref_late: 1095
CPLX:misses: 12334391
CPLX:misses_by_poll: 366

NL_L1: 
NL:times selected: 56769
NL:pref_filled: 35428
NL:pref_useful: 1403
NL:pref_late: 152
NL:misses: 34388
NL:misses_by_poll: 0

total selections: 64399717
total_filled: 13280443
total_useful: 1989362
total_late: 99360
total_polluted: 3139
total_misses_after_warmup: 13159198
conflicts: 332724
Degree Incremented Times: 7860921
Degree Decremented Times: 1069187

L1 IP Table Write Accesses: 953233946
L1 IP Table Read Accesses: 952901222
L1 RST Write Accesses: 116432205
L1 RST Read Accesses: 232864410
L1 CSPT Write Accesses: 116432205
L1 CSPT Read Accesses: 149665168
L1 RR Filter Tag Write Accesses: 317114490
L1 RR Filter Tag Read Accesses: 21081756145
L1 IP Table Tag Write Accesses: 953665493
L1 IP Table Tag Read Accesses: 953665493
L1 RST Tag Write Accesses: 0
L1 RST Tag Read Accesses: 1041808827
L1 RR Filter Write Accesses: 0
L1 RR Filter Read Accesses: 808369680
test: 21576127

DRAM Statistics
 CHANNEL 0
 RQ ROW_BUFFER_HIT:   15035651  ROW_BUFFER_MISS:   61506703
 DBUS_CONGESTED:          1
 WQ ROW_BUFFER_HIT:    1524556  ROW_BUFFER_MISS:   21400901  FULL:        233

 AVG_CONGESTED_CYCLE: 7
 All warmup complete: 5
Channel 0 Bank busy for read cycles: 0
Channel 0 Bank busy for write cycles: 0
Channel 0
Rank 0
0banks busy for read cycles: 3219
0banks busy for write cycles: 0
1banks busy for read cycles: 2944491
1banks busy for write cycles: 2401267
2banks busy for read cycles: 5481204
2banks busy for write cycles: 2401266
3banks busy for read cycles: 11929503
3banks busy for write cycles: 2401266
4banks busy for read cycles: 24887760
4banks busy for write cycles: 2401680
5banks busy for read cycles: 51479171
5banks busy for write cycles: 2456843
6banks busy for read cycles: 113731694
6banks busy for write cycles: 5658642
7banks busy for read cycles: 305054723
7banks busy for write cycles: 78717837
8banks busy for read cycles: 964918926
8banks busy for write cycles: 542462580

CPU 0 Branch Prediction Accuracy: 99.9771% MPKI: 0.0789713 Average ROB Occupancy at Mispredict: 280.446
Branch types
NOT_BRANCH: 932326032 65.5173%
BRANCH_DIRECT_JUMP: 84 5.90293e-06%
BRANCH_INDIRECT: 0 0%
BRANCH_CONDITIONAL: 490696491 34.4827%
BRANCH_DIRECT_CALL: 36 2.52983e-06%
BRANCH_INDIRECT_CALL: 6 4.21638e-07%
BRANCH_RETURN: 48 3.3731e-06%
BRANCH_OTHER: 0 0%


CPU 1 Branch Prediction Accuracy: 99.8823% MPKI: 0.029231 Average ROB Occupancy at Mispredict: 293.197
Branch types
NOT_BRANCH: 2189213874 97.5049%
BRANCH_DIRECT_JUMP: 159233 0.00709204%
BRANCH_INDIRECT: 34 1.51432e-06%
BRANCH_CONDITIONAL: 55860201 2.48794%
BRANCH_DIRECT_CALL: 853 3.79916e-05%
BRANCH_INDIRECT_CALL: 12 5.34465e-07%
BRANCH_RETURN: 864 3.84815e-05%
BRANCH_OTHER: 0 0%


CPU 2 Branch Prediction Accuracy: 99.7719% MPKI: 0.0775764 Average ROB Occupancy at Mispredict: 272.624
Branch types
NOT_BRANCH: 962392245 96.5948%
BRANCH_DIRECT_JUMP: 5791 0.000581239%
BRANCH_INDIRECT: 0 0%
BRANCH_CONDITIONAL: 33920271 3.40456%
BRANCH_DIRECT_CALL: 544 5.4601e-05%
BRANCH_INDIRECT_CALL: 0 0%
BRANCH_RETURN: 544 5.4601e-05%
BRANCH_OTHER: 0 0%


CPU 3 Branch Prediction Accuracy: 95.9721% MPKI: 9.18259 Average ROB Occupancy at Mispredict: 56.5334
Branch types
NOT_BRANCH: 151939404 75.9697%
BRANCH_DIRECT_JUMP: 0 0%
BRANCH_INDIRECT: 0 0%
BRANCH_CONDITIONAL: 48060645 24.0303%
BRANCH_DIRECT_CALL: 0 0%
BRANCH_INDIRECT_CALL: 0 0%
BRANCH_RETURN: 0 0%
BRANCH_OTHER: 0 0%

DRAM PAGES: 1048576
Allocated PAGES: 213503
