
*** ChampSim Multicore Out-of-Order Simulator ***

Warmup Instructions: 50000000
Simulation Instructions: 200000000
Number of CPUs: 4
LLC sets: 8192
LLC ways: 16
Off-chip DRAM Size: 4096 MB Channels: 1 Width: 64-bit Data Rate: 6400 MT/s
CPU 0 runs ./traces/ligra/ligra_PageRank.com-lj.ungraph.gcc_6.3.0_O3.drop_60750M.length_250M.champsimtrace.xz
.xz
CPU 1 runs ./traces/spec/619.lbm_s-4268B.champsimtrace.xz
.xz
CPU 2 runs ./traces/spec/607.cactuBSSN_s-4004B.champsimtrace.xz
.xz
CPU 3 runs ./traces/ligra/ligra_PageRank.com-lj.ungraph.gcc_6.3.0_O3.drop_79500M.length_250M.champsimtrace.xz
.xz
BTB has LRU replacement policy
ITLB has LRU replacement policy
DTLB has LRU replacement policy
STLB has LRU replacement policy
L1I has LRU replacement policy
IP Table Entries: 1024
CSPT Entries: 128
RR_ENTRIES: 32
RST_ENTRIES: 8
L1D has LRU replacement policy
Initialize SRRIP state for L2C
Initialize DRRIP state for LLC
BTB has LRU replacement policy
ITLB has LRU replacement policy
DTLB has LRU replacement policy
STLB has LRU replacement policy
L1I has LRU replacement policy
IP Table Entries: 1024
CSPT Entries: 128
RR_ENTRIES: 32
RST_ENTRIES: 8
L1D has LRU replacement policy
Initialize SRRIP state for L2C
Initialize DRRIP state for LLC
BTB has LRU replacement policy
ITLB has LRU replacement policy
DTLB has LRU replacement policy
STLB has LRU replacement policy
L1I has LRU replacement policy
IP Table Entries: 1024
CSPT Entries: 128
RR_ENTRIES: 32
RST_ENTRIES: 8
L1D has LRU replacement policy
Initialize SRRIP state for L2C
Initialize DRRIP state for LLC
BTB has LRU replacement policy
ITLB has LRU replacement policy
DTLB has LRU replacement policy
STLB has LRU replacement policy
L1I has LRU replacement policy
IP Table Entries: 1024
CSPT Entries: 128
RR_ENTRIES: 32
RST_ENTRIES: 8
L1D has LRU replacement policy
Initialize SRRIP state for L2C
Initialize DRRIP state for LLC
Heartbeat CPU 1 instructions: 10000000 cycles: 2918438 heartbeat IPC: 3.42649 cumulative IPC: 3.42649 (Simulation time: 0 hr 4 min 41 sec) 
Heartbeat CPU 0 instructions: 10000000 cycles: 3428995 heartbeat IPC: 2.91631 cumulative IPC: 2.91631 (Simulation time: 0 hr 5 min 33 sec) 
Heartbeat CPU 3 instructions: 10000002 cycles: 3436983 heartbeat IPC: 2.90953 cumulative IPC: 2.90953 (Simulation time: 0 hr 5 min 33 sec) 
Heartbeat CPU 2 instructions: 10000001 cycles: 3619702 heartbeat IPC: 2.76266 cumulative IPC: 2.76266 (Simulation time: 0 hr 5 min 51 sec) 
Heartbeat CPU 1 instructions: 20000001 cycles: 5835558 heartbeat IPC: 3.42804 cumulative IPC: 3.42726 (Simulation time: 0 hr 9 min 25 sec) 
Heartbeat CPU 0 instructions: 20000002 cycles: 6834599 heartbeat IPC: 2.93634 cumulative IPC: 2.92629 (Simulation time: 0 hr 10 min 53 sec) 
Heartbeat CPU 3 instructions: 20000002 cycles: 6851210 heartbeat IPC: 2.92892 cumulative IPC: 2.91919 (Simulation time: 0 hr 10 min 54 sec) 
Heartbeat CPU 2 instructions: 20000001 cycles: 7234205 heartbeat IPC: 2.76663 cumulative IPC: 2.76464 (Simulation time: 0 hr 11 min 30 sec) 
Heartbeat CPU 1 instructions: 30000000 cycles: 8748876 heartbeat IPC: 3.43251 cumulative IPC: 3.42901 (Simulation time: 0 hr 13 min 53 sec) 
Heartbeat CPU 0 instructions: 30000000 cycles: 10243552 heartbeat IPC: 2.93345 cumulative IPC: 2.92867 (Simulation time: 0 hr 16 min 9 sec) 
Heartbeat CPU 3 instructions: 30000001 cycles: 10298334 heartbeat IPC: 2.90097 cumulative IPC: 2.91309 (Simulation time: 0 hr 16 min 14 sec) 
Heartbeat CPU 2 instructions: 30000003 cycles: 10846084 heartbeat IPC: 2.76864 cumulative IPC: 2.76598 (Simulation time: 0 hr 17 min 6 sec) 
Heartbeat CPU 1 instructions: 40000000 cycles: 11667860 heartbeat IPC: 3.42585 cumulative IPC: 3.42822 (Simulation time: 0 hr 18 min 17 sec) 
Heartbeat CPU 0 instructions: 40000000 cycles: 13645374 heartbeat IPC: 2.9396 cumulative IPC: 2.9314 (Simulation time: 0 hr 21 min 25 sec) 
Heartbeat CPU 3 instructions: 40000002 cycles: 13752681 heartbeat IPC: 2.8949 cumulative IPC: 2.90852 (Simulation time: 0 hr 21 min 36 sec) 
Heartbeat CPU 2 instructions: 40000002 cycles: 14460923 heartbeat IPC: 2.76637 cumulative IPC: 2.76608 (Simulation time: 0 hr 22 min 44 sec) 
Heartbeat CPU 1 instructions: 50000002 cycles: 14587943 heartbeat IPC: 3.42456 cumulative IPC: 3.42749 (Simulation time: 0 hr 22 min 57 sec) 
Heartbeat CPU 0 instructions: 50000000 cycles: 17030608 heartbeat IPC: 2.95401 cumulative IPC: 2.93589 (Simulation time: 0 hr 26 min 25 sec) 
Heartbeat CPU 3 instructions: 50000000 cycles: 17210265 heartbeat IPC: 2.89219 cumulative IPC: 2.90524 (Simulation time: 0 hr 26 min 38 sec) 
Heartbeat CPU 1 instructions: 60000002 cycles: 17515895 heartbeat IPC: 3.41536 cumulative IPC: 0.57091 (Simulation time: 0 hr 26 min 58 sec) 
Heartbeat CPU 2 instructions: 50000002 cycles: 18071594 heartbeat IPC: 2.76957 cumulative IPC: 2.76677 (Simulation time: 0 hr 27 min 32 sec) 

Warmup complete CPU 0 instructions: 52623697 cycles: 18071594 (Simulation time: 0 hr 27 min 32 sec) 
Warmup complete CPU 1 instructions: 61903817 cycles: 18071594 (Simulation time: 0 hr 27 min 32 sec) 
Warmup complete CPU 2 instructions: 50000002 cycles: 18071594 (Simulation time: 0 hr 27 min 32 sec) 
Warmup complete CPU 3 instructions: 52398448 cycles: 18071593 (Simulation time: 0 hr 27 min 32 sec) 

Heartbeat CPU 2 instructions: 60000002 cycles: 32762205 heartbeat IPC: 0.680707 cumulative IPC: 0.680707 (Simulation time: 0 hr 30 min 37 sec) 
Heartbeat CPU 1 instructions: 70000000 cycles: 43564885 heartbeat IPC: 0.383892 cumulative IPC: 0.317581 (Simulation time: 0 hr 32 min 46 sec) 
Heartbeat CPU 2 instructions: 70000003 cycles: 46768395 heartbeat IPC: 0.71397 cumulative IPC: 0.696942 (Simulation time: 0 hr 33 min 19 sec) 
Heartbeat CPU 2 instructions: 80000002 cycles: 61642047 heartbeat IPC: 0.67233 cumulative IPC: 0.68854 (Simulation time: 0 hr 36 min 26 sec) 
Heartbeat CPU 1 instructions: 80000000 cycles: 75059336 heartbeat IPC: 0.317516 cumulative IPC: 0.317545 (Simulation time: 0 hr 39 min 12 sec) 
Heartbeat CPU 2 instructions: 90000003 cycles: 75425125 heartbeat IPC: 0.725527 cumulative IPC: 0.697429 (Simulation time: 0 hr 39 min 15 sec) 
Heartbeat CPU 2 instructions: 100000001 cycles: 89242593 heartbeat IPC: 0.723721 cumulative IPC: 0.702533 (Simulation time: 0 hr 42 min 0 sec) 
Heartbeat CPU 2 instructions: 110000000 cycles: 103286549 heartbeat IPC: 0.71205 cumulative IPC: 0.704102 (Simulation time: 0 hr 44 min 46 sec) 
Heartbeat CPU 1 instructions: 90000001 cycles: 106895400 heartbeat IPC: 0.314109 cumulative IPC: 0.316314 (Simulation time: 0 hr 45 min 23 sec) 
Heartbeat CPU 3 instructions: 60000003 cycles: 109604937 heartbeat IPC: 0.108231 cumulative IPC: 0.0830468 (Simulation time: 0 hr 45 min 52 sec) 
Heartbeat CPU 2 instructions: 120000001 cycles: 117057261 heartbeat IPC: 0.726179 cumulative IPC: 0.707173 (Simulation time: 0 hr 47 min 27 sec) 
Heartbeat CPU 0 instructions: 60000001 cycles: 129920525 heartbeat IPC: 0.0885819 cumulative IPC: 0.0659488 (Simulation time: 0 hr 50 min 9 sec) 
Heartbeat CPU 2 instructions: 130000000 cycles: 130537123 heartbeat IPC: 0.741847 cumulative IPC: 0.711329 (Simulation time: 0 hr 50 min 17 sec) 
Heartbeat CPU 1 instructions: 100000001 cycles: 138188445 heartbeat IPC: 0.31956 cumulative IPC: 0.317159 (Simulation time: 0 hr 51 min 55 sec) 
Heartbeat CPU 2 instructions: 140000002 cycles: 144053408 heartbeat IPC: 0.739848 cumulative IPC: 0.714389 (Simulation time: 0 hr 53 min 9 sec) 
Heartbeat CPU 2 instructions: 150000002 cycles: 157840795 heartbeat IPC: 0.725301 cumulative IPC: 0.715465 (Simulation time: 0 hr 56 min 6 sec) 
Heartbeat CPU 1 instructions: 110000000 cycles: 169909769 heartbeat IPC: 0.315245 cumulative IPC: 0.316759 (Simulation time: 0 hr 58 min 21 sec) 
Heartbeat CPU 2 instructions: 160000003 cycles: 171790758 heartbeat IPC: 0.716848 cumulative IPC: 0.715591 (Simulation time: 0 hr 58 min 47 sec) 
Heartbeat CPU 0 instructions: 70000001 cycles: 171903421 heartbeat IPC: 0.238192 cumulative IPC: 0.112956 (Simulation time: 0 hr 58 min 49 sec) 
Heartbeat CPU 2 instructions: 170000000 cycles: 185781604 heartbeat IPC: 0.714753 cumulative IPC: 0.715521 (Simulation time: 1 hr 1 min 55 sec) 
Heartbeat CPU 2 instructions: 180000001 cycles: 199620373 heartbeat IPC: 0.722608 cumulative IPC: 0.716061 (Simulation time: 1 hr 5 min 11 sec) 
Heartbeat CPU 1 instructions: 120000001 cycles: 202696978 heartbeat IPC: 0.304997 cumulative IPC: 0.314671 (Simulation time: 1 hr 5 min 51 sec) 
Heartbeat CPU 0 instructions: 80000001 cycles: 209659171 heartbeat IPC: 0.26486 cumulative IPC: 0.142892 (Simulation time: 1 hr 7 min 29 sec) 
Heartbeat CPU 2 instructions: 190000002 cycles: 213817602 heartbeat IPC: 0.704363 cumulative IPC: 0.715213 (Simulation time: 1 hr 8 min 25 sec) 
Heartbeat CPU 2 instructions: 200000003 cycles: 227859121 heartbeat IPC: 0.712174 cumulative IPC: 0.715009 (Simulation time: 1 hr 11 min 31 sec) 
Heartbeat CPU 1 instructions: 130000001 cycles: 234531266 heartbeat IPC: 0.314127 cumulative IPC: 0.314591 (Simulation time: 1 hr 12 min 57 sec) 
Heartbeat CPU 2 instructions: 210000001 cycles: 241620232 heartbeat IPC: 0.726685 cumulative IPC: 0.715728 (Simulation time: 1 hr 14 min 33 sec) 
Heartbeat CPU 3 instructions: 70000002 cycles: 246535814 heartbeat IPC: 0.0730295 cumulative IPC: 0.0770429 (Simulation time: 1 hr 15 min 39 sec) 
Heartbeat CPU 0 instructions: 90000001 cycles: 247539355 heartbeat IPC: 0.26399 cumulative IPC: 0.162883 (Simulation time: 1 hr 15 min 53 sec) 
Heartbeat CPU 2 instructions: 220000000 cycles: 255549901 heartbeat IPC: 0.717892 cumulative IPC: 0.715855 (Simulation time: 1 hr 17 min 34 sec) 
Heartbeat CPU 1 instructions: 140000003 cycles: 266698073 heartbeat IPC: 0.31088 cumulative IPC: 0.31411 (Simulation time: 1 hr 19 min 43 sec) 
Heartbeat CPU 2 instructions: 230000000 cycles: 269167341 heartbeat IPC: 0.734352 cumulative IPC: 0.716858 (Simulation time: 1 hr 20 min 10 sec) 
Heartbeat CPU 2 instructions: 240000001 cycles: 283579948 heartbeat IPC: 0.693837 cumulative IPC: 0.715608 (Simulation time: 1 hr 23 min 11 sec) 
Heartbeat CPU 0 instructions: 100000001 cycles: 287963357 heartbeat IPC: 0.247378 cumulative IPC: 0.175538 (Simulation time: 1 hr 24 min 8 sec) 
Heartbeat CPU 2 instructions: 250000000 cycles: 297310654 heartbeat IPC: 0.728295 cumulative IPC: 0.716232 (Simulation time: 1 hr 26 min 6 sec) 
Finished CPU 2 instructions: 200000002 cycles: 279239061 cumulative IPC: 0.716232 (Simulation time: 1 hr 26 min 6 sec) 
Heartbeat CPU 1 instructions: 150000001 cycles: 299813468 heartbeat IPC: 0.301974 cumulative IPC: 0.312684 (Simulation time: 1 hr 26 min 42 sec) 
Heartbeat CPU 2 instructions: 260000002 cycles: 311173515 heartbeat IPC: 0.721352 cumulative IPC: 0.716474 (Simulation time: 1 hr 29 min 10 sec) 
Heartbeat CPU 2 instructions: 270000001 cycles: 325147860 heartbeat IPC: 0.715597 cumulative IPC: 0.716434 (Simulation time: 1 hr 31 min 51 sec) 
Heartbeat CPU 1 instructions: 160000002 cycles: 334672904 heartbeat IPC: 0.286866 cumulative IPC: 0.309841 (Simulation time: 1 hr 33 min 44 sec) 
Heartbeat CPU 2 instructions: 280000002 cycles: 339046086 heartbeat IPC: 0.719516 cumulative IPC: 0.716568 (Simulation time: 1 hr 34 min 38 sec) 
Heartbeat CPU 2 instructions: 290000003 cycles: 353317711 heartbeat IPC: 0.700691 cumulative IPC: 0.715892 (Simulation time: 1 hr 37 min 47 sec) 
Heartbeat CPU 0 instructions: 110000000 cycles: 363690798 heartbeat IPC: 0.132053 cumulative IPC: 0.16601 (Simulation time: 1 hr 39 min 53 sec) 
Heartbeat CPU 2 instructions: 300000002 cycles: 367510176 heartbeat IPC: 0.704599 cumulative IPC: 0.715433 (Simulation time: 1 hr 40 min 40 sec) 
Heartbeat CPU 1 instructions: 170000002 cycles: 369300236 heartbeat IPC: 0.288789 cumulative IPC: 0.307766 (Simulation time: 1 hr 41 min 5 sec) 
Heartbeat CPU 2 instructions: 310000000 cycles: 381523443 heartbeat IPC: 0.713609 cumulative IPC: 0.715363 (Simulation time: 1 hr 43 min 43 sec) 
Heartbeat CPU 2 instructions: 320000000 cycles: 395496469 heartbeat IPC: 0.715665 cumulative IPC: 0.715374 (Simulation time: 1 hr 46 min 48 sec) 
Heartbeat CPU 3 instructions: 80000000 cycles: 403130986 heartbeat IPC: 0.0638589 cumulative IPC: 0.0716813 (Simulation time: 1 hr 48 min 30 sec) 
Heartbeat CPU 1 instructions: 180000003 cycles: 403687389 heartbeat IPC: 0.290806 cumulative IPC: 0.306253 (Simulation time: 1 hr 48 min 38 sec) 
Heartbeat CPU 2 instructions: 330000000 cycles: 409540755 heartbeat IPC: 0.712033 cumulative IPC: 0.715254 (Simulation time: 1 hr 49 min 52 sec) 
Heartbeat CPU 2 instructions: 340000000 cycles: 423463535 heartbeat IPC: 0.718247 cumulative IPC: 0.715357 (Simulation time: 1 hr 52 min 20 sec) 
Heartbeat CPU 2 instructions: 350000000 cycles: 437251879 heartbeat IPC: 0.72525 cumulative IPC: 0.715683 (Simulation time: 1 hr 55 min 6 sec) 
Heartbeat CPU 1 instructions: 190000003 cycles: 438496178 heartbeat IPC: 0.287284 cumulative IPC: 0.304683 (Simulation time: 1 hr 55 min 20 sec) 
Heartbeat CPU 2 instructions: 360000000 cycles: 451112605 heartbeat IPC: 0.721463 cumulative IPC: 0.715868 (Simulation time: 1 hr 58 min 10 sec) 
Heartbeat CPU 2 instructions: 370000002 cycles: 464965799 heartbeat IPC: 0.721855 cumulative IPC: 0.716053 (Simulation time: 2 hr 0 min 58 sec) 
Heartbeat CPU 0 instructions: 120000003 cycles: 467948323 heartbeat IPC: 0.0959164 cumulative IPC: 0.149766 (Simulation time: 2 hr 1 min 34 sec) 
Heartbeat CPU 1 instructions: 200000002 cycles: 473345830 heartbeat IPC: 0.286947 cumulative IPC: 0.303325 (Simulation time: 2 hr 2 min 43 sec) 
Heartbeat CPU 2 instructions: 380000000 cycles: 478992162 heartbeat IPC: 0.712943 cumulative IPC: 0.715958 (Simulation time: 2 hr 3 min 46 sec) 
Heartbeat CPU 2 instructions: 390000002 cycles: 494143332 heartbeat IPC: 0.660015 cumulative IPC: 0.714178 (Simulation time: 2 hr 6 min 43 sec) 
Heartbeat CPU 2 instructions: 400000003 cycles: 507081016 heartbeat IPC: 0.772936 cumulative IPC: 0.715733 (Simulation time: 2 hr 9 min 28 sec) 
Heartbeat CPU 1 instructions: 210000003 cycles: 507237261 heartbeat IPC: 0.29506 cumulative IPC: 0.302753 (Simulation time: 2 hr 9 min 30 sec) 
Heartbeat CPU 2 instructions: 410000003 cycles: 519998725 heartbeat IPC: 0.774131 cumulative IPC: 0.717236 (Simulation time: 2 hr 12 min 20 sec) 
Heartbeat CPU 2 instructions: 420000001 cycles: 532801689 heartbeat IPC: 0.781069 cumulative IPC: 0.718823 (Simulation time: 2 hr 15 min 19 sec) 
Heartbeat CPU 1 instructions: 220000000 cycles: 537295229 heartbeat IPC: 0.33269 cumulative IPC: 0.304486 (Simulation time: 2 hr 16 min 22 sec) 
Heartbeat CPU 3 instructions: 90000002 cycles: 538271628 heartbeat IPC: 0.073997 cumulative IPC: 0.0722829 (Simulation time: 2 hr 16 min 42 sec) 
Heartbeat CPU 2 instructions: 430000001 cycles: 545556552 heartbeat IPC: 0.784015 cumulative IPC: 0.7204 (Simulation time: 2 hr 18 min 27 sec) 
Heartbeat CPU 2 instructions: 440000000 cycles: 558410991 heartbeat IPC: 0.777941 cumulative IPC: 0.721769 (Simulation time: 2 hr 21 min 24 sec) 
Heartbeat CPU 1 instructions: 230000000 cycles: 566721511 heartbeat IPC: 0.339832 cumulative IPC: 0.306381 (Simulation time: 2 hr 23 min 19 sec) 
Heartbeat CPU 2 instructions: 450000002 cycles: 571181967 heartbeat IPC: 0.783026 cumulative IPC: 0.723183 (Simulation time: 2 hr 24 min 23 sec) 
Heartbeat CPU 2 instructions: 460000002 cycles: 583915612 heartbeat IPC: 0.785321 cumulative IPC: 0.724581 (Simulation time: 2 hr 27 min 15 sec) 
Heartbeat CPU 0 instructions: 130000000 cycles: 585537272 heartbeat IPC: 0.085042 cumulative IPC: 0.136354 (Simulation time: 2 hr 27 min 39 sec) 
Heartbeat CPU 1 instructions: 240000002 cycles: 596098485 heartbeat IPC: 0.340403 cumulative IPC: 0.308111 (Simulation time: 2 hr 30 min 9 sec) 
Heartbeat CPU 2 instructions: 470000003 cycles: 596450003 heartbeat IPC: 0.797805 cumulative IPC: 0.726168 (Simulation time: 2 hr 30 min 13 sec) 
Heartbeat CPU 2 instructions: 480000000 cycles: 609248183 heartbeat IPC: 0.781361 cumulative IPC: 0.727363 (Simulation time: 2 hr 32 min 52 sec) 
Heartbeat CPU 2 instructions: 490000001 cycles: 622308004 heartbeat IPC: 0.765707 cumulative IPC: 0.728192 (Simulation time: 2 hr 35 min 54 sec) 
Heartbeat CPU 1 instructions: 250000001 cycles: 625178018 heartbeat IPC: 0.343884 cumulative IPC: 0.309824 (Simulation time: 2 hr 36 min 35 sec) 
Heartbeat CPU 2 instructions: 500000001 cycles: 635330063 heartbeat IPC: 0.767928 cumulative IPC: 0.72903 (Simulation time: 2 hr 38 min 47 sec) 
Heartbeat CPU 3 instructions: 100000002 cycles: 637122065 heartbeat IPC: 0.101163 cumulative IPC: 0.0768945 (Simulation time: 2 hr 39 min 11 sec) 
Heartbeat CPU 2 instructions: 510000002 cycles: 648355572 heartbeat IPC: 0.767724 cumulative IPC: 0.72983 (Simulation time: 2 hr 41 min 33 sec) 
Heartbeat CPU 1 instructions: 260000002 cycles: 653985581 heartbeat IPC: 0.347131 cumulative IPC: 0.311514 (Simulation time: 2 hr 42 min 45 sec) 
Finished CPU 1 instructions: 200000002 cycles: 641227986 cumulative IPC: 0.311902 (Simulation time: 2 hr 43 min 43 sec) 
Heartbeat CPU 2 instructions: 520000003 cycles: 661500727 heartbeat IPC: 0.760737 cumulative IPC: 0.730461 (Simulation time: 2 hr 44 min 10 sec) 
Heartbeat CPU 2 instructions: 530000000 cycles: 674633805 heartbeat IPC: 0.761436 cumulative IPC: 0.731081 (Simulation time: 2 hr 47 min 9 sec) 
Heartbeat CPU 1 instructions: 270000002 cycles: 682776393 heartbeat IPC: 0.347333 cumulative IPC: 0.313066 (Simulation time: 2 hr 48 min 56 sec) 
Heartbeat CPU 2 instructions: 540000000 cycles: 688561868 heartbeat IPC: 0.717975 cumulative IPC: 0.730808 (Simulation time: 2 hr 50 min 13 sec) 
Heartbeat CPU 2 instructions: 550000000 cycles: 701546583 heartbeat IPC: 0.770136 cumulative IPC: 0.731556 (Simulation time: 2 hr 52 min 53 sec) 
Heartbeat CPU 0 instructions: 140000000 cycles: 705110233 heartbeat IPC: 0.0836309 cumulative IPC: 0.127178 (Simulation time: 2 hr 53 min 40 sec) 
Heartbeat CPU 1 instructions: 280000002 cycles: 715399124 heartbeat IPC: 0.306535 cumulative IPC: 0.31276 (Simulation time: 2 hr 56 min 25 sec) 
Heartbeat CPU 2 instructions: 560000003 cycles: 718018329 heartbeat IPC: 0.6071 cumulative IPC: 0.728627 (Simulation time: 2 hr 57 min 8 sec) 
Heartbeat CPU 0 instructions: 150000002 cycles: 723594031 heartbeat IPC: 0.541014 cumulative IPC: 0.13802 (Simulation time: 2 hr 58 min 42 sec) 
Heartbeat CPU 2 instructions: 570000003 cycles: 735817539 heartbeat IPC: 0.561823 cumulative IPC: 0.72449 (Simulation time: 3 hr 2 min 5 sec) 
Heartbeat CPU 0 instructions: 160000002 cycles: 742635222 heartbeat IPC: 0.525177 cumulative IPC: 0.148194 (Simulation time: 3 hr 3 min 58 sec) 
Heartbeat CPU 2 instructions: 580000000 cycles: 753797835 heartbeat IPC: 0.556164 cumulative IPC: 0.720377 (Simulation time: 3 hr 7 min 3 sec) 
Heartbeat CPU 0 instructions: 170000001 cycles: 761250443 heartbeat IPC: 0.537195 cumulative IPC: 0.157938 (Simulation time: 3 hr 8 min 37 sec) 
Heartbeat CPU 1 instructions: 290000000 cycles: 762470304 heartbeat IPC: 0.212444 cumulative IPC: 0.306417 (Simulation time: 3 hr 8 min 53 sec) 
Heartbeat CPU 2 instructions: 590000000 cycles: 768469094 heartbeat IPC: 0.681605 cumulative IPC: 0.719619 (Simulation time: 3 hr 10 min 8 sec) 
Heartbeat CPU 0 instructions: 180000001 cycles: 779025954 heartbeat IPC: 0.562572 cumulative IPC: 0.16739 (Simulation time: 3 hr 12 min 38 sec) 
Heartbeat CPU 2 instructions: 600000003 cycles: 782444746 heartbeat IPC: 0.71553 cumulative IPC: 0.719544 (Simulation time: 3 hr 13 min 37 sec) 
Heartbeat CPU 1 instructions: 300000003 cycles: 792381247 heartbeat IPC: 0.334326 cumulative IPC: 0.307495 (Simulation time: 3 hr 16 min 31 sec) 
Heartbeat CPU 0 instructions: 190000001 cycles: 793190313 heartbeat IPC: 0.705997 cumulative IPC: 0.177233 (Simulation time: 3 hr 16 min 46 sec) 
Heartbeat CPU 3 instructions: 110000000 cycles: 794213194 heartbeat IPC: 0.0636573 cumulative IPC: 0.0742153 (Simulation time: 3 hr 17 min 3 sec) 
Heartbeat CPU 2 instructions: 610000001 cycles: 795845242 heartbeat IPC: 0.746241 cumulative IPC: 0.720004 (Simulation time: 3 hr 17 min 32 sec) 
Heartbeat CPU 0 instructions: 200000003 cycles: 808811609 heartbeat IPC: 0.640152 cumulative IPC: 0.186378 (Simulation time: 3 hr 21 min 17 sec) 
Heartbeat CPU 2 instructions: 620000002 cycles: 809388652 heartbeat IPC: 0.738367 cumulative IPC: 0.720318 (Simulation time: 3 hr 21 min 25 sec) 
Heartbeat CPU 1 instructions: 310000001 cycles: 822017354 heartbeat IPC: 0.337426 cumulative IPC: 0.308598 (Simulation time: 3 hr 24 min 52 sec) 
Heartbeat CPU 2 instructions: 630000000 cycles: 823075386 heartbeat IPC: 0.730634 cumulative IPC: 0.720493 (Simulation time: 3 hr 25 min 10 sec) 
Heartbeat CPU 0 instructions: 210000002 cycles: 827686368 heartbeat IPC: 0.529808 cumulative IPC: 0.194384 (Simulation time: 3 hr 26 min 13 sec) 
Heartbeat CPU 2 instructions: 640000000 cycles: 836816857 heartbeat IPC: 0.727724 cumulative IPC: 0.720615 (Simulation time: 3 hr 28 min 47 sec) 
Heartbeat CPU 0 instructions: 220000000 cycles: 844046513 heartbeat IPC: 0.611241 cumulative IPC: 0.202641 (Simulation time: 3 hr 30 min 55 sec) 
Heartbeat CPU 2 instructions: 650000000 cycles: 850771596 heartbeat IPC: 0.716602 cumulative IPC: 0.720548 (Simulation time: 3 hr 32 min 52 sec) 
Heartbeat CPU 1 instructions: 320000000 cycles: 851240427 heartbeat IPC: 0.342195 cumulative IPC: 0.309777 (Simulation time: 3 hr 32 min 59 sec) 
Heartbeat CPU 0 instructions: 230000001 cycles: 861756958 heartbeat IPC: 0.564639 cumulative IPC: 0.21024 (Simulation time: 3 hr 36 min 4 sec) 
Heartbeat CPU 2 instructions: 660000000 cycles: 864554981 heartbeat IPC: 0.725511 cumulative IPC: 0.720628 (Simulation time: 3 hr 36 min 51 sec) 
Heartbeat CPU 2 instructions: 670000001 cycles: 878613475 heartbeat IPC: 0.711314 cumulative IPC: 0.720476 (Simulation time: 3 hr 40 min 59 sec) 
Heartbeat CPU 0 instructions: 240000003 cycles: 879125022 heartbeat IPC: 0.57577 cumulative IPC: 0.217613 (Simulation time: 3 hr 41 min 9 sec) 
Heartbeat CPU 1 instructions: 330000000 cycles: 880395226 heartbeat IPC: 0.342997 cumulative IPC: 0.3109 (Simulation time: 3 hr 41 min 31 sec) 
Heartbeat CPU 2 instructions: 680000003 cycles: 892566143 heartbeat IPC: 0.716709 cumulative IPC: 0.720416 (Simulation time: 3 hr 45 min 3 sec) 
*** Reached end of trace for Core: 0 Repeating trace: ./traces/ligra/ligra_PageRank.com-lj.ungraph.gcc_6.3.0_O3.drop_60750M.length_250M.champsimtrace.xz
Heartbeat CPU 0 instructions: 250000002 cycles: 902765076 heartbeat IPC: 0.423011 cumulative IPC: 0.223101 (Simulation time: 3 hr 47 min 31 sec) 
Heartbeat CPU 2 instructions: 690000001 cycles: 907500096 heartbeat IPC: 0.669615 cumulative IPC: 0.719563 (Simulation time: 3 hr 48 min 29 sec) 
Heartbeat CPU 1 instructions: 340000002 cycles: 909952604 heartbeat IPC: 0.338325 cumulative IPC: 0.311809 (Simulation time: 3 hr 49 min 1 sec) 
Heartbeat CPU 2 instructions: 700000000 cycles: 921491167 heartbeat IPC: 0.714741 cumulative IPC: 0.719489 (Simulation time: 3 hr 51 min 34 sec) 
Heartbeat CPU 2 instructions: 710000003 cycles: 934917732 heartbeat IPC: 0.744792 cumulative IPC: 0.719859 (Simulation time: 3 hr 54 min 35 sec) 
Heartbeat CPU 3 instructions: 120000001 cycles: 939358674 heartbeat IPC: 0.0688964 cumulative IPC: 0.0733773 (Simulation time: 3 hr 55 min 29 sec) 
Heartbeat CPU 1 instructions: 350000001 cycles: 940938209 heartbeat IPC: 0.32273 cumulative IPC: 0.312175 (Simulation time: 3 hr 55 min 51 sec) 
Finished CPU 0 instructions: 200000000 cycles: 928524112 cumulative IPC: 0.215396 (Simulation time: 3 hr 57 min 5 sec) 
Heartbeat CPU 2 instructions: 720000000 cycles: 948403980 heartbeat IPC: 0.741496 cumulative IPC: 0.720173 (Simulation time: 3 hr 57 min 29 sec) 
Heartbeat CPU 2 instructions: 730000000 cycles: 961905052 heartbeat IPC: 0.740682 cumulative IPC: 0.720466 (Simulation time: 4 hr 0 min 11 sec) 
Heartbeat CPU 1 instructions: 360000002 cycles: 972775924 heartbeat IPC: 0.314093 cumulative IPC: 0.312239 (Simulation time: 4 hr 2 min 38 sec) 
Heartbeat CPU 2 instructions: 740000001 cycles: 975864190 heartbeat IPC: 0.716377 cumulative IPC: 0.720406 (Simulation time: 4 hr 3 min 19 sec) 
Heartbeat CPU 2 instructions: 750000000 cycles: 989073973 heartbeat IPC: 0.757015 cumulative IPC: 0.720905 (Simulation time: 4 hr 6 min 10 sec) 
Heartbeat CPU 2 instructions: 760000003 cycles: 1002698736 heartbeat IPC: 0.733958 cumulative IPC: 0.721085 (Simulation time: 4 hr 8 min 54 sec) 
Heartbeat CPU 1 instructions: 370000002 cycles: 1003801344 heartbeat IPC: 0.322316 cumulative IPC: 0.312556 (Simulation time: 4 hr 9 min 11 sec) 
Heartbeat CPU 2 instructions: 770000000 cycles: 1015898388 heartbeat IPC: 0.757595 cumulative IPC: 0.721568 (Simulation time: 4 hr 11 min 47 sec) 
Heartbeat CPU 2 instructions: 780000000 cycles: 1029540435 heartbeat IPC: 0.733028 cumulative IPC: 0.721723 (Simulation time: 4 hr 14 min 42 sec) 
Heartbeat CPU 1 instructions: 380000001 cycles: 1035506283 heartbeat IPC: 0.315408 cumulative IPC: 0.312645 (Simulation time: 4 hr 15 min 59 sec) 
Heartbeat CPU 2 instructions: 790000003 cycles: 1042743635 heartbeat IPC: 0.757392 cumulative IPC: 0.722182 (Simulation time: 4 hr 17 min 29 sec) 
Heartbeat CPU 0 instructions: 260000003 cycles: 1048988426 heartbeat IPC: 0.0683885 cumulative IPC: 0.201157 (Simulation time: 4 hr 18 min 42 sec) 
Heartbeat CPU 2 instructions: 800000000 cycles: 1056336842 heartbeat IPC: 0.735661 cumulative IPC: 0.722359 (Simulation time: 4 hr 20 min 14 sec) 
Heartbeat CPU 1 instructions: 390000000 cycles: 1066817471 heartbeat IPC: 0.319375 cumulative IPC: 0.312846 (Simulation time: 4 hr 22 min 20 sec) 
Heartbeat CPU 2 instructions: 810000001 cycles: 1069873525 heartbeat IPC: 0.738733 cumulative IPC: 0.72257 (Simulation time: 4 hr 23 min 1 sec) 
Heartbeat CPU 2 instructions: 820000000 cycles: 1083492497 heartbeat IPC: 0.73427 cumulative IPC: 0.722719 (Simulation time: 4 hr 25 min 44 sec) 
Heartbeat CPU 3 instructions: 130000000 cycles: 1087635610 heartbeat IPC: 0.0674414 cumulative IPC: 0.0725544 (Simulation time: 4 hr 26 min 37 sec) 
Heartbeat CPU 2 instructions: 830000000 cycles: 1096995961 heartbeat IPC: 0.740551 cumulative IPC: 0.722942 (Simulation time: 4 hr 28 min 37 sec) 
Heartbeat CPU 1 instructions: 400000001 cycles: 1097834338 heartbeat IPC: 0.322405 cumulative IPC: 0.313121 (Simulation time: 4 hr 28 min 48 sec) 
Heartbeat CPU 2 instructions: 840000002 cycles: 1111309610 heartbeat IPC: 0.698634 cumulative IPC: 0.722624 (Simulation time: 4 hr 31 min 45 sec) 
Heartbeat CPU 2 instructions: 850000003 cycles: 1125090653 heartbeat IPC: 0.725635 cumulative IPC: 0.722661 (Simulation time: 4 hr 34 min 37 sec) 
Heartbeat CPU 1 instructions: 410000002 cycles: 1129427014 heartbeat IPC: 0.316529 cumulative IPC: 0.313218 (Simulation time: 4 hr 35 min 27 sec) 
Heartbeat CPU 2 instructions: 860000003 cycles: 1138861111 heartbeat IPC: 0.726192 cumulative IPC: 0.722705 (Simulation time: 4 hr 37 min 15 sec) 
Heartbeat CPU 2 instructions: 870000002 cycles: 1152649937 heartbeat IPC: 0.725225 cumulative IPC: 0.722735 (Simulation time: 4 hr 39 min 56 sec) 
Heartbeat CPU 1 instructions: 420000002 cycles: 1160882024 heartbeat IPC: 0.317914 cumulative IPC: 0.313347 (Simulation time: 4 hr 41 min 30 sec) 
Heartbeat CPU 2 instructions: 880000000 cycles: 1166446049 heartbeat IPC: 0.724842 cumulative IPC: 0.722761 (Simulation time: 4 hr 42 min 43 sec) 
Heartbeat CPU 2 instructions: 890000003 cycles: 1180303365 heartbeat IPC: 0.721641 cumulative IPC: 0.722747 (Simulation time: 4 hr 45 min 36 sec) 
Heartbeat CPU 1 instructions: 430000000 cycles: 1193008944 heartbeat IPC: 0.311265 cumulative IPC: 0.31329 (Simulation time: 4 hr 48 min 10 sec) 
Heartbeat CPU 2 instructions: 900000002 cycles: 1194014724 heartbeat IPC: 0.729322 cumulative IPC: 0.722824 (Simulation time: 4 hr 48 min 23 sec) 
Heartbeat CPU 2 instructions: 910000002 cycles: 1207749476 heartbeat IPC: 0.72808 cumulative IPC: 0.722885 (Simulation time: 4 hr 51 min 10 sec) 
Heartbeat CPU 0 instructions: 270000000 cycles: 1211275335 heartbeat IPC: 0.0616192 cumulative IPC: 0.182179 (Simulation time: 4 hr 51 min 59 sec) 
Heartbeat CPU 2 instructions: 920000001 cycles: 1221281672 heartbeat IPC: 0.738978 cumulative IPC: 0.723066 (Simulation time: 4 hr 54 min 15 sec) 
Heartbeat CPU 1 instructions: 440000000 cycles: 1224827684 heartbeat IPC: 0.31428 cumulative IPC: 0.313316 (Simulation time: 4 hr 54 min 55 sec) 
Heartbeat CPU 2 instructions: 930000000 cycles: 1235001596 heartbeat IPC: 0.728867 cumulative IPC: 0.723131 (Simulation time: 4 hr 56 min 59 sec) 
Heartbeat CPU 3 instructions: 140000002 cycles: 1244106485 heartbeat IPC: 0.0639097 cumulative IPC: 0.0714511 (Simulation time: 4 hr 58 min 56 sec) 
Heartbeat CPU 2 instructions: 940000001 cycles: 1248465080 heartbeat IPC: 0.74275 cumulative IPC: 0.723346 (Simulation time: 4 hr 59 min 49 sec) 
Heartbeat CPU 1 instructions: 450000000 cycles: 1255605289 heartbeat IPC: 0.324912 cumulative IPC: 0.313605 (Simulation time: 5 hr 1 min 24 sec) 
Heartbeat CPU 2 instructions: 950000003 cycles: 1262055569 heartbeat IPC: 0.735809 cumulative IPC: 0.723482 (Simulation time: 5 hr 2 min 40 sec) 
Heartbeat CPU 2 instructions: 960000000 cycles: 1275559808 heartbeat IPC: 0.740508 cumulative IPC: 0.723665 (Simulation time: 5 hr 5 min 31 sec) 
Heartbeat CPU 1 instructions: 460000000 cycles: 1285449871 heartbeat IPC: 0.335069 cumulative IPC: 0.31411 (Simulation time: 5 hr 7 min 32 sec) 
Heartbeat CPU 2 instructions: 970000002 cycles: 1289098970 heartbeat IPC: 0.738598 cumulative IPC: 0.723824 (Simulation time: 5 hr 8 min 19 sec) 
Heartbeat CPU 2 instructions: 980000003 cycles: 1302628853 heartbeat IPC: 0.739105 cumulative IPC: 0.723985 (Simulation time: 5 hr 11 min 16 sec) 
Heartbeat CPU 1 instructions: 470000000 cycles: 1314960969 heartbeat IPC: 0.338856 cumulative IPC: 0.314673 (Simulation time: 5 hr 14 min 12 sec) 
Heartbeat CPU 2 instructions: 990000000 cycles: 1317201720 heartbeat IPC: 0.686207 cumulative IPC: 0.723561 (Simulation time: 5 hr 14 min 41 sec) 
Heartbeat CPU 2 instructions: 1000000001 cycles: 1330749721 heartbeat IPC: 0.738116 cumulative IPC: 0.723711 (Simulation time: 5 hr 17 min 50 sec) 
Heartbeat CPU 1 instructions: 480000000 cycles: 1343337367 heartbeat IPC: 0.352406 cumulative IPC: 0.315481 (Simulation time: 5 hr 20 min 49 sec) 
Heartbeat CPU 2 instructions: 1010000002 cycles: 1344546412 heartbeat IPC: 0.724812 cumulative IPC: 0.723723 (Simulation time: 5 hr 21 min 3 sec) 
Heartbeat CPU 2 instructions: 1020000003 cycles: 1358007668 heartbeat IPC: 0.742873 cumulative IPC: 0.723915 (Simulation time: 5 hr 24 min 15 sec) 
Heartbeat CPU 0 instructions: 280000002 cycles: 1365931466 heartbeat IPC: 0.0646596 cumulative IPC: 0.168694 (Simulation time: 5 hr 25 min 58 sec) 
Heartbeat CPU 1 instructions: 490000000 cycles: 1370157079 heartbeat IPC: 0.37286 cumulative IPC: 0.316619 (Simulation time: 5 hr 26 min 55 sec) 
Heartbeat CPU 2 instructions: 1030000003 cycles: 1371700283 heartbeat IPC: 0.730321 cumulative IPC: 0.72398 (Simulation time: 5 hr 27 min 17 sec) 
Heartbeat CPU 2 instructions: 1040000002 cycles: 1385383610 heartbeat IPC: 0.730816 cumulative IPC: 0.724048 (Simulation time: 5 hr 30 min 20 sec) 
Heartbeat CPU 1 instructions: 500000000 cycles: 1395577317 heartbeat IPC: 0.393387 cumulative IPC: 0.318036 (Simulation time: 5 hr 32 min 41 sec) 
Heartbeat CPU 2 instructions: 1050000000 cycles: 1398949099 heartbeat IPC: 0.737165 cumulative IPC: 0.724177 (Simulation time: 5 hr 33 min 31 sec) 
Heartbeat CPU 3 instructions: 150000000 cycles: 1404051162 heartbeat IPC: 0.0625216 cumulative IPC: 0.0704206 (Simulation time: 5 hr 34 min 47 sec) 
Heartbeat CPU 2 instructions: 1060000000 cycles: 1412612529 heartbeat IPC: 0.731881 cumulative IPC: 0.724253 (Simulation time: 5 hr 36 min 52 sec) 
Heartbeat CPU 1 instructions: 510000003 cycles: 1419992951 heartbeat IPC: 0.409574 cumulative IPC: 0.31963 (Simulation time: 5 hr 38 min 38 sec) 
Heartbeat CPU 2 instructions: 1070000000 cycles: 1426349937 heartbeat IPC: 0.727939 cumulative IPC: 0.724289 (Simulation time: 5 hr 40 min 9 sec) 
Heartbeat CPU 2 instructions: 1080000001 cycles: 1440023715 heartbeat IPC: 0.731327 cumulative IPC: 0.724356 (Simulation time: 5 hr 43 min 28 sec) 
Heartbeat CPU 1 instructions: 520000000 cycles: 1442815029 heartbeat IPC: 0.438172 cumulative IPC: 0.321529 (Simulation time: 5 hr 44 min 9 sec) 
Heartbeat CPU 2 instructions: 1090000000 cycles: 1453673060 heartbeat IPC: 0.732636 cumulative IPC: 0.724435 (Simulation time: 5 hr 46 min 31 sec) 
Heartbeat CPU 1 instructions: 530000001 cycles: 1464490311 heartbeat IPC: 0.461355 cumulative IPC: 0.323624 (Simulation time: 5 hr 48 min 58 sec) 
Heartbeat CPU 2 instructions: 1100000000 cycles: 1467372266 heartbeat IPC: 0.729969 cumulative IPC: 0.724487 (Simulation time: 5 hr 49 min 30 sec) 
Heartbeat CPU 2 instructions: 1110000002 cycles: 1481109523 heartbeat IPC: 0.727948 cumulative IPC: 0.72452 (Simulation time: 5 hr 52 min 35 sec) 
Heartbeat CPU 1 instructions: 540000001 cycles: 1485361890 heartbeat IPC: 0.47912 cumulative IPC: 0.325836 (Simulation time: 5 hr 53 min 38 sec) 
Heartbeat CPU 2 instructions: 1120000000 cycles: 1494440392 heartbeat IPC: 0.750139 cumulative IPC: 0.724751 (Simulation time: 5 hr 55 min 38 sec) 
Heartbeat CPU 1 instructions: 550000000 cycles: 1504719825 heartbeat IPC: 0.516584 cumulative IPC: 0.32832 (Simulation time: 5 hr 58 min 12 sec) 
Heartbeat CPU 2 instructions: 1130000000 cycles: 1507809620 heartbeat IPC: 0.747986 cumulative IPC: 0.72496 (Simulation time: 5 hr 58 min 56 sec) 
Heartbeat CPU 2 instructions: 1140000001 cycles: 1521330628 heartbeat IPC: 0.73959 cumulative IPC: 0.725091 (Simulation time: 6 hr 2 min 8 sec) 
Heartbeat CPU 1 instructions: 560000001 cycles: 1524355124 heartbeat IPC: 0.509287 cumulative IPC: 0.330679 (Simulation time: 6 hr 2 min 47 sec) 
Heartbeat CPU 0 instructions: 290000002 cycles: 1525817027 heartbeat IPC: 0.0625447 cumulative IPC: 0.157438 (Simulation time: 6 hr 3 min 9 sec) 
Heartbeat CPU 2 instructions: 1150000003 cycles: 1535710345 heartbeat IPC: 0.695424 cumulative IPC: 0.72481 (Simulation time: 6 hr 5 min 32 sec) 
Heartbeat CPU 1 instructions: 570000003 cycles: 1542388113 heartbeat IPC: 0.554539 cumulative IPC: 0.333327 (Simulation time: 6 hr 7 min 15 sec) 
Heartbeat CPU 3 instructions: 160000003 cycles: 1548983882 heartbeat IPC: 0.0689976 cumulative IPC: 0.0702859 (Simulation time: 6 hr 8 min 53 sec) 
Heartbeat CPU 2 instructions: 1160000001 cycles: 1549294906 heartbeat IPC: 0.73613 cumulative IPC: 0.724911 (Simulation time: 6 hr 8 min 58 sec) 
Heartbeat CPU 1 instructions: 580000000 cycles: 1560343110 heartbeat IPC: 0.556948 cumulative IPC: 0.335931 (Simulation time: 6 hr 11 min 45 sec) 
Heartbeat CPU 2 instructions: 1170000003 cycles: 1562798690 heartbeat IPC: 0.740533 cumulative IPC: 0.725047 (Simulation time: 6 hr 12 min 22 sec) 
Heartbeat CPU 2 instructions: 1180000002 cycles: 1576229247 heartbeat IPC: 0.744571 cumulative IPC: 0.725215 (Simulation time: 6 hr 15 min 45 sec) 
Heartbeat CPU 1 instructions: 590000000 cycles: 1577423100 heartbeat IPC: 0.58548 cumulative IPC: 0.338664 (Simulation time: 6 hr 16 min 3 sec) 
Heartbeat CPU 2 instructions: 1190000000 cycles: 1589735233 heartbeat IPC: 0.740412 cumulative IPC: 0.725346 (Simulation time: 6 hr 19 min 7 sec) 
Heartbeat CPU 1 instructions: 600000002 cycles: 1594124105 heartbeat IPC: 0.598767 cumulative IPC: 0.34142 (Simulation time: 6 hr 20 min 9 sec) 
Heartbeat CPU 2 instructions: 1200000000 cycles: 1603474900 heartbeat IPC: 0.72782 cumulative IPC: 0.725367 (Simulation time: 6 hr 22 min 33 sec) 
Heartbeat CPU 1 instructions: 610000002 cycles: 1610216099 heartbeat IPC: 0.621427 cumulative IPC: 0.34425 (Simulation time: 6 hr 24 min 16 sec) 
Heartbeat CPU 2 instructions: 1210000000 cycles: 1617074696 heartbeat IPC: 0.735305 cumulative IPC: 0.725452 (Simulation time: 6 hr 26 min 2 sec) 
Heartbeat CPU 1 instructions: 620000001 cycles: 1626271283 heartbeat IPC: 0.622852 cumulative IPC: 0.347032 (Simulation time: 6 hr 28 min 21 sec) 
Heartbeat CPU 2 instructions: 1220000001 cycles: 1630863147 heartbeat IPC: 0.725245 cumulative IPC: 0.72545 (Simulation time: 6 hr 29 min 30 sec) 
Heartbeat CPU 1 instructions: 630000002 cycles: 1642135832 heartbeat IPC: 0.630336 cumulative IPC: 0.349799 (Simulation time: 6 hr 32 min 20 sec) 
Heartbeat CPU 2 instructions: 1230000003 cycles: 1644668034 heartbeat IPC: 0.724381 cumulative IPC: 0.725441 (Simulation time: 6 hr 32 min 59 sec) 
Heartbeat CPU 1 instructions: 640000003 cycles: 1657513539 heartbeat IPC: 0.650292 cumulative IPC: 0.352618 (Simulation time: 6 hr 36 min 9 sec) 
Heartbeat CPU 2 instructions: 1240000000 cycles: 1658371078 heartbeat IPC: 0.729765 cumulative IPC: 0.725477 (Simulation time: 6 hr 36 min 23 sec) 
Heartbeat CPU 2 instructions: 1250000002 cycles: 1671938304 heartbeat IPC: 0.737071 cumulative IPC: 0.725572 (Simulation time: 6 hr 39 min 47 sec) 
Heartbeat CPU 1 instructions: 650000002 cycles: 1672979134 heartbeat IPC: 0.646596 cumulative IPC: 0.355365 (Simulation time: 6 hr 40 min 3 sec) 
Heartbeat CPU 0 instructions: 300000001 cycles: 1683517425 heartbeat IPC: 0.0634114 cumulative IPC: 0.148535 (Simulation time: 6 hr 42 min 35 sec) 
Heartbeat CPU 2 instructions: 1260000001 cycles: 1685506284 heartbeat IPC: 0.737029 cumulative IPC: 0.725666 (Simulation time: 6 hr 43 min 6 sec) 
Heartbeat CPU 1 instructions: 660000000 cycles: 1687833200 heartbeat IPC: 0.673216 cumulative IPC: 0.358193 (Simulation time: 6 hr 43 min 38 sec) 
Heartbeat CPU 2 instructions: 1270000001 cycles: 1699184405 heartbeat IPC: 0.731095 cumulative IPC: 0.72571 (Simulation time: 6 hr 46 min 28 sec) 
Heartbeat CPU 1 instructions: 670000002 cycles: 1702851911 heartbeat IPC: 0.665836 cumulative IPC: 0.360935 (Simulation time: 6 hr 47 min 25 sec) 
Heartbeat CPU 2 instructions: 1280000000 cycles: 1712895194 heartbeat IPC: 0.729353 cumulative IPC: 0.725739 (Simulation time: 6 hr 50 min 4 sec) 
Heartbeat CPU 3 instructions: 170000001 cycles: 1714271144 heartbeat IPC: 0.0605007 cumulative IPC: 0.0693324 (Simulation time: 6 hr 50 min 24 sec) 
Heartbeat CPU 1 instructions: 680000002 cycles: 1717521719 heartbeat IPC: 0.681672 cumulative IPC: 0.363704 (Simulation time: 6 hr 51 min 16 sec) 
Heartbeat CPU 2 instructions: 1290000002 cycles: 1726472707 heartbeat IPC: 0.736512 cumulative IPC: 0.725825 (Simulation time: 6 hr 53 min 35 sec) 
Heartbeat CPU 1 instructions: 690000000 cycles: 1732449883 heartbeat IPC: 0.669875 cumulative IPC: 0.36637 (Simulation time: 6 hr 55 min 5 sec) 
Heartbeat CPU 2 instructions: 1300000002 cycles: 1741081308 heartbeat IPC: 0.684528 cumulative IPC: 0.725475 (Simulation time: 6 hr 57 min 17 sec) 
Heartbeat CPU 1 instructions: 700000000 cycles: 1747351137 heartbeat IPC: 0.671084 cumulative IPC: 0.368995 (Simulation time: 6 hr 58 min 50 sec) 
Heartbeat CPU 2 instructions: 1310000001 cycles: 1754814988 heartbeat IPC: 0.728137 cumulative IPC: 0.725496 (Simulation time: 7 hr 0 min 46 sec) 
Heartbeat CPU 1 instructions: 710000000 cycles: 1762056880 heartbeat IPC: 0.680006 cumulative IPC: 0.371618 (Simulation time: 7 hr 2 min 39 sec) 
Heartbeat CPU 2 instructions: 1320000000 cycles: 1768384327 heartbeat IPC: 0.736956 cumulative IPC: 0.725585 (Simulation time: 7 hr 4 min 1 sec) 
Heartbeat CPU 1 instructions: 720000001 cycles: 1776472954 heartbeat IPC: 0.69367 cumulative IPC: 0.374258 (Simulation time: 7 hr 5 min 58 sec) 
Heartbeat CPU 2 instructions: 1330000001 cycles: 1781988253 heartbeat IPC: 0.735082 cumulative IPC: 0.725658 (Simulation time: 7 hr 7 min 17 sec) 
Heartbeat CPU 1 instructions: 730000001 cycles: 1791088658 heartbeat IPC: 0.684196 cumulative IPC: 0.376813 (Simulation time: 7 hr 9 min 33 sec) 
Heartbeat CPU 2 instructions: 1340000001 cycles: 1795594988 heartbeat IPC: 0.73493 cumulative IPC: 0.725729 (Simulation time: 7 hr 10 min 34 sec) 
Heartbeat CPU 1 instructions: 740000001 cycles: 1805472046 heartbeat IPC: 0.695247 cumulative IPC: 0.379376 (Simulation time: 7 hr 13 min 9 sec) 
Heartbeat CPU 2 instructions: 1350000003 cycles: 1809312507 heartbeat IPC: 0.728995 cumulative IPC: 0.725754 (Simulation time: 7 hr 14 min 1 sec) 
Heartbeat CPU 1 instructions: 750000002 cycles: 1819832548 heartbeat IPC: 0.696355 cumulative IPC: 0.381902 (Simulation time: 7 hr 16 min 31 sec) 
Heartbeat CPU 2 instructions: 1360000000 cycles: 1823009966 heartbeat IPC: 0.730062 cumulative IPC: 0.725787 (Simulation time: 7 hr 17 min 21 sec) 
Heartbeat CPU 1 instructions: 760000002 cycles: 1834191793 heartbeat IPC: 0.696415 cumulative IPC: 0.384389 (Simulation time: 7 hr 19 min 54 sec) 
Heartbeat CPU 2 instructions: 1370000003 cycles: 1836662008 heartbeat IPC: 0.732491 cumulative IPC: 0.725837 (Simulation time: 7 hr 20 min 25 sec) 
Heartbeat CPU 0 instructions: 310000001 cycles: 1836727294 heartbeat IPC: 0.0652699 cumulative IPC: 0.14152 (Simulation time: 7 hr 20 min 26 sec) 
Heartbeat CPU 1 instructions: 770000000 cycles: 1847989168 heartbeat IPC: 0.724775 cumulative IPC: 0.386955 (Simulation time: 7 hr 22 min 53 sec) 
Heartbeat CPU 2 instructions: 1380000003 cycles: 1850097998 heartbeat IPC: 0.74427 cumulative IPC: 0.725972 (Simulation time: 7 hr 23 min 29 sec) 
Heartbeat CPU 1 instructions: 780000001 cycles: 1862078202 heartbeat IPC: 0.709772 cumulative IPC: 0.389422 (Simulation time: 7 hr 26 min 40 sec) 
Heartbeat CPU 2 instructions: 1390000002 cycles: 1863811855 heartbeat IPC: 0.729189 cumulative IPC: 0.725996 (Simulation time: 7 hr 27 min 10 sec) 
Heartbeat CPU 3 instructions: 180000001 cycles: 1865671306 heartbeat IPC: 0.0660501 cumulative IPC: 0.0690634 (Simulation time: 7 hr 27 min 41 sec) 
Heartbeat CPU 1 instructions: 790000000 cycles: 1876497754 heartbeat IPC: 0.693503 cumulative IPC: 0.391781 (Simulation time: 7 hr 30 min 44 sec) 
Heartbeat CPU 2 instructions: 1400000003 cycles: 1877362837 heartbeat IPC: 0.737954 cumulative IPC: 0.726083 (Simulation time: 7 hr 30 min 59 sec) 
Heartbeat CPU 0 instructions: 320000001 cycles: 1882744665 heartbeat IPC: 0.217309 cumulative IPC: 0.14339 (Simulation time: 7 hr 32 min 25 sec) 
Heartbeat CPU 1 instructions: 800000002 cycles: 1890709564 heartbeat IPC: 0.70364 cumulative IPC: 0.394148 (Simulation time: 7 hr 34 min 33 sec) 
Heartbeat CPU 2 instructions: 1410000001 cycles: 1890879418 heartbeat IPC: 0.739832 cumulative IPC: 0.726182 (Simulation time: 7 hr 34 min 35 sec) 
Heartbeat CPU 2 instructions: 1420000003 cycles: 1904472380 heartbeat IPC: 0.735675 cumulative IPC: 0.726251 (Simulation time: 7 hr 37 min 57 sec) 
Heartbeat CPU 1 instructions: 810000002 cycles: 1905164614 heartbeat IPC: 0.6918 cumulative IPC: 0.396428 (Simulation time: 7 hr 38 min 9 sec) 
Heartbeat CPU 2 instructions: 1430000000 cycles: 1918265950 heartbeat IPC: 0.724975 cumulative IPC: 0.726242 (Simulation time: 7 hr 41 min 42 sec) 
Heartbeat CPU 1 instructions: 820000000 cycles: 1919596580 heartbeat IPC: 0.692906 cumulative IPC: 0.398678 (Simulation time: 7 hr 42 min 6 sec) 
Heartbeat CPU 0 instructions: 330000000 cycles: 1924637350 heartbeat IPC: 0.238705 cumulative IPC: 0.145485 (Simulation time: 7 hr 43 min 27 sec) 
Heartbeat CPU 2 instructions: 1440000000 cycles: 1932002156 heartbeat IPC: 0.728003 cumulative IPC: 0.726254 (Simulation time: 7 hr 45 min 30 sec) 
Heartbeat CPU 1 instructions: 830000000 cycles: 1933805116 heartbeat IPC: 0.703802 cumulative IPC: 0.400941 (Simulation time: 7 hr 45 min 59 sec) 
Heartbeat CPU 2 instructions: 1450000002 cycles: 1946592823 heartbeat IPC: 0.68537 cumulative IPC: 0.725945 (Simulation time: 7 hr 49 min 23 sec) 
Heartbeat CPU 1 instructions: 840000002 cycles: 1948287976 heartbeat IPC: 0.690471 cumulative IPC: 0.403113 (Simulation time: 7 hr 49 min 53 sec) 
Heartbeat CPU 2 instructions: 1460000002 cycles: 1959959099 heartbeat IPC: 0.748152 cumulative IPC: 0.726098 (Simulation time: 7 hr 53 min 14 sec) 
Heartbeat CPU 1 instructions: 850000000 cycles: 1962581863 heartbeat IPC: 0.6996 cumulative IPC: 0.405293 (Simulation time: 7 hr 53 min 56 sec) 
Heartbeat CPU 0 instructions: 340000001 cycles: 1966386458 heartbeat IPC: 0.239526 cumulative IPC: 0.1475 (Simulation time: 7 hr 55 min 1 sec) 
Heartbeat CPU 2 instructions: 1470000003 cycles: 1973486331 heartbeat IPC: 0.73925 cumulative IPC: 0.726189 (Simulation time: 7 hr 56 min 44 sec) 
Heartbeat CPU 1 instructions: 860000000 cycles: 1977060636 heartbeat IPC: 0.690666 cumulative IPC: 0.407402 (Simulation time: 7 hr 57 min 32 sec) 
Heartbeat CPU 2 instructions: 1480000002 cycles: 1986984404 heartbeat IPC: 0.740846 cumulative IPC: 0.726289 (Simulation time: 8 hr 0 min 6 sec) 
Heartbeat CPU 1 instructions: 870000000 cycles: 1991234397 heartbeat IPC: 0.705529 cumulative IPC: 0.409544 (Simulation time: 8 hr 1 min 17 sec) 
Heartbeat CPU 2 instructions: 1490000000 cycles: 2000684732 heartbeat IPC: 0.729909 cumulative IPC: 0.726314 (Simulation time: 8 hr 3 min 48 sec) 
Heartbeat CPU 1 instructions: 880000000 cycles: 2005713102 heartbeat IPC: 0.690669 cumulative IPC: 0.411591 (Simulation time: 8 hr 5 min 9 sec) 
Heartbeat CPU 0 instructions: 350000001 cycles: 2008222019 heartbeat IPC: 0.239031 cumulative IPC: 0.149424 (Simulation time: 8 hr 5 min 43 sec) 
Heartbeat CPU 2 instructions: 1500000001 cycles: 2014309849 heartbeat IPC: 0.733939 cumulative IPC: 0.726366 (Simulation time: 8 hr 7 min 24 sec) 
Heartbeat CPU 1 instructions: 890000001 cycles: 2019862624 heartbeat IPC: 0.706738 cumulative IPC: 0.413678 (Simulation time: 8 hr 8 min 51 sec) 
Heartbeat CPU 3 instructions: 190000000 cycles: 2022267039 heartbeat IPC: 0.0638587 cumulative IPC: 0.0686568 (Simulation time: 8 hr 9 min 24 sec) 
Heartbeat CPU 2 instructions: 1510000000 cycles: 2027759271 heartbeat IPC: 0.743526 cumulative IPC: 0.726481 (Simulation time: 8 hr 10 min 47 sec) 
Heartbeat CPU 1 instructions: 900000002 cycles: 2034689120 heartbeat IPC: 0.674468 cumulative IPC: 0.415595 (Simulation time: 8 hr 12 min 32 sec) 
Heartbeat CPU 2 instructions: 1520000000 cycles: 2041755696 heartbeat IPC: 0.714468 cumulative IPC: 0.726398 (Simulation time: 8 hr 14 min 20 sec) 
Heartbeat CPU 1 instructions: 910000003 cycles: 2049602753 heartbeat IPC: 0.670528 cumulative IPC: 0.417466 (Simulation time: 8 hr 16 min 11 sec) 
Heartbeat CPU 2 instructions: 1530000003 cycles: 2055610450 heartbeat IPC: 0.721774 cumulative IPC: 0.726367 (Simulation time: 8 hr 17 min 41 sec) 
Heartbeat CPU 1 instructions: 920000000 cycles: 2064755769 heartbeat IPC: 0.659934 cumulative IPC: 0.419262 (Simulation time: 8 hr 20 min 8 sec) 
Heartbeat CPU 2 instructions: 1540000000 cycles: 2069345948 heartbeat IPC: 0.72804 cumulative IPC: 0.726378 (Simulation time: 8 hr 21 min 19 sec) 
Heartbeat CPU 1 instructions: 930000003 cycles: 2079508736 heartbeat IPC: 0.67783 cumulative IPC: 0.421112 (Simulation time: 8 hr 24 min 3 sec) 
Heartbeat CPU 0 instructions: 360000000 cycles: 2081900011 heartbeat IPC: 0.135726 cumulative IPC: 0.148935 (Simulation time: 8 hr 24 min 39 sec) 
Heartbeat CPU 2 instructions: 1550000000 cycles: 2083360522 heartbeat IPC: 0.713543 cumulative IPC: 0.726291 (Simulation time: 8 hr 25 min 0 sec) 
Heartbeat CPU 1 instructions: 940000002 cycles: 2095429070 heartbeat IPC: 0.628127 cumulative IPC: 0.422699 (Simulation time: 8 hr 28 min 9 sec) 
Heartbeat CPU 2 instructions: 1560000002 cycles: 2097423852 heartbeat IPC: 0.711069 cumulative IPC: 0.726188 (Simulation time: 8 hr 28 min 42 sec) 
Heartbeat CPU 2 instructions: 1570000000 cycles: 2111348705 heartbeat IPC: 0.71814 cumulative IPC: 0.726134 (Simulation time: 8 hr 31 min 53 sec) 
Heartbeat CPU 2 instructions: 1580000000 cycles: 2125376329 heartbeat IPC: 0.712879 cumulative IPC: 0.726046 (Simulation time: 8 hr 34 min 52 sec) 
Heartbeat CPU 2 instructions: 1590000003 cycles: 2139574531 heartbeat IPC: 0.704315 cumulative IPC: 0.7259 (Simulation time: 8 hr 37 min 59 sec) 
Heartbeat CPU 1 instructions: 950000001 cycles: 2139977165 heartbeat IPC: 0.224476 cumulative IPC: 0.418537 (Simulation time: 8 hr 38 min 4 sec) 
Heartbeat CPU 2 instructions: 1600000003 cycles: 2154906030 heartbeat IPC: 0.652252 cumulative IPC: 0.725372 (Simulation time: 8 hr 41 min 13 sec) 
Heartbeat CPU 2 instructions: 1610000000 cycles: 2168962414 heartbeat IPC: 0.71142 cumulative IPC: 0.725281 (Simulation time: 8 hr 44 min 29 sec) 
Heartbeat CPU 1 instructions: 960000003 cycles: 2173486446 heartbeat IPC: 0.298425 cumulative IPC: 0.41667 (Simulation time: 8 hr 45 min 41 sec) 
Heartbeat CPU 2 instructions: 1620000001 cycles: 2183084151 heartbeat IPC: 0.708128 cumulative IPC: 0.725169 (Simulation time: 8 hr 48 min 2 sec) 
Heartbeat CPU 0 instructions: 370000000 cycles: 2185453821 heartbeat IPC: 0.0965682 cumulative IPC: 0.146433 (Simulation time: 8 hr 48 min 42 sec) 
Heartbeat CPU 1 instructions: 970000003 cycles: 2189485996 heartbeat IPC: 0.625018 cumulative IPC: 0.418205 (Simulation time: 8 hr 49 min 47 sec) 
Heartbeat CPU 3 instructions: 200000003 cycles: 2191031329 heartbeat IPC: 0.0592543 cumulative IPC: 0.0679265 (Simulation time: 8 hr 50 min 10 sec) 
Heartbeat CPU 2 instructions: 1630000002 cycles: 2197285364 heartbeat IPC: 0.704165 cumulative IPC: 0.725032 (Simulation time: 8 hr 51 min 45 sec) 
Heartbeat CPU 1 instructions: 980000002 cycles: 2204430526 heartbeat IPC: 0.669141 cumulative IPC: 0.41992 (Simulation time: 8 hr 53 min 39 sec) 
Heartbeat CPU 2 instructions: 1640000001 cycles: 2210974196 heartbeat IPC: 0.730522 cumulative IPC: 0.725066 (Simulation time: 8 hr 55 min 11 sec) 
Heartbeat CPU 1 instructions: 990000000 cycles: 2218811919 heartbeat IPC: 0.695343 cumulative IPC: 0.42172 (Simulation time: 8 hr 56 min 58 sec) 
Heartbeat CPU 2 instructions: 1650000000 cycles: 2223881875 heartbeat IPC: 0.774733 cumulative IPC: 0.725357 (Simulation time: 8 hr 58 min 19 sec) 
Heartbeat CPU 1 instructions: 1000000002 cycles: 2231511077 heartbeat IPC: 0.787454 cumulative IPC: 0.423818 (Simulation time: 9 hr 0 min 31 sec) 
Heartbeat CPU 2 instructions: 1660000001 cycles: 2236310789 heartbeat IPC: 0.804576 cumulative IPC: 0.725801 (Simulation time: 9 hr 1 min 48 sec) 
Heartbeat CPU 1 instructions: 1010000002 cycles: 2244315643 heartbeat IPC: 0.780971 cumulative IPC: 0.425873 (Simulation time: 9 hr 3 min 57 sec) 
Heartbeat CPU 2 instructions: 1670000000 cycles: 2248813440 heartbeat IPC: 0.79983 cumulative IPC: 0.726216 (Simulation time: 9 hr 5 min 8 sec) 
Heartbeat CPU 1 instructions: 1020000000 cycles: 2256971049 heartbeat IPC: 0.790176 cumulative IPC: 0.427932 (Simulation time: 9 hr 7 min 23 sec) 
Heartbeat CPU 2 instructions: 1680000002 cycles: 2261280559 heartbeat IPC: 0.80211 cumulative IPC: 0.726638 (Simulation time: 9 hr 8 min 36 sec) 
Heartbeat CPU 1 instructions: 1030000002 cycles: 2269809599 heartbeat IPC: 0.778904 cumulative IPC: 0.429933 (Simulation time: 9 hr 10 min 43 sec) 
Heartbeat CPU 2 instructions: 1690000001 cycles: 2273874911 heartbeat IPC: 0.794007 cumulative IPC: 0.727014 (Simulation time: 9 hr 11 min 44 sec) 
Heartbeat CPU 1 instructions: 1040000002 cycles: 2282629305 heartbeat IPC: 0.780049 cumulative IPC: 0.431915 (Simulation time: 9 hr 14 min 7 sec) 
Heartbeat CPU 2 instructions: 1700000002 cycles: 2286502921 heartbeat IPC: 0.791891 cumulative IPC: 0.727375 (Simulation time: 9 hr 15 min 11 sec) 
Heartbeat CPU 1 instructions: 1050000001 cycles: 2295999556 heartbeat IPC: 0.747929 cumulative IPC: 0.43377 (Simulation time: 9 hr 17 min 45 sec) 
Heartbeat CPU 2 instructions: 1710000002 cycles: 2299403180 heartbeat IPC: 0.775178 cumulative IPC: 0.727645 (Simulation time: 9 hr 18 min 40 sec) 
Heartbeat CPU 0 instructions: 380000000 cycles: 2301129135 heartbeat IPC: 0.0864489 cumulative IPC: 0.143394 (Simulation time: 9 hr 19 min 10 sec) 
Heartbeat CPU 1 instructions: 1060000002 cycles: 2308806782 heartbeat IPC: 0.780809 cumulative IPC: 0.43571 (Simulation time: 9 hr 21 min 13 sec) 
Heartbeat CPU 2 instructions: 1720000001 cycles: 2312308265 heartbeat IPC: 0.774888 cumulative IPC: 0.727911 (Simulation time: 9 hr 22 min 6 sec) 
Heartbeat CPU 1 instructions: 1070000003 cycles: 2321728601 heartbeat IPC: 0.773885 cumulative IPC: 0.437607 (Simulation time: 9 hr 24 min 48 sec) 
Heartbeat CPU 2 instructions: 1730000000 cycles: 2325142917 heartbeat IPC: 0.779141 cumulative IPC: 0.728196 (Simulation time: 9 hr 25 min 45 sec) 
Heartbeat CPU 1 instructions: 1080000000 cycles: 2334563944 heartbeat IPC: 0.779099 cumulative IPC: 0.439499 (Simulation time: 9 hr 28 min 18 sec) 
Heartbeat CPU 2 instructions: 1740000002 cycles: 2338115573 heartbeat IPC: 0.770852 cumulative IPC: 0.728434 (Simulation time: 9 hr 29 min 9 sec) 
Heartbeat CPU 3 instructions: 210000003 cycles: 2338214607 heartbeat IPC: 0.0679425 cumulative IPC: 0.0679275 (Simulation time: 9 hr 29 min 10 sec) 
Heartbeat CPU 1 instructions: 1090000000 cycles: 2347562383 heartbeat IPC: 0.769323 cumulative IPC: 0.441339 (Simulation time: 9 hr 31 min 45 sec) 
Heartbeat CPU 2 instructions: 1750000002 cycles: 2352149981 heartbeat IPC: 0.712534 cumulative IPC: 0.728339 (Simulation time: 9 hr 32 min 54 sec) 
Heartbeat CPU 1 instructions: 1100000000 cycles: 2360611087 heartbeat IPC: 0.76636 cumulative IPC: 0.44315 (Simulation time: 9 hr 35 min 5 sec) 
Heartbeat CPU 2 instructions: 1760000000 cycles: 2365070193 heartbeat IPC: 0.773981 cumulative IPC: 0.72859 (Simulation time: 9 hr 36 min 4 sec) 
Heartbeat CPU 1 instructions: 1110000002 cycles: 2372632553 heartbeat IPC: 0.831845 cumulative IPC: 0.445134 (Simulation time: 9 hr 38 min 16 sec) 
Heartbeat CPU 2 instructions: 1770000002 cycles: 2377848865 heartbeat IPC: 0.782554 cumulative IPC: 0.728882 (Simulation time: 9 hr 39 min 50 sec) 
Heartbeat CPU 1 instructions: 1120000003 cycles: 2385707039 heartbeat IPC: 0.764848 cumulative IPC: 0.4469 (Simulation time: 9 hr 42 min 7 sec) 
Heartbeat CPU 2 instructions: 1780000000 cycles: 2390901430 heartbeat IPC: 0.766133 cumulative IPC: 0.729087 (Simulation time: 9 hr 43 min 37 sec) 
Heartbeat CPU 3 instructions: 220000000 cycles: 2393135549 heartbeat IPC: 0.18208 cumulative IPC: 0.0705672 (Simulation time: 9 hr 44 min 17 sec) 
Heartbeat CPU 1 instructions: 1130000003 cycles: 2399758347 heartbeat IPC: 0.711677 cumulative IPC: 0.448462 (Simulation time: 9 hr 46 min 6 sec) 
Heartbeat CPU 2 instructions: 1790000001 cycles: 2404000051 heartbeat IPC: 0.763439 cumulative IPC: 0.729276 (Simulation time: 9 hr 47 min 11 sec) 
Heartbeat CPU 1 instructions: 1140000001 cycles: 2416044406 heartbeat IPC: 0.614022 cumulative IPC: 0.449586 (Simulation time: 9 hr 50 min 5 sec) 
Heartbeat CPU 2 instructions: 1800000001 cycles: 2417072162 heartbeat IPC: 0.764987 cumulative IPC: 0.72947 (Simulation time: 9 hr 50 min 18 sec) 
Heartbeat CPU 0 instructions: 390000002 cycles: 2418363128 heartbeat IPC: 0.0852995 cumulative IPC: 0.140556 (Simulation time: 9 hr 50 min 38 sec) 
Heartbeat CPU 3 instructions: 230000003 cycles: 2431582529 heartbeat IPC: 0.260099 cumulative IPC: 0.0735864 (Simulation time: 9 hr 54 min 16 sec) 
Heartbeat CPU 2 instructions: 1810000002 cycles: 2434411133 heartbeat IPC: 0.576736 cumulative IPC: 0.728374 (Simulation time: 9 hr 55 min 2 sec) 
Heartbeat CPU 0 instructions: 400000002 cycles: 2436899656 heartbeat IPC: 0.539475 cumulative IPC: 0.143613 (Simulation time: 9 hr 55 min 42 sec) 
Heartbeat CPU 1 instructions: 1150000003 cycles: 2445559613 heartbeat IPC: 0.338808 cumulative IPC: 0.44824 (Simulation time: 9 hr 57 min 54 sec) 
Heartbeat CPU 2 instructions: 1820000002 cycles: 2452336960 heartbeat IPC: 0.557854 cumulative IPC: 0.727119 (Simulation time: 9 hr 59 min 31 sec) 
Heartbeat CPU 0 instructions: 410000001 cycles: 2455838469 heartbeat IPC: 0.528016 cumulative IPC: 0.1466 (Simulation time: 10 hr 0 min 30 sec) 
Heartbeat CPU 2 instructions: 1830000003 cycles: 2469922264 heartbeat IPC: 0.568657 cumulative IPC: 0.725982 (Simulation time: 10 hr 4 min 13 sec) 
Heartbeat CPU 0 instructions: 420000000 cycles: 2474196616 heartbeat IPC: 0.544717 cumulative IPC: 0.149576 (Simulation time: 10 hr 5 min 23 sec) 
Heartbeat CPU 1 instructions: 1160000002 cycles: 2477678294 heartbeat IPC: 0.311345 cumulative IPC: 0.446452 (Simulation time: 10 hr 6 min 24 sec) 
Heartbeat CPU 2 instructions: 1840000002 cycles: 2483329083 heartbeat IPC: 0.745889 cumulative IPC: 0.72609 (Simulation time: 10 hr 7 min 56 sec) 
Heartbeat CPU 3 instructions: 240000002 cycles: 2484276100 heartbeat IPC: 0.189776 cumulative IPC: 0.0760689 (Simulation time: 10 hr 8 min 12 sec) 
Heartbeat CPU 0 instructions: 430000001 cycles: 2492701460 heartbeat IPC: 0.540399 cumulative IPC: 0.152498 (Simulation time: 10 hr 10 min 45 sec) 
Heartbeat CPU 2 instructions: 1850000003 cycles: 2496780098 heartbeat IPC: 0.743438 cumulative IPC: 0.726185 (Simulation time: 10 hr 12 min 1 sec) 
Heartbeat CPU 1 instructions: 1170000002 cycles: 2504869920 heartbeat IPC: 0.36776 cumulative IPC: 0.445592 (Simulation time: 10 hr 14 min 18 sec) 
Heartbeat CPU 0 instructions: 440000000 cycles: 2507986825 heartbeat IPC: 0.65422 cumulative IPC: 0.155578 (Simulation time: 10 hr 15 min 16 sec) 
Heartbeat CPU 2 instructions: 1860000000 cycles: 2509914846 heartbeat IPC: 0.761339 cumulative IPC: 0.72637 (Simulation time: 10 hr 15 min 52 sec) 
*** Reached end of trace for Core: 3 Repeating trace: ./traces/ligra/ligra_PageRank.com-lj.ungraph.gcc_6.3.0_O3.drop_79500M.length_250M.champsimtrace.xz
Heartbeat CPU 3 instructions: 250000003 cycles: 2522215150 heartbeat IPC: 0.263581 cumulative IPC: 0.0789098 (Simulation time: 10 hr 19 min 41 sec) 
Heartbeat CPU 2 instructions: 1870000000 cycles: 2523067093 heartbeat IPC: 0.760326 cumulative IPC: 0.726548 (Simulation time: 10 hr 19 min 56 sec) 
Heartbeat CPU 0 instructions: 450000003 cycles: 2525146458 heartbeat IPC: 0.582763 cumulative IPC: 0.158502 (Simulation time: 10 hr 20 min 26 sec) 
Heartbeat CPU 2 instructions: 1880000003 cycles: 2536717492 heartbeat IPC: 0.73258 cumulative IPC: 0.726581 (Simulation time: 10 hr 23 min 3 sec) 
Heartbeat CPU 1 instructions: 1180000000 cycles: 2539850862 heartbeat IPC: 0.28587 cumulative IPC: 0.443376 (Simulation time: 10 hr 23 min 49 sec) 
Heartbeat CPU 0 instructions: 460000002 cycles: 2546251320 heartbeat IPC: 0.473824 cumulative IPC: 0.161134 (Simulation time: 10 hr 25 min 16 sec) 
Heartbeat CPU 2 instructions: 1890000000 cycles: 2550336800 heartbeat IPC: 0.734251 cumulative IPC: 0.726622 (Simulation time: 10 hr 26 min 19 sec) 
Finished CPU 3 instructions: 200000003 cycles: 2532455302 cumulative IPC: 0.0789747 (Simulation time: 10 hr 26 min 22 sec) 

ChampSim completed all CPUs

Total Simulation Statistics (not including warmup)

CPU 0 cumulative IPC: 0.161752 instructions: 409629583 cycles: 2532455301
ITLB TOTAL     ACCESS:   63989325  HIT:   63989316  MISS:          9  HIT %:        100  MISS %: 1.40648e-05   MPKI: 2.19711e-05
ITLB LOAD      ACCESS:          0  HIT:          0  MISS:          0  HIT %:       -nan  MISS %:       -nan   MPKI: 0
ITLB RFO       ACCESS:          0  HIT:          0  MISS:          0  HIT %:       -nan  MISS %:       -nan   MPKI: 0
ITLB PREFETCH  ACCESS:          0  HIT:          0  MISS:          0  HIT %:       -nan  MISS %:       -nan   MPKI: 0
ITLB WRITEBACK ACCESS:          0  HIT:          0  MISS:          0  HIT %:       -nan  MISS %:       -nan   MPKI: 0
DTLB TOTAL     ACCESS:   87678237  HIT:   78796866  MISS:    8881371  HIT %:    89.8705  MISS %:    10.1295   MPKI: 21.6815
DTLB LOAD      ACCESS:          0  HIT:          0  MISS:          0  HIT %:       -nan  MISS %:       -nan   MPKI: 0
DTLB RFO       ACCESS:          0  HIT:          0  MISS:          0  HIT %:       -nan  MISS %:       -nan   MPKI: 0
DTLB PREFETCH  ACCESS:          0  HIT:          0  MISS:          0  HIT %:       -nan  MISS %:       -nan   MPKI: 0
DTLB WRITEBACK ACCESS:          0  HIT:          0  MISS:          0  HIT %:       -nan  MISS %:       -nan   MPKI: 0
STLB TOTAL     ACCESS:   29724551  HIT:   27397970  MISS:    2326581  HIT %:    92.1729  MISS %:    7.82714   MPKI: 5.67972
STLB LOAD      ACCESS:          0  HIT:          0  MISS:          0  HIT %:       -nan  MISS %:       -nan   MPKI: 0
STLB RFO       ACCESS:          0  HIT:          0  MISS:          0  HIT %:       -nan  MISS %:       -nan   MPKI: 0
STLB PREFETCH  ACCESS:          0  HIT:          0  MISS:          0  HIT %:       -nan  MISS %:       -nan   MPKI: 0
STLB WRITEBACK ACCESS:          0  HIT:          0  MISS:          0  HIT %:       -nan  MISS %:       -nan   MPKI: 0
L1D TOTAL     ACCESS:  113490697  HIT:   79884361  MISS:   33606336  HIT %:    70.3885  MISS %:    29.6115   MPKI: 82.0408
L1D LOAD      ACCESS:   64657633  HIT:   48602662  MISS:   16054971  HIT %:    75.1693  MISS %:    24.8307   MPKI: 39.1939
L1D RFO       ACCESS:   21311418  HIT:   20301254  MISS:    1010164  HIT %:      95.26  MISS %:    4.74001   MPKI: 2.46604
L1D PREFETCH  ACCESS:   27521646  HIT:   10980445  MISS:   16541201  HIT %:    39.8975  MISS %:    60.1025   MPKI: 40.3809
L1D WRITEBACK ACCESS:          0  HIT:          0  MISS:          0  HIT %:       -nan  MISS %:       -nan   MPKI: 0
L1I TOTAL     ACCESS:   69745310  HIT:   69745214  MISS:         96  HIT %:    99.9999  MISS %: 0.000137644   MPKI: 0.000234358
L1I LOAD      ACCESS:   69745310  HIT:   69745214  MISS:         96  HIT %:    99.9999  MISS %: 0.000137644   MPKI: 0.000234358
L1I RFO       ACCESS:          0  HIT:          0  MISS:          0  HIT %:       -nan  MISS %:       -nan   MPKI: 0
L1I PREFETCH  ACCESS:          0  HIT:          0  MISS:          0  HIT %:       -nan  MISS %:       -nan   MPKI: 0
L1I WRITEBACK ACCESS:          0  HIT:          0  MISS:          0  HIT %:       -nan  MISS %:       -nan   MPKI: 0
L2C TOTAL     ACCESS:   39763270  HIT:   19335626  MISS:   20427644  HIT %:    48.6269  MISS %:    51.3731   MPKI: 49.8686
L2C LOAD      ACCESS:   13881166  HIT:    7567221  MISS:    6313945  HIT %:    54.5143  MISS %:    45.4857   MPKI: 15.4138
L2C RFO       ACCESS:    1010162  HIT:         82  MISS:    1010080  HIT %: 0.00811751  MISS %:    99.9919   MPKI: 2.46584
L2C PREFETCH  ACCESS:   18715103  HIT:    7199549  MISS:   11515554  HIT %:    38.4692  MISS %:    61.5308   MPKI: 28.1121
L2C WRITEBACK ACCESS:    3196175  HIT:    2722914  MISS:     473261  HIT %:    85.1929  MISS %:    14.8071   MPKI: 1.15534
PSCL5 TOTAL     ACCESS:    2326580  HIT:    2326580  MISS:          0  HIT %:        100  MISS %:          0   MPKI: 0
PSCL5 LOAD      ACCESS:          0  HIT:          0  MISS:          0  HIT %:       -nan  MISS %:       -nan   MPKI: 0
PSCL5 RFO       ACCESS:          0  HIT:          0  MISS:          0  HIT %:       -nan  MISS %:       -nan   MPKI: 0
PSCL5 PREFETCH  ACCESS:          0  HIT:          0  MISS:          0  HIT %:       -nan  MISS %:       -nan   MPKI: 0
PSCL5 WRITEBACK ACCESS:          0  HIT:          0  MISS:          0  HIT %:       -nan  MISS %:       -nan   MPKI: 0
PSCL4 TOTAL     ACCESS:    2326580  HIT:    2326580  MISS:          0  HIT %:        100  MISS %:          0   MPKI: 0
PSCL4 LOAD      ACCESS:          0  HIT:          0  MISS:          0  HIT %:       -nan  MISS %:       -nan   MPKI: 0
PSCL4 RFO       ACCESS:          0  HIT:          0  MISS:          0  HIT %:       -nan  MISS %:       -nan   MPKI: 0
PSCL4 PREFETCH  ACCESS:          0  HIT:          0  MISS:          0  HIT %:       -nan  MISS %:       -nan   MPKI: 0
PSCL4 WRITEBACK ACCESS:          0  HIT:          0  MISS:          0  HIT %:       -nan  MISS %:       -nan   MPKI: 0
PSCL3 TOTAL     ACCESS:    2326580  HIT:    2326580  MISS:          0  HIT %:        100  MISS %:          0   MPKI: 0
PSCL3 LOAD      ACCESS:          0  HIT:          0  MISS:          0  HIT %:       -nan  MISS %:       -nan   MPKI: 0
PSCL3 RFO       ACCESS:          0  HIT:          0  MISS:          0  HIT %:       -nan  MISS %:       -nan   MPKI: 0
PSCL3 PREFETCH  ACCESS:          0  HIT:          0  MISS:          0  HIT %:       -nan  MISS %:       -nan   MPKI: 0
PSCL3 WRITEBACK ACCESS:          0  HIT:          0  MISS:          0  HIT %:       -nan  MISS %:       -nan   MPKI: 0
PSCL2 TOTAL     ACCESS:    2326581  HIT:    1692470  MISS:     634111  HIT %:    72.7449  MISS %:    27.2551   MPKI: 1.54801
PSCL2 LOAD      ACCESS:          0  HIT:          0  MISS:          0  HIT %:       -nan  MISS %:       -nan   MPKI: 0
PSCL2 RFO       ACCESS:          0  HIT:          0  MISS:          0  HIT %:       -nan  MISS %:       -nan   MPKI: 0
PSCL2 PREFETCH  ACCESS:          0  HIT:          0  MISS:          0  HIT %:       -nan  MISS %:       -nan   MPKI: 0
PSCL2 WRITEBACK ACCESS:          0  HIT:          0  MISS:          0  HIT %:       -nan  MISS %:       -nan   MPKI: 0

stream: 
stream:times selected: 34874353
stream:pref_filled: 15043873
stream:pref_useful: 989449
stream:pref_late: 122560
stream:misses: 3621558
stream:misses_by_poll: 0

CS: 
CS:times selected: 7872317
CS:pref_filled: 3982100
CS:pref_useful: 3811793
CS:pref_late: 2050948
CS:misses: 4564845
CS:misses_by_poll: 10217

CPLX: 
CPLX:times selected: 26785006
CPLX:pref_filled: 514354
CPLX:pref_useful: 40721
CPLX:pref_late: 3498
CPLX:misses: 12997728
CPLX:misses_by_poll: 273

NL_L1: 
NL:times selected: 91670
NL:pref_filled: 56154
NL:pref_useful: 3767
NL:pref_late: 415
NL:misses: 56275
NL:misses_by_poll: 6

total selections: 69623346
total_filled: 16541201
total_useful: 4238946
total_late: 2187213
total_polluted: 10496
total_misses_after_warmup: 18774475
conflicts: 141834978
Degree Incremented Times: 1709470
Degree Decremented Times: 7676219

L1 IP Table Write Accesses: 529139246
L1 IP Table Read Accesses: 387304268
L1 RST Write Accesses: 99881702
L1 RST Read Accesses: 199763404
L1 CSPT Write Accesses: 99881702
L1 CSPT Read Accesses: 220488714
L1 RR Filter Tag Write Accesses: 99993069
L1 RR Filter Tag Read Accesses: 8864478901
L1 IP Table Tag Write Accesses: 768939090
L1 IP Table Tag Read Accesses: 768939090
L1 RST Tag Write Accesses: 0
L1 RST Tag Read Accesses: 893269854
L1 RR Filter Write Accesses: 0
L1 RR Filter Read Accesses: 379781928
test: 36003383
LLC TOTAL     ACCESS:   23150669  HIT:    9929560  MISS:   13221109  HIT %:     42.891  MISS %:     57.109   MPKI: 32.2758
LLC LOAD      ACCESS:    6313945  HIT:    3033801  MISS:    3280144  HIT %:    48.0492  MISS %:    51.9508   MPKI: 8.00759
LLC RFO       ACCESS:    1010080  HIT:          0  MISS:    1010080  HIT %:          0  MISS %:        100   MPKI: 2.46584
LLC PREFETCH  ACCESS:   11515554  HIT:    3014488  MISS:    8501066  HIT %:    26.1775  MISS %:    73.8225   MPKI: 20.7531
LLC WRITEBACK ACCESS:    3196286  HIT:    2872699  MISS:     323587  HIT %:    89.8762  MISS %:    10.1238   MPKI: 0.78995

RAW hits: 6669895
Loads Generated: 122872763
Loads sent to L1D: 116202866
Stores Generated: 29510277
Stores sent to L1D: 29510274

CPU 1 cumulative IPC: 0.44273 instructions: 1121193300 cycles: 2532455301
ITLB TOTAL     ACCESS:  149393802  HIT:  149393801  MISS:          1  HIT %:        100  MISS %: 6.69372e-07   MPKI: 8.91907e-07
ITLB LOAD      ACCESS:          0  HIT:          0  MISS:          0  HIT %:       -nan  MISS %:       -nan   MPKI: 0
ITLB RFO       ACCESS:          0  HIT:          0  MISS:          0  HIT %:       -nan  MISS %:       -nan   MPKI: 0
ITLB PREFETCH  ACCESS:          0  HIT:          0  MISS:          0  HIT %:       -nan  MISS %:       -nan   MPKI: 0
ITLB WRITEBACK ACCESS:          0  HIT:          0  MISS:          0  HIT %:       -nan  MISS %:       -nan   MPKI: 0
DTLB TOTAL     ACCESS:  146617507  HIT:  145523381  MISS:    1094126  HIT %:    99.2538  MISS %:   0.746245   MPKI: 0.975858
DTLB LOAD      ACCESS:          0  HIT:          0  MISS:          0  HIT %:       -nan  MISS %:       -nan   MPKI: 0
DTLB RFO       ACCESS:          0  HIT:          0  MISS:          0  HIT %:       -nan  MISS %:       -nan   MPKI: 0
DTLB PREFETCH  ACCESS:          0  HIT:          0  MISS:          0  HIT %:       -nan  MISS %:       -nan   MPKI: 0
DTLB WRITEBACK ACCESS:          0  HIT:          0  MISS:          0  HIT %:       -nan  MISS %:       -nan   MPKI: 0
STLB TOTAL     ACCESS:    8884624  HIT:    8290276  MISS:     594348  HIT %:    93.3104  MISS %:    6.68962   MPKI: 0.530103
STLB LOAD      ACCESS:          0  HIT:          0  MISS:          0  HIT %:       -nan  MISS %:       -nan   MPKI: 0
STLB RFO       ACCESS:          0  HIT:          0  MISS:          0  HIT %:       -nan  MISS %:       -nan   MPKI: 0
STLB PREFETCH  ACCESS:          0  HIT:          0  MISS:          0  HIT %:       -nan  MISS %:       -nan   MPKI: 0
STLB WRITEBACK ACCESS:          0  HIT:          0  MISS:          0  HIT %:       -nan  MISS %:       -nan   MPKI: 0
L1D TOTAL     ACCESS:  228200107  HIT:  165458948  MISS:   62741159  HIT %:    72.5061  MISS %:    27.4939   MPKI: 55.9593
L1D LOAD      ACCESS:   68346183  HIT:   64999818  MISS:    3346365  HIT %:    95.1038  MISS %:     4.8962   MPKI: 2.98465
L1D RFO       ACCESS:  141089326  HIT:   87855256  MISS:   53234070  HIT %:    62.2692  MISS %:    37.7308   MPKI: 47.4798
L1D PREFETCH  ACCESS:   18764598  HIT:   12603874  MISS:    6160724  HIT %:    67.1684  MISS %:    32.8316   MPKI: 5.49479
L1D WRITEBACK ACCESS:          0  HIT:          0  MISS:          0  HIT %:       -nan  MISS %:       -nan   MPKI: 0
L1I TOTAL     ACCESS:  198582699  HIT:  198582696  MISS:          3  HIT %:        100  MISS %: 1.51071e-06   MPKI: 2.67572e-06
L1I LOAD      ACCESS:  198582699  HIT:  198582696  MISS:          3  HIT %:        100  MISS %: 1.51071e-06   MPKI: 2.67572e-06
L1I RFO       ACCESS:          0  HIT:          0  MISS:          0  HIT %:       -nan  MISS %:       -nan   MPKI: 0
L1I PREFETCH  ACCESS:          0  HIT:          0  MISS:          0  HIT %:       -nan  MISS %:       -nan   MPKI: 0
L1I WRITEBACK ACCESS:          0  HIT:          0  MISS:          0  HIT %:       -nan  MISS %:       -nan   MPKI: 0
L2C TOTAL     ACCESS:  116569604  HIT:   74889869  MISS:   41679735  HIT %:    64.2448  MISS %:    35.7552   MPKI: 37.1744
L2C LOAD      ACCESS:    1881163  HIT:        246  MISS:    1880917  HIT %:   0.013077  MISS %:    99.9869   MPKI: 1.6776
L2C RFO       ACCESS:   53234054  HIT:   22909241  MISS:   30324813  HIT %:    43.0349  MISS %:    56.9651   MPKI: 27.0469
L2C PREFETCH  ACCESS:    7625929  HIT:          0  MISS:    7625929  HIT %:          0  MISS %:        100   MPKI: 6.80162
L2C WRITEBACK ACCESS:   53234074  HIT:   51462814  MISS:    1771260  HIT %:    96.6727  MISS %:     3.3273   MPKI: 1.5798
PSCL5 TOTAL     ACCESS:     594348  HIT:     594348  MISS:          0  HIT %:        100  MISS %:          0   MPKI: 0
PSCL5 LOAD      ACCESS:          0  HIT:          0  MISS:          0  HIT %:       -nan  MISS %:       -nan   MPKI: 0
PSCL5 RFO       ACCESS:          0  HIT:          0  MISS:          0  HIT %:       -nan  MISS %:       -nan   MPKI: 0
PSCL5 PREFETCH  ACCESS:          0  HIT:          0  MISS:          0  HIT %:       -nan  MISS %:       -nan   MPKI: 0
PSCL5 WRITEBACK ACCESS:          0  HIT:          0  MISS:          0  HIT %:       -nan  MISS %:       -nan   MPKI: 0
PSCL4 TOTAL     ACCESS:     594348  HIT:     594348  MISS:          0  HIT %:        100  MISS %:          0   MPKI: 0
PSCL4 LOAD      ACCESS:          0  HIT:          0  MISS:          0  HIT %:       -nan  MISS %:       -nan   MPKI: 0
PSCL4 RFO       ACCESS:          0  HIT:          0  MISS:          0  HIT %:       -nan  MISS %:       -nan   MPKI: 0
PSCL4 PREFETCH  ACCESS:          0  HIT:          0  MISS:          0  HIT %:       -nan  MISS %:       -nan   MPKI: 0
PSCL4 WRITEBACK ACCESS:          0  HIT:          0  MISS:          0  HIT %:       -nan  MISS %:       -nan   MPKI: 0
PSCL3 TOTAL     ACCESS:     594348  HIT:     594346  MISS:          2  HIT %:    99.9997  MISS %: 0.000336503   MPKI: 1.78381e-06
PSCL3 LOAD      ACCESS:          0  HIT:          0  MISS:          0  HIT %:       -nan  MISS %:       -nan   MPKI: 0
PSCL3 RFO       ACCESS:          0  HIT:          0  MISS:          0  HIT %:       -nan  MISS %:       -nan   MPKI: 0
PSCL3 PREFETCH  ACCESS:          0  HIT:          0  MISS:          0  HIT %:       -nan  MISS %:       -nan   MPKI: 0
PSCL3 WRITEBACK ACCESS:          0  HIT:          0  MISS:          0  HIT %:       -nan  MISS %:       -nan   MPKI: 0
PSCL2 TOTAL     ACCESS:     594348  HIT:     593722  MISS:        626  HIT %:    99.8947  MISS %:   0.105325   MPKI: 0.000558334
PSCL2 LOAD      ACCESS:          0  HIT:          0  MISS:          0  HIT %:       -nan  MISS %:       -nan   MPKI: 0
PSCL2 RFO       ACCESS:          0  HIT:          0  MISS:          0  HIT %:       -nan  MISS %:       -nan   MPKI: 0
PSCL2 PREFETCH  ACCESS:          0  HIT:          0  MISS:          0  HIT %:       -nan  MISS %:       -nan   MPKI: 0
PSCL2 WRITEBACK ACCESS:          0  HIT:          0  MISS:          0  HIT %:       -nan  MISS %:       -nan   MPKI: 0

stream: 
stream:times selected: 38301790
stream:pref_filled: 825789
stream:pref_useful: 825783
stream:pref_late: 556751
stream:misses: 599119
stream:misses_by_poll: 0

CS: 
CS:times selected: 10818226
CS:pref_filled: 3566205
CS:pref_useful: 3566200
CS:pref_late: 554402
CS:misses: 1502980
CS:misses_by_poll: 26150

CPLX: 
CPLX:times selected: 27446386
CPLX:pref_filled: 2426978
CPLX:pref_useful: 2426969
CPLX:pref_late: 384602
CPLX:misses: 2455494
CPLX:misses_by_poll: 15751

NL_L1: 
NL:times selected: 21136
NL:pref_filled: 576
NL:pref_useful: 576
NL:pref_late: 950
NL:misses: 2815
NL:misses_by_poll: 0

total selections: 76587538
total_filled: 6160724
total_useful: 6160721
total_late: 1504231
total_polluted: 41901
total_misses_after_warmup: 4585651
conflicts: 141834978
Degree Incremented Times: 1709470
Degree Decremented Times: 7676219

L1 IP Table Write Accesses: 529139246
L1 IP Table Read Accesses: 387304268
L1 RST Write Accesses: 99881702
L1 RST Read Accesses: 199763404
L1 CSPT Write Accesses: 99881702
L1 CSPT Read Accesses: 220488714
L1 RR Filter Tag Write Accesses: 99993069
L1 RR Filter Tag Read Accesses: 8864478901
L1 IP Table Tag Write Accesses: 768939090
L1 IP Table Tag Read Accesses: 768939090
L1 RST Tag Write Accesses: 0
L1 RST Tag Read Accesses: 893269854
L1 RR Filter Write Accesses: 0
L1 RR Filter Read Accesses: 379781928
test: 36003383
LLC TOTAL     ACCESS:   70253140  HIT:   24662391  MISS:   45590749  HIT %:     35.105  MISS %:     64.895   MPKI: 40.6627
LLC LOAD      ACCESS:    1880917  HIT:        596  MISS:    1880321  HIT %:  0.0316867  MISS %:    99.9683   MPKI: 1.67707
LLC RFO       ACCESS:   30322145  HIT:    1804246  MISS:   28517899  HIT %:    5.95026  MISS %:    94.0497   MPKI: 25.4353
LLC PREFETCH  ACCESS:    7625929  HIT:          0  MISS:    7625929  HIT %:          0  MISS %:        100   MPKI: 6.80162
LLC WRITEBACK ACCESS:   30347333  HIT:   22855936  MISS:    7491397  HIT %:    75.3145  MISS %:    24.6855   MPKI: 6.68163

RAW hits: 29896007
Loads Generated: 276210603
Loads sent to L1D: 246314596
Stores Generated: 185931566
Stores sent to L1D: 185931561

CPU 2 cumulative IPC: 0.726626 instructions: 1840146915 cycles: 2532455301
ITLB TOTAL     ACCESS:  261762408  HIT:  261762398  MISS:         10  HIT %:        100  MISS %: 3.82026e-06   MPKI: 5.43435e-06
ITLB LOAD      ACCESS:          0  HIT:          0  MISS:          0  HIT %:       -nan  MISS %:       -nan   MPKI: 0
ITLB RFO       ACCESS:          0  HIT:          0  MISS:          0  HIT %:       -nan  MISS %:       -nan   MPKI: 0
ITLB PREFETCH  ACCESS:          0  HIT:          0  MISS:          0  HIT %:       -nan  MISS %:       -nan   MPKI: 0
ITLB WRITEBACK ACCESS:          0  HIT:          0  MISS:          0  HIT %:       -nan  MISS %:       -nan   MPKI: 0
DTLB TOTAL     ACCESS:  482246913  HIT:  411365659  MISS:   70881254  HIT %:    85.3019  MISS %:    14.6981   MPKI: 38.5193
DTLB LOAD      ACCESS:          0  HIT:          0  MISS:          0  HIT %:       -nan  MISS %:       -nan   MPKI: 0
DTLB RFO       ACCESS:          0  HIT:          0  MISS:          0  HIT %:       -nan  MISS %:       -nan   MPKI: 0
DTLB PREFETCH  ACCESS:          0  HIT:          0  MISS:          0  HIT %:       -nan  MISS %:       -nan   MPKI: 0
DTLB WRITEBACK ACCESS:          0  HIT:          0  MISS:          0  HIT %:       -nan  MISS %:       -nan   MPKI: 0
STLB TOTAL     ACCESS:   82804749  HIT:   82727527  MISS:      77222  HIT %:    99.9067  MISS %:  0.0932579   MPKI: 0.0419651
STLB LOAD      ACCESS:          0  HIT:          0  MISS:          0  HIT %:       -nan  MISS %:       -nan   MPKI: 0
STLB RFO       ACCESS:          0  HIT:          0  MISS:          0  HIT %:       -nan  MISS %:       -nan   MPKI: 0
STLB PREFETCH  ACCESS:          0  HIT:          0  MISS:          0  HIT %:       -nan  MISS %:       -nan   MPKI: 0
STLB WRITEBACK ACCESS:          0  HIT:          0  MISS:          0  HIT %:       -nan  MISS %:       -nan   MPKI: 0
L1D TOTAL     ACCESS:  736324903  HIT:  588587861  MISS:  147737042  HIT %:    79.9359  MISS %:    20.0641   MPKI: 80.2855
L1D LOAD      ACCESS:  576324629  HIT:  449394342  MISS:  126930287  HIT %:    77.9759  MISS %:    22.0241   MPKI: 68.9783
L1D RFO       ACCESS:  147144556  HIT:  136027788  MISS:   11116768  HIT %:     92.445  MISS %:      7.555   MPKI: 6.04124
L1D PREFETCH  ACCESS:   12855718  HIT:    3165731  MISS:    9689987  HIT %:    24.6251  MISS %:    75.3749   MPKI: 5.26588
L1D WRITEBACK ACCESS:          0  HIT:          0  MISS:          0  HIT %:       -nan  MISS %:       -nan   MPKI: 0
L1I TOTAL     ACCESS:  291543288  HIT:  243698963  MISS:   47844325  HIT %:    83.5893  MISS %:    16.4107   MPKI: 26.0003
L1I LOAD      ACCESS:  291543288  HIT:  243698963  MISS:   47844325  HIT %:    83.5893  MISS %:    16.4107   MPKI: 26.0003
L1I RFO       ACCESS:          0  HIT:          0  MISS:          0  HIT %:       -nan  MISS %:       -nan   MPKI: 0
L1I PREFETCH  ACCESS:          0  HIT:          0  MISS:          0  HIT %:       -nan  MISS %:       -nan   MPKI: 0
L1I WRITEBACK ACCESS:          0  HIT:          0  MISS:          0  HIT %:       -nan  MISS %:       -nan   MPKI: 0
L2C TOTAL     ACCESS:  207464500  HIT:  197385027  MISS:   10079473  HIT %:    95.1416  MISS %:    4.85841   MPKI: 5.47754
L2C LOAD      ACCESS:  174754525  HIT:  170613410  MISS:    4141115  HIT %:    97.6303  MISS %:    2.36968   MPKI: 2.25043
L2C RFO       ACCESS:   10975982  HIT:    9892708  MISS:    1083274  HIT %:    90.1305  MISS %:     9.8695   MPKI: 0.588689
L2C PREFETCH  ACCESS:    9695675  HIT:    4986972  MISS:    4708703  HIT %:     51.435  MISS %:     48.565   MPKI: 2.55887
L2C WRITEBACK ACCESS:   11921554  HIT:   11874176  MISS:      47378  HIT %:    99.6026  MISS %:   0.397415   MPKI: 0.0257469
PSCL5 TOTAL     ACCESS:      77222  HIT:      77222  MISS:          0  HIT %:        100  MISS %:          0   MPKI: 0
PSCL5 LOAD      ACCESS:          0  HIT:          0  MISS:          0  HIT %:       -nan  MISS %:       -nan   MPKI: 0
PSCL5 RFO       ACCESS:          0  HIT:          0  MISS:          0  HIT %:       -nan  MISS %:       -nan   MPKI: 0
PSCL5 PREFETCH  ACCESS:          0  HIT:          0  MISS:          0  HIT %:       -nan  MISS %:       -nan   MPKI: 0
PSCL5 WRITEBACK ACCESS:          0  HIT:          0  MISS:          0  HIT %:       -nan  MISS %:       -nan   MPKI: 0
PSCL4 TOTAL     ACCESS:      77222  HIT:      77222  MISS:          0  HIT %:        100  MISS %:          0   MPKI: 0
PSCL4 LOAD      ACCESS:          0  HIT:          0  MISS:          0  HIT %:       -nan  MISS %:       -nan   MPKI: 0
PSCL4 RFO       ACCESS:          0  HIT:          0  MISS:          0  HIT %:       -nan  MISS %:       -nan   MPKI: 0
PSCL4 PREFETCH  ACCESS:          0  HIT:          0  MISS:          0  HIT %:       -nan  MISS %:       -nan   MPKI: 0
PSCL4 WRITEBACK ACCESS:          0  HIT:          0  MISS:          0  HIT %:       -nan  MISS %:       -nan   MPKI: 0
PSCL3 TOTAL     ACCESS:      77222  HIT:      77222  MISS:          0  HIT %:        100  MISS %:          0   MPKI: 0
PSCL3 LOAD      ACCESS:          0  HIT:          0  MISS:          0  HIT %:       -nan  MISS %:       -nan   MPKI: 0
[...]

RAW hits: 812941
Loads Generated: 78371999
Loads sent to L1D: 77559057
Stores Generated: 16212582
Stores sent to L1D: 16212582
Major fault: 0 Minor fault: 39960
Allocated PAGES: 463805

CPU 3 cumulative IPC: 0.0789747 instructions: 200000003 cycles: 2532455302
ITLB TOTAL     ACCESS:   26998081  HIT:   26998080  MISS:          1  HIT %:        100  MISS %: 3.70397e-06   MPKI: 5e-06
ITLB LOAD TRANSLATION ACCESS:   26998081  HIT:   26998080  MISS:          1  HIT %:        100  MISS %: 3.70397e-06   MPKI: 5e-06
ITLB PREFETCH  REQUESTED:          0  ISSUED:          0  USEFUL:          0  USELESS:          0
ITLB USEFUL LOAD PREFETCHES:          0 PREFETCH ISSUED TO LOWER LEVEL:          0  ACCURACY: -nan
ITLB TIMELY PREFETCHES:          0 LATE PREFETCHES: 0 DROPPED PREFETCHES: 0
ITLB PREFETCHES SAME FILL-ORIGIN LEVEL: 0 DIFFERENT FILL-ORIGIN LEVEL: 0
ITLB AVERAGE MISS LATENCY: 2311 cycles
ITLB RQ	ACCESS:   27495281	FORWARD:          0	MERGED:     497201	TO_CACHE:   26998080

DTLB TOTAL     ACCESS:   48156622  HIT:   39596925  MISS:    8559697  HIT %:    82.2253  MISS %:    17.7747   MPKI: 42.7985
DTLB LOAD TRANSLATION ACCESS:   48156622  HIT:   39596925  MISS:    8559697  HIT %:    82.2253  MISS %:    17.7747   MPKI: 42.7985
DTLB PREFETCH  REQUESTED:          0  ISSUED:          0  USEFUL:          0  USELESS:          0
DTLB USEFUL LOAD PREFETCHES:          0 PREFETCH ISSUED TO LOWER LEVEL:          0  ACCURACY: -nan
DTLB TIMELY PREFETCHES:          0 LATE PREFETCHES: 0 DROPPED PREFETCHES: 0
DTLB PREFETCHES SAME FILL-ORIGIN LEVEL: 0 DIFFERENT FILL-ORIGIN LEVEL: 0
DTLB AVERAGE MISS LATENCY: 116.142 cycles
DTLB RQ	ACCESS:   50862813	FORWARD:          0	MERGED:    2527497	TO_CACHE:   48335316

STLB TOTAL     ACCESS:   23902356  HIT:   18550937  MISS:    5351419  HIT %:    77.6113  MISS %:    22.3887   MPKI: 26.7571
STLB LOAD TRANSLATION ACCESS:    8559698  HIT:    3208280  MISS:    5351418  HIT %:    37.4812  MISS %:    62.5188   MPKI: 26.7571
STLB TRANSLATION FROM L1D PREFETCHER ACCESS:   15342658  HIT:   15342657  MISS:          1  HIT %:        100  MISS %: 6.51778e-06   MPKI: 5e-06
STLB PREFETCH  REQUESTED:          0  ISSUED:          0  USEFUL:          1  USELESS:          0
STLB USEFUL LOAD PREFETCHES:          1 PREFETCH ISSUED TO LOWER LEVEL:          0  ACCURACY: inf
STLB TIMELY PREFETCHES:          1 LATE PREFETCHES: 0 DROPPED PREFETCHES: 0
STLB PREFETCHES SAME FILL-ORIGIN LEVEL: 0 DIFFERENT FILL-ORIGIN LEVEL: 0
STLB AVERAGE MISS LATENCY: 170.943 cycles
STLB RQ	ACCESS:   28986644	FORWARD:          0	MERGED:    5084287	TO_CACHE:   23902357

STLB Hit, L1D data hit: 0
STLB Hit, L2C data hit: 0
STLB Hit, LLC data hit: 0
STLB Hit, LLC data miss: 0
STLB STLB hints to L2: 0
L1D TOTAL     ACCESS:   69668737  HIT:   50627234  MISS:   19041503  HIT %:    72.6685  MISS %:    27.3315   MPKI: 95.2075
L1D LOAD      ACCESS:   40406237  HIT:   31476420  MISS:    8929817  HIT %:    77.8999  MISS %:    22.1001   MPKI: 44.6491
L1D RFO       ACCESS:    9598683  HIT:    9598682  MISS:          1  HIT %:        100  MISS %: 1.04181e-05   MPKI: 5e-06
L1D PREFETCH  ACCESS:   19663817  HIT:    9552132  MISS:   10111685  HIT %:    48.5772  MISS %:    51.4228   MPKI: 50.5584
L1D PREFETCH  REQUESTED:   40881111  ISSUED:   40854383  USEFUL:    1868251  USELESS:    8243424
L1D USEFUL LOAD PREFETCHES:    1868251 PREFETCH ISSUED TO LOWER LEVEL:   10391759  ACCURACY: 17.9782
L1D TIMELY PREFETCHES:    1868251 LATE PREFETCHES: 280070 DROPPED PREFETCHES: 0
L1D PREFETCHES SAME FILL-ORIGIN LEVEL: 10391759 DIFFERENT FILL-ORIGIN LEVEL: 0
L1D AVERAGE MISS LATENCY: 1023.94 cycles
L1D RQ	ACCESS:   65556487	FORWARD:          0	MERGED:   24285904	TO_CACHE:   41264128
L1D WQ	ACCESS:   10633183	FORWARD:       6455	MERGED:    1034498	TO_CACHE:    9598685
L1D PQ	ACCESS:   20427438	FORWARD:          0	MERGED:        493	TO_CACHE:   20426945

L1D UNIQUE REGIONS ACCESSED: 0
L1D REGIONS CONFLICTS: 0
L1D Cross Page Prefetch Requests: 0
L1D Same Page Prefetch Requests: 27464009
L1D ROI Sum of L1D PQ occupancy: 1636887205
L1D PREFETCHES PUSHED FROM L2C: 0
L1I TOTAL     ACCESS:   27495282  HIT:   27495277  MISS:          5  HIT %:        100  MISS %: 1.81849e-05   MPKI: 2.5e-05
L1I LOAD      ACCESS:   27495282  HIT:   27495277  MISS:          5  HIT %:        100  MISS %: 1.81849e-05   MPKI: 2.5e-05
L1I PREFETCH  REQUESTED:          0  ISSUED:          0  USEFUL:          0  USELESS:          0
L1I USEFUL LOAD PREFETCHES:          0 PREFETCH ISSUED TO LOWER LEVEL:          0  ACCURACY: -nan
L1I TIMELY PREFETCHES:          0 LATE PREFETCHES: 0 DROPPED PREFETCHES: 0
L1I PREFETCHES SAME FILL-ORIGIN LEVEL: 0 DIFFERENT FILL-ORIGIN LEVEL: 0
L1I AVERAGE MISS LATENCY: 522.2 cycles
L1I RQ	ACCESS:   46348404	FORWARD:          0	MERGED:   18853123	TO_CACHE:   27495281

BTB TOTAL     ACCESS:   16122538  HIT:   16122531  MISS:          7  HIT %:        100  MISS %: 4.34175e-05   MPKI: 3.5e-05
BTB BRANCH_DIRECT_JUMP	ACCESS:          2  HIT:          0  MISS:          2
BTB BRANCH_INDIRECT	ACCESS:          0  HIT:          0  MISS:          0
BTB BRANCH_CONDITIONAL	ACCESS:   16122534  HIT:   16122531  MISS:          3
BTB BRANCH_DIRECT_CALL	ACCESS:          0  HIT:          0  MISS:          0
BTB BRANCH_INDIRECT_CALL	ACCESS:          0  HIT:          0  MISS:          0
BTB BRANCH_RETURN	ACCESS:          2  HIT:          0  MISS:          2
BTB BRANCH_OTHER ACCESS:          0  HIT:          0  MISS:          0

L2C TOTAL     ACCESS:   26232544  HIT:    5557557  MISS:   20674987  HIT %:    21.1857  MISS %:    78.8143   MPKI: 103.375
L2C LOAD      ACCESS:    8649752  HIT:     446841  MISS:    8202911  HIT %:    5.16594  MISS %:    94.8341   MPKI: 41.0146
L2C DATA LOAD MPKI: 41.0145
L2C INSTRUCTION LOAD MPKI: 2.5e-05
L2C RFO       ACCESS:          1  HIT:          0  MISS:          1  HIT %:          0  MISS %:        100   MPKI: 5e-06
L2C PREFETCH  ACCESS:   10391755  HIT:     455007  MISS:    9936748  HIT %:    4.37854  MISS %:    95.6215   MPKI: 49.6837
L2C DATA PREFETCH MPKI: 49.6837
L2C INSTRUCTION PREFETCH MPKI: 0
L2C WRITEBACK ACCESS:     657288  HIT:     556733  MISS:     100555  HIT %:    84.7015  MISS %:    15.2985   MPKI: 0.502775
L2C LOAD TRANSLATION ACCESS:    6533746  HIT:    4098975  MISS:    2434771  HIT %:    62.7355  MISS %:    37.2645   MPKI: 12.1739
L2C TRANSLATION FROM L1D PREFETCHER ACCESS:          2  HIT:          1  MISS:          1  HIT %:         50  MISS %:         50   MPKI: 5e-06
L2C PREFETCH  REQUESTED:          0  ISSUED:          0  USEFUL:     119494  USELESS:    9817218
L2C USEFUL LOAD PREFETCHES:     119494 PREFETCH ISSUED TO LOWER LEVEL:    9936752  ACCURACY: 1.20255
L2C TIMELY PREFETCHES:     119494 LATE PREFETCHES: 0 DROPPED PREFETCHES: 0
L2C PREFETCHES SAME FILL-ORIGIN LEVEL: 0 DIFFERENT FILL-ORIGIN LEVEL: 0
L2C AVERAGE MISS LATENCY: 960.083 cycles
L2C RQ	ACCESS:   15183506	FORWARD:          0	MERGED:          0	TO_CACHE:   15183506
L2C WQ	ACCESS:     657288	FORWARD:          0	MERGED:          0	TO_CACHE:     657288
L2C PQ	ACCESS:   10391759	FORWARD:          0	MERGED:          0	TO_CACHE:   10391759

L2C Instructions Evicting Data 5
L2C Translations Evicting Data 2185504
L2C Data Evicting Data 15959785
L2C Instructions Evicting Instructions 0
L2C Translations Evicting Instructions 0
L2C Data Evicting Instructions 5
L2C Instructions Evicting Translations 0
L2C Translations Evicting Translations 249263
L2C Data Evicting Translations 2179836
L2C Dense regions hint from L2: 0
PSCL5 TOTAL     ACCESS:    5351420  HIT:    5351420  MISS:          0  HIT %:        100  MISS %:          0   MPKI: 0
PSCL5 LOAD TRANSLATION ACCESS:    5351419  HIT:    5351419  MISS:          0  HIT %:        100  MISS %:          0   MPKI: 0
PSCL5 TRANSLATION FROM L1D PREFETCHER ACCESS:          1  HIT:          1  MISS:          0  HIT %:        100  MISS %:          0   MPKI: 0
PSCL5 PREFETCH  REQUESTED:          0  ISSUED:          0  USEFUL:          0  USELESS:          0
PSCL5 USEFUL LOAD PREFETCHES:          0 PREFETCH ISSUED TO LOWER LEVEL:          0  ACCURACY: -nan
PSCL5 TIMELY PREFETCHES:          0 LATE PREFETCHES: 0 DROPPED PREFETCHES: 0
PSCL5 PREFETCHES SAME FILL-ORIGIN LEVEL: 0 DIFFERENT FILL-ORIGIN LEVEL: 0

PSCL4 TOTAL     ACCESS:    5351420  HIT:    5351420  MISS:          0  HIT %:        100  MISS %:          0   MPKI: 0
PSCL4 LOAD TRANSLATION ACCESS:    5351419  HIT:    5351419  MISS:          0  HIT %:        100  MISS %:          0   MPKI: 0
PSCL4 TRANSLATION FROM L1D PREFETCHER ACCESS:          1  HIT:          1  MISS:          0  HIT %:        100  MISS %:          0   MPKI: 0
PSCL4 PREFETCH  REQUESTED:          0  ISSUED:          0  USEFUL:          0  USELESS:          0
PSCL4 USEFUL LOAD PREFETCHES:          0 PREFETCH ISSUED TO LOWER LEVEL:          0  ACCURACY: -nan
PSCL4 TIMELY PREFETCHES:          0 LATE PREFETCHES: 0 DROPPED PREFETCHES: 0
PSCL4 PREFETCHES SAME FILL-ORIGIN LEVEL: 0 DIFFERENT FILL-ORIGIN LEVEL: 0

PSCL3 TOTAL     ACCESS:    5351420  HIT:    5351420  MISS:          0  HIT %:        100  MISS %:          0   MPKI: 0
PSCL3 LOAD TRANSLATION ACCESS:    5351419  HIT:    5351419  MISS:          0  HIT %:        100  MISS %:          0   MPKI: 0
PSCL3 TRANSLATION FROM L1D PREFETCHER ACCESS:          1  HIT:          1  MISS:          0  HIT %:        100  MISS %:          0   MPKI: 0
PSCL3 PREFETCH  REQUESTED:          0  ISSUED:          0  USEFUL:          0  USELESS:          0
PSCL3 USEFUL LOAD PREFETCHES:          0 PREFETCH ISSUED TO LOWER LEVEL:          0  ACCURACY: -nan
PSCL3 TIMELY PREFETCHES:          0 LATE PREFETCHES: 0 DROPPED PREFETCHES: 0
PSCL3 PREFETCHES SAME FILL-ORIGIN LEVEL: 0 DIFFERENT FILL-ORIGIN LEVEL: 0

PSCL2 TOTAL     ACCESS:    5351420  HIT:    4169037  MISS:    1182383  HIT %:    77.9052  MISS %:    22.0948   MPKI: 5.91191
PSCL2 LOAD TRANSLATION ACCESS:    5351420  HIT:    4169037  MISS:    1182383  HIT %:    77.9052  MISS %:    22.0948   MPKI: 5.91191
PSCL2 PREFETCH  REQUESTED:          0  ISSUED:          0  USEFUL:          0  USELESS:          0
PSCL2 USEFUL LOAD PREFETCHES:          0 PREFETCH ISSUED TO LOWER LEVEL:          0  ACCURACY: -nan
PSCL2 TIMELY PREFETCHES:          0 LATE PREFETCHES: 0 DROPPED PREFETCHES: 0
PSCL2 PREFETCHES SAME FILL-ORIGIN LEVEL: 0 DIFFERENT FILL-ORIGIN LEVEL: 0

LLC TOTAL     ACCESS:   21231712  HIT:    4322891  MISS:   16908821  HIT %:    20.3605  MISS %:    79.6395   MPKI: 84.5441
LLC LOAD      ACCESS:    8202911  HIT:     737894  MISS:    7465017  HIT %:    8.99551  MISS %:    91.0045   MPKI: 37.3251
LLC RFO       ACCESS:          1  HIT:          0  MISS:          1  HIT %:          0  MISS %:        100   MPKI: 5e-06
LLC PREFETCH  ACCESS:    9936748  HIT:     732303  MISS:    9204445  HIT %:    7.36964  MISS %:    92.6304   MPKI: 46.0222
LLC WRITEBACK ACCESS:     657280  HIT:     548826  MISS:     108454  HIT %:    83.4996  MISS %:    16.5004   MPKI: 0.54227
LLC LOAD TRANSLATION ACCESS:    2434771  HIT:    2303867  MISS:     130904  HIT %:    94.6236  MISS %:    5.37644   MPKI: 0.65452
LLC TRANSLATION FROM L1D PREFETCHER ACCESS:          1  HIT:          1  MISS:          0  HIT %:        100  MISS %:          0   MPKI: 0
LLC PREFETCH  REQUESTED:          0  ISSUED:          0  USEFUL:    1157205  USELESS:   26369614
LLC USEFUL LOAD PREFETCHES:    1157205 PREFETCH ISSUED TO LOWER LEVEL:   27734991  ACCURACY: 4.17236
LLC TIMELY PREFETCHES:    1157205 LATE PREFETCHES: 0 DROPPED PREFETCHES: 0
LLC PREFETCHES SAME FILL-ORIGIN LEVEL: 0 DIFFERENT FILL-ORIGIN LEVEL: 0
LLC AVERAGE MISS LATENCY: 4564.49 cycles
LLC RQ	ACCESS:   56682470	FORWARD:          0	MERGED:          0	TO_CACHE:   56679799
LLC WQ	ACCESS:   35329977	FORWARD:       2671	MERGED:          0	TO_CACHE:   35329977
LLC PQ	ACCESS:   33786941	FORWARD:          0	MERGED:          0	TO_CACHE:   33786941

LLC Dense regions hint to LLC: 0

RAW hits: 4332778
Loads Generated: 69889266
Loads sent to L1D: 65556487
Stores Generated: 10633183
Stores sent to L1D: 10633183
Major fault: 0 Minor fault: 49890
Allocated PAGES: 463805

stream: 
stream:times selected: 34874353
stream:pref_filled: 15043873
stream:pref_useful: 989449
stream:pref_late: 122560
stream:misses: 3621558
stream:misses_by_poll: 0

CS: 
CS:times selected: 7872317
CS:pref_filled: 3982100
CS:pref_useful: 3811793
CS:pref_late: 2050948
CS:misses: 4564845
CS:misses_by_poll: 10217

CPLX: 
CPLX:times selected: 26785006
CPLX:pref_filled: 514354
CPLX:pref_useful: 40721
CPLX:pref_late: 3498
CPLX:misses: 12997728
CPLX:misses_by_poll: 273

NL_L1: 
NL:times selected: 91670
NL:pref_filled: 56154
NL:pref_useful: 3767
NL:pref_late: 415
NL:misses: 56275
NL:misses_by_poll: 6

total selections: 69623346
total_filled: 16541201
total_useful: 4238946
total_late: 2187213
total_polluted: 10496
total_misses_after_warmup: 18774475
conflicts: 141834978
Degree Incremented Times: 1709470
Degree Decremented Times: 7676219

L1 IP Table Write Accesses: 529139246
L1 IP Table Read Accesses: 387304268
L1 RST Write Accesses: 99881702
L1 RST Read Accesses: 199763404
L1 CSPT Write Accesses: 99881702
L1 CSPT Read Accesses: 220488714
L1 RR Filter Tag Write Accesses: 99993069
L1 RR Filter Tag Read Accesses: 8864478901
L1 IP Table Tag Write Accesses: 768939090
L1 IP Table Tag Read Accesses: 768939090
L1 RST Tag Write Accesses: 0
L1 RST Tag Read Accesses: 893269854
L1 RR Filter Write Accesses: 0
L1 RR Filter Read Accesses: 379781928
test: 36003383

stream: 
stream:times selected: 38301790
stream:pref_filled: 825789
stream:pref_useful: 825783
stream:pref_late: 556751
stream:misses: 599119
stream:misses_by_poll: 0

CS: 
CS:times selected: 10818226
CS:pref_filled: 3566205
CS:pref_useful: 3566200
CS:pref_late: 554402
CS:misses: 1502980
CS:misses_by_poll: 26150

CPLX: 
CPLX:times selected: 27446386
CPLX:pref_filled: 2426978
CPLX:pref_useful: 2426969
CPLX:pref_late: 384602
CPLX:misses: 2455494
CPLX:misses_by_poll: 15751

NL_L1: 
NL:times selected: 21136
NL:pref_filled: 576
NL:pref_useful: 576
NL:pref_late: 950
NL:misses: 2815
NL:misses_by_poll: 0

total selections: 76587538
total_filled: 6160724
total_useful: 6160721
total_late: 1504231
total_polluted: 41901
total_misses_after_warmup: 4585651
conflicts: 141834978
Degree Incremented Times: 1709470
Degree Decremented Times: 7676219

L1 IP Table Write Accesses: 529139246
L1 IP Table Read Accesses: 387304268
L1 RST Write Accesses: 99881702
L1 RST Read Accesses: 199763404
L1 CSPT Write Accesses: 99881702
L1 CSPT Read Accesses: 220488714
L1 RR Filter Tag Write Accesses: 99993069
L1 RR Filter Tag Read Accesses: 8864478901
L1 IP Table Tag Write Accesses: 768939090
L1 IP Table Tag Read Accesses: 768939090
L1 RST Tag Write Accesses: 0
L1 RST Tag Read Accesses: 893269854
L1 RR Filter Write Accesses: 0
L1 RR Filter Read Accesses: 379781928
test: 36003383

stream: 
stream:times selected: 12929246
stream:pref_filled: 9436141
stream:pref_useful: 298643
stream:pref_late: 4841
stream:misses: 74554
stream:misses_by_poll: 0

CS: 
CS:times selected: 9803911
CS:pref_filled: 41382
CS:pref_useful: 1417
CS:pref_late: 34
CS:misses: 131054
CS:misses_by_poll: 16

CPLX: 
CPLX:times selected: 12921785
CPLX:pref_filled: 475251
CPLX:pref_useful: 66210
CPLX:pref_late: 310
CPLX:misses: 51653237
CPLX:misses_by_poll: 145

NL_L1: 
NL:times selected: 50
NL:pref_filled: 40
NL:pref_useful: 3
NL:pref_late: 0
NL:misses: 84
NL:misses_by_poll: 0

total selections: 35654992
total_filled: 9689987
total_useful: 357698
total_late: 5782
total_polluted: 161
total_misses_after_warmup: 132360688
conflicts: 141834978
Degree Incremented Times: 1709470
Degree Decremented Times: 7676219

L1 IP Table Write Accesses: 529139246
L1 IP Table Read Accesses: 387304268
L1 RST Write Accesses: 99881702
L1 RST Read Accesses: 199763404
L1 CSPT Write Accesses: 99881702
L1 CSPT Read Accesses: 220488714
L1 RR Filter Tag Write Accesses: 99993069
L1 RR Filter Tag Read Accesses: 8864478901
L1 IP Table Tag Write Accesses: 768939090
L1 IP Table Tag Read Accesses: 768939090
L1 RST Tag Write Accesses: 0
L1 RST Tag Read Accesses: 893269854
L1 RR Filter Write Accesses: 0
L1 RR Filter Read Accesses: 379781928
test: 36003383

stream: 
stream:times selected: 25976157
stream:pref_filled: 11316656
stream:pref_useful: 373705
stream:pref_late: 54193
stream:misses: 2978296
stream:misses_by_poll: 0

CS: 
CS:times selected: 3730009
CS:pref_filled: 1967030
CS:pref_useful: 1906585
CS:pref_late: 240746
CS:misses: 838749
CS:misses_by_poll: 3276

CPLX: 
CPLX:times selected: 22026919
CPLX:pref_filled: 463589
CPLX:pref_useful: 22950
CPLX:pref_late: 1912
CPLX:misses: 9381920
CPLX:misses_by_poll: 350

NL_L1: 
NL:times selected: 54712
NL:pref_filled: 33770
NL:pref_useful: 1269
NL:pref_late: 342
NL:misses: 32410
NL:misses_by_poll: 0

total selections: 51787797
total_filled: 10111685
total_useful: 1868251
total_late: 298518
total_polluted: 3626
total_misses_after_warmup: 9934695
conflicts: 141834978
Degree Incremented Times: 1709470
Degree Decremented Times: 7676219

L1 IP Table Write Accesses: 529139246
L1 IP Table Read Accesses: 387304268
L1 RST Write Accesses: 99881702
L1 RST Read Accesses: 199763404
L1 CSPT Write Accesses: 99881702
L1 CSPT Read Accesses: 220488714
L1 RR Filter Tag Write Accesses: 99993069
L1 RR Filter Tag Read Accesses: 8864478901
L1 IP Table Tag Write Accesses: 768939090
L1 IP Table Tag Read Accesses: 768939090
L1 RST Tag Write Accesses: 0
L1 RST Tag Read Accesses: 893269854
L1 RR Filter Write Accesses: 0
L1 RR Filter Read Accesses: 379781928
test: 36003383

DRAM Statistics
 CHANNEL 0
 RQ ROW_BUFFER_HIT:    7732003  ROW_BUFFER_MISS:   65410857
 DBUS_CONGESTED:          0
 WQ ROW_BUFFER_HIT:    2076449  ROW_BUFFER_MISS:   31378280  FULL:       2194

 AVG_CONGESTED_CYCLE: -
 All warmup complete: 5
Channel 0 Bank busy for read cycles: 0
Channel 0 Bank busy for write cycles: 0
Channel 0
Rank 0
0banks busy for read cycles: 29625
0banks busy for write cycles: 0
1banks busy for read cycles: 7033528
1banks busy for write cycles: 3391814
2banks busy for read cycles: 10011771
2banks busy for write cycles: 3391814
3banks busy for read cycles: 15066341
3banks busy for write cycles: 3391817
4banks busy for read cycles: 27941410
4banks busy for write cycles: 3392832
5banks busy for read cycles: 72451273
5banks busy for write cycles: 3511749
6banks busy for read cycles: 203443114
6banks busy for write cycles: 9009575
7banks busy for read cycles: 483342902
7banks busy for write cycles: 117319932
8banks busy for read cycles: 781485059
8banks busy for write cycles: 788240746

CPU 0 Branch Prediction Accuracy: 98.3724% MPKI: 2.64889 Average ROB Occupancy at Mispredict: 116.137
Branch types
NOT_BRANCH: 342537452 83.6213%
BRANCH_DIRECT_JUMP: 94 2.29476e-05%
BRANCH_INDIRECT: 0 0%
BRANCH_CONDITIONAL: 67091896 16.3787%
BRANCH_DIRECT_CALL: 26 6.3472e-06%
BRANCH_INDIRECT_CALL: 0 0%
BRANCH_RETURN: 26 6.3472e-06%
BRANCH_OTHER: 0 0%


CPU 1 Branch Prediction Accuracy: 98.3251% MPKI: 0.237915 Average ROB Occupancy at Mispredict: 251.345
Branch types
NOT_BRANCH: 1105097549 98.5644%
BRANCH_DIRECT_JUMP: 1803625 0.160867%
BRANCH_INDIRECT: 0 0%
BRANCH_CONDITIONAL: 14292125 1.27472%
BRANCH_DIRECT_CALL: 2 1.78381e-07%
BRANCH_INDIRECT_CALL: 0 0%
BRANCH_RETURN: 2 1.78381e-07%
BRANCH_OTHER: 0 0%


CPU 2 Branch Prediction Accuracy: 99.985% MPKI: 0.00133631 Average ROB Occupancy at Mispredict: 52.7751
Branch types
NOT_BRANCH: 1823742266 99.1085%
BRANCH_DIRECT_JUMP: 2007960 0.10912%
BRANCH_INDIRECT: 334595 0.0181831%
BRANCH_CONDITIONAL: 10047776 0.546031%
BRANCH_DIRECT_CALL: 2007160 0.109076%
BRANCH_INDIRECT_CALL: 0 0%
BRANCH_RETURN: 2007160 0.109076%
BRANCH_OTHER: 0 0%


CPU 3 Branch Prediction Accuracy: 93.8913% MPKI: 8.07536 Average ROB Occupancy at Mispredict: 101.269
Branch types
NOT_BRANCH: 173244347 86.6222%
BRANCH_DIRECT_JUMP: 2 1e-06%
BRANCH_INDIRECT: 0 0%
BRANCH_CONDITIONAL: 26755716 13.3779%
BRANCH_DIRECT_CALL: 0 0%
BRANCH_INDIRECT_CALL: 0 0%
BRANCH_RETURN: 2 1e-06%
BRANCH_OTHER: 0 0%

DRAM PAGES: 1048576
Allocated PAGES: 463805
