
*** ChampSim Multicore Out-of-Order Simulator ***

Warmup Instructions: 50000000
Simulation Instructions: 200000000
Number of CPUs: 4
LLC sets: 8192
LLC ways: 16
Off-chip DRAM Size: 4096 MB Channels: 1 Width: 64-bit Data Rate: 6400 MT/s
CPU 0 runs ./traces/spec/470.lbm-1274B.champsimtrace.xz
.xz
CPU 1 runs ./traces/spec/470.lbm-1274B.champsimtrace.xz
.xz
CPU 2 runs ./traces/spec/470.lbm-1274B.champsimtrace.xz
.xz
CPU 3 runs ./traces/spec/470.lbm-1274B.champsimtrace.xz
.xz
BTB has LRU replacement policy
ITLB has LRU replacement policy
DTLB has LRU replacement policy
STLB has LRU replacement policy
L1I has LRU replacement policy
IP Table Entries: 1024
CSPT Entries: 128
RR_ENTRIES: 32
RST_ENTRIES: 8
L1D has LRU replacement policy
Initialize SRRIP state for L2C
Initialize DRRIP state for LLC
BTB has LRU replacement policy
ITLB has LRU replacement policy
DTLB has LRU replacement policy
STLB has LRU replacement policy
L1I has LRU replacement policy
IP Table Entries: 1024
CSPT Entries: 128
RR_ENTRIES: 32
RST_ENTRIES: 8
L1D has LRU replacement policy
Initialize SRRIP state for L2C
Initialize DRRIP state for LLC
BTB has LRU replacement policy
ITLB has LRU replacement policy
DTLB has LRU replacement policy
STLB has LRU replacement policy
L1I has LRU replacement policy
IP Table Entries: 1024
CSPT Entries: 128
RR_ENTRIES: 32
RST_ENTRIES: 8
L1D has LRU replacement policy
Initialize SRRIP state for L2C
Initialize DRRIP state for LLC
BTB has LRU replacement policy
ITLB has LRU replacement policy
DTLB has LRU replacement policy
STLB has LRU replacement policy
L1I has LRU replacement policy
IP Table Entries: 1024
CSPT Entries: 128
RR_ENTRIES: 32
RST_ENTRIES: 8
L1D has LRU replacement policy
Initialize SRRIP state for L2C
Initialize DRRIP state for LLC
Heartbeat CPU 0 instructions: 10000001 cycles: 2704200 heartbeat IPC: 3.69795 cumulative IPC: 3.69795 (Simulation time: 0 hr 3 min 13 sec) 
Heartbeat CPU 1 instructions: 10000001 cycles: 2706936 heartbeat IPC: 3.69421 cumulative IPC: 3.69421 (Simulation time: 0 hr 3 min 13 sec) 
Heartbeat CPU 2 instructions: 10000001 cycles: 2707338 heartbeat IPC: 3.69367 cumulative IPC: 3.69367 (Simulation time: 0 hr 3 min 13 sec) 
Heartbeat CPU 3 instructions: 10000001 cycles: 2707467 heartbeat IPC: 3.69349 cumulative IPC: 3.69349 (Simulation time: 0 hr 3 min 13 sec) 
Heartbeat CPU 0 instructions: 20000000 cycles: 5400370 heartbeat IPC: 3.70896 cumulative IPC: 3.70345 (Simulation time: 0 hr 6 min 18 sec) 
Heartbeat CPU 1 instructions: 20000000 cycles: 5406850 heartbeat IPC: 3.70382 cumulative IPC: 3.69901 (Simulation time: 0 hr 6 min 18 sec) 
Heartbeat CPU 2 instructions: 20000000 cycles: 5407539 heartbeat IPC: 3.70343 cumulative IPC: 3.69854 (Simulation time: 0 hr 6 min 19 sec) 
Heartbeat CPU 3 instructions: 20000000 cycles: 5407778 heartbeat IPC: 3.70328 cumulative IPC: 3.69838 (Simulation time: 0 hr 6 min 19 sec) 
Heartbeat CPU 0 instructions: 30000001 cycles: 8096887 heartbeat IPC: 3.70849 cumulative IPC: 3.70513 (Simulation time: 0 hr 9 min 19 sec) 
Heartbeat CPU 1 instructions: 30000001 cycles: 8108808 heartbeat IPC: 3.70102 cumulative IPC: 3.69968 (Simulation time: 0 hr 9 min 20 sec) 
Heartbeat CPU 2 instructions: 30000001 cycles: 8110169 heartbeat IPC: 3.7001 cumulative IPC: 3.69906 (Simulation time: 0 hr 9 min 20 sec) 
Heartbeat CPU 3 instructions: 30000001 cycles: 8110463 heartbeat IPC: 3.70002 cumulative IPC: 3.69893 (Simulation time: 0 hr 9 min 20 sec) 
Heartbeat CPU 0 instructions: 40000001 cycles: 10793200 heartbeat IPC: 3.70877 cumulative IPC: 3.70604 (Simulation time: 0 hr 12 min 14 sec) 
Heartbeat CPU 1 instructions: 40000001 cycles: 10809406 heartbeat IPC: 3.70288 cumulative IPC: 3.70048 (Simulation time: 0 hr 12 min 15 sec) 
Heartbeat CPU 2 instructions: 40000001 cycles: 10811684 heartbeat IPC: 3.70163 cumulative IPC: 3.6997 (Simulation time: 0 hr 12 min 15 sec) 
Heartbeat CPU 3 instructions: 40000001 cycles: 10812064 heartbeat IPC: 3.70151 cumulative IPC: 3.69957 (Simulation time: 0 hr 12 min 15 sec) 
Heartbeat CPU 0 instructions: 50000003 cycles: 13489433 heartbeat IPC: 3.70888 cumulative IPC: 3.70661 (Simulation time: 0 hr 15 min 10 sec) 
Heartbeat CPU 1 instructions: 50000003 cycles: 13507485 heartbeat IPC: 3.70634 cumulative IPC: 3.70165 (Simulation time: 0 hr 15 min 11 sec) 
Heartbeat CPU 2 instructions: 50000003 cycles: 13511746 heartbeat IPC: 3.70362 cumulative IPC: 3.70048 (Simulation time: 0 hr 15 min 12 sec) 
Heartbeat CPU 3 instructions: 50000003 cycles: 13512035 heartbeat IPC: 3.70374 cumulative IPC: 3.70041 (Simulation time: 0 hr 15 min 12 sec) 

Warmup complete CPU 0 instructions: 50083968 cycles: 13512035 (Simulation time: 0 hr 15 min 12 sec) 
Warmup complete CPU 1 instructions: 50016903 cycles: 13512035 (Simulation time: 0 hr 15 min 12 sec) 
Warmup complete CPU 2 instructions: 50001127 cycles: 13512035 (Simulation time: 0 hr 15 min 12 sec) 
Warmup complete CPU 3 instructions: 50000003 cycles: 13512035 (Simulation time: 0 hr 15 min 12 sec) 

Heartbeat CPU 0 instructions: 60000002 cycles: 57978112 heartbeat IPC: 0.224776 cumulative IPC: 0.223002 (Simulation time: 0 hr 26 min 4 sec) 
Heartbeat CPU 2 instructions: 60000002 cycles: 58250175 heartbeat IPC: 0.223521 cumulative IPC: 0.223498 (Simulation time: 0 hr 26 min 8 sec) 
Heartbeat CPU 3 instructions: 60000002 cycles: 58443951 heartbeat IPC: 0.222559 cumulative IPC: 0.222559 (Simulation time: 0 hr 26 min 12 sec) 
Heartbeat CPU 1 instructions: 60000001 cycles: 59443183 heartbeat IPC: 0.217696 cumulative IPC: 0.217349 (Simulation time: 0 hr 26 min 27 sec) 
Heartbeat CPU 0 instructions: 70000003 cycles: 103297922 heartbeat IPC: 0.220654 cumulative IPC: 0.221817 (Simulation time: 0 hr 37 min 25 sec) 
Heartbeat CPU 2 instructions: 70000001 cycles: 103314195 heartbeat IPC: 0.221906 cumulative IPC: 0.222699 (Simulation time: 0 hr 37 min 25 sec) 
Heartbeat CPU 3 instructions: 70000001 cycles: 103653996 heartbeat IPC: 0.22119 cumulative IPC: 0.221872 (Simulation time: 0 hr 37 min 29 sec) 
Heartbeat CPU 1 instructions: 70000003 cycles: 105204661 heartbeat IPC: 0.218524 cumulative IPC: 0.217936 (Simulation time: 0 hr 37 min 49 sec) 
Heartbeat CPU 0 instructions: 80000001 cycles: 148093113 heartbeat IPC: 0.223238 cumulative IPC: 0.22229 (Simulation time: 0 hr 48 min 54 sec) 
Heartbeat CPU 3 instructions: 80000001 cycles: 148387386 heartbeat IPC: 0.223547 cumulative IPC: 0.222428 (Simulation time: 0 hr 48 min 58 sec) 
Heartbeat CPU 2 instructions: 80000003 cycles: 148698093 heartbeat IPC: 0.220343 cumulative IPC: 0.221908 (Simulation time: 0 hr 49 min 3 sec) 
Heartbeat CPU 1 instructions: 80000001 cycles: 150661856 heartbeat IPC: 0.219987 cumulative IPC: 0.218616 (Simulation time: 0 hr 49 min 35 sec) 
Heartbeat CPU 0 instructions: 90000001 cycles: 193281742 heartbeat IPC: 0.221295 cumulative IPC: 0.22204 (Simulation time: 1 hr 0 min 33 sec) 
Heartbeat CPU 3 instructions: 90000001 cycles: 193850674 heartbeat IPC: 0.219958 cumulative IPC: 0.221805 (Simulation time: 1 hr 0 min 43 sec) 
Heartbeat CPU 2 instructions: 90000000 cycles: 194187241 heartbeat IPC: 0.219833 cumulative IPC: 0.221386 (Simulation time: 1 hr 0 min 48 sec) 
Heartbeat CPU 1 instructions: 90000002 cycles: 195706637 heartbeat IPC: 0.222001 cumulative IPC: 0.219453 (Simulation time: 1 hr 1 min 14 sec) 
Heartbeat CPU 0 instructions: 100000000 cycles: 238484949 heartbeat IPC: 0.221223 cumulative IPC: 0.221876 (Simulation time: 1 hr 12 min 32 sec) 
Heartbeat CPU 2 instructions: 100000003 cycles: 239304904 heartbeat IPC: 0.221643 cumulative IPC: 0.221437 (Simulation time: 1 hr 12 min 45 sec) 
Heartbeat CPU 3 instructions: 100000001 cycles: 239768060 heartbeat IPC: 0.217782 cumulative IPC: 0.220989 (Simulation time: 1 hr 12 min 51 sec) 
Heartbeat CPU 1 instructions: 100000002 cycles: 241095015 heartbeat IPC: 0.220321 cumulative IPC: 0.219626 (Simulation time: 1 hr 13 min 11 sec) 
Heartbeat CPU 0 instructions: 110000000 cycles: 283802934 heartbeat IPC: 0.220663 cumulative IPC: 0.221672 (Simulation time: 1 hr 23 min 54 sec) 
Heartbeat CPU 2 instructions: 110000000 cycles: 284498967 heartbeat IPC: 0.221268 cumulative IPC: 0.221409 (Simulation time: 1 hr 24 min 5 sec) 
Heartbeat CPU 3 instructions: 110000000 cycles: 285215861 heartbeat IPC: 0.220033 cumulative IPC: 0.220829 (Simulation time: 1 hr 24 min 14 sec) 
Heartbeat CPU 1 instructions: 110000000 cycles: 286256856 heartbeat IPC: 0.221426 cumulative IPC: 0.219924 (Simulation time: 1 hr 24 min 32 sec) 
Heartbeat CPU 0 instructions: 120000002 cycles: 328993300 heartbeat IPC: 0.221286 cumulative IPC: 0.221617 (Simulation time: 1 hr 35 min 38 sec) 
Heartbeat CPU 2 instructions: 120000002 cycles: 329565693 heartbeat IPC: 0.221893 cumulative IPC: 0.221478 (Simulation time: 1 hr 35 min 45 sec) 
Heartbeat CPU 3 instructions: 120000002 cycles: 330705772 heartbeat IPC: 0.219829 cumulative IPC: 0.220685 (Simulation time: 1 hr 36 min 3 sec) 
Heartbeat CPU 1 instructions: 120000002 cycles: 332077661 heartbeat IPC: 0.218242 cumulative IPC: 0.219682 (Simulation time: 1 hr 36 min 24 sec) 
Heartbeat CPU 0 instructions: 130000002 cycles: 374574655 heartbeat IPC: 0.219388 cumulative IPC: 0.221336 (Simulation time: 1 hr 47 min 9 sec) 
Heartbeat CPU 2 instructions: 130000002 cycles: 374843806 heartbeat IPC: 0.220857 cumulative IPC: 0.2214 (Simulation time: 1 hr 47 min 12 sec) 
Heartbeat CPU 3 instructions: 130000002 cycles: 375926395 heartbeat IPC: 0.221138 cumulative IPC: 0.220742 (Simulation time: 1 hr 47 min 27 sec) 
Heartbeat CPU 1 instructions: 130000002 cycles: 377464628 heartbeat IPC: 0.220328 cumulative IPC: 0.219762 (Simulation time: 1 hr 47 min 47 sec) 
Heartbeat CPU 0 instructions: 140000003 cycles: 419682428 heartbeat IPC: 0.221691 cumulative IPC: 0.221375 (Simulation time: 1 hr 58 min 18 sec) 
Heartbeat CPU 2 instructions: 140000003 cycles: 420437241 heartbeat IPC: 0.21933 cumulative IPC: 0.221168 (Simulation time: 1 hr 58 min 31 sec) 
Heartbeat CPU 3 instructions: 140000001 cycles: 421177666 heartbeat IPC: 0.220988 cumulative IPC: 0.220769 (Simulation time: 1 hr 58 min 43 sec) 
Heartbeat CPU 1 instructions: 140000003 cycles: 422489836 heartbeat IPC: 0.222098 cumulative IPC: 0.22002 (Simulation time: 1 hr 59 min 3 sec) 
Heartbeat CPU 0 instructions: 150000001 cycles: 464468186 heartbeat IPC: 0.223285 cumulative IPC: 0.221565 (Simulation time: 2 hr 8 min 35 sec) 
Heartbeat CPU 2 instructions: 150000001 cycles: 465380627 heartbeat IPC: 0.222502 cumulative IPC: 0.221301 (Simulation time: 2 hr 8 min 49 sec) 
Heartbeat CPU 3 instructions: 150000003 cycles: 466577900 heartbeat IPC: 0.220263 cumulative IPC: 0.220718 (Simulation time: 2 hr 9 min 6 sec) 
Heartbeat CPU 1 instructions: 150000001 cycles: 467602243 heartbeat IPC: 0.221668 cumulative IPC: 0.220183 (Simulation time: 2 hr 9 min 19 sec) 
Heartbeat CPU 0 instructions: 160000000 cycles: 509687038 heartbeat IPC: 0.221147 cumulative IPC: 0.221527 (Simulation time: 2 hr 20 min 4 sec) 
Heartbeat CPU 2 instructions: 160000000 cycles: 510655412 heartbeat IPC: 0.220873 cumulative IPC: 0.221262 (Simulation time: 2 hr 20 min 17 sec) 
Heartbeat CPU 3 instructions: 160000000 cycles: 512007565 heartbeat IPC: 0.22012 cumulative IPC: 0.220664 (Simulation time: 2 hr 20 min 37 sec) 
Heartbeat CPU 1 instructions: 160000000 cycles: 513371517 heartbeat IPC: 0.218487 cumulative IPC: 0.220028 (Simulation time: 2 hr 20 min 57 sec) 
Heartbeat CPU 0 instructions: 170000000 cycles: 554978898 heartbeat IPC: 0.22079 cumulative IPC: 0.221465 (Simulation time: 2 hr 31 min 18 sec) 
Heartbeat CPU 2 instructions: 170000000 cycles: 555772449 heartbeat IPC: 0.221646 cumulative IPC: 0.221294 (Simulation time: 2 hr 31 min 28 sec) 
Heartbeat CPU 3 instructions: 170000002 cycles: 557195265 heartbeat IPC: 0.221299 cumulative IPC: 0.220717 (Simulation time: 2 hr 31 min 47 sec) 
Heartbeat CPU 1 instructions: 170000001 cycles: 558756538 heartbeat IPC: 0.220337 cumulative IPC: 0.220054 (Simulation time: 2 hr 32 min 9 sec) 
Heartbeat CPU 0 instructions: 180000001 cycles: 600426731 heartbeat IPC: 0.220033 cumulative IPC: 0.221354 (Simulation time: 2 hr 42 min 17 sec) 
Heartbeat CPU 2 instructions: 180000001 cycles: 600852220 heartbeat IPC: 0.221829 cumulative IPC: 0.221335 (Simulation time: 2 hr 42 min 22 sec) 
Heartbeat CPU 3 instructions: 180000001 cycles: 603049845 heartbeat IPC: 0.218081 cumulative IPC: 0.220512 (Simulation time: 2 hr 42 min 52 sec) 
Heartbeat CPU 1 instructions: 180000001 cycles: 603779464 heartbeat IPC: 0.222109 cumulative IPC: 0.220211 (Simulation time: 2 hr 43 min 0 sec) 
Heartbeat CPU 0 instructions: 190000002 cycles: 645838906 heartbeat IPC: 0.220205 cumulative IPC: 0.221272 (Simulation time: 2 hr 53 min 54 sec) 
Heartbeat CPU 2 instructions: 190000002 cycles: 646688993 heartbeat IPC: 0.218165 cumulative IPC: 0.221105 (Simulation time: 2 hr 54 min 6 sec) 
Heartbeat CPU 3 instructions: 190000002 cycles: 648332924 heartbeat IPC: 0.220833 cumulative IPC: 0.220535 (Simulation time: 2 hr 54 min 28 sec) 
Heartbeat CPU 1 instructions: 190000001 cycles: 648887807 heartbeat IPC: 0.221688 cumulative IPC: 0.220315 (Simulation time: 2 hr 54 min 37 sec) 
Heartbeat CPU 0 instructions: 200000002 cycles: 691242205 heartbeat IPC: 0.220248 cumulative IPC: 0.221203 (Simulation time: 3 hr 4 min 59 sec) 
Heartbeat CPU 2 instructions: 200000003 cycles: 692295380 heartbeat IPC: 0.219268 cumulative IPC: 0.220982 (Simulation time: 3 hr 5 min 12 sec) 
Heartbeat CPU 3 instructions: 200000002 cycles: 693495677 heartbeat IPC: 0.221421 cumulative IPC: 0.220594 (Simulation time: 3 hr 5 min 28 sec) 
Heartbeat CPU 1 instructions: 200000001 cycles: 693997104 heartbeat IPC: 0.221684 cumulative IPC: 0.220406 (Simulation time: 3 hr 5 min 34 sec) 
Heartbeat CPU 0 instructions: 210000000 cycles: 736622580 heartbeat IPC: 0.22036 cumulative IPC: 0.22115 (Simulation time: 3 hr 15 min 25 sec) 
Heartbeat CPU 2 instructions: 210000003 cycles: 737026305 heartbeat IPC: 0.223559 cumulative IPC: 0.221141 (Simulation time: 3 hr 15 min 32 sec) 
Heartbeat CPU 3 instructions: 210000003 cycles: 738760616 heartbeat IPC: 0.220922 cumulative IPC: 0.220614 (Simulation time: 3 hr 15 min 58 sec) 
Heartbeat CPU 1 instructions: 210000001 cycles: 738833006 heartbeat IPC: 0.223036 cumulative IPC: 0.220569 (Simulation time: 3 hr 16 min 0 sec) 
Heartbeat CPU 0 instructions: 220000000 cycles: 781628484 heartbeat IPC: 0.222193 cumulative IPC: 0.221211 (Simulation time: 3 hr 26 min 46 sec) 
Heartbeat CPU 2 instructions: 220000000 cycles: 781882234 heartbeat IPC: 0.222936 cumulative IPC: 0.221246 (Simulation time: 3 hr 26 min 49 sec) 
Heartbeat CPU 3 instructions: 220000000 cycles: 783860754 heartbeat IPC: 0.221729 cumulative IPC: 0.220679 (Simulation time: 3 hr 27 min 18 sec) 
Heartbeat CPU 1 instructions: 220000000 cycles: 784067893 heartbeat IPC: 0.221068 cumulative IPC: 0.220598 (Simulation time: 3 hr 27 min 22 sec) 
Heartbeat CPU 0 instructions: 230000003 cycles: 826908992 heartbeat IPC: 0.220846 cumulative IPC: 0.221191 (Simulation time: 3 hr 37 min 46 sec) 
Heartbeat CPU 2 instructions: 230000003 cycles: 827367041 heartbeat IPC: 0.219854 cumulative IPC: 0.221168 (Simulation time: 3 hr 37 min 53 sec) 
Heartbeat CPU 3 instructions: 230000003 cycles: 829230746 heartbeat IPC: 0.22041 cumulative IPC: 0.220664 (Simulation time: 3 hr 38 min 24 sec) 
Heartbeat CPU 1 instructions: 230000003 cycles: 829891140 heartbeat IPC: 0.21823 cumulative IPC: 0.220465 (Simulation time: 3 hr 38 min 33 sec) 
Heartbeat CPU 0 instructions: 240000001 cycles: 872178376 heartbeat IPC: 0.2209 cumulative IPC: 0.221176 (Simulation time: 3 hr 49 min 2 sec) 
Heartbeat CPU 2 instructions: 240000000 cycles: 873366421 heartbeat IPC: 0.217394 cumulative IPC: 0.220966 (Simulation time: 3 hr 49 min 19 sec) 
Heartbeat CPU 3 instructions: 240000000 cycles: 874406983 heartbeat IPC: 0.221355 cumulative IPC: 0.220701 (Simulation time: 3 hr 49 min 35 sec) 
Heartbeat CPU 1 instructions: 240000000 cycles: 874997366 heartbeat IPC: 0.221699 cumulative IPC: 0.22053 (Simulation time: 3 hr 49 min 41 sec) 
Heartbeat CPU 0 instructions: 250000001 cycles: 917786348 heartbeat IPC: 0.21926 cumulative IPC: 0.221079 (Simulation time: 3 hr 59 min 59 sec) 
Finished CPU 0 instructions: 200000001 cycles: 904659090 cumulative IPC: 0.221078 (Simulation time: 4 hr 0 min 6 sec) 
Heartbeat CPU 2 instructions: 250000001 cycles: 918798152 heartbeat IPC: 0.220111 cumulative IPC: 0.220923 (Simulation time: 4 hr 0 min 16 sec) 
Finished CPU 2 instructions: 200000001 cycles: 905297039 cumulative IPC: 0.220922 (Simulation time: 4 hr 0 min 16 sec) 
Heartbeat CPU 3 instructions: 250000003 cycles: 919519628 heartbeat IPC: 0.221667 cumulative IPC: 0.220749 (Simulation time: 4 hr 0 min 28 sec) 
Finished CPU 3 instructions: 200000000 cycles: 906007593 cumulative IPC: 0.220749 (Simulation time: 4 hr 0 min 28 sec) 
Heartbeat CPU 1 instructions: 250000003 cycles: 920064162 heartbeat IPC: 0.221893 cumulative IPC: 0.220597 (Simulation time: 4 hr 0 min 36 sec) 
Finished CPU 1 instructions: 200000001 cycles: 906626672 cumulative IPC: 0.220598 (Simulation time: 4 hr 0 min 37 sec) 

ChampSim completed all CPUs

Total Simulation Statistics (not including warmup)

CPU 0 cumulative IPC: 0.221081 instructions: 200438221 cycles: 906626672
ITLB TOTAL     ACCESS:   28907899  HIT:   28907899  MISS:          0  HIT %:        100  MISS %:          0   MPKI: 0
ITLB LOAD      ACCESS:          0  HIT:          0  MISS:          0  HIT %:       -nan  MISS %:       -nan   MPKI: 0
ITLB RFO       ACCESS:          0  HIT:          0  MISS:          0  HIT %:       -nan  MISS %:       -nan   MPKI: 0
ITLB PREFETCH  ACCESS:          0  HIT:          0  MISS:          0  HIT %:       -nan  MISS %:       -nan   MPKI: 0
ITLB WRITEBACK ACCESS:          0  HIT:          0  MISS:          0  HIT %:       -nan  MISS %:       -nan   MPKI: 0
DTLB TOTAL     ACCESS:   22989947  HIT:   22900800  MISS:      89147  HIT %:    99.6122  MISS %:   0.387765   MPKI: 0.44476
DTLB LOAD      ACCESS:          0  HIT:          0  MISS:          0  HIT %:       -nan  MISS %:       -nan   MPKI: 0
DTLB RFO       ACCESS:          0  HIT:          0  MISS:          0  HIT %:       -nan  MISS %:       -nan   MPKI: 0
DTLB PREFETCH  ACCESS:          0  HIT:          0  MISS:          0  HIT %:       -nan  MISS %:       -nan   MPKI: 0
DTLB WRITEBACK ACCESS:          0  HIT:          0  MISS:          0  HIT %:       -nan  MISS %:       -nan   MPKI: 0
STLB TOTAL     ACCESS:    1187069  HIT:    1097922  MISS:      89147  HIT %:    92.4902  MISS %:    7.50984   MPKI: 0.44476
STLB LOAD      ACCESS:          0  HIT:          0  MISS:          0  HIT %:       -nan  MISS %:       -nan   MPKI: 0
STLB RFO       ACCESS:          0  HIT:          0  MISS:          0  HIT %:       -nan  MISS %:       -nan   MPKI: 0
STLB PREFETCH  ACCESS:          0  HIT:          0  MISS:          0  HIT %:       -nan  MISS %:       -nan   MPKI: 0
STLB WRITEBACK ACCESS:          0  HIT:          0  MISS:          0  HIT %:       -nan  MISS %:       -nan   MPKI: 0
L1D TOTAL     ACCESS:   30881198  HIT:   21478955  MISS:    9402243  HIT %:    69.5535  MISS %:    30.4465   MPKI: 46.9084
L1D LOAD      ACCESS:   10347208  HIT:    9864849  MISS:     482359  HIT %:    95.3383  MISS %:    4.66173   MPKI: 2.40652
L1D RFO       ACCESS:   17298171  HIT:    9320622  MISS:    7977549  HIT %:    53.8821  MISS %:    46.1179   MPKI: 39.8005
L1D PREFETCH  ACCESS:    3235819  HIT:    2293484  MISS:     942335  HIT %:     70.878  MISS %:     29.122   MPKI: 4.70137
L1D WRITEBACK ACCESS:          0  HIT:          0  MISS:          0  HIT %:       -nan  MISS %:       -nan   MPKI: 0
L1I TOTAL     ACCESS:   40243857  HIT:   40243857  MISS:          0  HIT %:        100  MISS %:          0   MPKI: 0
L1I LOAD      ACCESS:   40243857  HIT:   40243857  MISS:          0  HIT %:        100  MISS %:          0   MPKI: 0
L1I RFO       ACCESS:          0  HIT:          0  MISS:          0  HIT %:       -nan  MISS %:       -nan   MPKI: 0
L1I PREFETCH  ACCESS:          0  HIT:          0  MISS:          0  HIT %:       -nan  MISS %:       -nan   MPKI: 0
L1I WRITEBACK ACCESS:          0  HIT:          0  MISS:          0  HIT %:       -nan  MISS %:       -nan   MPKI: 0
L2C TOTAL     ACCESS:   17468938  HIT:   11112382  MISS:    6356556  HIT %:    63.6122  MISS %:    36.3878   MPKI: 31.7133
L2C LOAD      ACCESS:     163929  HIT:          0  MISS:     163929  HIT %:          0  MISS %:        100   MPKI: 0.817853
L2C RFO       ACCESS:    7977549  HIT:    3570710  MISS:    4406839  HIT %:    44.7595  MISS %:    55.2405   MPKI: 21.986
L2C PREFETCH  ACCESS:    1260765  HIT:          0  MISS:    1260765  HIT %:          0  MISS %:        100   MPKI: 6.29004
L2C WRITEBACK ACCESS:    7977542  HIT:    7464281  MISS:     513261  HIT %:    93.5662  MISS %:    6.43382   MPKI: 2.56069
PSCL5 TOTAL     ACCESS:      89147  HIT:      89147  MISS:          0  HIT %:        100  MISS %:          0   MPKI: 0
PSCL5 LOAD      ACCESS:          0  HIT:          0  MISS:          0  HIT %:       -nan  MISS %:       -nan   MPKI: 0
PSCL5 RFO       ACCESS:          0  HIT:          0  MISS:          0  HIT %:       -nan  MISS %:       -nan   MPKI: 0
PSCL5 PREFETCH  ACCESS:          0  HIT:          0  MISS:          0  HIT %:       -nan  MISS %:       -nan   MPKI: 0
PSCL5 WRITEBACK ACCESS:          0  HIT:          0  MISS:          0  HIT %:       -nan  MISS %:       -nan   MPKI: 0
PSCL4 TOTAL     ACCESS:      89147  HIT:      89147  MISS:          0  HIT %:        100  MISS %:          0   MPKI: 0
PSCL4 LOAD      ACCESS:          0  HIT:          0  MISS:          0  HIT %:       -nan  MISS %:       -nan   MPKI: 0
PSCL4 RFO       ACCESS:          0  HIT:          0  MISS:          0  HIT %:       -nan  MISS %:       -nan   MPKI: 0
PSCL4 PREFETCH  ACCESS:          0  HIT:          0  MISS:          0  HIT %:       -nan  MISS %:       -nan   MPKI: 0
PSCL4 WRITEBACK ACCESS:          0  HIT:          0  MISS:          0  HIT %:       -nan  MISS %:       -nan   MPKI: 0
PSCL3 TOTAL     ACCESS:      89147  HIT:      89147  MISS:          0  HIT %:        100  MISS %:          0   MPKI: 0
PSCL3 LOAD      ACCESS:          0  HIT:          0  MISS:          0  HIT %:       -nan  MISS %:       -nan   MPKI: 0
PSCL3 RFO       ACCESS:          0  HIT:          0  MISS:          0  HIT %:       -nan  MISS %:       -nan   MPKI: 0
PSCL3 PREFETCH  ACCESS:          0  HIT:          0  MISS:          0  HIT %:       -nan  MISS %:       -nan   MPKI: 0
PSCL3 WRITEBACK ACCESS:          0  HIT:          0  MISS:          0  HIT %:       -nan  MISS %:       -nan   MPKI: 0
PSCL2 TOTAL     ACCESS:      89147  HIT:      89054  MISS:         93  HIT %:    99.8957  MISS %:   0.104322   MPKI: 0.000463983
PSCL2 LOAD      ACCESS:          0  HIT:          0  MISS:          0  HIT %:       -nan  MISS %:       -nan   MPKI: 0
PSCL2 RFO       ACCESS:          0  HIT:          0  MISS:          0  HIT %:       -nan  MISS %:       -nan   MPKI: 0
PSCL2 PREFETCH  ACCESS:          0  HIT:          0  MISS:          0  HIT %:       -nan  MISS %:       -nan   MPKI: 0
PSCL2 WRITEBACK ACCESS:          0  HIT:          0  MISS:          0  HIT %:       -nan  MISS %:       -nan   MPKI: 0

stream: 
stream:times selected: 8582007
stream:pref_filled: 169941
stream:pref_useful: 169941
stream:pref_late: 103138
stream:misses: 85657
stream:misses_by_poll: 0

CS: 
CS:times selected: 2315197
CS:pref_filled: 738872
CS:pref_useful: 738872
CS:pref_late: 147868
CS:misses: 303728
CS:misses_by_poll: 4204

CPLX: 
CPLX:times selected: 6260582
CPLX:pref_filled: 377837
CPLX:pref_useful: 377837
CPLX:pref_late: 68194
CPLX:misses: 300521
CPLX:misses_by_poll: 1727

NL_L1: 
NL:times selected: 3667
NL:pref_filled: 109
NL:pref_useful: 109
NL:pref_late: 112
NL:misses: 189
NL:misses_by_poll: 0

total selections: 17161453
total_filled: 942335
total_useful: 942349
total_late: 319678
total_polluted: 5931
total_misses_after_warmup: 674827
conflicts: 23835
Degree Incremented Times: 692828
Degree Decremented Times: 0

L1 IP Table Write Accesses: 42090323
L1 IP Table Read Accesses: 42066488
L1 RST Write Accesses: 24966416
L1 RST Read Accesses: 49932832
L1 CSPT Write Accesses: 24966416
L1 CSPT Read Accesses: 71026852
L1 RR Filter Tag Write Accesses: 28352605
L1 RR Filter Tag Read Accesses: 4260807885
L1 IP Table Tag Write Accesses: 42135906
L1 IP Table Tag Read Accesses: 42135906
L1 RST Tag Write Accesses: 0
L1 RST Tag Read Accesses: 224939011
L1 RR Filter Write Accesses: 0
L1 RR Filter Read Accesses: 188863177
test: 3663032
LLC TOTAL     ACCESS:   10265722  HIT:    4393930  MISS:    5871792  HIT %:     42.802  MISS %:     57.198   MPKI: 29.2948
LLC LOAD      ACCESS:     163929  HIT:          0  MISS:     163929  HIT %:          0  MISS %:        100   MPKI: 0.817853
LLC RFO       ACCESS:    4406492  HIT:     133211  MISS:    4273281  HIT %:    3.02306  MISS %:    96.9769   MPKI: 21.3197
LLC PREFETCH  ACCESS:    1260765  HIT:          0  MISS:    1260765  HIT %:          0  MISS %:        100   MPKI: 6.29004
LLC WRITEBACK ACCESS:    4422774  HIT:    4260257  MISS:     162517  HIT %:    96.3255  MISS %:    3.67455   MPKI: 0.810808

RAW hits: 4480388
Loads Generated: 38211266
Loads sent to L1D: 33730889
Stores Generated: 20129628
Stores sent to L1D: 20129623

CPU 1 cumulative IPC: 0.220598 instructions: 200000001 cycles: 906626672
ITLB TOTAL     ACCESS:   28843684  HIT:   28843684  MISS:          0  HIT %:        100  MISS %:          0   MPKI: 0
ITLB LOAD      ACCESS:          0  HIT:          0  MISS:          0  HIT %:       -nan  MISS %:       -nan   MPKI: 0
ITLB RFO       ACCESS:          0  HIT:          0  MISS:          0  HIT %:       -nan  MISS %:       -nan   MPKI: 0
ITLB PREFETCH  ACCESS:          0  HIT:          0  MISS:          0  HIT %:       -nan  MISS %:       -nan   MPKI: 0
ITLB WRITEBACK ACCESS:          0  HIT:          0  MISS:          0  HIT %:       -nan  MISS %:       -nan   MPKI: 0
DTLB TOTAL     ACCESS:   22920398  HIT:   22831444  MISS:      88954  HIT %:    99.6119  MISS %:     0.3881   MPKI: 0.44477
DTLB LOAD      ACCESS:          0  HIT:          0  MISS:          0  HIT %:       -nan  MISS %:       -nan   MPKI: 0
DTLB RFO       ACCESS:          0  HIT:          0  MISS:          0  HIT %:       -nan  MISS %:       -nan   MPKI: 0
DTLB PREFETCH  ACCESS:          0  HIT:          0  MISS:          0  HIT %:       -nan  MISS %:       -nan   MPKI: 0
DTLB WRITEBACK ACCESS:          0  HIT:          0  MISS:          0  HIT %:       -nan  MISS %:       -nan   MPKI: 0
STLB TOTAL     ACCESS:    1183940  HIT:    1094986  MISS:      88954  HIT %:    92.4866  MISS %:    7.51339   MPKI: 0.44477
STLB LOAD      ACCESS:          0  HIT:          0  MISS:          0  HIT %:       -nan  MISS %:       -nan   MPKI: 0
STLB RFO       ACCESS:          0  HIT:          0  MISS:          0  HIT %:       -nan  MISS %:       -nan   MPKI: 0
STLB PREFETCH  ACCESS:          0  HIT:          0  MISS:          0  HIT %:       -nan  MISS %:       -nan   MPKI: 0
STLB WRITEBACK ACCESS:          0  HIT:          0  MISS:          0  HIT %:       -nan  MISS %:       -nan   MPKI: 0
L1D TOTAL     ACCESS:   30780367  HIT:   21398370  MISS:    9381997  HIT %:    69.5195  MISS %:    30.4805   MPKI: 46.91
L1D LOAD      ACCESS:   10314720  HIT:    9832504  MISS:     482216  HIT %:     95.325  MISS %:    4.67503   MPKI: 2.41108
L1D RFO       ACCESS:   17245637  HIT:    9285266  MISS:    7960371  HIT %:    53.8412  MISS %:    46.1588   MPKI: 39.8019
L1D PREFETCH  ACCESS:    3220010  HIT:    2280600  MISS:     939410  HIT %:    70.8259  MISS %:    29.1741   MPKI: 4.69705
L1D WRITEBACK ACCESS:          0  HIT:          0  MISS:          0  HIT %:       -nan  MISS %:       -nan   MPKI: 0
L1I TOTAL     ACCESS:   40153513  HIT:   40153513  MISS:          0  HIT %:        100  MISS %:          0   MPKI: 0
L1I LOAD      ACCESS:   40153513  HIT:   40153513  MISS:          0  HIT %:        100  MISS %:          0   MPKI: 0
L1I RFO       ACCESS:          0  HIT:          0  MISS:          0  HIT %:       -nan  MISS %:       -nan   MPKI: 0
L1I PREFETCH  ACCESS:          0  HIT:          0  MISS:          0  HIT %:       -nan  MISS %:       -nan   MPKI: 0
L1I WRITEBACK ACCESS:          0  HIT:          0  MISS:          0  HIT %:       -nan  MISS %:       -nan   MPKI: 0
L2C TOTAL     ACCESS:   17431316  HIT:   11089208  MISS:    6342108  HIT %:    63.6166  MISS %:    36.3834   MPKI: 31.7105
L2C LOAD      ACCESS:     164499  HIT:          0  MISS:     164499  HIT %:          0  MISS %:        100   MPKI: 0.822495
L2C RFO       ACCESS:    7960371  HIT:    3561164  MISS:    4399207  HIT %:    44.7362  MISS %:    55.2638   MPKI: 21.996
L2C PREFETCH  ACCESS:    1257127  HIT:          0  MISS:    1257127  HIT %:          0  MISS %:        100   MPKI: 6.28563
L2C WRITEBACK ACCESS:    7960359  HIT:    7450812  MISS:     509547  HIT %:    93.5989  MISS %:    6.40106   MPKI: 2.54773
PSCL5 TOTAL     ACCESS:      88954  HIT:      88954  MISS:          0  HIT %:        100  MISS %:          0   MPKI: 0
PSCL5 LOAD      ACCESS:          0  HIT:          0  MISS:          0  HIT %:       -nan  MISS %:       -nan   MPKI: 0
PSCL5 RFO       ACCESS:          0  HIT:          0  MISS:          0  HIT %:       -nan  MISS %:       -nan   MPKI: 0
PSCL5 PREFETCH  ACCESS:          0  HIT:          0  MISS:          0  HIT %:       -nan  MISS %:       -nan   MPKI: 0
PSCL5 WRITEBACK ACCESS:          0  HIT:          0  MISS:          0  HIT %:       -nan  MISS %:       -nan   MPKI: 0
PSCL4 TOTAL     ACCESS:      88954  HIT:      88954  MISS:          0  HIT %:        100  MISS %:          0   MPKI: 0
PSCL4 LOAD      ACCESS:          0  HIT:          0  MISS:          0  HIT %:       -nan  MISS %:       -nan   MPKI: 0
PSCL4 RFO       ACCESS:          0  HIT:          0  MISS:          0  HIT %:       -nan  MISS %:       -nan   MPKI: 0
PSCL4 PREFETCH  ACCESS:          0  HIT:          0  MISS:          0  HIT %:       -nan  MISS %:       -nan   MPKI: 0
PSCL4 WRITEBACK ACCESS:          0  HIT:          0  MISS:          0  HIT %:       -nan  MISS %:       -nan   MPKI: 0
PSCL3 TOTAL     ACCESS:      88954  HIT:      88954  MISS:          0  HIT %:        100  MISS %:          0   MPKI: 0
PSCL3 LOAD      ACCESS:          0  HIT:          0  MISS:          0  HIT %:       -nan  MISS %:       -nan   MPKI: 0
PSCL3 RFO       ACCESS:          0  HIT:          0  MISS:          0  HIT %:       -nan  MISS %:       -nan   MPKI: 0
PSCL3 PREFETCH  ACCESS:          0  HIT:          0  MISS:          0  HIT %:       -nan  MISS %:       -nan   MPKI: 0
PSCL3 WRITEBACK ACCESS:          0  HIT:          0  MISS:          0  HIT %:       -nan  MISS %:       -nan   MPKI: 0
PSCL2 TOTAL     ACCESS:      88954  HIT:      88861  MISS:         93  HIT %:    99.8955  MISS %:   0.104548   MPKI: 0.000465
PSCL2 LOAD      ACCESS:          0  HIT:          0  MISS:          0  HIT %:       -nan  MISS %:       -nan   MPKI: 0
PSCL2 RFO       ACCESS:          0  HIT:          0  MISS:          0  HIT %:       -nan  MISS %:       -nan   MPKI: 0
PSCL2 PREFETCH  ACCESS:          0  HIT:          0  MISS:          0  HIT %:       -nan  MISS %:       -nan   MPKI: 0
PSCL2 WRITEBACK ACCESS:          0  HIT:          0  MISS:          0  HIT %:       -nan  MISS %:       -nan   MPKI: 0

stream: 
stream:times selected: 8565510
stream:pref_filled: 170511
stream:pref_useful: 170511
stream:pref_late: 103421
stream:misses: 86010
stream:misses_by_poll: 0

CS: 
CS:times selected: 2308958
CS:pref_filled: 733201
CS:pref_useful: 733195
CS:pref_late: 146788
CS:misses: 304772
CS:misses_by_poll: 4191

CPLX: 
CPLX:times selected: 6250490
CPLX:pref_filled: 375948
CPLX:pref_useful: 375944
CPLX:pref_late: 69236
CPLX:misses: 304212
CPLX:misses_by_poll: 1844

NL_L1: 
NL:times selected: 3611
NL:pref_filled: 116
NL:pref_useful: 116
NL:pref_late: 96
NL:misses: 187
NL:misses_by_poll: 0

total selections: 17128569
total_filled: 939410
total_useful: 939420
total_late: 319922
total_polluted: 6035
total_misses_after_warmup: 673943
conflicts: 23835
Degree Incremented Times: 692828
Degree Decremented Times: 0

L1 IP Table Write Accesses: 42090323
L1 IP Table Read Accesses: 42066488
L1 RST Write Accesses: 24966416
L1 RST Read Accesses: 49932832
L1 CSPT Write Accesses: 24966416
L1 CSPT Read Accesses: 71026852
L1 RR Filter Tag Write Accesses: 28352605
L1 RR Filter Tag Read Accesses: 4260807885
L1 IP Table Tag Write Accesses: 42135906
L1 IP Table Tag Read Accesses: 42135906
L1 RST Tag Write Accesses: 0
L1 RST Tag Read Accesses: 224939011
L1 RR Filter Write Accesses: 0
L1 RR Filter Read Accesses: 188863177
test: 3663032
LLC TOTAL     ACCESS:   10248176  HIT:    3712364  MISS:    6535812  HIT %:    36.2246  MISS %:    63.7754   MPKI: 32.6791
LLC LOAD      ACCESS:     164499  HIT:          0  MISS:     164499  HIT %:          0  MISS %:        100   MPKI: 0.822495
LLC RFO       ACCESS:    4398843  HIT:     134828  MISS:    4264015  HIT %:    3.06508  MISS %:    96.9349   MPKI: 21.3201
LLC PREFETCH  ACCESS:    1257127  HIT:          0  MISS:    1257127  HIT %:          0  MISS %:        100   MPKI: 6.28563
LLC WRITEBACK ACCESS:    4415979  HIT:    3577112  MISS:     838867  HIT %:    81.0038  MISS %:    18.9962   MPKI: 4.19433

RAW hits: 4473671
Loads Generated: 38127887
Loads sent to L1D: 33654212
Stores Generated: 20085893
Stores sent to L1D: 20085900

CPU 2 cumulative IPC: 0.220921 instructions: 200292792 cycles: 906626672
ITLB TOTAL     ACCESS:   28884820  HIT:   28884820  MISS:          0  HIT %:        100  MISS %:          0   MPKI: 0
ITLB LOAD      ACCESS:          0  HIT:          0  MISS:          0  HIT %:       -nan  MISS %:       -nan   MPKI: 0
ITLB RFO       ACCESS:          0  HIT:          0  MISS:          0  HIT %:       -nan  MISS %:       -nan   MPKI: 0
ITLB PREFETCH  ACCESS:          0  HIT:          0  MISS:          0  HIT %:       -nan  MISS %:       -nan   MPKI: 0
ITLB WRITEBACK ACCESS:          0  HIT:          0  MISS:          0  HIT %:       -nan  MISS %:       -nan   MPKI: 0
DTLB TOTAL     ACCESS:   22965549  HIT:   22876466  MISS:      89083  HIT %:    99.6121  MISS %:   0.387898   MPKI: 0.444764
DTLB LOAD      ACCESS:          0  HIT:          0  MISS:          0  HIT %:       -nan  MISS %:       -nan   MPKI: 0
DTLB RFO       ACCESS:          0  HIT:          0  MISS:          0  HIT %:       -nan  MISS %:       -nan   MPKI: 0
DTLB PREFETCH  ACCESS:          0  HIT:          0  MISS:          0  HIT %:       -nan  MISS %:       -nan   MPKI: 0
DTLB WRITEBACK ACCESS:          0  HIT:          0  MISS:          0  HIT %:       -nan  MISS %:       -nan   MPKI: 0
STLB TOTAL     ACCESS:    1187654  HIT:    1098571  MISS:      89083  HIT %:    92.4992  MISS %:    7.50075   MPKI: 0.444764
STLB LOAD      ACCESS:          0  HIT:          0  MISS:          0  HIT %:       -nan  MISS %:       -nan   MPKI: 0
STLB RFO       ACCESS:          0  HIT:          0  MISS:          0  HIT %:       -nan  MISS %:       -nan   MPKI: 0
STLB PREFETCH  ACCESS:          0  HIT:          0  MISS:          0  HIT %:       -nan  MISS %:       -nan   MPKI: 0
STLB WRITEBACK ACCESS:          0  HIT:          0  MISS:          0  HIT %:       -nan  MISS %:       -nan   MPKI: 0
L1D TOTAL     ACCESS:   30849587  HIT:   21454064  MISS:    9395523  HIT %:    69.5441  MISS %:    30.4559   MPKI: 46.9089
L1D LOAD      ACCESS:   10339890  HIT:    9858227  MISS:     481663  HIT %:    95.3417  MISS %:     4.6583   MPKI: 2.40479
L1D RFO       ACCESS:   17274609  HIT:    9302758  MISS:    7971851  HIT %:    53.8522  MISS %:    46.1478   MPKI: 39.801
L1D PREFETCH  ACCESS:    3235088  HIT:    2293079  MISS:     942009  HIT %:    70.8815  MISS %:    29.1185   MPKI: 4.70316
L1D WRITEBACK ACCESS:          0  HIT:          0  MISS:          0  HIT %:       -nan  MISS %:       -nan   MPKI: 0
L1I TOTAL     ACCESS:   40212109  HIT:   40212109  MISS:          0  HIT %:        100  MISS %:          0   MPKI: 0
L1I LOAD      ACCESS:   40212109  HIT:   40212109  MISS:          0  HIT %:        100  MISS %:          0   MPKI: 0
L1I RFO       ACCESS:          0  HIT:          0  MISS:          0  HIT %:       -nan  MISS %:       -nan   MPKI: 0
L1I PREFETCH  ACCESS:          0  HIT:          0  MISS:          0  HIT %:       -nan  MISS %:       -nan   MPKI: 0
L1I WRITEBACK ACCESS:          0  HIT:          0  MISS:          0  HIT %:       -nan  MISS %:       -nan   MPKI: 0
L2C TOTAL     ACCESS:   17456458  HIT:   11117280  MISS:    6339178  HIT %:    63.6858  MISS %:    36.3142   MPKI: 31.6496
L2C LOAD      ACCESS:     164154  HIT:          0  MISS:     164154  HIT %:          0  MISS %:        100   MPKI: 0.81957
L2C RFO       ACCESS:    7971851  HIT:    3569628  MISS:    4402223  HIT %:    44.7779  MISS %:    55.2221   MPKI: 21.9789
L2C PREFETCH  ACCESS:    1259518  HIT:          0  MISS:    1259518  HIT %:          0  MISS %:        100   MPKI: 6.28838
L2C WRITEBACK ACCESS:    7971846  HIT:    7470309  MISS:     501537  HIT %:    93.7086  MISS %:    6.29135   MPKI: 2.50402
PSCL5 TOTAL     ACCESS:      89083  HIT:      89083  MISS:          0  HIT %:        100  MISS %:          0   MPKI: 0
PSCL5 LOAD      ACCESS:          0  HIT:          0  MISS:          0  HIT %:       -nan  MISS %:       -nan   MPKI: 0
PSCL5 RFO       ACCESS:          0  HIT:          0  MISS:          0  HIT %:       -nan  MISS %:       -nan   MPKI: 0
PSCL5 PREFETCH  ACCESS:          0  HIT:          0  MISS:          0  HIT %:       -nan  MISS %:       -nan   MPKI: 0
PSCL5 WRITEBACK ACCESS:          0  HIT:          0  MISS:          0  HIT %:       -nan  MISS %:       -nan   MPKI: 0
PSCL4 TOTAL     ACCESS:      89083  HIT:      89083  MISS:          0  HIT %:        100  MISS %:          0   MPKI: 0
PSCL4 LOAD      ACCESS:          0  HIT:          0  MISS:          0  HIT %:       -nan  MISS %:       -nan   MPKI: 0
PSCL4 RFO       ACCESS:          0  HIT:          0  MISS:          0  HIT %:       -nan  MISS %:       -nan   MPKI: 0
PSCL4 PREFETCH  ACCESS:          0  HIT:          0  MISS:          0  HIT %:       -nan  MISS %:       -nan   MPKI: 0
PSCL4 WRITEBACK ACCESS:          0  HIT:          0  MISS:          0  HIT %:       -nan  MISS %:       -nan   MPKI: 0
PSCL3 TOTAL     ACCESS:      89083  HIT:      89083  MISS:          0  HIT %:        100  MISS %:          0   MPKI: 0
PSCL3 LOAD      ACCESS:          0  HIT:          0  MISS:          0  HIT %:       -nan  MISS %:       -nan   MPKI: 0
PSCL3 RFO       ACCESS:          0  HIT:          0  MISS:          0  HIT %:       -nan  MISS %:       -nan   MPKI: 0
PSCL3 PREFETCH  ACCESS:          0  HIT:          0  MISS:          0  HIT %:       -nan  MISS %:       -nan   MPKI: 0
PSCL3 WRITEBACK ACCESS:          0  HIT:          0  MISS:          0  HIT %:       -nan  MISS %:       -nan   MPKI: 0
PSCL2 TOTAL     ACCESS:      89083  HIT:      88990  MISS:         93  HIT %:    99.8956  MISS %:   0.104397   MPKI: 0.00046432
PSCL2 LOAD      ACCESS:          0  HIT:          0  MISS:          0  HIT %:       -nan  MISS %:       -nan   MPKI: 0
PSCL2 RFO       ACCESS:          0  HIT:          0  MISS:          0  HIT %:       -nan  MISS %:       -nan   MPKI: 0
PSCL2 PREFETCH  ACCESS:          0  HIT:          0  MISS:          0  HIT %:       -nan  MISS %:       -nan   MPKI: 0
PSCL2 WRITEBACK ACCESS:          0  HIT:          0  MISS:          0  HIT %:       -nan  MISS %:       -nan   MPKI: 0

stream: 
stream:times selected: 8578884
stream:pref_filled: 181065
stream:pref_useful: 181062
stream:pref_late: 103539
stream:misses: 86709
stream:misses_by_poll: 0

CS: 
CS:times selected: 2312574
CS:pref_filled: 715912
CS:pref_useful: 715912
CS:pref_late: 147368
CS:misses: 305978
CS:misses_by_poll: 4047

CPLX: 
CPLX:times selected: 6260106
CPLX:pref_filled: 380964
CPLX:pref_useful: 380963
CPLX:pref_late: 69051
CPLX:misses: 307971
CPLX:misses_by_poll: 1827

NL_L1: 
NL:times selected: 3764
NL:pref_filled: 113
NL:pref_useful: 113
NL:pref_late: 98
NL:misses: 186
NL:misses_by_poll: 0

total selections: 17155328
total_filled: 942009
total_useful: 942021
total_late: 320451
total_polluted: 5874
total_misses_after_warmup: 673221
conflicts: 23835
Degree Incremented Times: 692828
Degree Decremented Times: 0

L1 IP Table Write Accesses: 42090323
L1 IP Table Read Accesses: 42066488
L1 RST Write Accesses: 24966416
L1 RST Read Accesses: 49932832
L1 CSPT Write Accesses: 24966416
L1 CSPT Read Accesses: 71026852
L1 RR Filter Tag Write Accesses: 28352605
L1 RR Filter Tag Read Accesses: 4260807885
L1 IP Table Tag Write Accesses: 42135906
L1 IP Table Tag Read Accesses: 42135906
L1 RST Tag Write Accesses: 0
L1 RST Tag Read Accesses: 224939011
L1 RR Filter Write Accesses: 0
L1 RR Filter Read Accesses: 188863177
test: 3663032
LLC TOTAL     ACCESS:   10255939  HIT:    4390237  MISS:    5865702  HIT %:    42.8068  MISS %:    57.1932   MPKI: 29.2856
LLC LOAD      ACCESS:     164154  HIT:          0  MISS:     164154  HIT %:          0  MISS %:        100   MPKI: 0.81957
LLC RFO       ACCESS:    4401897  HIT:     131736  MISS:    4270161  HIT %:    2.99271  MISS %:    97.0073   MPKI: 21.3196
LLC PREFETCH  ACCESS:    1259518  HIT:          0  MISS:    1259518  HIT %:          0  MISS %:        100   MPKI: 6.28838
LLC WRITEBACK ACCESS:    4418624  HIT:    4258050  MISS:     160574  HIT %:     96.366  MISS %:    3.63403   MPKI: 0.801696

RAW hits: 4477380
Loads Generated: 38183574
Loads sent to L1D: 33706192
Stores Generated: 20115095
Stores sent to L1D: 20115104

CPU 3 cumulative IPC: 0.220753 instructions: 200140960 cycles: 906626672
ITLB TOTAL     ACCESS:   28860600  HIT:   28860600  MISS:          0  HIT %:        100  MISS %:          0   MPKI: 0
ITLB LOAD      ACCESS:          0  HIT:          0  MISS:          0  HIT %:       -nan  MISS %:       -nan   MPKI: 0
ITLB RFO       ACCESS:          0  HIT:          0  MISS:          0  HIT %:       -nan  MISS %:       -nan   MPKI: 0
ITLB PREFETCH  ACCESS:          0  HIT:          0  MISS:          0  HIT %:       -nan  MISS %:       -nan   MPKI: 0
ITLB WRITEBACK ACCESS:          0  HIT:          0  MISS:          0  HIT %:       -nan  MISS %:       -nan   MPKI: 0
DTLB TOTAL     ACCESS:   22951860  HIT:   22862844  MISS:      89016  HIT %:    99.6122  MISS %:   0.387838   MPKI: 0.444767
DTLB LOAD      ACCESS:          0  HIT:          0  MISS:          0  HIT %:       -nan  MISS %:       -nan   MPKI: 0
DTLB RFO       ACCESS:          0  HIT:          0  MISS:          0  HIT %:       -nan  MISS %:       -nan   MPKI: 0
DTLB PREFETCH  ACCESS:          0  HIT:          0  MISS:          0  HIT %:       -nan  MISS %:       -nan   MPKI: 0
DTLB WRITEBACK ACCESS:          0  HIT:          0  MISS:          0  HIT %:       -nan  MISS %:       -nan   MPKI: 0
STLB TOTAL     ACCESS:    1186379  HIT:    1097363  MISS:      89016  HIT %:    92.4968  MISS %:    7.50317   MPKI: 0.444767
STLB LOAD      ACCESS:          0  HIT:          0  MISS:          0  HIT %:       -nan  MISS %:       -nan   MPKI: 0
STLB RFO       ACCESS:          0  HIT:          0  MISS:          0  HIT %:       -nan  MISS %:       -nan   MPKI: 0
STLB PREFETCH  ACCESS:          0  HIT:          0  MISS:          0  HIT %:       -nan  MISS %:       -nan   MPKI: 0
STLB WRITEBACK ACCESS:          0  HIT:          0  MISS:          0  HIT %:       -nan  MISS %:       -nan   MPKI: 0
L1D TOTAL     ACCESS:   30834621  HIT:   21446082  MISS:    9388539  HIT %:     69.552  MISS %:     30.448   MPKI: 46.9096
L1D LOAD      ACCESS:   10336450  HIT:    9855689  MISS:     480761  HIT %:    95.3489  MISS %:    4.65112   MPKI: 2.40211
L1D RFO       ACCESS:   17261764  HIT:    9295843  MISS:    7965921  HIT %:    53.8522  MISS %:    46.1478   MPKI: 39.8016
L1D PREFETCH  ACCESS:    3236407  HIT:    2294550  MISS:     941857  HIT %:    70.8981  MISS %:    29.1019   MPKI: 4.70597
L1D WRITEBACK ACCESS:          0  HIT:          0  MISS:          0  HIT %:       -nan  MISS %:       -nan   MPKI: 0
L1I TOTAL     ACCESS:   40179544  HIT:   40179544  MISS:          0  HIT %:        100  MISS %:          0   MPKI: 0
L1I LOAD      ACCESS:   40179544  HIT:   40179544  MISS:          0  HIT %:        100  MISS %:          0   MPKI: 0
L1I RFO       ACCESS:          0  HIT:          0  MISS:          0  HIT %:       -nan  MISS %:       -nan   MPKI: 0
L1I PREFETCH  ACCESS:          0  HIT:          0  MISS:          0  HIT %:       -nan  MISS %:       -nan   MPKI: 0
L1I WRITEBACK ACCESS:          0  HIT:          0  MISS:          0  HIT %:       -nan  MISS %:       -nan   MPKI: 0
L2C TOTAL     ACCESS:   17443478  HIT:   11091720  MISS:    6351758  HIT %:    63.5866  MISS %:    36.4134   MPKI: 31.7364
L2C LOAD      ACCESS:     163127  HIT:          0  MISS:     163127  HIT %:          0  MISS %:        100   MPKI: 0.815061
L2C RFO       ACCESS:    7965921  HIT:    3564143  MISS:    4401778  HIT %:    44.7424  MISS %:    55.2576   MPKI: 21.9934
L2C PREFETCH  ACCESS:    1259490  HIT:          0  MISS:    1259490  HIT %:          0  MISS %:        100   MPKI: 6.29301
L2C WRITEBACK ACCESS:    7965918  HIT:    7450310  MISS:     515608  HIT %:    93.5273  MISS %:    6.47268   MPKI: 2.57622
PSCL5 TOTAL     ACCESS:      89016  HIT:      89016  MISS:          0  HIT %:        100  MISS %:          0   MPKI: 0
PSCL5 LOAD      ACCESS:          0  HIT:          0  MISS:          0  HIT %:       -nan  MISS %:       -nan   MPKI: 0
PSCL5 RFO       ACCESS:          0  HIT:          0  MISS:          0  HIT %:       -nan  MISS %:       -nan   MPKI: 0
PSCL5 PREFETCH  ACCESS:          0  HIT:          0  MISS:          0  HIT %:       -nan  MISS %:       -nan   MPKI: 0
PSCL5 WRITEBACK ACCESS:          0  HIT:          0  MISS:          0  HIT %:       -nan  MISS %:       -nan   MPKI: 0
PSCL4 TOTAL     ACCESS:      89016  HIT:      89016  MISS:          0  HIT %:        100  MISS %:          0   MPKI: 0
PSCL4 LOAD      ACCESS:          0  HIT:          0  MISS:          0  HIT %:       -nan  MISS %:       -nan   MPKI: 0
PSCL4 RFO       ACCESS:          0  HIT:          0  MISS:          0  HIT %:       -nan  MISS %:       -nan   MPKI: 0
PSCL4 PREFETCH  ACCESS:          0  HIT:          0  MISS:          0  HIT %:       -nan  MISS %:       -nan   MPKI: 0
PSCL4 WRITEBACK ACCESS:          0  HIT:          0  MISS:          0  HIT %:       -nan  MISS %:       -nan   MPKI: 0
PSCL3 TOTAL     ACCESS:      89016  HIT:      89016  MISS:          0  HIT %:        100  MISS %:          0   MPKI: 0
PSCL3 LOAD      ACCESS:          0  HIT:          0  MISS:          0  HIT %:       -nan  MISS %:       -nan   MPKI: 0
PSCL3 RFO       ACCESS:          0  HIT:          0  MISS:          0  HIT %:       -nan  MISS %:       -nan   MPKI: 0
PSCL3 PREFETCH  ACCESS:          0  HIT:          0  MISS:          0  HIT %:       -nan  MISS %:       -nan   MPKI: 0
PSCL3 WRITEBACK ACCESS:          0  HIT:          0  MISS:          0  HIT %:       -nan  MISS %:       -nan   MPKI: 0
PSCL2 TOTAL     ACCESS:      89016  HIT:      88923  MISS:         93  HIT %:    99.8955  MISS %:   0.104476   MPKI: 0.000464672
PSCL2 LOAD      ACCESS:          0  HIT:          0  MISS:          0  HIT %:       -nan  MISS %:       -nan   MPKI: 0
PSCL2 RFO       ACCESS:          0  HIT:          0  MISS:          0  HIT %:       -nan  MISS %:       -nan   MPKI: 0
PSCL2 PREFETCH  ACCESS:          0  HIT:          0  MISS:          0  HIT %:       -nan  MISS %:       -nan   MPKI: 0
PSCL2 WRITEBACK ACCESS:          0  HIT:          0  MISS:          0  HIT %:       -nan  MISS %:       -nan   MPKI: 0

stream: 
stream:times selected: 8577258
stream:pref_filled: 210848
stream:pref_useful: 210848
stream:pref_late: 104380
stream:misses: 87923
stream:misses_by_poll: 0

CS: 
CS:times selected: 2312150
CS:pref_filled: 680857
CS:pref_useful: 680855
CS:pref_late: 147115
CS:misses: 306323
CS:misses_by_poll: 4141

CPLX: 
CPLX:times selected: 6258867
CPLX:pref_filled: 382807
CPLX:pref_useful: 382807
CPLX:pref_late: 69372
CPLX:misses: 310509
CPLX:misses_by_poll: 1839

NL_L1: 
NL:times selected: 3686
NL:pref_filled: 86
NL:pref_useful: 86
NL:pref_late: 100
NL:misses: 206
NL:misses_by_poll: 0

total selections: 17151961
total_filled: 941857
total_useful: 941864
total_late: 321356
total_polluted: 5980
total_misses_after_warmup: 672511
conflicts: 23835
Degree Incremented Times: 692828
Degree Decremented Times: 0

L1 IP Table Write Accesses: 42090323
L1 IP Table Read Accesses: 42066488
L1 RST Write Accesses: 24966416
L1 RST Read Accesses: 49932832
L1 CSPT Write Accesses: 24966416
L1 CSPT Read Accesses: 71026852
L1 RR Filter Tag Write Accesses: 28352605
L1 RR Filter Tag Read Accesses: 4260807885
L1 IP Table Tag Write Accesses: 42135906
L1 IP Table Tag Read Accesses: 42135906
L1 RST Tag Write Accesses: 0
L1 RST Tag Read Accesses: 224939011
L1 RR Filter Write Accesses: 0
L1 RR Filter Read Accesses: 188863177
test: 3663032
LLC TOTAL     ACCESS:   10254345  HIT:    4394680  MISS:    5859665  HIT %:    42.8568  MISS %:    57.1432   MPKI: 29.2777
LLC LOAD      ACCESS:     163127  HIT:          0  MISS:     163127  HIT %:          0  MISS %:        100   MPKI: 0.815061
LLC RFO       ACCESS:    4401427  HIT:     134418  MISS:    4267009  HIT %:    3.05396  MISS %:     96.946   MPKI: 21.32
LLC PREFETCH  ACCESS:    1259490  HIT:          0  MISS:    1259490  HIT %:          0  MISS %:        100   MPKI: 6.29301
LLC WRITEBACK ACCESS:    4418546  HIT:    4259778  MISS:     158768  HIT %:    96.4068  MISS %:    3.59322   MPKI: 0.793281

RAW hits: 4471340
Loads Generated: 38154717
Loads sent to L1D: 33683377
Stores Generated: 20099968
Stores sent to L1D: 20099980

Region of Interest Statistics

CPU 0 cumulative IPC: 0.221078 instructions: 200000001 cycles: 904659090
ITLB TOTAL     ACCESS:   28844718  HIT:   28844718  MISS:          0  HIT %:        100  MISS %:          0   MPKI: 0
ITLB LOAD TRANSLATION ACCESS:   28844718  HIT:   28844718  MISS:          0  HIT %:        100  MISS %:          0   MPKI: 0
ITLB PREFETCH  REQUESTED:          0  ISSUED:          0  USEFUL:          0  USELESS:          0
ITLB USEFUL LOAD PREFETCHES:          0 PREFETCH ISSUED TO LOWER LEVEL:          0  ACCURACY: -nan
ITLB TIMELY PREFETCHES:          0 LATE PREFETCHES: 0 DROPPED PREFETCHES: 0
ITLB PREFETCHES SAME FILL-ORIGIN LEVEL: 0 DIFFERENT FILL-ORIGIN LEVEL: 0
ITLB AVERAGE MISS LATENCY: -nan cycles
ITLB RQ	ACCESS:   40243857	FORWARD:          0	MERGED:   11335958	TO_CACHE:   28907899

DTLB TOTAL     ACCESS:   22940187  HIT:   22851232  MISS:      88955  HIT %:    99.6122  MISS %:   0.387769   MPKI: 0.444775
DTLB LOAD TRANSLATION ACCESS:   22940187  HIT:   22851232  MISS:      88955  HIT %:    99.6122  MISS %:   0.387769   MPKI: 0.444775
DTLB PREFETCH  REQUESTED:          0  ISSUED:          0  USEFUL:          0  USELESS:          0
DTLB USEFUL LOAD PREFETCHES:          0 PREFETCH ISSUED TO LOWER LEVEL:          0  ACCURACY: -nan
DTLB TIMELY PREFETCHES:          0 LATE PREFETCHES: 0 DROPPED PREFETCHES: 0
DTLB PREFETCHES SAME FILL-ORIGIN LEVEL: 0 DIFFERENT FILL-ORIGIN LEVEL: 0
DTLB AVERAGE MISS LATENCY: 448.192 cycles
DTLB RQ	ACCESS:   28088870	FORWARD:          0	MERGED:    5058537	TO_CACHE:   23030333

STLB TOTAL     ACCESS:    1184494  HIT:    1095539  MISS:      88955  HIT %:      92.49  MISS %:    7.50996   MPKI: 0.444775
STLB LOAD TRANSLATION ACCESS:      88955  HIT:          0  MISS:      88955  HIT %:          0  MISS %:        100   MPKI: 0.444775
STLB TRANSLATION FROM L1D PREFETCHER ACCESS:    1095539  HIT:    1095539  MISS:          0  HIT %:        100  MISS %:          0   MPKI: 0
STLB PREFETCH  REQUESTED:          0  ISSUED:          0  USEFUL:          0  USELESS:          0
STLB USEFUL LOAD PREFETCHES:          0 PREFETCH ISSUED TO LOWER LEVEL:          0  ACCURACY: -nan
STLB TIMELY PREFETCHES:          0 LATE PREFETCHES: 0 DROPPED PREFETCHES: 0
STLB PREFETCHES SAME FILL-ORIGIN LEVEL: 0 DIFFERENT FILL-ORIGIN LEVEL: 0
STLB AVERAGE MISS LATENCY: 439.171 cycles
STLB RQ	ACCESS:    4132289	FORWARD:          0	MERGED:    2945220	TO_CACHE:    1187069

STLB Hit, L1D data hit: 0
STLB Hit, L2C data hit: 0
STLB Hit, LLC data hit: 0
STLB Hit, LLC data miss: 0
STLB STLB hints to L2: 0
L1D TOTAL     ACCESS:   30814425  HIT:   21432408  MISS:    9382017  HIT %:    69.5532  MISS %:    30.4468   MPKI: 46.9101
L1D LOAD      ACCESS:   10324802  HIT:    9843508  MISS:     481294  HIT %:    95.3385  MISS %:    4.66153   MPKI: 2.40647
L1D RFO       ACCESS:   17260711  HIT:    9300323  MISS:    7960388  HIT %:    53.8815  MISS %:    46.1185   MPKI: 39.8019
L1D PREFETCH  ACCESS:    3228912  HIT:    2288577  MISS:     940335  HIT %:    70.8777  MISS %:    29.1223   MPKI: 4.70167
L1D PREFETCH  REQUESTED:   11130086  ISSUED:    8543690  USEFUL:     942349  USELESS:          0
L1D USEFUL LOAD PREFETCHES:     942349 PREFETCH ISSUED TO LOWER LEVEL:    1260768  ACCURACY: 74.744
L1D TIMELY PREFETCHES:     942349 LATE PREFETCHES: 318430 DROPPED PREFETCHES: 0
L1D PREFETCHES SAME FILL-ORIGIN LEVEL: 1260768 DIFFERENT FILL-ORIGIN LEVEL: 0
L1D AVERAGE MISS LATENCY: 1305.4 cycles
L1D RQ	ACCESS:   33730889	FORWARD:          0	MERGED:   18368462	TO_CACHE:   10539655
L1D WQ	ACCESS:   20129623	FORWARD:    4822772	MERGED:    2580408	TO_CACHE:   17549215
L1D PQ	ACCESS:    4500548	FORWARD:          0	MERGED:     457406	TO_CACHE:    4043142

L1D UNIQUE REGIONS ACCESSED: 0
L1D REGIONS CONFLICTS: 0
L1D Cross Page Prefetch Requests: 0
L1D Same Page Prefetch Requests: 7255374
L1D ROI Sum of L1D PQ occupancy: 7621058582
L1D PREFETCHES PUSHED FROM L2C: 0
L1I TOTAL     ACCESS:   40155937  HIT:   40155937  MISS:          0  HIT %:        100  MISS %:          0   MPKI: 0
L1I LOAD      ACCESS:   40155937  HIT:   40155937  MISS:          0  HIT %:        100  MISS %:          0   MPKI: 0
L1I PREFETCH  REQUESTED:          0  ISSUED:          0  USEFUL:          0  USELESS:          0
L1I USEFUL LOAD PREFETCHES:          0 PREFETCH ISSUED TO LOWER LEVEL:          0  ACCURACY: -nan
L1I TIMELY PREFETCHES:          0 LATE PREFETCHES: 0 DROPPED PREFETCHES: 0
L1I PREFETCHES SAME FILL-ORIGIN LEVEL: 0 DIFFERENT FILL-ORIGIN LEVEL: 0
L1I AVERAGE MISS LATENCY: -nan cycles
L1I RQ	ACCESS:   55168720	FORWARD:          0	MERGED:   14924863	TO_CACHE:   40243857

BTB TOTAL     ACCESS:    2206719  HIT:    2206719  MISS:          0  HIT %:        100  MISS %:          0   MPKI: 0
BTB BRANCH_DIRECT_JUMP	ACCESS:    1092087  HIT:    1092087  MISS:          0
BTB BRANCH_INDIRECT	ACCESS:          0  HIT:          0  MISS:          0
BTB BRANCH_CONDITIONAL	ACCESS:    1114632  HIT:    1114632  MISS:          0
BTB BRANCH_DIRECT_CALL	ACCESS:          0  HIT:          0  MISS:          0
BTB BRANCH_INDIRECT_CALL	ACCESS:          0  HIT:          0  MISS:          0
BTB BRANCH_RETURN	ACCESS:          0  HIT:          0  MISS:          0
BTB BRANCH_OTHER ACCESS:          0  HIT:          0  MISS:          0

L2C TOTAL     ACCESS:   17431362  HIT:   11088439  MISS:    6342923  HIT %:     63.612  MISS %:     36.388   MPKI: 31.7146
L2C LOAD      ACCESS:     163597  HIT:          0  MISS:     163597  HIT %:          0  MISS %:        100   MPKI: 0.817985
L2C DATA LOAD MPKI: 0.817985
L2C INSTRUCTION LOAD MPKI: 0
L2C RFO       ACCESS:    7960388  HIT:    3563031  MISS:    4397357  HIT %:    44.7595  MISS %:    55.2405   MPKI: 21.9868
L2C PREFETCH  ACCESS:    1258032  HIT:          0  MISS:    1258032  HIT %:          0  MISS %:        100   MPKI: 6.29016
L2C DATA PREFETCH MPKI: 6.29016
L2C INSTRUCTION PREFETCH MPKI: 0
L2C WRITEBACK ACCESS:    7960384  HIT:    7448184  MISS:     512200  HIT %:    93.5656  MISS %:    6.43436   MPKI: 2.561
L2C LOAD TRANSLATION ACCESS:      88961  HIT:      77224  MISS:      11737  HIT %:    86.8066  MISS %:    13.1934   MPKI: 0.058685
L2C PREFETCH  REQUESTED:          0  ISSUED:          0  USEFUL:          0  USELESS:    1260885
L2C USEFUL LOAD PREFETCHES:          0 PREFETCH ISSUED TO LOWER LEVEL:    1260768  ACCURACY: 0
L2C TIMELY PREFETCHES:          0 LATE PREFETCHES: 0 DROPPED PREFETCHES: 0
L2C PREFETCHES SAME FILL-ORIGIN LEVEL: 0 DIFFERENT FILL-ORIGIN LEVEL: 0
L2C AVERAGE MISS LATENCY: 2072.04 cycles
L2C RQ	ACCESS:    8230643	FORWARD:          0	MERGED:          0	TO_CACHE:    8230643
L2C WQ	ACCESS:    7977544	FORWARD:          0	MERGED:          0	TO_CACHE:    7977544
L2C PQ	ACCESS:    1260768	FORWARD:          0	MERGED:          0	TO_CACHE:    1260768

L2C Instructions Evicting Data 0
L2C Translations Evicting Data 11756
L2C Data Evicting Data 5820560
L2C Instructions Evicting Instructions 0
L2C Translations Evicting Instructions 0
L2C Data Evicting Instructions 0
L2C Instructions Evicting Translations 0
L2C Translations Evicting Translations 6
L2C Data Evicting Translations 10973
L2C Dense regions hint from L2: 0
PSCL5 TOTAL     ACCESS:      88955  HIT:      88955  MISS:          0  HIT %:        100  MISS %:          0   MPKI: 0
PSCL5 LOAD TRANSLATION ACCESS:      88955  HIT:      88955  MISS:          0  HIT %:        100  MISS %:          0   MPKI: 0
PSCL5 PREFETCH  REQUESTED:          0  ISSUED:          0  USEFUL:          0  USELESS:          0
PSCL5 USEFUL LOAD PREFETCHES:          0 PREFETCH ISSUED TO LOWER LEVEL:          0  ACCURACY: -nan
PSCL5 TIMELY PREFETCHES:          0 LATE PREFETCHES: 0 DROPPED PREFETCHES: 0
PSCL5 PREFETCHES SAME FILL-ORIGIN LEVEL: 0 DIFFERENT FILL-ORIGIN LEVEL: 0

PSCL4 TOTAL     ACCESS:      88955  HIT:      88955  MISS:          0  HIT %:        100  MISS %:          0   MPKI: 0
PSCL4 LOAD TRANSLATION ACCESS:      88955  HIT:      88955  MISS:          0  HIT %:        100  MISS %:          0   MPKI: 0
PSCL4 PREFETCH  REQUESTED:          0  ISSUED:          0  USEFUL:          0  USELESS:          0
PSCL4 USEFUL LOAD PREFETCHES:          0 PREFETCH ISSUED TO LOWER LEVEL:          0  ACCURACY: -nan
PSCL4 TIMELY PREFETCHES:          0 LATE PREFETCHES: 0 DROPPED PREFETCHES: 0
PSCL4 PREFETCHES SAME FILL-ORIGIN LEVEL: 0 DIFFERENT FILL-ORIGIN LEVEL: 0

PSCL3 TOTAL     ACCESS:      88955  HIT:      88955  MISS:          0  HIT %:        100  MISS %:          0   MPKI: 0
PSCL3 LOAD TRANSLATION ACCESS:      88955  HIT:      88955  MISS:          0  HIT %:        100  MISS %:          0   MPKI: 0
PSCL3 PREFETCH  REQUESTED:          0  ISSUED:          0  USEFUL:          0  USELESS:          0
PSCL3 USEFUL LOAD PREFETCHES:          0 PREFETCH ISSUED TO LOWER LEVEL:          0  ACCURACY: -nan
PSCL3 TIMELY PREFETCHES:          0 LATE PREFETCHES: 0 DROPPED PREFETCHES: 0
PSCL3 PREFETCHES SAME FILL-ORIGIN LEVEL: 0 DIFFERENT FILL-ORIGIN LEVEL: 0

PSCL2 TOTAL     ACCESS:      88955  HIT:      88862  MISS:         93  HIT %:    99.8955  MISS %:   0.104547   MPKI: 0.000465
PSCL2 LOAD TRANSLATION ACCESS:      88955  HIT:      88862  MISS:         93  HIT %:    99.8955  MISS %:   0.104547   MPKI: 0.000465
PSCL2 PREFETCH  REQUESTED:          0  ISSUED:          0  USEFUL:          0  USELESS:          0
PSCL2 USEFUL LOAD PREFETCHES:          0 PREFETCH ISSUED TO LOWER LEVEL:          0  ACCURACY: -nan
PSCL2 TIMELY PREFETCHES:          0 LATE PREFETCHES: 0 DROPPED PREFETCHES: 0
PSCL2 PREFETCHES SAME FILL-ORIGIN LEVEL: 0 DIFFERENT FILL-ORIGIN LEVEL: 0

LLC TOTAL     ACCESS:   10243346  HIT:    4384140  MISS:    5859206  HIT %:    42.7999  MISS %:    57.2001   MPKI: 29.296
LLC LOAD      ACCESS:     163597  HIT:          0  MISS:     163597  HIT %:          0  MISS %:        100   MPKI: 0.817985
LLC RFO       ACCESS:    4397011  HIT:     132923  MISS:    4264088  HIT %:    3.02303  MISS %:     96.977   MPKI: 21.3204
LLC PREFETCH  ACCESS:    1258032  HIT:          0  MISS:    1258032  HIT %:          0  MISS %:        100   MPKI: 6.29016
LLC WRITEBACK ACCESS:    4412969  HIT:    4250756  MISS:     162213  HIT %:    96.3242  MISS %:    3.67582   MPKI: 0.811065
LLC LOAD TRANSLATION ACCESS:      11737  HIT:        461  MISS:      11276  HIT %:    3.92775  MISS %:    96.0723   MPKI: 0.05638
LLC PREFETCH  REQUESTED:          0  ISSUED:          0  USEFUL:          0  USELESS:    5042282
LLC USEFUL LOAD PREFETCHES:          0 PREFETCH ISSUED TO LOWER LEVEL:   21123338  ACCURACY: 0
LLC TIMELY PREFETCHES:          0 LATE PREFETCHES: 0 DROPPED PREFETCHES: 0
LLC PREFETCHES SAME FILL-ORIGIN LEVEL: 0 DIFFERENT FILL-ORIGIN LEVEL: 0
LLC AVERAGE MISS LATENCY: 8853.27 cycles
LLC RQ	ACCESS:   18312786	FORWARD:          0	MERGED:          0	TO_CACHE:   18311398
LLC WQ	ACCESS:   17675925	FORWARD:       1388	MERGED:          0	TO_CACHE:   17675925
LLC PQ	ACCESS:    5036914	FORWARD:          0	MERGED:          0	TO_CACHE:    5036914

LLC Dense regions hint to LLC: 0

RAW hits: 4470500
Loads Generated: 38127946
Loads sent to L1D: 33657457
Stores Generated: 20085934
Stores sent to L1D: 20085932
Major fault: 0 Minor fault: 56553
Allocated PAGES: 225967

CPU 1 cumulative IPC: 0.220598 instructions: 200000001 cycles: 906626672
ITLB TOTAL     ACCESS:   28843684  HIT:   28843684  MISS:          0  HIT %:        100  MISS %:          0   MPKI: 0
ITLB LOAD TRANSLATION ACCESS:   28843684  HIT:   28843684  MISS:          0  HIT %:        100  MISS %:          0   MPKI: 0
ITLB PREFETCH  REQUESTED:          0  ISSUED:          0  USEFUL:          0  USELESS:          0
ITLB USEFUL LOAD PREFETCHES:          0 PREFETCH ISSUED TO LOWER LEVEL:          0  ACCURACY: -nan
ITLB TIMELY PREFETCHES:          0 LATE PREFETCHES: 0 DROPPED PREFETCHES: 0
ITLB PREFETCHES SAME FILL-ORIGIN LEVEL: 0 DIFFERENT FILL-ORIGIN LEVEL: 0
ITLB AVERAGE MISS LATENCY: -nan cycles
ITLB RQ	ACCESS:   40153514	FORWARD:          0	MERGED:   11309830	TO_CACHE:   28843684

DTLB TOTAL     ACCESS:   22920398  HIT:   22831444  MISS:      88954  HIT %:    99.6119  MISS %:     0.3881   MPKI: 0.44477
DTLB LOAD TRANSLATION ACCESS:   22920398  HIT:   22831444  MISS:      88954  HIT %:    99.6119  MISS %:     0.3881   MPKI: 0.44477
DTLB PREFETCH  REQUESTED:          0  ISSUED:          0  USEFUL:          0  USELESS:          0
DTLB USEFUL LOAD PREFETCHES:          0 PREFETCH ISSUED TO LOWER LEVEL:          0  ACCURACY: -nan
DTLB TIMELY PREFETCHES:          0 LATE PREFETCHES: 0 DROPPED PREFETCHES: 0
DTLB PREFETCHES SAME FILL-ORIGIN LEVEL: 0 DIFFERENT FILL-ORIGIN LEVEL: 0
DTLB AVERAGE MISS LATENCY: 441.209 cycles
DTLB RQ	ACCESS:   28001531	FORWARD:          0	MERGED:    5041689	TO_CACHE:   22959842

STLB TOTAL     ACCESS:    1183940  HIT:    1094986  MISS:      88954  HIT %:    92.4866  MISS %:    7.51339   MPKI: 0.44477
STLB LOAD TRANSLATION ACCESS:      88954  HIT:          0  MISS:      88954  HIT %:          0  MISS %:        100   MPKI: 0.44477
STLB TRANSLATION FROM L1D PREFETCHER ACCESS:    1094986  HIT:    1094986  MISS:          0  HIT %:        100  MISS %:          0   MPKI: 0
STLB PREFETCH  REQUESTED:          0  ISSUED:          0  USEFUL:          0  USELESS:          0
STLB USEFUL LOAD PREFETCHES:          0 PREFETCH ISSUED TO LOWER LEVEL:          0  ACCURACY: -nan
STLB TIMELY PREFETCHES:          0 LATE PREFETCHES: 0 DROPPED PREFETCHES: 0
STLB PREFETCHES SAME FILL-ORIGIN LEVEL: 0 DIFFERENT FILL-ORIGIN LEVEL: 0
STLB AVERAGE MISS LATENCY: 432.209 cycles
STLB RQ	ACCESS:    4112758	FORWARD:          0	MERGED:    2928818	TO_CACHE:    1183940

STLB Hit, L1D data hit: 0
STLB Hit, L2C data hit: 0
STLB Hit, LLC data hit: 0
STLB Hit, LLC data miss: 0
STLB STLB hints to L2: 0
L1D TOTAL     ACCESS:   30780367  HIT:   21398370  MISS:    9381997  HIT %:    69.5195  MISS %:    30.4805   MPKI: 46.91
L1D LOAD      ACCESS:   10314720  HIT:    9832504  MISS:     482216  HIT %:     95.325  MISS %:    4.67503   MPKI: 2.41108
L1D RFO       ACCESS:   17245637  HIT:    9285266  MISS:    7960371  HIT %:    53.8412  MISS %:    46.1588   MPKI: 39.8019
L1D PREFETCH  ACCESS:    3220010  HIT:    2280600  MISS:     939410  HIT %:    70.8259  MISS %:    29.1741   MPKI: 4.69705
L1D PREFETCH  REQUESTED:   11098402  ISSUED:    8510931  USEFUL:     939420  USELESS:          0
L1D USEFUL LOAD PREFETCHES:     939420 PREFETCH ISSUED TO LOWER LEVEL:    1257131  ACCURACY: 74.7273
L1D TIMELY PREFETCHES:     939420 LATE PREFETCHES: 317717 DROPPED PREFETCHES: 0
L1D PREFETCHES SAME FILL-ORIGIN LEVEL: 1257131 DIFFERENT FILL-ORIGIN LEVEL: 0
L1D AVERAGE MISS LATENCY: 1309.16 cycles
L1D RQ	ACCESS:   33654212	FORWARD:          0	MERGED:   18325562	TO_CACHE:   10506446
L1D WQ	ACCESS:   20085900	FORWARD:    4822204	MERGED:    2590815	TO_CACHE:   17495085
L1D PQ	ACCESS:    4487127	FORWARD:          0	MERGED:     463323	TO_CACHE:    4023804

L1D UNIQUE REGIONS ACCESSED: 0
L1D REGIONS CONFLICTS: 0
L1D Cross Page Prefetch Requests: 0
L1D Same Page Prefetch Requests: 7117199
L1D ROI Sum of L1D PQ occupancy: 7654881670
L1D PREFETCHES PUSHED FROM L2C: 0
L1I TOTAL     ACCESS:   40153513  HIT:   40153513  MISS:          0  HIT %:        100  MISS %:          0   MPKI: 0
L1I LOAD      ACCESS:   40153513  HIT:   40153513  MISS:          0  HIT %:        100  MISS %:          0   MPKI: 0
L1I PREFETCH  REQUESTED:          0  ISSUED:          0  USEFUL:          0  USELESS:          0
L1I USEFUL LOAD PREFETCHES:          0 PREFETCH ISSUED TO LOWER LEVEL:          0  ACCURACY: -nan
L1I TIMELY PREFETCHES:          0 LATE PREFETCHES: 0 DROPPED PREFETCHES: 0
L1I PREFETCHES SAME FILL-ORIGIN LEVEL: 0 DIFFERENT FILL-ORIGIN LEVEL: 0
L1I AVERAGE MISS LATENCY: -nan cycles
L1I RQ	ACCESS:   55045733	FORWARD:          0	MERGED:   14892219	TO_CACHE:   40153514

BTB TOTAL     ACCESS:    2206721  HIT:    2206721  MISS:          0  HIT %:        100  MISS %:          0   MPKI: 0
BTB BRANCH_DIRECT_JUMP	ACCESS:    1092089  HIT:    1092089  MISS:          0
BTB BRANCH_INDIRECT	ACCESS:          0  HIT:          0  MISS:          0
BTB BRANCH_CONDITIONAL	ACCESS:    1114632  HIT:    1114632  MISS:          0
BTB BRANCH_DIRECT_CALL	ACCESS:          0  HIT:          0  MISS:          0
BTB BRANCH_INDIRECT_CALL	ACCESS:          0  HIT:          0  MISS:          0
BTB BRANCH_RETURN	ACCESS:          0  HIT:          0  MISS:          0
BTB BRANCH_OTHER ACCESS:          0  HIT:          0  MISS:          0

L2C TOTAL     ACCESS:   17431316  HIT:   11089208  MISS:    6342108  HIT %:    63.6166  MISS %:    36.3834   MPKI: 31.7105
L2C LOAD      ACCESS:     164499  HIT:          0  MISS:     164499  HIT %:          0  MISS %:        100   MPKI: 0.822495
L2C DATA LOAD MPKI: 0.822495
L2C INSTRUCTION LOAD MPKI: 0
L2C RFO       ACCESS:    7960371  HIT:    3561164  MISS:    4399207  HIT %:    44.7362  MISS %:    55.2638   MPKI: 21.996
L2C PREFETCH  ACCESS:    1257127  HIT:          0  MISS:    1257127  HIT %:          0  MISS %:        100   MPKI: 6.28563
L2C DATA PREFETCH MPKI: 6.28563
L2C INSTRUCTION PREFETCH MPKI: 0
L2C WRITEBACK ACCESS:    7960359  HIT:    7450812  MISS:     509547  HIT %:    93.5989  MISS %:    6.40106   MPKI: 2.54773
L2C LOAD TRANSLATION ACCESS:      88960  HIT:      77232  MISS:      11728  HIT %:    86.8165  MISS %:    13.1835   MPKI: 0.05864
L2C PREFETCH  REQUESTED:          0  ISSUED:          0  USEFUL:          0  USELESS:    1256967
L2C USEFUL LOAD PREFETCHES:          0 PREFETCH ISSUED TO LOWER LEVEL:    1257130  ACCURACY: 0
L2C TIMELY PREFETCHES:          0 LATE PREFETCHES: 0 DROPPED PREFETCHES: 0
L2C PREFETCHES SAME FILL-ORIGIN LEVEL: 0 DIFFERENT FILL-ORIGIN LEVEL: 0
L2C AVERAGE MISS LATENCY: 2077.26 cycles
L2C RQ	ACCESS:    8213839	FORWARD:          0	MERGED:          0	TO_CACHE:    8213839
L2C WQ	ACCESS:    7960360	FORWARD:          0	MERGED:          0	TO_CACHE:    7960360
L2C PQ	ACCESS:    1257131	FORWARD:          0	MERGED:          0	TO_CACHE:    1257131

L2C Instructions Evicting Data 0
L2C Translations Evicting Data 11724
L2C Data Evicting Data 5809883
L2C Instructions Evicting Instructions 0
L2C Translations Evicting Instructions 0
L2C Data Evicting Instructions 0
L2C Instructions Evicting Translations 0
L2C Translations Evicting Translations 4
L2C Data Evicting Translations 10950
L2C Dense regions hint from L2: 0
PSCL5 TOTAL     ACCESS:      88954  HIT:      88954  MISS:          0  HIT %:        100  MISS %:          0   MPKI: 0
PSCL5 LOAD TRANSLATION ACCESS:      88954  HIT:      88954  MISS:          0  HIT %:        100  MISS %:          0   MPKI: 0
PSCL5 PREFETCH  REQUESTED:          0  ISSUED:          0  USEFUL:          0  USELESS:          0
PSCL5 USEFUL LOAD PREFETCHES:          0 PREFETCH ISSUED TO LOWER LEVEL:          0  ACCURACY: -nan
PSCL5 TIMELY PREFETCHES:          0 LATE PREFETCHES: 0 DROPPED PREFETCHES: 0
PSCL5 PREFETCHES SAME FILL-ORIGIN LEVEL: 0 DIFFERENT FILL-ORIGIN LEVEL: 0

PSCL4 TOTAL     ACCESS:      88954  HIT:      88954  MISS:          0  HIT %:        100  MISS %:          0   MPKI: 0
PSCL4 LOAD TRANSLATION ACCESS:      88954  HIT:      88954  MISS:          0  HIT %:        100  MISS %:          0   MPKI: 0
PSCL4 PREFETCH  REQUESTED:          0  ISSUED:          0  USEFUL:          0  USELESS:          0
PSCL4 USEFUL LOAD PREFETCHES:          0 PREFETCH ISSUED TO LOWER LEVEL:          0  ACCURACY: -nan
PSCL4 TIMELY PREFETCHES:          0 LATE PREFETCHES: 0 DROPPED PREFETCHES: 0
PSCL4 PREFETCHES SAME FILL-ORIGIN LEVEL: 0 DIFFERENT FILL-ORIGIN LEVEL: 0

PSCL3 TOTAL     ACCESS:      88954  HIT:      88954  MISS:          0  HIT %:        100  MISS %:          0   MPKI: 0
PSCL3 LOAD TRANSLATION ACCESS:      88954  HIT:      88954  MISS:          0  HIT %:        100  MISS %:          0   MPKI: 0
PSCL3 PREFETCH  REQUESTED:          0  ISSUED:          0  USEFUL:          0  USELESS:          0
PSCL3 USEFUL LOAD PREFETCHES:          0 PREFETCH ISSUED TO LOWER LEVEL:          0  ACCURACY: -nan
PSCL3 TIMELY PREFETCHES:          0 LATE PREFETCHES: 0 DROPPED PREFETCHES: 0
PSCL3 PREFETCHES SAME FILL-ORIGIN LEVEL: 0 DIFFERENT FILL-ORIGIN LEVEL: 0

PSCL2 TOTAL     ACCESS:      88954  HIT:      88861  MISS:         93  HIT %:    99.8955  MISS %:   0.104548   MPKI: 0.000465
PSCL2 LOAD TRANSLATION ACCESS:      88954  HIT:      88861  MISS:         93  HIT %:    99.8955  MISS %:   0.104548   MPKI: 0.000465
PSCL2 PREFETCH  REQUESTED:          0  ISSUED:          0  USEFUL:          0  USELESS:          0
PSCL2 USEFUL LOAD PREFETCHES:          0 PREFETCH ISSUED TO LOWER LEVEL:          0  ACCURACY: -nan
PSCL2 TIMELY PREFETCHES:          0 LATE PREFETCHES: 0 DROPPED PREFETCHES: 0
PSCL2 PREFETCHES SAME FILL-ORIGIN LEVEL: 0 DIFFERENT FILL-ORIGIN LEVEL: 0

LLC TOTAL     ACCESS:   10248176  HIT:    3712364  MISS:    6535812  HIT %:    36.2246  MISS %:    63.7754   MPKI: 32.6791
LLC LOAD      ACCESS:     164499  HIT:          0  MISS:     164499  HIT %:          0  MISS %:        100   MPKI: 0.822495
LLC RFO       ACCESS:    4398843  HIT:     134828  MISS:    4264015  HIT %:    3.06508  MISS %:    96.9349   MPKI: 21.3201
LLC PREFETCH  ACCESS:    1257127  HIT:          0  MISS:    1257127  HIT %:          0  MISS %:        100   MPKI: 6.28563
LLC WRITEBACK ACCESS:    4415979  HIT:    3577112  MISS:     838867  HIT %:    81.0038  MISS %:    18.9962   MPKI: 4.19433
LLC LOAD TRANSLATION ACCESS:      11728  HIT:        424  MISS:      11304  HIT %:    3.61528  MISS %:    96.3847   MPKI: 0.05652
LLC PREFETCH  REQUESTED:          0  ISSUED:          0  USEFUL:          0  USELESS:    5042282
LLC USEFUL LOAD PREFETCHES:          0 PREFETCH ISSUED TO LOWER LEVEL:   21123338  ACCURACY: 0
LLC TIMELY PREFETCHES:          0 LATE PREFETCHES: 0 DROPPED PREFETCHES: 0
LLC PREFETCHES SAME FILL-ORIGIN LEVEL: 0 DIFFERENT FILL-ORIGIN LEVEL: 0
LLC AVERAGE MISS LATENCY: 7936.75 cycles
LLC RQ	ACCESS:   18312786	FORWARD:          0	MERGED:          0	TO_CACHE:   18311398
LLC WQ	ACCESS:   17675925	FORWARD:       1388	MERGED:          0	TO_CACHE:   17675925
LLC PQ	ACCESS:    5036914	FORWARD:          0	MERGED:          0	TO_CACHE:    5036914

LLC Dense regions hint to LLC: 0

RAW hits: 4473671
Loads Generated: 38127887
Loads sent to L1D: 33654212
Stores Generated: 20085893
Stores sent to L1D: 20085900
Major fault: 0 Minor fault: 56442
Allocated PAGES: 225967

CPU 2 cumulative IPC: 0.220922 instructions: 200000001 cycles: 905297039
ITLB TOTAL     ACCESS:   28842618  HIT:   28842618  MISS:          0  HIT %:        100  MISS %:          0   MPKI: 0
ITLB LOAD TRANSLATION ACCESS:   28842618  HIT:   28842618  MISS:          0  HIT %:        100  MISS %:          0   MPKI: 0
ITLB PREFETCH  REQUESTED:          0  ISSUED:          0  USEFUL:          0  USELESS:          0
ITLB USEFUL LOAD PREFETCHES:          0 PREFETCH ISSUED TO LOWER LEVEL:          0  ACCURACY: -nan
ITLB TIMELY PREFETCHES:          0 LATE PREFETCHES: 0 DROPPED PREFETCHES: 0
ITLB PREFETCHES SAME FILL-ORIGIN LEVEL: 0 DIFFERENT FILL-ORIGIN LEVEL: 0
ITLB AVERAGE MISS LATENCY: -nan cycles
ITLB RQ	ACCESS:   40212107	FORWARD:          0	MERGED:   11327288	TO_CACHE:   28884819

DTLB TOTAL     ACCESS:   22932071  HIT:   22843116  MISS:      88955  HIT %:    99.6121  MISS %:   0.387907   MPKI: 0.444775
DTLB LOAD TRANSLATION ACCESS:   22932071  HIT:   22843116  MISS:      88955  HIT %:    99.6121  MISS %:   0.387907   MPKI: 0.444775
DTLB PREFETCH  REQUESTED:          0  ISSUED:          0  USEFUL:          0  USELESS:          0
DTLB USEFUL LOAD PREFETCHES:          0 PREFETCH ISSUED TO LOWER LEVEL:          0  ACCURACY: -nan
DTLB TIMELY PREFETCHES:          0 LATE PREFETCHES: 0 DROPPED PREFETCHES: 0
DTLB PREFETCHES SAME FILL-ORIGIN LEVEL: 0 DIFFERENT FILL-ORIGIN LEVEL: 0
DTLB AVERAGE MISS LATENCY: 441.671 cycles
DTLB RQ	ACCESS:   28055112	FORWARD:          0	MERGED:    5049801	TO_CACHE:   23005311

STLB TOTAL     ACCESS:    1185931  HIT:    1096976  MISS:      88955  HIT %:    92.4991  MISS %:    7.50086   MPKI: 0.444775
STLB LOAD TRANSLATION ACCESS:      88955  HIT:          0  MISS:      88955  HIT %:          0  MISS %:        100   MPKI: 0.444775
STLB TRANSLATION FROM L1D PREFETCHER ACCESS:    1096976  HIT:    1096976  MISS:          0  HIT %:        100  MISS %:          0   MPKI: 0
STLB PREFETCH  REQUESTED:          0  ISSUED:          0  USEFUL:          0  USELESS:          0
STLB USEFUL LOAD PREFETCHES:          0 PREFETCH ISSUED TO LOWER LEVEL:          0  ACCURACY: -nan
STLB TIMELY PREFETCHES:          0 LATE PREFETCHES: 0 DROPPED PREFETCHES: 0
STLB PREFETCHES SAME FILL-ORIGIN LEVEL: 0 DIFFERENT FILL-ORIGIN LEVEL: 0
STLB AVERAGE MISS LATENCY: 432.657 cycles
STLB RQ	ACCESS:    4130799	FORWARD:          0	MERGED:    2943145	TO_CACHE:    1187654

STLB Hit, L1D data hit: 0
STLB Hit, L2C data hit: 0
STLB Hit, LLC data hit: 0
STLB Hit, LLC data miss: 0
STLB STLB hints to L2: 0
L1D TOTAL     ACCESS:   30804671  HIT:   21422634  MISS:    9382037  HIT %:    69.5435  MISS %:    30.4565   MPKI: 46.9102
L1D LOAD      ACCESS:   10324752  HIT:    9843775  MISS:     480977  HIT %:    95.3415  MISS %:    4.65848   MPKI: 2.40488
L1D RFO       ACCESS:   17249568  HIT:    9289163  MISS:    7960405  HIT %:    53.8516  MISS %:    46.1484   MPKI: 39.802
L1D PREFETCH  ACCESS:    3230351  HIT:    2289696  MISS:     940655  HIT %:    70.8807  MISS %:    29.1193   MPKI: 4.70327
L1D PREFETCH  REQUESTED:   11130071  ISSUED:    8544375  USEFUL:     942021  USELESS:          0
L1D USEFUL LOAD PREFETCHES:     942021 PREFETCH ISSUED TO LOWER LEVEL:    1259522  ACCURACY: 74.7919
L1D TIMELY PREFETCHES:     942021 LATE PREFETCHES: 317511 DROPPED PREFETCHES: 0
L1D PREFETCHES SAME FILL-ORIGIN LEVEL: 1259522 DIFFERENT FILL-ORIGIN LEVEL: 0
L1D AVERAGE MISS LATENCY: 1307.4 cycles
L1D RQ	ACCESS:   33706192	FORWARD:          0	MERGED:   18349900	TO_CACHE:   10531448
L1D WQ	ACCESS:   20115104	FORWARD:    4824844	MERGED:    2591440	TO_CACHE:   17523664
L1D PQ	ACCESS:    4502659	FORWARD:          0	MERGED:     460943	TO_CACHE:    4041716

L1D UNIQUE REGIONS ACCESSED: 0
L1D REGIONS CONFLICTS: 0
L1D Cross Page Prefetch Requests: 0
L1D Same Page Prefetch Requests: 6648167
L1D ROI Sum of L1D PQ occupancy: 7634745361
L1D PREFETCHES PUSHED FROM L2C: 0
L1I TOTAL     ACCESS:   40153336  HIT:   40153336  MISS:          0  HIT %:        100  MISS %:          0   MPKI: 0
L1I LOAD      ACCESS:   40153336  HIT:   40153336  MISS:          0  HIT %:        100  MISS %:          0   MPKI: 0
L1I PREFETCH  REQUESTED:          0  ISSUED:          0  USEFUL:          0  USELESS:          0
L1I USEFUL LOAD PREFETCHES:          0 PREFETCH ISSUED TO LOWER LEVEL:          0  ACCURACY: -nan
L1I TIMELY PREFETCHES:          0 LATE PREFETCHES: 0 DROPPED PREFETCHES: 0
L1I PREFETCHES SAME FILL-ORIGIN LEVEL: 0 DIFFERENT FILL-ORIGIN LEVEL: 0
L1I AVERAGE MISS LATENCY: -nan cycles
L1I RQ	ACCESS:   55127503	FORWARD:          0	MERGED:   14915396	TO_CACHE:   40212107

BTB TOTAL     ACCESS:    2206690  HIT:    2206689  MISS:          1  HIT %:        100  MISS %: 4.53167e-05   MPKI: 5e-06
BTB BRANCH_DIRECT_JUMP	ACCESS:    1092089  HIT:    1092089  MISS:          0
BTB BRANCH_INDIRECT	ACCESS:          0  HIT:          0  MISS:          0
BTB BRANCH_CONDITIONAL	ACCESS:    1114601  HIT:    1114600  MISS:          1
BTB BRANCH_DIRECT_CALL	ACCESS:          0  HIT:          0  MISS:          0
BTB BRANCH_INDIRECT_CALL	ACCESS:          0  HIT:          0  MISS:          0
BTB BRANCH_RETURN	ACCESS:          0  HIT:          0  MISS:          0
BTB BRANCH_OTHER ACCESS:          0  HIT:          0  MISS:          0

L2C TOTAL     ACCESS:   17431400  HIT:   11101267  MISS:    6330133  HIT %:    63.6855  MISS %:    36.3145   MPKI: 31.6507
L2C LOAD      ACCESS:     163928  HIT:          0  MISS:     163928  HIT %:          0  MISS %:        100   MPKI: 0.81964
L2C DATA LOAD MPKI: 0.81964
L2C INSTRUCTION LOAD MPKI: 0
L2C RFO       ACCESS:    7960406  HIT:    3564503  MISS:    4395903  HIT %:    44.7779  MISS %:    55.2221   MPKI: 21.9795
L2C PREFETCH  ACCESS:    1257704  HIT:          0  MISS:    1257704  HIT %:          0  MISS %:        100   MPKI: 6.28852
L2C DATA PREFETCH MPKI: 6.28852
L2C INSTRUCTION PREFETCH MPKI: 0
L2C WRITEBACK ACCESS:    7960401  HIT:    7459533  MISS:     500868  HIT %:     93.708  MISS %:    6.29199   MPKI: 2.50434
L2C LOAD TRANSLATION ACCESS:      88961  HIT:      77231  MISS:      11730  HIT %:    86.8144  MISS %:    13.1856   MPKI: 0.05865
L2C PREFETCH  REQUESTED:          0  ISSUED:          0  USEFUL:          0  USELESS:    1259622
L2C USEFUL LOAD PREFETCHES:          0 PREFETCH ISSUED TO LOWER LEVEL:    1259522  ACCURACY: 0
L2C TIMELY PREFETCHES:          0 LATE PREFETCHES: 0 DROPPED PREFETCHES: 0
L2C PREFETCHES SAME FILL-ORIGIN LEVEL: 0 DIFFERENT FILL-ORIGIN LEVEL: 0
L2C AVERAGE MISS LATENCY: 2078.93 cycles
L2C RQ	ACCESS:    8225104	FORWARD:          0	MERGED:          0	TO_CACHE:    8225104
L2C WQ	ACCESS:    7971846	FORWARD:          0	MERGED:          0	TO_CACHE:    7971846
L2C PQ	ACCESS:    1259522	FORWARD:          0	MERGED:          0	TO_CACHE:    1259522

L2C Instructions Evicting Data 0
L2C Translations Evicting Data 11745
L2C Data Evicting Data 5814917
L2C Instructions Evicting Instructions 0
L2C Translations Evicting Instructions 0
L2C Data Evicting Instructions 0
L2C Instructions Evicting Translations 0
L2C Translations Evicting Translations 1
L2C Data Evicting Translations 10978
L2C Dense regions hint from L2: 0
PSCL5 TOTAL     ACCESS:      88955  HIT:      88955  MISS:          0  HIT %:        100  MISS %:          0   MPKI: 0
PSCL5 LOAD TRANSLATION ACCESS:      88955  HIT:      88955  MISS:          0  HIT %:        100  MISS %:          0   MPKI: 0
PSCL5 PREFETCH  REQUESTED:          0  ISSUED:          0  USEFUL:          0  USELESS:          0
PSCL5 USEFUL LOAD PREFETCHES:          0 PREFETCH ISSUED TO LOWER LEVEL:          0  ACCURACY: -nan
PSCL5 TIMELY PREFETCHES:          0 LATE PREFETCHES: 0 DROPPED PREFETCHES: 0
PSCL5 PREFETCHES SAME FILL-ORIGIN LEVEL: 0 DIFFERENT FILL-ORIGIN LEVEL: 0

PSCL4 TOTAL     ACCESS:      88955  HIT:      88955  MISS:          0  HIT %:        100  MISS %:          0   MPKI: 0
PSCL4 LOAD TRANSLATION ACCESS:      88955  HIT:      88955  MISS:          0  HIT %:        100  MISS %:          0   MPKI: 0
PSCL4 PREFETCH  REQUESTED:          0  ISSUED:          0  USEFUL:          0  USELESS:          0
[...]
LLC WRITEBACK ACCESS:    4412344  HIT:    4251935  MISS:     160409  HIT %:    96.3645  MISS %:    3.63546   MPKI: 0.802045
LLC LOAD TRANSLATION ACCESS:      11730  HIT:        451  MISS:      11279  HIT %:    3.84484  MISS %:    96.1552   MPKI: 0.056395
LLC PREFETCH  REQUESTED:          0  ISSUED:          0  USEFUL:          0  USELESS:    5042282
LLC USEFUL LOAD PREFETCHES:          0 PREFETCH ISSUED TO LOWER LEVEL:   21123338  ACCURACY: 0
LLC TIMELY PREFETCHES:          0 LATE PREFETCHES: 0 DROPPED PREFETCHES: 0
LLC PREFETCHES SAME FILL-ORIGIN LEVEL: 0 DIFFERENT FILL-ORIGIN LEVEL: 0
LLC AVERAGE MISS LATENCY: 8856.07 cycles
LLC RQ	ACCESS:   18312786	FORWARD:          0	MERGED:          0	TO_CACHE:   18311398
LLC WQ	ACCESS:   17675925	FORWARD:       1388	MERGED:          0	TO_CACHE:   17675925
LLC PQ	ACCESS:    5036914	FORWARD:          0	MERGED:          0	TO_CACHE:    5036914

LLC Dense regions hint to LLC: 0

RAW hits: 4470874
Loads Generated: 38127917
Loads sent to L1D: 33657041
Stores Generated: 20085920
Stores sent to L1D: 20085932
Major fault: 0 Minor fault: 56503
Allocated PAGES: 225967

CPU 3 cumulative IPC: 0.220749 instructions: 200000000 cycles: 906007593
ITLB TOTAL     ACCESS:   28840288  HIT:   28840288  MISS:          0  HIT %:        100  MISS %:          0   MPKI: 0
ITLB LOAD TRANSLATION ACCESS:   28840288  HIT:   28840288  MISS:          0  HIT %:        100  MISS %:          0   MPKI: 0
ITLB PREFETCH  REQUESTED:          0  ISSUED:          0  USEFUL:          0  USELESS:          0
ITLB USEFUL LOAD PREFETCHES:          0 PREFETCH ISSUED TO LOWER LEVEL:          0  ACCURACY: -nan
ITLB TIMELY PREFETCHES:          0 LATE PREFETCHES: 0 DROPPED PREFETCHES: 0
ITLB PREFETCHES SAME FILL-ORIGIN LEVEL: 0 DIFFERENT FILL-ORIGIN LEVEL: 0
ITLB AVERAGE MISS LATENCY: -nan cycles
ITLB RQ	ACCESS:   40179543	FORWARD:          0	MERGED:   11318944	TO_CACHE:   28860599

DTLB TOTAL     ACCESS:   22935906  HIT:   22846952  MISS:      88954  HIT %:    99.6122  MISS %:   0.387837   MPKI: 0.44477
DTLB LOAD TRANSLATION ACCESS:   22935906  HIT:   22846952  MISS:      88954  HIT %:    99.6122  MISS %:   0.387837   MPKI: 0.44477
DTLB PREFETCH  REQUESTED:          0  ISSUED:          0  USEFUL:          0  USELESS:          0
DTLB USEFUL LOAD PREFETCHES:          0 PREFETCH ISSUED TO LOWER LEVEL:          0  ACCURACY: -nan
DTLB TIMELY PREFETCHES:          0 LATE PREFETCHES: 0 DROPPED PREFETCHES: 0
DTLB PREFETCHES SAME FILL-ORIGIN LEVEL: 0 DIFFERENT FILL-ORIGIN LEVEL: 0
DTLB AVERAGE MISS LATENCY: 443.413 cycles
DTLB RQ	ACCESS:   28039761	FORWARD:          0	MERGED:    5048651	TO_CACHE:   22991110

STLB TOTAL     ACCESS:    1185571  HIT:    1096617  MISS:      88954  HIT %:    92.4969  MISS %:    7.50305   MPKI: 0.44477
STLB LOAD TRANSLATION ACCESS:      88954  HIT:          0  MISS:      88954  HIT %:          0  MISS %:        100   MPKI: 0.44477
STLB TRANSLATION FROM L1D PREFETCHER ACCESS:    1096617  HIT:    1096617  MISS:          0  HIT %:        100  MISS %:          0   MPKI: 0
STLB PREFETCH  REQUESTED:          0  ISSUED:          0  USEFUL:          0  USELESS:          0
STLB USEFUL LOAD PREFETCHES:          0 PREFETCH ISSUED TO LOWER LEVEL:          0  ACCURACY: -nan
STLB TIMELY PREFETCHES:          0 LATE PREFETCHES: 0 DROPPED PREFETCHES: 0
STLB PREFETCHES SAME FILL-ORIGIN LEVEL: 0 DIFFERENT FILL-ORIGIN LEVEL: 0
STLB AVERAGE MISS LATENCY: 434.407 cycles
STLB RQ	ACCESS:    4130854	FORWARD:          0	MERGED:    2944475	TO_CACHE:    1186379

STLB Hit, L1D data hit: 0
STLB Hit, L2C data hit: 0
STLB Hit, LLC data hit: 0
STLB Hit, LLC data miss: 0
STLB STLB hints to L2: 0
L1D TOTAL     ACCESS:   30813286  HIT:   21431269  MISS:    9382017  HIT %:     69.552  MISS %:     30.448   MPKI: 46.9101
L1D LOAD      ACCESS:   10329323  HIT:    9848901  MISS:     480422  HIT %:    95.3489  MISS %:    4.65105   MPKI: 2.40211
L1D RFO       ACCESS:   17249747  HIT:    9289360  MISS:    7960387  HIT %:    53.8522  MISS %:    46.1478   MPKI: 39.8019
L1D PREFETCH  ACCESS:    3234216  HIT:    2293008  MISS:     941208  HIT %:    70.8984  MISS %:    29.1016   MPKI: 4.70604
L1D PREFETCH  REQUESTED:   11127183  ISSUED:    8540458  USEFUL:     941864  USELESS:          0
L1D USEFUL LOAD PREFETCHES:     941864 PREFETCH ISSUED TO LOWER LEVEL:    1259494  ACCURACY: 74.7811
L1D TIMELY PREFETCHES:     941864 LATE PREFETCHES: 317634 DROPPED PREFETCHES: 0
L1D PREFETCHES SAME FILL-ORIGIN LEVEL: 1259494 DIFFERENT FILL-ORIGIN LEVEL: 0
L1D AVERAGE MISS LATENCY: 1305.44 cycles
L1D RQ	ACCESS:   33683377	FORWARD:          0	MERGED:   18334242	TO_CACHE:   10528199
L1D WQ	ACCESS:   20099980	FORWARD:    4820936	MERGED:    2588418	TO_CACHE:   17511562
L1D PQ	ACCESS:    4498620	FORWARD:          0	MERGED:     456782	TO_CACHE:    4041838

L1D UNIQUE REGIONS ACCESSED: 0
L1D REGIONS CONFLICTS: 0
L1D Cross Page Prefetch Requests: 0
L1D Same Page Prefetch Requests: 6507947
L1D ROI Sum of L1D PQ occupancy: 7609297106
L1D PREFETCHES PUSHED FROM L2C: 0
L1I TOTAL     ACCESS:   40151281  HIT:   40151281  MISS:          0  HIT %:        100  MISS %:          0   MPKI: 0
L1I LOAD      ACCESS:   40151281  HIT:   40151281  MISS:          0  HIT %:        100  MISS %:          0   MPKI: 0
L1I PREFETCH  REQUESTED:          0  ISSUED:          0  USEFUL:          0  USELESS:          0
L1I USEFUL LOAD PREFETCHES:          0 PREFETCH ISSUED TO LOWER LEVEL:          0  ACCURACY: -nan
L1I TIMELY PREFETCHES:          0 LATE PREFETCHES: 0 DROPPED PREFETCHES: 0
L1I PREFETCHES SAME FILL-ORIGIN LEVEL: 0 DIFFERENT FILL-ORIGIN LEVEL: 0
L1I AVERAGE MISS LATENCY: -nan cycles
L1I RQ	ACCESS:   55079726	FORWARD:          0	MERGED:   14900183	TO_CACHE:   40179543

BTB TOTAL     ACCESS:    2206685  HIT:    2206681  MISS:          4  HIT %:    99.9998  MISS %: 0.000181267   MPKI: 2e-05
BTB BRANCH_DIRECT_JUMP	ACCESS:    1092088  HIT:    1092086  MISS:          2
BTB BRANCH_INDIRECT	ACCESS:          0  HIT:          0  MISS:          0
BTB BRANCH_CONDITIONAL	ACCESS:    1114597  HIT:    1114595  MISS:          2
BTB BRANCH_DIRECT_CALL	ACCESS:          0  HIT:          0  MISS:          0
BTB BRANCH_INDIRECT_CALL	ACCESS:          0  HIT:          0  MISS:          0
BTB BRANCH_RETURN	ACCESS:          0  HIT:          0  MISS:          0
BTB BRANCH_OTHER ACCESS:          0  HIT:          0  MISS:          0

L2C TOTAL     ACCESS:   17431356  HIT:   11083830  MISS:    6347526  HIT %:    63.5856  MISS %:    36.4144   MPKI: 31.7376
L2C LOAD      ACCESS:     163019  HIT:          0  MISS:     163019  HIT %:          0  MISS %:        100   MPKI: 0.815095
L2C DATA LOAD MPKI: 0.815095
L2C INSTRUCTION LOAD MPKI: 0
L2C RFO       ACCESS:    7960387  HIT:    3561626  MISS:    4398761  HIT %:    44.7419  MISS %:    55.2581   MPKI: 21.9938
L2C PREFETCH  ACCESS:    1258610  HIT:          0  MISS:    1258610  HIT %:          0  MISS %:        100   MPKI: 6.29305
L2C DATA PREFETCH MPKI: 6.29305
L2C INSTRUCTION PREFETCH MPKI: 0
L2C WRITEBACK ACCESS:    7960380  HIT:    7444991  MISS:     515389  HIT %:    93.5256  MISS %:    6.47443   MPKI: 2.57694
L2C LOAD TRANSLATION ACCESS:      88960  HIT:      77213  MISS:      11747  HIT %:    86.7952  MISS %:    13.2048   MPKI: 0.058735
L2C PREFETCH  REQUESTED:          0  ISSUED:          0  USEFUL:          0  USELESS:    1259364
L2C USEFUL LOAD PREFETCHES:          0 PREFETCH ISSUED TO LOWER LEVEL:    1259494  ACCURACY: 0
L2C TIMELY PREFETCHES:          0 LATE PREFETCHES: 0 DROPPED PREFETCHES: 0
L2C PREFETCHES SAME FILL-ORIGIN LEVEL: 0 DIFFERENT FILL-ORIGIN LEVEL: 0
L2C AVERAGE MISS LATENCY: 2070.34 cycles
L2C RQ	ACCESS:    8218080	FORWARD:          0	MERGED:          0	TO_CACHE:    8218080
L2C WQ	ACCESS:    7965918	FORWARD:          0	MERGED:          0	TO_CACHE:    7965918
L2C PQ	ACCESS:    1259494	FORWARD:          0	MERGED:          0	TO_CACHE:    1259494

L2C Instructions Evicting Data 0
L2C Translations Evicting Data 11755
L2C Data Evicting Data 5813435
L2C Instructions Evicting Instructions 0
L2C Translations Evicting Instructions 0
L2C Data Evicting Instructions 0
L2C Instructions Evicting Translations 0
L2C Translations Evicting Translations 0
L2C Data Evicting Translations 10960
L2C Dense regions hint from L2: 0
PSCL5 TOTAL     ACCESS:      88954  HIT:      88954  MISS:          0  HIT %:        100  MISS %:          0   MPKI: 0
PSCL5 LOAD TRANSLATION ACCESS:      88954  HIT:      88954  MISS:          0  HIT %:        100  MISS %:          0   MPKI: 0
PSCL5 PREFETCH  REQUESTED:          0  ISSUED:          0  USEFUL:          0  USELESS:          0
PSCL5 USEFUL LOAD PREFETCHES:          0 PREFETCH ISSUED TO LOWER LEVEL:          0  ACCURACY: -nan
PSCL5 TIMELY PREFETCHES:          0 LATE PREFETCHES: 0 DROPPED PREFETCHES: 0
PSCL5 PREFETCHES SAME FILL-ORIGIN LEVEL: 0 DIFFERENT FILL-ORIGIN LEVEL: 0

PSCL4 TOTAL     ACCESS:      88954  HIT:      88954  MISS:          0  HIT %:        100  MISS %:          0   MPKI: 0
PSCL4 LOAD TRANSLATION ACCESS:      88954  HIT:      88954  MISS:          0  HIT %:        100  MISS %:          0   MPKI: 0
PSCL4 PREFETCH  REQUESTED:          0  ISSUED:          0  USEFUL:          0  USELESS:          0
PSCL4 USEFUL LOAD PREFETCHES:          0 PREFETCH ISSUED TO LOWER LEVEL:          0  ACCURACY: -nan
PSCL4 TIMELY PREFETCHES:          0 LATE PREFETCHES: 0 DROPPED PREFETCHES: 0
PSCL4 PREFETCHES SAME FILL-ORIGIN LEVEL: 0 DIFFERENT FILL-ORIGIN LEVEL: 0

PSCL3 TOTAL     ACCESS:      88954  HIT:      88954  MISS:          0  HIT %:        100  MISS %:          0   MPKI: 0
PSCL3 LOAD TRANSLATION ACCESS:      88954  HIT:      88954  MISS:          0  HIT %:        100  MISS %:          0   MPKI: 0
PSCL3 PREFETCH  REQUESTED:          0  ISSUED:          0  USEFUL:          0  USELESS:          0
PSCL3 USEFUL LOAD PREFETCHES:          0 PREFETCH ISSUED TO LOWER LEVEL:          0  ACCURACY: -nan
PSCL3 TIMELY PREFETCHES:          0 LATE PREFETCHES: 0 DROPPED PREFETCHES: 0
PSCL3 PREFETCHES SAME FILL-ORIGIN LEVEL: 0 DIFFERENT FILL-ORIGIN LEVEL: 0

PSCL2 TOTAL     ACCESS:      88954  HIT:      88861  MISS:         93  HIT %:    99.8955  MISS %:   0.104548   MPKI: 0.000465
PSCL2 LOAD TRANSLATION ACCESS:      88954  HIT:      88861  MISS:         93  HIT %:    99.8955  MISS %:   0.104548   MPKI: 0.000465
PSCL2 PREFETCH  REQUESTED:          0  ISSUED:          0  USEFUL:          0  USELESS:          0
PSCL2 USEFUL LOAD PREFETCHES:          0 PREFETCH ISSUED TO LOWER LEVEL:          0  ACCURACY: -nan
PSCL2 TIMELY PREFETCHES:          0 LATE PREFETCHES: 0 DROPPED PREFETCHES: 0
PSCL2 PREFETCHES SAME FILL-ORIGIN LEVEL: 0 DIFFERENT FILL-ORIGIN LEVEL: 0

LLC TOTAL     ACCESS:   10247309  HIT:    4391677  MISS:    5855632  HIT %:    42.8569  MISS %:    57.1431   MPKI: 29.2782
LLC LOAD      ACCESS:     163019  HIT:          0  MISS:     163019  HIT %:          0  MISS %:        100   MPKI: 0.815095
LLC RFO       ACCESS:    4398410  HIT:     134366  MISS:    4264044  HIT %:    3.05488  MISS %:    96.9451   MPKI: 21.3202
LLC PREFETCH  ACCESS:    1258610  HIT:          0  MISS:    1258610  HIT %:          0  MISS %:        100   MPKI: 6.29305
LLC WRITEBACK ACCESS:    4415523  HIT:    4256828  MISS:     158695  HIT %:     96.406  MISS %:    3.59402   MPKI: 0.793475
LLC LOAD TRANSLATION ACCESS:      11747  HIT:        483  MISS:      11264  HIT %:    4.11169  MISS %:    95.8883   MPKI: 0.05632
LLC PREFETCH  REQUESTED:          0  ISSUED:          0  USEFUL:          0  USELESS:    5042282
LLC USEFUL LOAD PREFETCHES:          0 PREFETCH ISSUED TO LOWER LEVEL:   21123338  ACCURACY: 0
LLC TIMELY PREFETCHES:          0 LATE PREFETCHES: 0 DROPPED PREFETCHES: 0
LLC PREFETCHES SAME FILL-ORIGIN LEVEL: 0 DIFFERENT FILL-ORIGIN LEVEL: 0
LLC AVERAGE MISS LATENCY: 8858.67 cycles
LLC RQ	ACCESS:   18312786	FORWARD:          0	MERGED:          0	TO_CACHE:   18311398
LLC WQ	ACCESS:   17675925	FORWARD:       1388	MERGED:          0	TO_CACHE:   17675925
LLC PQ	ACCESS:    5036914	FORWARD:          0	MERGED:          0	TO_CACHE:    5036914

LLC Dense regions hint to LLC: 0

RAW hits: 4468151
Loads Generated: 38127920
Loads sent to L1D: 33659766
Stores Generated: 20085917
Stores sent to L1D: 20085931
Major fault: 0 Minor fault: 56469
Allocated PAGES: 225967

stream: 
stream:times selected: 8582007
stream:pref_filled: 169941
stream:pref_useful: 169941
stream:pref_late: 103138
stream:misses: 85657
stream:misses_by_poll: 0

CS: 
CS:times selected: 2315197
CS:pref_filled: 738872
CS:pref_useful: 738872
CS:pref_late: 147868
CS:misses: 303728
CS:misses_by_poll: 4204

CPLX: 
CPLX:times selected: 6260582
CPLX:pref_filled: 377837
CPLX:pref_useful: 377837
CPLX:pref_late: 68194
CPLX:misses: 300521
CPLX:misses_by_poll: 1727

NL_L1: 
NL:times selected: 3667
NL:pref_filled: 109
NL:pref_useful: 109
NL:pref_late: 112
NL:misses: 189
NL:misses_by_poll: 0

total selections: 17161453
total_filled: 942335
total_useful: 942349
total_late: 319678
total_polluted: 5931
total_misses_after_warmup: 674827
conflicts: 23835
Degree Incremented Times: 692828
Degree Decremented Times: 0

L1 IP Table Write Accesses: 42090323
L1 IP Table Read Accesses: 42066488
L1 RST Write Accesses: 24966416
L1 RST Read Accesses: 49932832
L1 CSPT Write Accesses: 24966416
L1 CSPT Read Accesses: 71026852
L1 RR Filter Tag Write Accesses: 28352605
L1 RR Filter Tag Read Accesses: 4260807885
L1 IP Table Tag Write Accesses: 42135906
L1 IP Table Tag Read Accesses: 42135906
L1 RST Tag Write Accesses: 0
L1 RST Tag Read Accesses: 224939011
L1 RR Filter Write Accesses: 0
L1 RR Filter Read Accesses: 188863177
test: 3663032

stream: 
stream:times selected: 8565510
stream:pref_filled: 170511
stream:pref_useful: 170511
stream:pref_late: 103421
stream:misses: 86010
stream:misses_by_poll: 0

CS: 
CS:times selected: 2308958
CS:pref_filled: 733201
CS:pref_useful: 733195
CS:pref_late: 146788
CS:misses: 304772
CS:misses_by_poll: 4191

CPLX: 
CPLX:times selected: 6250490
CPLX:pref_filled: 375948
CPLX:pref_useful: 375944
CPLX:pref_late: 69236
CPLX:misses: 304212
CPLX:misses_by_poll: 1844

NL_L1: 
NL:times selected: 3611
NL:pref_filled: 116
NL:pref_useful: 116
NL:pref_late: 96
NL:misses: 187
NL:misses_by_poll: 0

total selections: 17128569
total_filled: 939410
total_useful: 939420
total_late: 319922
total_polluted: 6035
total_misses_after_warmup: 673943
conflicts: 23835
Degree Incremented Times: 692828
Degree Decremented Times: 0

L1 IP Table Write Accesses: 42090323
L1 IP Table Read Accesses: 42066488
L1 RST Write Accesses: 24966416
L1 RST Read Accesses: 49932832
L1 CSPT Write Accesses: 24966416
L1 CSPT Read Accesses: 71026852
L1 RR Filter Tag Write Accesses: 28352605
L1 RR Filter Tag Read Accesses: 4260807885
L1 IP Table Tag Write Accesses: 42135906
L1 IP Table Tag Read Accesses: 42135906
L1 RST Tag Write Accesses: 0
L1 RST Tag Read Accesses: 224939011
L1 RR Filter Write Accesses: 0
L1 RR Filter Read Accesses: 188863177
test: 3663032

stream: 
stream:times selected: 8578884
stream:pref_filled: 181065
stream:pref_useful: 181062
stream:pref_late: 103539
stream:misses: 86709
stream:misses_by_poll: 0

CS: 
CS:times selected: 2312574
CS:pref_filled: 715912
CS:pref_useful: 715912
CS:pref_late: 147368
CS:misses: 305978
CS:misses_by_poll: 4047

CPLX: 
CPLX:times selected: 6260106
CPLX:pref_filled: 380964
CPLX:pref_useful: 380963
CPLX:pref_late: 69051
CPLX:misses: 307971
CPLX:misses_by_poll: 1827

NL_L1: 
NL:times selected: 3764
NL:pref_filled: 113
NL:pref_useful: 113
NL:pref_late: 98
NL:misses: 186
NL:misses_by_poll: 0

total selections: 17155328
total_filled: 942009
total_useful: 942021
total_late: 320451
total_polluted: 5874
total_misses_after_warmup: 673221
conflicts: 23835
Degree Incremented Times: 692828
Degree Decremented Times: 0

L1 IP Table Write Accesses: 42090323
L1 IP Table Read Accesses: 42066488
L1 RST Write Accesses: 24966416
L1 RST Read Accesses: 49932832
L1 CSPT Write Accesses: 24966416
L1 CSPT Read Accesses: 71026852
L1 RR Filter Tag Write Accesses: 28352605
L1 RR Filter Tag Read Accesses: 4260807885
L1 IP Table Tag Write Accesses: 42135906
L1 IP Table Tag Read Accesses: 42135906
L1 RST Tag Write Accesses: 0
L1 RST Tag Read Accesses: 224939011
L1 RR Filter Write Accesses: 0
L1 RR Filter Read Accesses: 188863177
test: 3663032

stream: 
stream:times selected: 8577258
stream:pref_filled: 210848
stream:pref_useful: 210848
stream:pref_late: 104380
stream:misses: 87923
stream:misses_by_poll: 0

CS: 
CS:times selected: 2312150
CS:pref_filled: 680857
CS:pref_useful: 680855
CS:pref_late: 147115
CS:misses: 306323
CS:misses_by_poll: 4141

CPLX: 
CPLX:times selected: 6258867
CPLX:pref_filled: 382807
CPLX:pref_useful: 382807
CPLX:pref_late: 69372
CPLX:misses: 310509
CPLX:misses_by_poll: 1839

NL_L1: 
NL:times selected: 3686
NL:pref_filled: 86
NL:pref_useful: 86
NL:pref_late: 100
NL:misses: 206
NL:misses_by_poll: 0

total selections: 17151961
total_filled: 941857
total_useful: 941864
total_late: 321356
total_polluted: 5980
total_misses_after_warmup: 672511
conflicts: 23835
Degree Incremented Times: 692828
Degree Decremented Times: 0

L1 IP Table Write Accesses: 42090323
L1 IP Table Read Accesses: 42066488
L1 RST Write Accesses: 24966416
L1 RST Read Accesses: 49932832
L1 CSPT Write Accesses: 24966416
L1 CSPT Read Accesses: 71026852
L1 RR Filter Tag Write Accesses: 28352605
L1 RR Filter Tag Read Accesses: 4260807885
L1 IP Table Tag Write Accesses: 42135906
L1 IP Table Tag Read Accesses: 42135906
L1 RST Tag Write Accesses: 0
L1 RST Tag Read Accesses: 224939011
L1 RR Filter Write Accesses: 0
L1 RR Filter Read Accesses: 188863177
test: 3663032

DRAM Statistics
 CHANNEL 0
 RQ ROW_BUFFER_HIT:    6196357  ROW_BUFFER_MISS:   16615880
 DBUS_CONGESTED:          0
 WQ ROW_BUFFER_HIT:     785243  ROW_BUFFER_MISS:   16286232  FULL:      14867

 AVG_CONGESTED_CYCLE: -
 All warmup complete: 5
Channel 0 Bank busy for read cycles: 0
Channel 0 Bank busy for write cycles: 0
Channel 0
Rank 0
0banks busy for read cycles: 1
0banks busy for write cycles: 0
1banks busy for read cycles: 1614349
1banks busy for write cycles: 1614279
2banks busy for read cycles: 1615973
2banks busy for write cycles: 1614279
3banks busy for read cycles: 1623204
3banks busy for write cycles: 1614279
4banks busy for read cycles: 1642403
4banks busy for write cycles: 1614279
5banks busy for read cycles: 1776755
5banks busy for write cycles: 1614619
6banks busy for read cycles: 3167345
6banks busy for write cycles: 1719010
7banks busy for read cycles: 35610275
7banks busy for write cycles: 22502043
8banks busy for read cycles: 393764046
8banks busy for write cycles: 433519534

CPU 0 Branch Prediction Accuracy: 99.7951% MPKI: 0.0284258 Average ROB Occupancy at Mispredict: 229.568
Branch types
NOT_BRANCH: 197656859 98.6124%
BRANCH_DIRECT_JUMP: 1094489 0.546048%
BRANCH_INDIRECT: 0 0%
BRANCH_CONDITIONAL: 1686874 0.841593%
BRANCH_DIRECT_CALL: 0 0%
BRANCH_INDIRECT_CALL: 0 0%
BRANCH_RETURN: 0 0%
BRANCH_OTHER: 0 0%


CPU 1 Branch Prediction Accuracy: 99.7951% MPKI: 0.0284276 Average ROB Occupancy at Mispredict: 231.632
Branch types
NOT_BRANCH: 197224652 98.6123%
BRANCH_DIRECT_JUMP: 1092089 0.546044%
BRANCH_INDIRECT: 0 0%
BRANCH_CONDITIONAL: 1683219 0.841609%
BRANCH_DIRECT_CALL: 0 0%
BRANCH_INDIRECT_CALL: 0 0%
BRANCH_RETURN: 0 0%
BRANCH_OTHER: 0 0%


CPU 2 Branch Prediction Accuracy: 99.7951% MPKI: 0.0284332 Average ROB Occupancy at Mispredict: 227.496
Branch types
NOT_BRANCH: 197513443 98.6124%
BRANCH_DIRECT_JUMP: 1093693 0.546047%
BRANCH_INDIRECT: 0 0%
BRANCH_CONDITIONAL: 1685660 0.841598%
BRANCH_DIRECT_CALL: 0 0%
BRANCH_INDIRECT_CALL: 0 0%
BRANCH_RETURN: 0 0%
BRANCH_OTHER: 0 0%


CPU 3 Branch Prediction Accuracy: 99.7951% MPKI: 0.028435 Average ROB Occupancy at Mispredict: 229.525
Branch types
NOT_BRANCH: 197363703 98.6123%
BRANCH_DIRECT_JUMP: 1092861 0.546046%
BRANCH_INDIRECT: 0 0%
BRANCH_CONDITIONAL: 1684396 0.841605%
BRANCH_DIRECT_CALL: 0 0%
BRANCH_INDIRECT_CALL: 0 0%
BRANCH_RETURN: 0 0%
BRANCH_OTHER: 0 0%

DRAM PAGES: 1048576
Allocated PAGES: 225967
