
*** ChampSim Multicore Out-of-Order Simulator ***

Warmup Instructions: 50000000
Simulation Instructions: 200000000
Number of CPUs: 4
LLC sets: 8192
LLC ways: 16
Off-chip DRAM Size: 4096 MB Channels: 1 Width: 64-bit Data Rate: 6400 MT/s
CPU 0 runs ./traces/gap/bfs-3.trace.gz
.gz
CPU 1 runs ./traces/gap/bfs-3.trace.gz
.gz
CPU 2 runs ./traces/gap/bfs-3.trace.gz
.gz
CPU 3 runs ./traces/gap/bfs-3.trace.gz
.gz
BTB has LRU replacement policy
ITLB has LRU replacement policy
DTLB has LRU replacement policy
STLB has LRU replacement policy
L1I has LRU replacement policy
IP Table Entries: 1024
CSPT Entries: 128
RR_ENTRIES: 32
RST_ENTRIES: 8
L1D has LRU replacement policy
Initialize SRRIP state for L2C
Initialize DRRIP state for LLC
BTB has LRU replacement policy
ITLB has LRU replacement policy
DTLB has LRU replacement policy
STLB has LRU replacement policy
L1I has LRU replacement policy
IP Table Entries: 1024
CSPT Entries: 128
RR_ENTRIES: 32
RST_ENTRIES: 8
L1D has LRU replacement policy
Initialize SRRIP state for L2C
Initialize DRRIP state for LLC
BTB has LRU replacement policy
ITLB has LRU replacement policy
DTLB has LRU replacement policy
STLB has LRU replacement policy
L1I has LRU replacement policy
IP Table Entries: 1024
CSPT Entries: 128
RR_ENTRIES: 32
RST_ENTRIES: 8
L1D has LRU replacement policy
Initialize SRRIP state for L2C
Initialize DRRIP state for LLC
BTB has LRU replacement policy
ITLB has LRU replacement policy
DTLB has LRU replacement policy
STLB has LRU replacement policy
L1I has LRU replacement policy
IP Table Entries: 1024
CSPT Entries: 128
RR_ENTRIES: 32
RST_ENTRIES: 8
L1D has LRU replacement policy
Initialize SRRIP state for L2C
Initialize DRRIP state for LLC
Heartbeat CPU 0 instructions: 10000002 cycles: 2973477 heartbeat IPC: 3.36307 cumulative IPC: 3.36307 (Simulation time: 0 hr 2 min 16 sec) 
Heartbeat CPU 1 instructions: 10000002 cycles: 2973507 heartbeat IPC: 3.36303 cumulative IPC: 3.36303 (Simulation time: 0 hr 2 min 16 sec) 
Heartbeat CPU 2 instructions: 10000002 cycles: 2973516 heartbeat IPC: 3.36302 cumulative IPC: 3.36302 (Simulation time: 0 hr 2 min 16 sec) 
Heartbeat CPU 3 instructions: 10000002 cycles: 2973546 heartbeat IPC: 3.36299 cumulative IPC: 3.36299 (Simulation time: 0 hr 2 min 16 sec) 
Heartbeat CPU 1 instructions: 20000003 cycles: 5997580 heartbeat IPC: 3.3068 cumulative IPC: 3.33468 (Simulation time: 0 hr 5 min 11 sec) 
Heartbeat CPU 0 instructions: 20000003 cycles: 5997666 heartbeat IPC: 3.30667 cumulative IPC: 3.33463 (Simulation time: 0 hr 5 min 11 sec) 
Heartbeat CPU 2 instructions: 20000003 cycles: 5998241 heartbeat IPC: 3.30609 cumulative IPC: 3.33431 (Simulation time: 0 hr 5 min 11 sec) 
Heartbeat CPU 3 instructions: 20000003 cycles: 5999470 heartbeat IPC: 3.30478 cumulative IPC: 3.33363 (Simulation time: 0 hr 5 min 11 sec) 
Heartbeat CPU 1 instructions: 30000001 cycles: 8995294 heartbeat IPC: 3.33587 cumulative IPC: 3.33508 (Simulation time: 0 hr 8 min 8 sec) 
Heartbeat CPU 0 instructions: 30000001 cycles: 8995380 heartbeat IPC: 3.33587 cumulative IPC: 3.33505 (Simulation time: 0 hr 8 min 8 sec) 
Heartbeat CPU 2 instructions: 30000001 cycles: 8995955 heartbeat IPC: 3.33587 cumulative IPC: 3.33483 (Simulation time: 0 hr 8 min 8 sec) 
Heartbeat CPU 3 instructions: 30000001 cycles: 8997184 heartbeat IPC: 3.33587 cumulative IPC: 3.33438 (Simulation time: 0 hr 8 min 8 sec) 
Heartbeat CPU 1 instructions: 40000002 cycles: 11992615 heartbeat IPC: 3.33631 cumulative IPC: 3.33539 (Simulation time: 0 hr 10 min 59 sec) 
Heartbeat CPU 0 instructions: 40000003 cycles: 11992703 heartbeat IPC: 3.33631 cumulative IPC: 3.33536 (Simulation time: 0 hr 10 min 59 sec) 
Heartbeat CPU 2 instructions: 40000002 cycles: 11993276 heartbeat IPC: 3.33631 cumulative IPC: 3.3352 (Simulation time: 0 hr 10 min 59 sec) 
Heartbeat CPU 3 instructions: 40000002 cycles: 11994505 heartbeat IPC: 3.33631 cumulative IPC: 3.33486 (Simulation time: 0 hr 10 min 59 sec) 
Heartbeat CPU 1 instructions: 50000000 cycles: 15023881 heartbeat IPC: 3.29895 cumulative IPC: 3.32803 (Simulation time: 0 hr 13 min 44 sec) 
Heartbeat CPU 0 instructions: 50000000 cycles: 15023966 heartbeat IPC: 3.29895 cumulative IPC: 3.32802 (Simulation time: 0 hr 13 min 44 sec) 
Heartbeat CPU 2 instructions: 50000000 cycles: 15024554 heartbeat IPC: 3.29894 cumulative IPC: 3.32789 (Simulation time: 0 hr 13 min 44 sec) 
Heartbeat CPU 3 instructions: 50000000 cycles: 15025773 heartbeat IPC: 3.29895 cumulative IPC: 3.32762 (Simulation time: 0 hr 13 min 44 sec) 

Warmup complete CPU 0 instructions: 50002760 cycles: 15025774 (Simulation time: 0 hr 13 min 44 sec) 
Warmup complete CPU 1 instructions: 50002885 cycles: 15025774 (Simulation time: 0 hr 13 min 44 sec) 
Warmup complete CPU 2 instructions: 50001864 cycles: 15025774 (Simulation time: 0 hr 13 min 44 sec) 
Warmup complete CPU 3 instructions: 50000004 cycles: 15025774 (Simulation time: 0 hr 13 min 44 sec) 

Heartbeat CPU 0 instructions: 60000000 cycles: 60999866 heartbeat IPC: 0.217505 cumulative IPC: 0.217454 (Simulation time: 0 hr 17 min 27 sec) 
Heartbeat CPU 1 instructions: 60000000 cycles: 61069521 heartbeat IPC: 0.217176 cumulative IPC: 0.217122 (Simulation time: 0 hr 17 min 27 sec) 
Heartbeat CPU 2 instructions: 60000000 cycles: 61179090 heartbeat IPC: 0.216663 cumulative IPC: 0.216629 (Simulation time: 0 hr 17 min 28 sec) 
Heartbeat CPU 3 instructions: 60000000 cycles: 61336072 heartbeat IPC: 0.215935 cumulative IPC: 0.215935 (Simulation time: 0 hr 17 min 29 sec) 
Heartbeat CPU 0 instructions: 70000002 cycles: 82892862 heartbeat IPC: 0.456767 cumulative IPC: 0.294653 (Simulation time: 0 hr 20 min 7 sec) 
Heartbeat CPU 1 instructions: 70000002 cycles: 82964954 heartbeat IPC: 0.456716 cumulative IPC: 0.294339 (Simulation time: 0 hr 20 min 8 sec) 
Heartbeat CPU 2 instructions: 70000002 cycles: 83064164 heartbeat IPC: 0.456933 cumulative IPC: 0.293924 (Simulation time: 0 hr 20 min 11 sec) 
Heartbeat CPU 3 instructions: 70000002 cycles: 83163344 heartbeat IPC: 0.458143 cumulative IPC: 0.293524 (Simulation time: 0 hr 20 min 13 sec) 
Heartbeat CPU 0 instructions: 80000001 cycles: 91236035 heartbeat IPC: 1.19858 cumulative IPC: 0.393612 (Simulation time: 0 hr 22 min 42 sec) 
Heartbeat CPU 1 instructions: 80000001 cycles: 91363179 heartbeat IPC: 1.19073 cumulative IPC: 0.392954 (Simulation time: 0 hr 22 min 43 sec) 
Heartbeat CPU 2 instructions: 80000001 cycles: 91488768 heartbeat IPC: 1.187 cumulative IPC: 0.392322 (Simulation time: 0 hr 22 min 45 sec) 
Heartbeat CPU 3 instructions: 80000001 cycles: 91582169 heartbeat IPC: 1.18781 cumulative IPC: 0.391868 (Simulation time: 0 hr 22 min 47 sec) 
Heartbeat CPU 0 instructions: 90000000 cycles: 107282600 heartbeat IPC: 0.623186 cumulative IPC: 0.433542 (Simulation time: 0 hr 26 min 29 sec) 
Heartbeat CPU 1 instructions: 90000000 cycles: 107380907 heartbeat IPC: 0.624308 cumulative IPC: 0.43308 (Simulation time: 0 hr 26 min 29 sec) 
Heartbeat CPU 2 instructions: 90000000 cycles: 107515075 heartbeat IPC: 0.623974 cumulative IPC: 0.432462 (Simulation time: 0 hr 26 min 30 sec) 
Heartbeat CPU 3 instructions: 90000000 cycles: 107626041 heartbeat IPC: 0.623291 cumulative IPC: 0.431964 (Simulation time: 0 hr 26 min 31 sec) 
Heartbeat CPU 0 instructions: 100000001 cycles: 164077952 heartbeat IPC: 0.176071 cumulative IPC: 0.335434 (Simulation time: 0 hr 31 min 7 sec) 
Heartbeat CPU 1 instructions: 100000001 cycles: 164389132 heartbeat IPC: 0.175413 cumulative IPC: 0.334735 (Simulation time: 0 hr 31 min 8 sec) 
Heartbeat CPU 2 instructions: 100000001 cycles: 164466960 heartbeat IPC: 0.175587 cumulative IPC: 0.334567 (Simulation time: 0 hr 31 min 8 sec) 
Heartbeat CPU 3 instructions: 100000001 cycles: 164768488 heartbeat IPC: 0.175001 cumulative IPC: 0.333906 (Simulation time: 0 hr 31 min 9 sec) 
Heartbeat CPU 0 instructions: 110000000 cycles: 211134729 heartbeat IPC: 0.212509 cumulative IPC: 0.305938 (Simulation time: 0 hr 35 min 48 sec) 
Heartbeat CPU 1 instructions: 110000000 cycles: 211309235 heartbeat IPC: 0.213128 cumulative IPC: 0.305666 (Simulation time: 0 hr 35 min 49 sec) 
Heartbeat CPU 2 instructions: 110000000 cycles: 211479162 heartbeat IPC: 0.212711 cumulative IPC: 0.305406 (Simulation time: 0 hr 35 min 51 sec) 
Heartbeat CPU 3 instructions: 110000000 cycles: 211790116 heartbeat IPC: 0.212668 cumulative IPC: 0.304933 (Simulation time: 0 hr 35 min 52 sec) 
Heartbeat CPU 0 instructions: 120000001 cycles: 254501054 heartbeat IPC: 0.230594 cumulative IPC: 0.292294 (Simulation time: 0 hr 39 min 58 sec) 
Heartbeat CPU 1 instructions: 120000001 cycles: 254628624 heartbeat IPC: 0.230844 cumulative IPC: 0.292138 (Simulation time: 0 hr 39 min 59 sec) 
Heartbeat CPU 2 instructions: 120000001 cycles: 254775647 heartbeat IPC: 0.230966 cumulative IPC: 0.291963 (Simulation time: 0 hr 40 min 0 sec) 
Heartbeat CPU 3 instructions: 120000001 cycles: 255172392 heartbeat IPC: 0.230509 cumulative IPC: 0.291489 (Simulation time: 0 hr 40 min 3 sec) 
Heartbeat CPU 0 instructions: 130000003 cycles: 290437318 heartbeat IPC: 0.27827 cumulative IPC: 0.290464 (Simulation time: 0 hr 43 min 49 sec) 
Heartbeat CPU 1 instructions: 130000003 cycles: 290619524 heartbeat IPC: 0.277848 cumulative IPC: 0.290272 (Simulation time: 0 hr 43 min 51 sec) 
Heartbeat CPU 2 instructions: 130000003 cycles: 290819874 heartbeat IPC: 0.277437 cumulative IPC: 0.290065 (Simulation time: 0 hr 43 min 52 sec) 
Heartbeat CPU 3 instructions: 130000003 cycles: 291157530 heartbeat IPC: 0.277893 cumulative IPC: 0.289717 (Simulation time: 0 hr 43 min 54 sec) 
Heartbeat CPU 0 instructions: 140000003 cycles: 306823476 heartbeat IPC: 0.610271 cumulative IPC: 0.308423 (Simulation time: 0 hr 46 min 35 sec) 
Heartbeat CPU 1 instructions: 140000003 cycles: 306959772 heartbeat IPC: 0.611986 cumulative IPC: 0.308279 (Simulation time: 0 hr 46 min 38 sec) 
Heartbeat CPU 2 instructions: 140000003 cycles: 307154161 heartbeat IPC: 0.612209 cumulative IPC: 0.308077 (Simulation time: 0 hr 46 min 42 sec) 
Heartbeat CPU 3 instructions: 140000003 cycles: 307447890 heartbeat IPC: 0.61386 cumulative IPC: 0.307774 (Simulation time: 0 hr 46 min 48 sec) 
Heartbeat CPU 0 instructions: 150000000 cycles: 322679414 heartbeat IPC: 0.630678 cumulative IPC: 0.325032 (Simulation time: 0 hr 50 min 20 sec) 
Heartbeat CPU 1 instructions: 150000000 cycles: 322830866 heartbeat IPC: 0.630076 cumulative IPC: 0.324872 (Simulation time: 0 hr 50 min 24 sec) 
Heartbeat CPU 2 instructions: 150000000 cycles: 323006941 heartbeat IPC: 0.630804 cumulative IPC: 0.324689 (Simulation time: 0 hr 50 min 29 sec) 
Heartbeat CPU 3 instructions: 150000000 cycles: 323211792 heartbeat IPC: 0.63436 cumulative IPC: 0.324479 (Simulation time: 0 hr 50 min 35 sec) 
Heartbeat CPU 0 instructions: 160000001 cycles: 344259286 heartbeat IPC: 0.463395 cumulative IPC: 0.334101 (Simulation time: 0 hr 53 min 37 sec) 
Heartbeat CPU 1 instructions: 160000001 cycles: 344485048 heartbeat IPC: 0.461805 cumulative IPC: 0.333872 (Simulation time: 0 hr 53 min 39 sec) 
Heartbeat CPU 2 instructions: 160000001 cycles: 344699915 heartbeat IPC: 0.460979 cumulative IPC: 0.333657 (Simulation time: 0 hr 53 min 40 sec) 
Heartbeat CPU 3 instructions: 160000001 cycles: 345093444 heartbeat IPC: 0.457004 cumulative IPC: 0.333265 (Simulation time: 0 hr 53 min 44 sec) 
Heartbeat CPU 1 instructions: 170000000 cycles: 426217411 heartbeat IPC: 0.122351 cumulative IPC: 0.291828 (Simulation time: 0 hr 59 min 36 sec) 
Heartbeat CPU 0 instructions: 170000000 cycles: 426332363 heartbeat IPC: 0.121843 cumulative IPC: 0.291746 (Simulation time: 0 hr 59 min 36 sec) 
Heartbeat CPU 2 instructions: 170000000 cycles: 426776589 heartbeat IPC: 0.121837 cumulative IPC: 0.291434 (Simulation time: 0 hr 59 min 38 sec) 
Heartbeat CPU 3 instructions: 170000000 cycles: 427421260 heartbeat IPC: 0.121466 cumulative IPC: 0.290983 (Simulation time: 0 hr 59 min 40 sec) 
Heartbeat CPU 1 instructions: 180000003 cycles: 498568277 heartbeat IPC: 0.138215 cumulative IPC: 0.268843 (Simulation time: 1 hr 5 min 48 sec) 
Heartbeat CPU 0 instructions: 180000002 cycles: 498687113 heartbeat IPC: 0.138208 cumulative IPC: 0.268777 (Simulation time: 1 hr 5 min 49 sec) 
Heartbeat CPU 2 instructions: 180000002 cycles: 499535613 heartbeat IPC: 0.13744 cumulative IPC: 0.268309 (Simulation time: 1 hr 5 min 52 sec) 
Heartbeat CPU 3 instructions: 180000003 cycles: 500265808 heartbeat IPC: 0.137279 cumulative IPC: 0.267909 (Simulation time: 1 hr 5 min 55 sec) 
Heartbeat CPU 1 instructions: 190000000 cycles: 544184941 heartbeat IPC: 0.219218 cumulative IPC: 0.264565 (Simulation time: 1 hr 10 min 53 sec) 
Heartbeat CPU 0 instructions: 190000000 cycles: 544258830 heartbeat IPC: 0.219434 cumulative IPC: 0.264529 (Simulation time: 1 hr 10 min 54 sec) 
Heartbeat CPU 2 instructions: 190000000 cycles: 544856156 heartbeat IPC: 0.22065 cumulative IPC: 0.264232 (Simulation time: 1 hr 10 min 58 sec) 
Heartbeat CPU 3 instructions: 190000000 cycles: 545407381 heartbeat IPC: 0.221525 cumulative IPC: 0.263961 (Simulation time: 1 hr 11 min 0 sec) 
Heartbeat CPU 1 instructions: 200000000 cycles: 590938828 heartbeat IPC: 0.213886 cumulative IPC: 0.260451 (Simulation time: 1 hr 14 min 41 sec) 
Heartbeat CPU 0 instructions: 200000000 cycles: 591020333 heartbeat IPC: 0.213851 cumulative IPC: 0.260414 (Simulation time: 1 hr 14 min 42 sec) 
Heartbeat CPU 2 instructions: 200000000 cycles: 591599471 heartbeat IPC: 0.213934 cumulative IPC: 0.260154 (Simulation time: 1 hr 14 min 45 sec) 
Heartbeat CPU 3 instructions: 200000000 cycles: 592242444 heartbeat IPC: 0.213515 cumulative IPC: 0.259868 (Simulation time: 1 hr 14 min 48 sec) 
Heartbeat CPU 1 instructions: 210000002 cycles: 631232245 heartbeat IPC: 0.24818 cumulative IPC: 0.259649 (Simulation time: 1 hr 18 min 32 sec) 
Heartbeat CPU 0 instructions: 210000002 cycles: 631329675 heartbeat IPC: 0.248082 cumulative IPC: 0.259608 (Simulation time: 1 hr 18 min 32 sec) 
Heartbeat CPU 2 instructions: 210000002 cycles: 632099594 heartbeat IPC: 0.246913 cumulative IPC: 0.259285 (Simulation time: 1 hr 18 min 38 sec) 
Heartbeat CPU 3 instructions: 210000002 cycles: 632576779 heartbeat IPC: 0.247928 cumulative IPC: 0.259088 (Simulation time: 1 hr 18 min 41 sec) 
Heartbeat CPU 1 instructions: 220000000 cycles: 650462824 heartbeat IPC: 0.520005 cumulative IPC: 0.267528 (Simulation time: 1 hr 21 min 6 sec) 
Heartbeat CPU 0 instructions: 220000000 cycles: 650574914 heartbeat IPC: 0.519609 cumulative IPC: 0.267481 (Simulation time: 1 hr 21 min 8 sec) 
Heartbeat CPU 2 instructions: 220000000 cycles: 651345186 heartbeat IPC: 0.519599 cumulative IPC: 0.267159 (Simulation time: 1 hr 21 min 25 sec) 
Heartbeat CPU 3 instructions: 220000000 cycles: 651704449 heartbeat IPC: 0.522803 cumulative IPC: 0.267011 (Simulation time: 1 hr 21 min 32 sec) 
Heartbeat CPU 1 instructions: 230000000 cycles: 660906492 heartbeat IPC: 0.957518 cumulative IPC: 0.278685 (Simulation time: 1 hr 24 min 0 sec) 
Heartbeat CPU 0 instructions: 230000000 cycles: 661009742 heartbeat IPC: 0.958329 cumulative IPC: 0.27864 (Simulation time: 1 hr 24 min 2 sec) 
Heartbeat CPU 2 instructions: 230000000 cycles: 661786245 heartbeat IPC: 0.957757 cumulative IPC: 0.278307 (Simulation time: 1 hr 24 min 15 sec) 
Heartbeat CPU 3 instructions: 230000000 cycles: 662056212 heartbeat IPC: 0.966019 cumulative IPC: 0.278194 (Simulation time: 1 hr 24 min 22 sec) 
Heartbeat CPU 1 instructions: 240000000 cycles: 679372544 heartbeat IPC: 0.541534 cumulative IPC: 0.285991 (Simulation time: 1 hr 27 min 33 sec) 
Heartbeat CPU 0 instructions: 240000000 cycles: 679486935 heartbeat IPC: 0.541208 cumulative IPC: 0.285942 (Simulation time: 1 hr 27 min 34 sec) 
Heartbeat CPU 2 instructions: 240000000 cycles: 681027373 heartbeat IPC: 0.51972 cumulative IPC: 0.285282 (Simulation time: 1 hr 27 min 44 sec) 
Heartbeat CPU 3 instructions: 240000000 cycles: 681029612 heartbeat IPC: 0.527054 cumulative IPC: 0.285284 (Simulation time: 1 hr 27 min 44 sec) 
Heartbeat CPU 0 instructions: 250000001 cycles: 725022945 heartbeat IPC: 0.219606 cumulative IPC: 0.281687 (Simulation time: 1 hr 31 min 30 sec) 
Finished CPU 0 instructions: 200000000 cycles: 710010702 cumulative IPC: 0.281686 (Simulation time: 1 hr 31 min 30 sec) 
Heartbeat CPU 1 instructions: 250000001 cycles: 725044444 heartbeat IPC: 0.218953 cumulative IPC: 0.281679 (Simulation time: 1 hr 31 min 30 sec) 
Finished CPU 1 instructions: 200000000 cycles: 710031933 cumulative IPC: 0.281677 (Simulation time: 1 hr 31 min 30 sec) 
Heartbeat CPU 3 instructions: 250000001 cycles: 726107713 heartbeat IPC: 0.221837 cumulative IPC: 0.281262 (Simulation time: 1 hr 31 min 36 sec) 
Finished CPU 3 instructions: 200000000 cycles: 711081960 cumulative IPC: 0.281262 (Simulation time: 1 hr 31 min 36 sec) 
Heartbeat CPU 2 instructions: 250000001 cycles: 726128505 heartbeat IPC: 0.221724 cumulative IPC: 0.281251 (Simulation time: 1 hr 31 min 36 sec) 
Finished CPU 2 instructions: 200000000 cycles: 711110507 cumulative IPC: 0.28125 (Simulation time: 1 hr 31 min 36 sec) 

ChampSim completed all CPUs

Total Simulation Statistics (not including warmup)

CPU 0 cumulative IPC: 0.281625 instructions: 200266773 cycles: 711110507
ITLB TOTAL     ACCESS:   33762295  HIT:   33762295  MISS:          0  HIT %:        100  MISS %:          0   MPKI: 0
ITLB LOAD      ACCESS:          0  HIT:          0  MISS:          0  HIT %:       -nan  MISS %:       -nan   MPKI: 0
ITLB RFO       ACCESS:          0  HIT:          0  MISS:          0  HIT %:       -nan  MISS %:       -nan   MPKI: 0
ITLB PREFETCH  ACCESS:          0  HIT:          0  MISS:          0  HIT %:       -nan  MISS %:       -nan   MPKI: 0
ITLB WRITEBACK ACCESS:          0  HIT:          0  MISS:          0  HIT %:       -nan  MISS %:       -nan   MPKI: 0
DTLB TOTAL     ACCESS:   35396781  HIT:   34664388  MISS:     732393  HIT %:    97.9309  MISS %:    2.06909   MPKI: 3.65709
DTLB LOAD      ACCESS:          0  HIT:          0  MISS:          0  HIT %:       -nan  MISS %:       -nan   MPKI: 0
DTLB RFO       ACCESS:          0  HIT:          0  MISS:          0  HIT %:       -nan  MISS %:       -nan   MPKI: 0
DTLB PREFETCH  ACCESS:          0  HIT:          0  MISS:          0  HIT %:       -nan  MISS %:       -nan   MPKI: 0
DTLB WRITEBACK ACCESS:          0  HIT:          0  MISS:          0  HIT %:       -nan  MISS %:       -nan   MPKI: 0
STLB TOTAL     ACCESS:    6122190  HIT:    5975687  MISS:     146503  HIT %:     97.607  MISS %:    2.39298   MPKI: 0.731539
STLB LOAD      ACCESS:          0  HIT:          0  MISS:          0  HIT %:       -nan  MISS %:       -nan   MPKI: 0
STLB RFO       ACCESS:          0  HIT:          0  MISS:          0  HIT %:       -nan  MISS %:       -nan   MPKI: 0
STLB PREFETCH  ACCESS:          0  HIT:          0  MISS:          0  HIT %:       -nan  MISS %:       -nan   MPKI: 0
STLB WRITEBACK ACCESS:          0  HIT:          0  MISS:          0  HIT %:       -nan  MISS %:       -nan   MPKI: 0
L1D TOTAL     ACCESS:   41822343  HIT:   32213311  MISS:    9609032  HIT %:    77.0242  MISS %:    22.9758   MPKI: 47.9812
L1D LOAD      ACCESS:   29831927  HIT:   25823001  MISS:    4008926  HIT %:    86.5616  MISS %:    13.4384   MPKI: 20.0179
L1D RFO       ACCESS:    4899627  HIT:    4610708  MISS:     288919  HIT %:    94.1032  MISS %:    5.89675   MPKI: 1.44267
L1D PREFETCH  ACCESS:    7090789  HIT:    1779602  MISS:    5311187  HIT %:    25.0974  MISS %:    74.9026   MPKI: 26.5206
L1D WRITEBACK ACCESS:          0  HIT:          0  MISS:          0  HIT %:       -nan  MISS %:       -nan   MPKI: 0
L1I TOTAL     ACCESS:   41390674  HIT:   41390657  MISS:         17  HIT %:        100  MISS %: 4.10721e-05   MPKI: 8.48868e-05
L1I LOAD      ACCESS:   41390674  HIT:   41390657  MISS:         17  HIT %:        100  MISS %: 4.10721e-05   MPKI: 8.48868e-05
L1I RFO       ACCESS:          0  HIT:          0  MISS:          0  HIT %:       -nan  MISS %:       -nan   MPKI: 0
L1I PREFETCH  ACCESS:          0  HIT:          0  MISS:          0  HIT %:       -nan  MISS %:       -nan   MPKI: 0
L1I WRITEBACK ACCESS:          0  HIT:          0  MISS:          0  HIT %:       -nan  MISS %:       -nan   MPKI: 0
L2C TOTAL     ACCESS:   10993510  HIT:    3182619  MISS:    7810891  HIT %:      28.95  MISS %:      71.05   MPKI: 39.0024
L2C LOAD      ACCESS:    3505971  HIT:     958210  MISS:    2547761  HIT %:    27.3308  MISS %:    72.6692   MPKI: 12.7218
L2C RFO       ACCESS:     288917  HIT:       7060  MISS:     281857  HIT %:    2.44361  MISS %:    97.5564   MPKI: 1.40741
L2C PREFETCH  ACCESS:    5814129  HIT:     967114  MISS:    4847015  HIT %:    16.6339  MISS %:    83.3661   MPKI: 24.2028
L2C WRITEBACK ACCESS:    1236937  HIT:    1136763  MISS:     100174  HIT %:    91.9014  MISS %:    8.09855   MPKI: 0.500203
PSCL5 TOTAL     ACCESS:     146503  HIT:     146503  MISS:          0  HIT %:        100  MISS %:          0   MPKI: 0
PSCL5 LOAD      ACCESS:          0  HIT:          0  MISS:          0  HIT %:       -nan  MISS %:       -nan   MPKI: 0
PSCL5 RFO       ACCESS:          0  HIT:          0  MISS:          0  HIT %:       -nan  MISS %:       -nan   MPKI: 0
PSCL5 PREFETCH  ACCESS:          0  HIT:          0  MISS:          0  HIT %:       -nan  MISS %:       -nan   MPKI: 0
PSCL5 WRITEBACK ACCESS:          0  HIT:          0  MISS:          0  HIT %:       -nan  MISS %:       -nan   MPKI: 0
PSCL4 TOTAL     ACCESS:     146503  HIT:     146503  MISS:          0  HIT %:        100  MISS %:          0   MPKI: 0
PSCL4 LOAD      ACCESS:          0  HIT:          0  MISS:          0  HIT %:       -nan  MISS %:       -nan   MPKI: 0
PSCL4 RFO       ACCESS:          0  HIT:          0  MISS:          0  HIT %:       -nan  MISS %:       -nan   MPKI: 0
PSCL4 PREFETCH  ACCESS:          0  HIT:          0  MISS:          0  HIT %:       -nan  MISS %:       -nan   MPKI: 0
PSCL4 WRITEBACK ACCESS:          0  HIT:          0  MISS:          0  HIT %:       -nan  MISS %:       -nan   MPKI: 0
PSCL3 TOTAL     ACCESS:     146503  HIT:     146503  MISS:          0  HIT %:        100  MISS %:          0   MPKI: 0
PSCL3 LOAD      ACCESS:          0  HIT:          0  MISS:          0  HIT %:       -nan  MISS %:       -nan   MPKI: 0
PSCL3 RFO       ACCESS:          0  HIT:          0  MISS:          0  HIT %:       -nan  MISS %:       -nan   MPKI: 0
PSCL3 PREFETCH  ACCESS:          0  HIT:          0  MISS:          0  HIT %:       -nan  MISS %:       -nan   MPKI: 0
PSCL3 WRITEBACK ACCESS:          0  HIT:          0  MISS:          0  HIT %:       -nan  MISS %:       -nan   MPKI: 0
PSCL2 TOTAL     ACCESS:     146503  HIT:     145449  MISS:       1054  HIT %:    99.2806  MISS %:   0.719439   MPKI: 0.00526298
PSCL2 LOAD      ACCESS:          0  HIT:          0  MISS:          0  HIT %:       -nan  MISS %:       -nan   MPKI: 0
PSCL2 RFO       ACCESS:          0  HIT:          0  MISS:          0  HIT %:       -nan  MISS %:       -nan   MPKI: 0
PSCL2 PREFETCH  ACCESS:          0  HIT:          0  MISS:          0  HIT %:       -nan  MISS %:       -nan   MPKI: 0
PSCL2 WRITEBACK ACCESS:          0  HIT:          0  MISS:          0  HIT %:       -nan  MISS %:       -nan   MPKI: 0

stream: 
stream:times selected: 10691062
stream:pref_filled: 4924060
stream:pref_useful: 848099
stream:pref_late: 186005
stream:misses: 855404
stream:misses_by_poll: 0

CS: 
CS:times selected: 3737081
CS:pref_filled: 2370060
CS:pref_useful: 2044290
CS:pref_late: 305263
CS:misses: 1099653
CS:misses_by_poll: 9456

CPLX: 
CPLX:times selected: 6913271
CPLX:pref_filled: 140044
CPLX:pref_useful: 24012
CPLX:pref_late: 7483
CPLX:misses: 4016452
CPLX:misses_by_poll: 105

NL_L1: 
NL:times selected: 32222
NL:pref_filled: 23903
NL:pref_useful: 4406
NL:pref_late: 273
NL:misses: 23041
NL:misses_by_poll: 1

total selections: 21373636
total_filled: 5311187
total_useful: 2070226
total_late: 506723
total_polluted: 9562
total_misses_after_warmup: 4741168
conflicts: 810
Degree Incremented Times: 464784
Degree Decremented Times: 1908083

L1 IP Table Write Accesses: 122189486
L1 IP Table Read Accesses: 122188676
L1 RST Write Accesses: 29311621
L1 RST Read Accesses: 58623242
L1 CSPT Write Accesses: 29311621
L1 CSPT Read Accesses: 47253050
L1 RR Filter Tag Write Accesses: 31440384
L1 RR Filter Tag Read Accesses: 1752230290
L1 IP Table Tag Write Accesses: 122190578
L1 IP Table Tag Read Accesses: 122190578
L1 RST Tag Write Accesses: 0
L1 RST Tag Read Accesses: 262776161
L1 RR Filter Write Accesses: 0
L1 RR Filter Read Accesses: 63561702
test: 11961213
LLC TOTAL     ACCESS:    8724296  HIT:    3354975  MISS:    5369321  HIT %:    38.4555  MISS %:    61.5445   MPKI: 26.8108
LLC LOAD      ACCESS:    2547756  HIT:    1214241  MISS:    1333515  HIT %:    47.6592  MISS %:    52.3408   MPKI: 6.65869
LLC RFO       ACCESS:     281857  HIT:      16176  MISS:     265681  HIT %:    5.73908  MISS %:    94.2609   MPKI: 1.32664
LLC PREFETCH  ACCESS:    4847010  HIT:    1176427  MISS:    3670583  HIT %:    24.2712  MISS %:    75.7288   MPKI: 18.3285
LLC WRITEBACK ACCESS:    1013589  HIT:     946771  MISS:      66818  HIT %:    93.4078  MISS %:    6.59222   MPKI: 0.333645

RAW hits: 300513
Loads Generated: 47784643
Loads sent to L1D: 47484130
Stores Generated: 7649240
Stores sent to L1D: 7649240

CPU 1 cumulative IPC: 0.28162 instructions: 200263153 cycles: 711110507
ITLB TOTAL     ACCESS:   33762395  HIT:   33762395  MISS:          0  HIT %:        100  MISS %:          0   MPKI: 0
ITLB LOAD      ACCESS:          0  HIT:          0  MISS:          0  HIT %:       -nan  MISS %:       -nan   MPKI: 0
ITLB RFO       ACCESS:          0  HIT:          0  MISS:          0  HIT %:       -nan  MISS %:       -nan   MPKI: 0
ITLB PREFETCH  ACCESS:          0  HIT:          0  MISS:          0  HIT %:       -nan  MISS %:       -nan   MPKI: 0
ITLB WRITEBACK ACCESS:          0  HIT:          0  MISS:          0  HIT %:       -nan  MISS %:       -nan   MPKI: 0
DTLB TOTAL     ACCESS:   35403126  HIT:   34670746  MISS:     732380  HIT %:    97.9313  MISS %:    2.06869   MPKI: 3.65709
DTLB LOAD      ACCESS:          0  HIT:          0  MISS:          0  HIT %:       -nan  MISS %:       -nan   MPKI: 0
DTLB RFO       ACCESS:          0  HIT:          0  MISS:          0  HIT %:       -nan  MISS %:       -nan   MPKI: 0
DTLB PREFETCH  ACCESS:          0  HIT:          0  MISS:          0  HIT %:       -nan  MISS %:       -nan   MPKI: 0
DTLB WRITEBACK ACCESS:          0  HIT:          0  MISS:          0  HIT %:       -nan  MISS %:       -nan   MPKI: 0
STLB TOTAL     ACCESS:    6122014  HIT:    5975519  MISS:     146495  HIT %:    97.6071  MISS %:    2.39292   MPKI: 0.731513
STLB LOAD      ACCESS:          0  HIT:          0  MISS:          0  HIT %:       -nan  MISS %:       -nan   MPKI: 0
STLB RFO       ACCESS:          0  HIT:          0  MISS:          0  HIT %:       -nan  MISS %:       -nan   MPKI: 0
STLB PREFETCH  ACCESS:          0  HIT:          0  MISS:          0  HIT %:       -nan  MISS %:       -nan   MPKI: 0
STLB WRITEBACK ACCESS:          0  HIT:          0  MISS:          0  HIT %:       -nan  MISS %:       -nan   MPKI: 0
L1D TOTAL     ACCESS:   41833873  HIT:   32224384  MISS:    9609489  HIT %:    77.0294  MISS %:    22.9706   MPKI: 47.9843
L1D LOAD      ACCESS:   29838824  HIT:   25830610  MISS:    4008214  HIT %:    86.5671  MISS %:    13.4329   MPKI: 20.0147
L1D RFO       ACCESS:    4904291  HIT:    4615364  MISS:     288927  HIT %:    94.1087  MISS %:    5.89131   MPKI: 1.44274
L1D PREFETCH  ACCESS:    7090758  HIT:    1778410  MISS:    5312348  HIT %:    25.0807  MISS %:    74.9193   MPKI: 26.5268
L1D WRITEBACK ACCESS:          0  HIT:          0  MISS:          0  HIT %:       -nan  MISS %:       -nan   MPKI: 0
L1I TOTAL     ACCESS:   41390310  HIT:   41390293  MISS:         17  HIT %:        100  MISS %: 4.10724e-05   MPKI: 8.48883e-05
L1I LOAD      ACCESS:   41390310  HIT:   41390293  MISS:         17  HIT %:        100  MISS %: 4.10724e-05   MPKI: 8.48883e-05
L1I RFO       ACCESS:          0  HIT:          0  MISS:          0  HIT %:       -nan  MISS %:       -nan   MPKI: 0
L1I PREFETCH  ACCESS:          0  HIT:          0  MISS:          0  HIT %:       -nan  MISS %:       -nan   MPKI: 0
L1I WRITEBACK ACCESS:          0  HIT:          0  MISS:          0  HIT %:       -nan  MISS %:       -nan   MPKI: 0
L2C TOTAL     ACCESS:   10993972  HIT:    3187459  MISS:    7806513  HIT %:    28.9928  MISS %:    71.0072   MPKI: 38.9813
L2C LOAD      ACCESS:    3505013  HIT:     957604  MISS:    2547409  HIT %:     27.321  MISS %:     72.679   MPKI: 12.7203
L2C RFO       ACCESS:     288925  HIT:       6884  MISS:     282041  HIT %:    2.38263  MISS %:    97.6174   MPKI: 1.40835
L2C PREFETCH  ACCESS:    5815532  HIT:     966908  MISS:    4848624  HIT %:    16.6263  MISS %:    83.3737   MPKI: 24.2113
L2C WRITEBACK ACCESS:    1236954  HIT:    1142552  MISS:      94402  HIT %:    92.3682  MISS %:    7.63181   MPKI: 0.47139
PSCL5 TOTAL     ACCESS:     146495  HIT:     146495  MISS:          0  HIT %:        100  MISS %:          0   MPKI: 0
PSCL5 LOAD      ACCESS:          0  HIT:          0  MISS:          0  HIT %:       -nan  MISS %:       -nan   MPKI: 0
PSCL5 RFO       ACCESS:          0  HIT:          0  MISS:          0  HIT %:       -nan  MISS %:       -nan   MPKI: 0
PSCL5 PREFETCH  ACCESS:          0  HIT:          0  MISS:          0  HIT %:       -nan  MISS %:       -nan   MPKI: 0
PSCL5 WRITEBACK ACCESS:          0  HIT:          0  MISS:          0  HIT %:       -nan  MISS %:       -nan   MPKI: 0
PSCL4 TOTAL     ACCESS:     146495  HIT:     146495  MISS:          0  HIT %:        100  MISS %:          0   MPKI: 0
PSCL4 LOAD      ACCESS:          0  HIT:          0  MISS:          0  HIT %:       -nan  MISS %:       -nan   MPKI: 0
PSCL4 RFO       ACCESS:          0  HIT:          0  MISS:          0  HIT %:       -nan  MISS %:       -nan   MPKI: 0
PSCL4 PREFETCH  ACCESS:          0  HIT:          0  MISS:          0  HIT %:       -nan  MISS %:       -nan   MPKI: 0
PSCL4 WRITEBACK ACCESS:          0  HIT:          0  MISS:          0  HIT %:       -nan  MISS %:       -nan   MPKI: 0
PSCL3 TOTAL     ACCESS:     146495  HIT:     146495  MISS:          0  HIT %:        100  MISS %:          0   MPKI: 0
PSCL3 LOAD      ACCESS:          0  HIT:          0  MISS:          0  HIT %:       -nan  MISS %:       -nan   MPKI: 0
PSCL3 RFO       ACCESS:          0  HIT:          0  MISS:          0  HIT %:       -nan  MISS %:       -nan   MPKI: 0
PSCL3 PREFETCH  ACCESS:          0  HIT:          0  MISS:          0  HIT %:       -nan  MISS %:       -nan   MPKI: 0
PSCL3 WRITEBACK ACCESS:          0  HIT:          0  MISS:          0  HIT %:       -nan  MISS %:       -nan   MPKI: 0
PSCL2 TOTAL     ACCESS:     146495  HIT:     145441  MISS:       1054  HIT %:    99.2805  MISS %:   0.719478   MPKI: 0.00526308
PSCL2 LOAD      ACCESS:          0  HIT:          0  MISS:          0  HIT %:       -nan  MISS %:       -nan   MPKI: 0
PSCL2 RFO       ACCESS:          0  HIT:          0  MISS:          0  HIT %:       -nan  MISS %:       -nan   MPKI: 0
PSCL2 PREFETCH  ACCESS:          0  HIT:          0  MISS:          0  HIT %:       -nan  MISS %:       -nan   MPKI: 0
PSCL2 WRITEBACK ACCESS:          0  HIT:          0  MISS:          0  HIT %:       -nan  MISS %:       -nan   MPKI: 0

stream: 
stream:times selected: 10690612
stream:pref_filled: 4491985
stream:pref_useful: 641460
stream:pref_late: 185702
stream:misses: 855818
stream:misses_by_poll: 0

CS: 
CS:times selected: 3736651
CS:pref_filled: 2439613
CS:pref_useful: 2104439
CS:pref_late: 305363
CS:misses: 1277114
CS:misses_by_poll: 10041

CPLX: 
CPLX:times selected: 6913241
CPLX:pref_filled: 141827
CPLX:pref_useful: 24943
CPLX:pref_late: 7553
CPLX:misses: 4019108
CPLX:misses_by_poll: 102

NL_L1: 
NL:times selected: 32238
NL:pref_filled: 24158
NL:pref_useful: 4579
NL:pref_late: 297
NL:misses: 23000
NL:misses_by_poll: 0

total selections: 21372742
total_filled: 5312348
total_useful: 2070695
total_late: 506829
total_polluted: 10143
total_misses_after_warmup: 4738776
conflicts: 810
Degree Incremented Times: 464784
Degree Decremented Times: 1908083

L1 IP Table Write Accesses: 122189486
L1 IP Table Read Accesses: 122188676
L1 RST Write Accesses: 29311621
L1 RST Read Accesses: 58623242
L1 CSPT Write Accesses: 29311621
L1 CSPT Read Accesses: 47253050
L1 RR Filter Tag Write Accesses: 31440384
L1 RR Filter Tag Read Accesses: 1752230290
L1 IP Table Tag Write Accesses: 122190578
L1 IP Table Tag Read Accesses: 122190578
L1 RST Tag Write Accesses: 0
L1 RST Tag Read Accesses: 262776161
L1 RR Filter Write Accesses: 0
L1 RR Filter Read Accesses: 63561702
test: 11961213
LLC TOTAL     ACCESS:    8725356  HIT:    3357125  MISS:    5368231  HIT %:    38.4755  MISS %:    61.5245   MPKI: 26.8059
LLC LOAD      ACCESS:    2547405  HIT:    1215142  MISS:    1332263  HIT %:    47.7012  MISS %:    52.2988   MPKI: 6.65256
LLC RFO       ACCESS:     282041  HIT:      16218  MISS:     265823  HIT %:    5.75023  MISS %:    94.2498   MPKI: 1.32737
LLC PREFETCH  ACCESS:    4848618  HIT:    1178160  MISS:    3670458  HIT %:    24.2989  MISS %:    75.7011   MPKI: 18.3282
LLC WRITEBACK ACCESS:    1013255  HIT:     946277  MISS:      66978  HIT %:    93.3898  MISS %:    6.61018   MPKI: 0.33445

RAW hits: 298987
Loads Generated: 47783548
Loads sent to L1D: 47484561
Stores Generated: 7649098
Stores sent to L1D: 7649098

CPU 2 cumulative IPC: 0.28125 instructions: 200000000 cycles: 711110507
ITLB TOTAL     ACCESS:   33730107  HIT:   33730107  MISS:          0  HIT %:        100  MISS %:          0   MPKI: 0
ITLB LOAD      ACCESS:          0  HIT:          0  MISS:          0  HIT %:       -nan  MISS %:       -nan   MPKI: 0
ITLB RFO       ACCESS:          0  HIT:          0  MISS:          0  HIT %:       -nan  MISS %:       -nan   MPKI: 0
ITLB PREFETCH  ACCESS:          0  HIT:          0  MISS:          0  HIT %:       -nan  MISS %:       -nan   MPKI: 0
ITLB WRITEBACK ACCESS:          0  HIT:          0  MISS:          0  HIT %:       -nan  MISS %:       -nan   MPKI: 0
DTLB TOTAL     ACCESS:   35350439  HIT:   34618382  MISS:     732057  HIT %:    97.9291  MISS %:    2.07086   MPKI: 3.66029
DTLB LOAD      ACCESS:          0  HIT:          0  MISS:          0  HIT %:       -nan  MISS %:       -nan   MPKI: 0
DTLB RFO       ACCESS:          0  HIT:          0  MISS:          0  HIT %:       -nan  MISS %:       -nan   MPKI: 0
DTLB PREFETCH  ACCESS:          0  HIT:          0  MISS:          0  HIT %:       -nan  MISS %:       -nan   MPKI: 0
DTLB WRITEBACK ACCESS:          0  HIT:          0  MISS:          0  HIT %:       -nan  MISS %:       -nan   MPKI: 0
STLB TOTAL     ACCESS:    6103105  HIT:    5956917  MISS:     146188  HIT %:    97.6047  MISS %:    2.39531   MPKI: 0.73094
STLB LOAD      ACCESS:          0  HIT:          0  MISS:          0  HIT %:       -nan  MISS %:       -nan   MPKI: 0
STLB RFO       ACCESS:          0  HIT:          0  MISS:          0  HIT %:       -nan  MISS %:       -nan   MPKI: 0
STLB PREFETCH  ACCESS:          0  HIT:          0  MISS:          0  HIT %:       -nan  MISS %:       -nan   MPKI: 0
STLB WRITEBACK ACCESS:          0  HIT:          0  MISS:          0  HIT %:       -nan  MISS %:       -nan   MPKI: 0
L1D TOTAL     ACCESS:   41786304  HIT:   32192942  MISS:    9593362  HIT %:    77.0419  MISS %:    22.9581   MPKI: 47.9668
L1D LOAD      ACCESS:   29787061  HIT:   25783225  MISS:    4003836  HIT %:    86.5585  MISS %:    13.4415   MPKI: 20.0192
L1D RFO       ACCESS:    4927630  HIT:    4638713  MISS:     288917  HIT %:    94.1368  MISS %:     5.8632   MPKI: 1.44459
L1D PREFETCH  ACCESS:    7071613  HIT:    1771004  MISS:    5300609  HIT %:    25.0438  MISS %:    74.9562   MPKI: 26.503
L1D WRITEBACK ACCESS:          0  HIT:          0  MISS:          0  HIT %:       -nan  MISS %:       -nan   MPKI: 0
L1I TOTAL     ACCESS:   41342661  HIT:   41342644  MISS:         17  HIT %:        100  MISS %: 4.11198e-05   MPKI: 8.5e-05
L1I LOAD      ACCESS:   41342661  HIT:   41342644  MISS:         17  HIT %:        100  MISS %: 4.11198e-05   MPKI: 8.5e-05
L1I RFO       ACCESS:          0  HIT:          0  MISS:          0  HIT %:       -nan  MISS %:       -nan   MPKI: 0
L1I PREFETCH  ACCESS:          0  HIT:          0  MISS:          0  HIT %:       -nan  MISS %:       -nan   MPKI: 0
L1I WRITEBACK ACCESS:          0  HIT:          0  MISS:          0  HIT %:       -nan  MISS %:       -nan   MPKI: 0
L2C TOTAL     ACCESS:   10976745  HIT:    3174849  MISS:    7801896  HIT %:    28.9234  MISS %:    71.0766   MPKI: 39.0095
L2C LOAD      ACCESS:    3503450  HIT:     951174  MISS:    2552276  HIT %:    27.1496  MISS %:    72.8504   MPKI: 12.7614
L2C RFO       ACCESS:     288915  HIT:       7086  MISS:     281829  HIT %:    2.45262  MISS %:    97.5474   MPKI: 1.40915
L2C PREFETCH  ACCESS:    5800979  HIT:     962028  MISS:    4838951  HIT %:    16.5839  MISS %:    83.4161   MPKI: 24.1948
L2C WRITEBACK ACCESS:    1236159  HIT:    1141392  MISS:      94767  HIT %:    92.3338  MISS %:    7.66625   MPKI: 0.473835
PSCL5 TOTAL     ACCESS:     146188  HIT:     146188  MISS:          0  HIT %:        100  MISS %:          0   MPKI: 0
PSCL5 LOAD      ACCESS:          0  HIT:          0  MISS:          0  HIT %:       -nan  MISS %:       -nan   MPKI: 0
PSCL5 RFO       ACCESS:          0  HIT:          0  MISS:          0  HIT %:       -nan  MISS %:       -nan   MPKI: 0
PSCL5 PREFETCH  ACCESS:          0  HIT:          0  MISS:          0  HIT %:       -nan  MISS %:       -nan   MPKI: 0
PSCL5 WRITEBACK ACCESS:          0  HIT:          0  MISS:          0  HIT %:       -nan  MISS %:       -nan   MPKI: 0
PSCL4 TOTAL     ACCESS:     146188  HIT:     146188  MISS:          0  HIT %:        100  MISS %:          0   MPKI: 0
PSCL4 LOAD      ACCESS:          0  HIT:          0  MISS:          0  HIT %:       -nan  MISS %:       -nan   MPKI: 0
PSCL4 RFO       ACCESS:          0  HIT:          0  MISS:          0  HIT %:       -nan  MISS %:       -nan   MPKI: 0
PSCL4 PREFETCH  ACCESS:          0  HIT:          0  MISS:          0  HIT %:       -nan  MISS %:       -nan   MPKI: 0
PSCL4 WRITEBACK ACCESS:          0  HIT:          0  MISS:          0  HIT %:       -nan  MISS %:       -nan   MPKI: 0
PSCL3 TOTAL     ACCESS:     146188  HIT:     146188  MISS:          0  HIT %:        100  MISS %:          0   MPKI: 0
PSCL3 LOAD      ACCESS:          0  HIT:          0  MISS:          0  HIT %:       -nan  MISS %:       -nan   MPKI: 0
PSCL3 RFO       ACCESS:          0  HIT:          0  MISS:          0  HIT %:       -nan  MISS %:       -nan   MPKI: 0
PSCL3 PREFETCH  ACCESS:          0  HIT:          0  MISS:          0  HIT %:       -nan  MISS %:       -nan   MPKI: 0
PSCL3 WRITEBACK ACCESS:          0  HIT:          0  MISS:          0  HIT %:       -nan  MISS %:       -nan   MPKI: 0
PSCL2 TOTAL     ACCESS:     146188  HIT:     145133  MISS:       1055  HIT %:    99.2783  MISS %:   0.721673   MPKI: 0.005275
PSCL2 LOAD      ACCESS:          0  HIT:          0  MISS:          0  HIT %:       -nan  MISS %:       -nan   MPKI: 0
PSCL2 RFO       ACCESS:          0  HIT:          0  MISS:          0  HIT %:       -nan  MISS %:       -nan   MPKI: 0
PSCL2 PREFETCH  ACCESS:          0  HIT:          0  MISS:          0  HIT %:       -nan  MISS %:       -nan   MPKI: 0
PSCL2 WRITEBACK ACCESS:          0  HIT:          0  MISS:          0  HIT %:       -nan  MISS %:       -nan   MPKI: 0

stream: 
stream:times selected: 10673418
stream:pref_filled: 4487578
stream:pref_useful: 640804
stream:pref_late: 186484
stream:misses: 855098
stream:misses_by_poll: 0

CS: 
CS:times selected: 3733572
CS:pref_filled: 2435034
CS:pref_useful: 2100114
CS:pref_late: 302118
CS:misses: 1279917
CS:misses_by_poll: 9862

CPLX: 
CPLX:times selected: 6899210
CPLX:pref_filled: 142649
CPLX:pref_useful: 24910
CPLX:pref_late: 7446
CPLX:misses: 4011720
CPLX:misses_by_poll: 94

NL_L1: 
NL:times selected: 31888
NL:pref_filled: 23890
NL:pref_useful: 4594
NL:pref_late: 284
NL:misses: 22592
NL:misses_by_poll: 0

total selections: 21338088
total_filled: 5300609
total_useful: 2064637
total_late: 504241
total_polluted: 9956
total_misses_after_warmup: 4736375
conflicts: 810
Degree Incremented Times: 464784
Degree Decremented Times: 1908083

L1 IP Table Write Accesses: 122189486
L1 IP Table Read Accesses: 122188676
L1 RST Write Accesses: 29311621
L1 RST Read Accesses: 58623242
L1 CSPT Write Accesses: 29311621
L1 CSPT Read Accesses: 47253050
L1 RR Filter Tag Write Accesses: 31440384
L1 RR Filter Tag Read Accesses: 1752230290
L1 IP Table Tag Write Accesses: 122190578
L1 IP Table Tag Read Accesses: 122190578
L1 RST Tag Write Accesses: 0
L1 RST Tag Read Accesses: 262776161
L1 RR Filter Write Accesses: 0
L1 RR Filter Read Accesses: 63561702
test: 11961213
LLC TOTAL     ACCESS:    8719712  HIT:    3348939  MISS:    5370773  HIT %:    38.4065  MISS %:    61.5935   MPKI: 26.8539
LLC LOAD      ACCESS:    2552270  HIT:    1210094  MISS:    1342176  HIT %:    47.4125  MISS %:    52.5875   MPKI: 6.71088
LLC RFO       ACCESS:     281829  HIT:      16199  MISS:     265630  HIT %:    5.74781  MISS %:    94.2522   MPKI: 1.32815
LLC PREFETCH  ACCESS:    4838944  HIT:    1176882  MISS:    3662062  HIT %:    24.3211  MISS %:    75.6789   MPKI: 18.3103
LLC WRITEBACK ACCESS:    1012596  HIT:     944418  MISS:      68178  HIT %:     93.267  MISS %:    6.73299   MPKI: 0.34089

RAW hits: 297130
Loads Generated: 47703635
Loads sent to L1D: 47406505
Stores Generated: 7636844
Stores sent to L1D: 7636844

CPU 3 cumulative IPC: 0.281259 instructions: 200006181 cycles: 711110507
ITLB TOTAL     ACCESS:   33726206  HIT:   33726206  MISS:          0  HIT %:        100  MISS %:          0   MPKI: 0
ITLB LOAD      ACCESS:          0  HIT:          0  MISS:          0  HIT %:       -nan  MISS %:       -nan   MPKI: 0
ITLB RFO       ACCESS:          0  HIT:          0  MISS:          0  HIT %:       -nan  MISS %:       -nan   MPKI: 0
ITLB PREFETCH  ACCESS:          0  HIT:          0  MISS:          0  HIT %:       -nan  MISS %:       -nan   MPKI: 0
ITLB WRITEBACK ACCESS:          0  HIT:          0  MISS:          0  HIT %:       -nan  MISS %:       -nan   MPKI: 0
DTLB TOTAL     ACCESS:   35367649  HIT:   34635577  MISS:     732072  HIT %:    97.9301  MISS %:    2.06989   MPKI: 3.66025
DTLB LOAD      ACCESS:          0  HIT:          0  MISS:          0  HIT %:       -nan  MISS %:       -nan   MPKI: 0
DTLB RFO       ACCESS:          0  HIT:          0  MISS:          0  HIT %:       -nan  MISS %:       -nan   MPKI: 0
DTLB PREFETCH  ACCESS:          0  HIT:          0  MISS:          0  HIT %:       -nan  MISS %:       -nan   MPKI: 0
DTLB WRITEBACK ACCESS:          0  HIT:          0  MISS:          0  HIT %:       -nan  MISS %:       -nan   MPKI: 0
STLB TOTAL     ACCESS:    6104301  HIT:    5958098  MISS:     146203  HIT %:    97.6049  MISS %:    2.39508   MPKI: 0.730992
STLB LOAD      ACCESS:          0  HIT:          0  MISS:          0  HIT %:       -nan  MISS %:       -nan   MPKI: 0
STLB RFO       ACCESS:          0  HIT:          0  MISS:          0  HIT %:       -nan  MISS %:       -nan   MPKI: 0
STLB PREFETCH  ACCESS:          0  HIT:          0  MISS:          0  HIT %:       -nan  MISS %:       -nan   MPKI: 0
STLB WRITEBACK ACCESS:          0  HIT:          0  MISS:          0  HIT %:       -nan  MISS %:       -nan   MPKI: 0
L1D TOTAL     ACCESS:   41811166  HIT:   32219029  MISS:    9592137  HIT %:    77.0584  MISS %:    22.9416   MPKI: 47.9592
L1D LOAD      ACCESS:   29803220  HIT:   25800722  MISS:    4002498  HIT %:    86.5702  MISS %:    13.4298   MPKI: 20.0119
L1D RFO       ACCESS:    4933980  HIT:    4645059  MISS:     288921  HIT %:    94.1443  MISS %:    5.85574   MPKI: 1.44456
L1D PREFETCH  ACCESS:    7073966  HIT:    1773248  MISS:    5300718  HIT %:    25.0672  MISS %:    74.9328   MPKI: 26.5028
L1D WRITEBACK ACCESS:          0  HIT:          0  MISS:          0  HIT %:       -nan  MISS %:       -nan   MPKI: 0
L1I TOTAL     ACCESS:   41339137  HIT:   41339120  MISS:         17  HIT %:        100  MISS %: 4.11233e-05   MPKI: 8.49974e-05
L1I LOAD      ACCESS:   41339137  HIT:   41339120  MISS:         17  HIT %:        100  MISS %: 4.11233e-05   MPKI: 8.49974e-05
L1I RFO       ACCESS:          0  HIT:          0  MISS:          0  HIT %:       -nan  MISS %:       -nan   MPKI: 0
L1I PREFETCH  ACCESS:          0  HIT:          0  MISS:          0  HIT %:       -nan  MISS %:       -nan   MPKI: 0
L1I WRITEBACK ACCESS:          0  HIT:          0  MISS:          0  HIT %:       -nan  MISS %:       -nan   MPKI: 0
L2C TOTAL     ACCESS:   10975641  HIT:    3162952  MISS:    7812689  HIT %:    28.8179  MISS %:    71.1821   MPKI: 39.0622
L2C LOAD      ACCESS:    3501281  HIT:     947548  MISS:    2553733  HIT %:    27.0629  MISS %:    72.9371   MPKI: 12.7683
L2C RFO       ACCESS:     288918  HIT:       7410  MISS:     281508  HIT %:    2.56474  MISS %:    97.4353   MPKI: 1.4075
L2C PREFETCH  ACCESS:    5801912  HIT:     961352  MISS:    4840560  HIT %:    16.5696  MISS %:    83.4304   MPKI: 24.2021
L2C WRITEBACK ACCESS:    1236273  HIT:    1133370  MISS:     102903  HIT %:    91.6764  MISS %:    8.32365   MPKI: 0.514499
PSCL5 TOTAL     ACCESS:     146203  HIT:     146203  MISS:          0  HIT %:        100  MISS %:          0   MPKI: 0
PSCL5 LOAD      ACCESS:          0  HIT:          0  MISS:          0  HIT %:       -nan  MISS %:       -nan   MPKI: 0
PSCL5 RFO       ACCESS:          0  HIT:          0  MISS:          0  HIT %:       -nan  MISS %:       -nan   MPKI: 0
PSCL5 PREFETCH  ACCESS:          0  HIT:          0  MISS:          0  HIT %:       -nan  MISS %:       -nan   MPKI: 0
PSCL5 WRITEBACK ACCESS:          0  HIT:          0  MISS:          0  HIT %:       -nan  MISS %:       -nan   MPKI: 0
PSCL4 TOTAL     ACCESS:     146203  HIT:     146203  MISS:          0  HIT %:        100  MISS %:          0   MPKI: 0
PSCL4 LOAD      ACCESS:          0  HIT:          0  MISS:          0  HIT %:       -nan  MISS %:       -nan   MPKI: 0
PSCL4 RFO       ACCESS:          0  HIT:          0  MISS:          0  HIT %:       -nan  MISS %:       -nan   MPKI: 0
PSCL4 PREFETCH  ACCESS:          0  HIT:          0  MISS:          0  HIT %:       -nan  MISS %:       -nan   MPKI: 0
PSCL4 WRITEBACK ACCESS:          0  HIT:          0  MISS:          0  HIT %:       -nan  MISS %:       -nan   MPKI: 0
PSCL3 TOTAL     ACCESS:     146203  HIT:     146203  MISS:          0  HIT %:        100  MISS %:          0   MPKI: 0
PSCL3 LOAD      ACCESS:          0  HIT:          0  MISS:          0  HIT %:       -nan  MISS %:       -nan   MPKI: 0
PSCL3 RFO       ACCESS:          0  HIT:          0  MISS:          0  HIT %:       -nan  MISS %:       -nan   MPKI: 0
PSCL3 PREFETCH  ACCESS:          0  HIT:          0  MISS:          0  HIT %:       -nan  MISS %:       -nan   MPKI: 0
PSCL3 WRITEBACK ACCESS:          0  HIT:          0  MISS:          0  HIT %:       -nan  MISS %:       -nan   MPKI: 0
PSCL2 TOTAL     ACCESS:     146203  HIT:     145148  MISS:       1055  HIT %:    99.2784  MISS %:   0.721599   MPKI: 0.00527484
PSCL2 LOAD      ACCESS:          0  HIT:          0  MISS:          0  HIT %:       -nan  MISS %:       -nan   MPKI: 0
PSCL2 RFO       ACCESS:          0  HIT:          0  MISS:          0  HIT %:       -nan  MISS %:       -nan   MPKI: 0
PSCL2 PREFETCH  ACCESS:          0  HIT:          0  MISS:          0  HIT %:       -nan  MISS %:       -nan   MPKI: 0
PSCL2 WRITEBACK ACCESS:          0  HIT:          0  MISS:          0  HIT %:       -nan  MISS %:       -nan   MPKI: 0

stream: 
stream:times selected: 10672165
stream:pref_filled: 4483360
stream:pref_useful: 639741
stream:pref_late: 185759
stream:misses: 854370
stream:misses_by_poll: 0

CS: 
CS:times selected: 3734404
CS:pref_filled: 2437501
CS:pref_useful: 2102243
CS:pref_late: 303615
CS:misses: 1281295
CS:misses_by_poll: 10032

CPLX: 
CPLX:times selected: 6897139
CPLX:pref_filled: 142840
CPLX:pref_useful: 25202
CPLX:pref_late: 7484
CPLX:misses: 4011909
CPLX:misses_by_poll: 100

NL_L1: 
NL:times selected: 32132
NL:pref_filled: 24059
NL:pref_useful: 4581
NL:pref_late: 267
NL:misses: 22864
NL:misses_by_poll: 1

total selections: 21335840
total_filled: 5300718
total_useful: 2066136
total_late: 505050
total_polluted: 10133
total_misses_after_warmup: 4733073
conflicts: 810
Degree Incremented Times: 464784
Degree Decremented Times: 1908083

L1 IP Table Write Accesses: 122189486
L1 IP Table Read Accesses: 122188676
L1 RST Write Accesses: 29311621
L1 RST Read Accesses: 58623242
L1 CSPT Write Accesses: 29311621
L1 CSPT Read Accesses: 47253050
L1 RR Filter Tag Write Accesses: 31440384
L1 RR Filter Tag Read Accesses: 1752230290
L1 IP Table Tag Write Accesses: 122190578
L1 IP Table Tag Read Accesses: 122190578
L1 RST Tag Write Accesses: 0
L1 RST Tag Read Accesses: 262776161
L1 RR Filter Write Accesses: 0
L1 RR Filter Read Accesses: 63561702
test: 11961213
LLC TOTAL     ACCESS:    8722951  HIT:    3345907  MISS:    5377044  HIT %:    38.3575  MISS %:    61.6425   MPKI: 26.8844
LLC LOAD      ACCESS:    2553731  HIT:    1207602  MISS:    1346129  HIT %:    47.2878  MISS %:    52.7122   MPKI: 6.73044
LLC RFO       ACCESS:     281508  HIT:      16372  MISS:     265136  HIT %:    5.81582  MISS %:    94.1842   MPKI: 1.32564
LLC PREFETCH  ACCESS:    4840558  HIT:    1173127  MISS:    3667431  HIT %:    24.2354  MISS %:    75.7646   MPKI: 18.3366
LLC WRITEBACK ACCESS:    1013169  HIT:     947569  MISS:      65600  HIT %:    93.5253  MISS %:    6.47473   MPKI: 0.32799

RAW hits: 295851
Loads Generated: 47705473
Loads sent to L1D: 47409622
Stores Generated: 7637082
Stores sent to L1D: 7637082

Region of Interest Statistics

CPU 0 cumulative IPC: 0.281686 instructions: 200000000 cycles: 710010702
ITLB TOTAL     ACCESS:   33722537  HIT:   33722537  MISS:          0  HIT %:        100  MISS %:          0   MPKI: 0
ITLB LOAD TRANSLATION ACCESS:   33722537  HIT:   33722537  MISS:          0  HIT %:        100  MISS %:          0   MPKI: 0
ITLB PREFETCH  REQUESTED:          0  ISSUED:          0  USEFUL:          0  USELESS:          0
ITLB USEFUL LOAD PREFETCHES:          0 PREFETCH ISSUED TO LOWER LEVEL:          0  ACCURACY: -nan
ITLB TIMELY PREFETCHES:          0 LATE PREFETCHES: 0 DROPPED PREFETCHES: 0
ITLB PREFETCHES SAME FILL-ORIGIN LEVEL: 0 DIFFERENT FILL-ORIGIN LEVEL: 0
ITLB AVERAGE MISS LATENCY: -nan cycles
ITLB RQ	ACCESS:   41390677	FORWARD:          0	MERGED:    7628382	TO_CACHE:   33762295

DTLB TOTAL     ACCESS:   35326061  HIT:   34593999  MISS:     732062  HIT %:    97.9277  MISS %:     2.0723   MPKI: 3.66031
DTLB LOAD TRANSLATION ACCESS:   35326061  HIT:   34593999  MISS:     732062  HIT %:    97.9277  MISS %:     2.0723   MPKI: 3.66031
DTLB PREFETCH  REQUESTED:          0  ISSUED:          0  USEFUL:          0  USELESS:          0
DTLB USEFUL LOAD PREFETCHES:          0 PREFETCH ISSUED TO LOWER LEVEL:          0  ACCURACY: -nan
DTLB TIMELY PREFETCHES:          0 LATE PREFETCHES: 0 DROPPED PREFETCHES: 0
DTLB PREFETCHES SAME FILL-ORIGIN LEVEL: 0 DIFFERENT FILL-ORIGIN LEVEL: 0
DTLB AVERAGE MISS LATENCY: 35.3347 cycles
DTLB RQ	ACCESS:   38091286	FORWARD:          0	MERGED:    2544121	TO_CACHE:   35547165

STLB TOTAL     ACCESS:    6108237  HIT:    5962041  MISS:     146196  HIT %:    97.6066  MISS %:    2.39342   MPKI: 0.73098
STLB LOAD TRANSLATION ACCESS:     732062  HIT:     585872  MISS:     146190  HIT %:    80.0304  MISS %:    19.9696   MPKI: 0.73095
STLB TRANSLATION FROM L1D PREFETCHER ACCESS:    5376175  HIT:    5376169  MISS:          6  HIT %:    99.9999  MISS %: 0.000111604   MPKI: 3e-05
STLB PREFETCH  REQUESTED:          0  ISSUED:          0  USEFUL:          6  USELESS:          0
STLB USEFUL LOAD PREFETCHES:          6 PREFETCH ISSUED TO LOWER LEVEL:          0  ACCURACY: inf
STLB TIMELY PREFETCHES:          6 LATE PREFETCHES: 0 DROPPED PREFETCHES: 0
STLB PREFETCHES SAME FILL-ORIGIN LEVEL: 0 DIFFERENT FILL-ORIGIN LEVEL: 0
STLB AVERAGE MISS LATENCY: 131.332 cycles
STLB RQ	ACCESS:    8601505	FORWARD:          0	MERGED:    2479312	TO_CACHE:    6122193

STLB Hit, L1D data hit: 0
STLB Hit, L2C data hit: 0
STLB Hit, LLC data hit: 0
STLB Hit, LLC data miss: 0
STLB STLB hints to L2: 0
L1D TOTAL     ACCESS:   41725505  HIT:   32133201  MISS:    9592304  HIT %:    77.0109  MISS %:    22.9891   MPKI: 47.9615
L1D LOAD      ACCESS:   29766448  HIT:   25764272  MISS:    4002176  HIT %:    86.5547  MISS %:    13.4453   MPKI: 20.0109
L1D RFO       ACCESS:    4887243  HIT:    4598324  MISS:     288919  HIT %:    94.0883  MISS %:     5.9117   MPKI: 1.4446
L1D PREFETCH  ACCESS:    7071814  HIT:    1770605  MISS:    5301209  HIT %:    25.0375  MISS %:    74.9625   MPKI: 26.506
L1D PREFETCH  REQUESTED:   15738285  ISSUED:   15738272  USEFUL:    2070226  USELESS:    3240938
L1D USEFUL LOAD PREFETCHES:    2070226 PREFETCH ISSUED TO LOWER LEVEL:    5814141  ACCURACY: 35.6067
L1D TIMELY PREFETCHES:    2070226 LATE PREFETCHES: 502951 DROPPED PREFETCHES: 0
L1D PREFETCHES SAME FILL-ORIGIN LEVEL: 5814141 DIFFERENT FILL-ORIGIN LEVEL: 0
L1D AVERAGE MISS LATENCY: 214.685 cycles
L1D RQ	ACCESS:   47484130	FORWARD:          0	MERGED:   16915849	TO_CACHE:   30564115
L1D WQ	ACCESS:    7649240	FORWARD:       4200	MERGED:     122069	TO_CACHE:    7527171
L1D PQ	ACCESS:    7869160	FORWARD:          0	MERGED:         14	TO_CACHE:    7869112

L1D UNIQUE REGIONS ACCESSED: 0
L1D REGIONS CONFLICTS: 0
L1D Cross Page Prefetch Requests: 0
L1D Same Page Prefetch Requests: 11886213
L1D ROI Sum of L1D PQ occupancy: 95151358
L1D PREFETCHES PUSHED FROM L2C: 0
L1I TOTAL     ACCESS:   41335620  HIT:   41335603  MISS:         17  HIT %:        100  MISS %: 4.11268e-05   MPKI: 8.5e-05
L1I LOAD      ACCESS:   41335620  HIT:   41335603  MISS:         17  HIT %:        100  MISS %: 4.11268e-05   MPKI: 8.5e-05
L1I PREFETCH  REQUESTED:          0  ISSUED:          0  USEFUL:          0  USELESS:          0
L1I USEFUL LOAD PREFETCHES:          0 PREFETCH ISSUED TO LOWER LEVEL:          0  ACCURACY: -nan
L1I TIMELY PREFETCHES:          0 LATE PREFETCHES: 0 DROPPED PREFETCHES: 0
L1I PREFETCHES SAME FILL-ORIGIN LEVEL: 0 DIFFERENT FILL-ORIGIN LEVEL: 0
L1I AVERAGE MISS LATENCY: 417.235 cycles
L1I RQ	ACCESS:   64156144	FORWARD:          0	MERGED:   22765467	TO_CACHE:   41390677

BTB TOTAL     ACCESS:   40442180  HIT:   40441827  MISS:        353  HIT %:    99.9991  MISS %: 0.000872851   MPKI: 0.001765
BTB BRANCH_DIRECT_JUMP	ACCESS:      22041  HIT:      21996  MISS:         45
BTB BRANCH_INDIRECT	ACCESS:          3  HIT:          2  MISS:          1
BTB BRANCH_CONDITIONAL	ACCESS:   40419396  HIT:   40419296  MISS:        100
BTB BRANCH_DIRECT_CALL	ACCESS:        361  HIT:        318  MISS:         43
BTB BRANCH_INDIRECT_CALL	ACCESS:          9  HIT:          6  MISS:          3
BTB BRANCH_RETURN	ACCESS:        370  HIT:        209  MISS:        161
BTB BRANCH_OTHER ACCESS:          0  HIT:          0  MISS:          0

L2C TOTAL     ACCESS:   10975703  HIT:    3174119  MISS:    7801584  HIT %:    28.9195  MISS %:    71.0805   MPKI: 39.0079
L2C LOAD      ACCESS:    3499785  HIT:     954479  MISS:    2545306  HIT %:    27.2725  MISS %:    72.7275   MPKI: 12.7265
L2C DATA LOAD MPKI: 12.7264
L2C INSTRUCTION LOAD MPKI: 8.5e-05
L2C RFO       ACCESS:     288917  HIT:       7060  MISS:     281857  HIT %:    2.44361  MISS %:    97.5564   MPKI: 1.40928
L2C PREFETCH  ACCESS:    5803587  HIT:     963367  MISS:    4840220  HIT %:    16.5995  MISS %:    83.4005   MPKI: 24.2011
L2C DATA PREFETCH MPKI: 24.2011
L2C INSTRUCTION PREFETCH MPKI: 0
L2C WRITEBACK ACCESS:    1236165  HIT:    1136004  MISS:     100161  HIT %:    91.8974  MISS %:    8.10256   MPKI: 0.500805
L2C LOAD TRANSLATION ACCESS:     147240  HIT:     113209  MISS:      34031  HIT %:    76.8874  MISS %:    23.1126   MPKI: 0.170155
L2C TRANSLATION FROM L1D PREFETCHER ACCESS:          9  HIT:          0  MISS:          9  HIT %:          0  MISS %:        100   MPKI: 4.5e-05
L2C PREFETCH  REQUESTED:          0  ISSUED:          0  USEFUL:     118915  USELESS:    4727888
L2C USEFUL LOAD PREFETCHES:     118915 PREFETCH ISSUED TO LOWER LEVEL:    4847016  ACCURACY: 2.45337
L2C TIMELY PREFETCHES:     118915 LATE PREFETCHES: 0 DROPPED PREFETCHES: 0
L2C PREFETCHES SAME FILL-ORIGIN LEVEL: 0 DIFFERENT FILL-ORIGIN LEVEL: 0
L2C AVERAGE MISS LATENCY: 274.451 cycles
L2C RQ	ACCESS:    3942466	FORWARD:          0	MERGED:          0	TO_CACHE:    3942445
L2C WQ	ACCESS:    1236937	FORWARD:         32	MERGED:          0	TO_CACHE:    1236937
L2C PQ	ACCESS:    5814141	FORWARD:          0	MERGED:          0	TO_CACHE:    5814130

L2C Instructions Evicting Data 17
L2C Translations Evicting Data 33409
L2C Data Evicting Data 7643398
L2C Instructions Evicting Instructions 0
L2C Translations Evicting Instructions 0
L2C Data Evicting Instructions 17
L2C Instructions Evicting Translations 0
L2C Translations Evicting Translations 675
L2C Data Evicting Translations 33201
L2C Dense regions hint from L2: 0
PSCL5 TOTAL     ACCESS:     146196  HIT:     146196  MISS:          0  HIT %:        100  MISS %:          0   MPKI: 0
PSCL5 LOAD TRANSLATION ACCESS:     146190  HIT:     146190  MISS:          0  HIT %:        100  MISS %:          0   MPKI: 0
PSCL5 TRANSLATION FROM L1D PREFETCHER ACCESS:          6  HIT:          6  MISS:          0  HIT %:        100  MISS %:          0   MPKI: 0
PSCL5 PREFETCH  REQUESTED:          0  ISSUED:          0  USEFUL:          0  USELESS:          0
PSCL5 USEFUL LOAD PREFETCHES:          0 PREFETCH ISSUED TO LOWER LEVEL:          0  ACCURACY: -nan
PSCL5 TIMELY PREFETCHES:          0 LATE PREFETCHES: 0 DROPPED PREFETCHES: 0
PSCL5 PREFETCHES SAME FILL-ORIGIN LEVEL: 0 DIFFERENT FILL-ORIGIN LEVEL: 0

PSCL4 TOTAL     ACCESS:     146196  HIT:     146196  MISS:          0  HIT %:        100  MISS %:          0   MPKI: 0
PSCL4 LOAD TRANSLATION ACCESS:     146190  HIT:     146190  MISS:          0  HIT %:        100  MISS %:          0   MPKI: 0
PSCL4 TRANSLATION FROM L1D PREFETCHER ACCESS:          6  HIT:          6  MISS:          0  HIT %:        100  MISS %:          0   MPKI: 0
PSCL4 PREFETCH  REQUESTED:          0  ISSUED:          0  USEFUL:          0  USELESS:          0
PSCL4 USEFUL LOAD PREFETCHES:          0 PREFETCH ISSUED TO LOWER LEVEL:          0  ACCURACY: -nan
PSCL4 TIMELY PREFETCHES:          0 LATE PREFETCHES: 0 DROPPED PREFETCHES: 0
PSCL4 PREFETCHES SAME FILL-ORIGIN LEVEL: 0 DIFFERENT FILL-ORIGIN LEVEL: 0

PSCL3 TOTAL     ACCESS:     146196  HIT:     146196  MISS:          0  HIT %:        100  MISS %:          0   MPKI: 0
PSCL3 LOAD TRANSLATION ACCESS:     146190  HIT:     146190  MISS:          0  HIT %:        100  MISS %:          0   MPKI: 0
PSCL3 TRANSLATION FROM L1D PREFETCHER ACCESS:          6  HIT:          6  MISS:          0  HIT %:        100  MISS %:          0   MPKI: 0
PSCL3 PREFETCH  REQUESTED:          0  ISSUED:          0  USEFUL:          0  USELESS:          0
PSCL3 USEFUL LOAD PREFETCHES:          0 PREFETCH ISSUED TO LOWER LEVEL:          0  ACCURACY: -nan
PSCL3 TIMELY PREFETCHES:          0 LATE PREFETCHES: 0 DROPPED PREFETCHES: 0
PSCL3 PREFETCHES SAME FILL-ORIGIN LEVEL: 0 DIFFERENT FILL-ORIGIN LEVEL: 0

PSCL2 TOTAL     ACCESS:     146196  HIT:     145142  MISS:       1054  HIT %:    99.2791  MISS %:    0.72095   MPKI: 0.00527
PSCL2 LOAD TRANSLATION ACCESS:     146193  HIT:     145139  MISS:       1054  HIT %:     99.279  MISS %:   0.720965   MPKI: 0.00527
PSCL2 TRANSLATION FROM L1D PREFETCHER ACCESS:          3  HIT:          3  MISS:          0  HIT %:        100  MISS %:          0   MPKI: 0
PSCL2 PREFETCH  REQUESTED:          0  ISSUED:          0  USEFUL:          0  USELESS:          0
PSCL2 USEFUL LOAD PREFETCHES:          0 PREFETCH ISSUED TO LOWER LEVEL:          0  ACCURACY: -nan
PSCL2 TIMELY PREFETCHES:          0 LATE PREFETCHES: 0 DROPPED PREFETCHES: 0
PSCL2 PREFETCHES SAME FILL-ORIGIN LEVEL: 0 DIFFERENT FILL-ORIGIN LEVEL: 0

LLC TOTAL     ACCESS:    8714217  HIT:    3352768  MISS:    5361449  HIT %:    38.4747  MISS %:    61.5253   MPKI: 26.8072
LLC LOAD      ACCESS:    2545301  HIT:    1213527  MISS:    1331774  HIT %:    47.6772  MISS %:    52.3228   MPKI: 6.65887
LLC RFO       ACCESS:     281857  HIT:      16176  MISS:     265681  HIT %:    5.73908  MISS %:    94.2609   MPKI: 1.32841
LLC PREFETCH  ACCESS:    4840215  HIT:    1175705  MISS:    3664510  HIT %:    24.2903  MISS %:    75.7097   MPKI: 18.3225
LLC WRITEBACK ACCESS:    1012804  HIT:     946000  MISS:      66804  HIT %:    93.4041  MISS %:    6.59595   MPKI: 0.33402
LLC LOAD TRANSLATION ACCESS:      34031  HIT:       1356  MISS:      32675  HIT %:     3.9846  MISS %:    96.0154   MPKI: 0.163375
LLC TRANSLATION FROM L1D PREFETCHER ACCESS:          9  HIT:          4  MISS:          5  HIT %:    44.4444  MISS %:    55.5556   MPKI: 2.5e-05
LLC PREFETCH  REQUESTED:          0  ISSUED:          0  USEFUL:     516989  USELESS:   14151562
LLC USEFUL LOAD PREFETCHES:     516989 PREFETCH ISSUED TO LOWER LEVEL:   14670535  ACCURACY: 3.524
LLC TIMELY PREFETCHES:     516989 LATE PREFETCHES: 0 DROPPED PREFETCHES: 0
LLC PREFETCHES SAME FILL-ORIGIN LEVEL: 0 DIFFERENT FILL-ORIGIN LEVEL: 0
LLC AVERAGE MISS LATENCY: 1425.85 cycles
LLC RQ	ACCESS:   11464594	FORWARD:          0	MERGED:          0	TO_CACHE:   11464577
LLC WQ	ACCESS:    4052609	FORWARD:         37	MERGED:          0	TO_CACHE:    4052609
LLC PQ	ACCESS:   19375151	FORWARD:          0	MERGED:          0	TO_CACHE:   19375131

LLC Dense regions hint to LLC: 0

RAW hits: 299260
Loads Generated: 47703659
Loads sent to L1D: 47404397
Stores Generated: 7636856
Stores sent to L1D: 7636856
Major fault: 0 Minor fault: 29015
Allocated PAGES: 116060

CPU 1 cumulative IPC: 0.281677 instructions: 200000000 cycles: 710031933
ITLB TOTAL     ACCESS:   33723155  HIT:   33723155  MISS:          0  HIT %:        100  MISS %:          0   MPKI: 0
ITLB LOAD TRANSLATION ACCESS:   33723155  HIT:   33723155  MISS:          0  HIT %:        100  MISS %:          0   MPKI: 0
ITLB PREFETCH  REQUESTED:          0  ISSUED:          0  USEFUL:          0  USELESS:          0
ITLB USEFUL LOAD PREFETCHES:          0 PREFETCH ISSUED TO LOWER LEVEL:          0  ACCURACY: -nan
ITLB TIMELY PREFETCHES:          0 LATE PREFETCHES: 0 DROPPED PREFETCHES: 0
ITLB PREFETCHES SAME FILL-ORIGIN LEVEL: 0 DIFFERENT FILL-ORIGIN LEVEL: 0
ITLB AVERAGE MISS LATENCY: -nan cycles
ITLB RQ	ACCESS:   41390312	FORWARD:          0	MERGED:    7627918	TO_CACHE:   33762394

DTLB TOTAL     ACCESS:   35333364  HIT:   34601309  MISS:     732055  HIT %:    97.9281  MISS %:    2.07185   MPKI: 3.66027
DTLB LOAD TRANSLATION ACCESS:   35333364  HIT:   34601309  MISS:     732055  HIT %:    97.9281  MISS %:    2.07185   MPKI: 3.66027
DTLB PREFETCH  REQUESTED:          0  ISSUED:          0  USEFUL:          0  USELESS:          0
DTLB USEFUL LOAD PREFETCHES:          0 PREFETCH ISSUED TO LOWER LEVEL:          0  ACCURACY: -nan
DTLB TIMELY PREFETCHES:          0 LATE PREFETCHES: 0 DROPPED PREFETCHES: 0
DTLB PREFETCHES SAME FILL-ORIGIN LEVEL: 0 DIFFERENT FILL-ORIGIN LEVEL: 0
DTLB AVERAGE MISS LATENCY: 35.6015 cycles
DTLB RQ	ACCESS:   38097528	FORWARD:          0	MERGED:    2544098	TO_CACHE:   35553430

STLB TOTAL     ACCESS:    6108239  HIT:    5962045  MISS:     146194  HIT %:    97.6066  MISS %:    2.39339   MPKI: 0.73097
STLB LOAD TRANSLATION ACCESS:     732055  HIT:     585868  MISS:     146187  HIT %:    80.0306  MISS %:    19.9694   MPKI: 0.730935
STLB TRANSLATION FROM L1D PREFETCHER ACCESS:    5376184  HIT:    5376177  MISS:          7  HIT %:    99.9999  MISS %: 0.000130204   MPKI: 3.5e-05
STLB PREFETCH  REQUESTED:          0  ISSUED:          0  USEFUL:          6  USELESS:          1
STLB USEFUL LOAD PREFETCHES:          6 PREFETCH ISSUED TO LOWER LEVEL:          0  ACCURACY: inf
STLB TIMELY PREFETCHES:          6 LATE PREFETCHES: 0 DROPPED PREFETCHES: 0
STLB PREFETCHES SAME FILL-ORIGIN LEVEL: 0 DIFFERENT FILL-ORIGIN LEVEL: 0
STLB AVERAGE MISS LATENCY: 132.669 cycles
STLB RQ	ACCESS:    8602769	FORWARD:          0	MERGED:    2480751	TO_CACHE:    6122018

STLB Hit, L1D data hit: 0
STLB Hit, L2C data hit: 0
STLB Hit, LLC data hit: 0
STLB Hit, LLC data miss: 0
STLB STLB hints to L2: 0
L1D TOTAL     ACCESS:   41738512  HIT:   32145561  MISS:    9592951  HIT %:    77.0165  MISS %:    22.9835   MPKI: 47.9648
L1D LOAD      ACCESS:   29774244  HIT:   25772682  MISS:    4001562  HIT %:    86.5603  MISS %:    13.4397   MPKI: 20.0078
L1D RFO       ACCESS:    4892051  HIT:    4603124  MISS:     288927  HIT %:    94.0939  MISS %:    5.90605   MPKI: 1.44463
L1D PREFETCH  ACCESS:    7072217  HIT:    1769755  MISS:    5302462  HIT %:     25.024  MISS %:     74.976   MPKI: 26.5123
L1D PREFETCH  REQUESTED:   15740841  ISSUED:   15740829  USEFUL:    2070695  USELESS:    3241645
L1D USEFUL LOAD PREFETCHES:    2070695 PREFETCH ISSUED TO LOWER LEVEL:    5815551  ACCURACY: 35.6062
L1D TIMELY PREFETCHES:    2070695 LATE PREFETCHES: 503200 DROPPED PREFETCHES: 0
L1D PREFETCHES SAME FILL-ORIGIN LEVEL: 5815551 DIFFERENT FILL-ORIGIN LEVEL: 0
L1D AVERAGE MISS LATENCY: 214.555 cycles
L1D RQ	ACCESS:   47484561	FORWARD:          0	MERGED:   16910832	TO_CACHE:   30569338
L1D WQ	ACCESS:    7649098	FORWARD:       4421	MERGED:     120908	TO_CACHE:    7528190
L1D PQ	ACCESS:    7870440	FORWARD:          0	MERGED:         21	TO_CACHE:    7870389

L1D UNIQUE REGIONS ACCESSED: 0
L1D REGIONS CONFLICTS: 0
L1D Cross Page Prefetch Requests: 0
L1D Same Page Prefetch Requests: 11265469
L1D ROI Sum of L1D PQ occupancy: 95304090
L1D PREFETCHES PUSHED FROM L2C: 0
L1I TOTAL     ACCESS:   41335994  HIT:   41335977  MISS:         17  HIT %:        100  MISS %: 4.11264e-05   MPKI: 8.5e-05
L1I LOAD      ACCESS:   41335994  HIT:   41335977  MISS:         17  HIT %:        100  MISS %: 4.11264e-05   MPKI: 8.5e-05
L1I PREFETCH  REQUESTED:          0  ISSUED:          0  USEFUL:          0  USELESS:          0
L1I USEFUL LOAD PREFETCHES:          0 PREFETCH ISSUED TO LOWER LEVEL:          0  ACCURACY: -nan
L1I TIMELY PREFETCHES:          0 LATE PREFETCHES: 0 DROPPED PREFETCHES: 0
L1I PREFETCHES SAME FILL-ORIGIN LEVEL: 0 DIFFERENT FILL-ORIGIN LEVEL: 0
L1I AVERAGE MISS LATENCY: 352.412 cycles
L1I RQ	ACCESS:   64155284	FORWARD:          0	MERGED:   22764972	TO_CACHE:   41390312

BTB TOTAL     ACCESS:   40442187  HIT:   40441834  MISS:        353  HIT %:    99.9991  MISS %: 0.000872851   MPKI: 0.001765
BTB BRANCH_DIRECT_JUMP	ACCESS:      22041  HIT:      21996  MISS:         45
BTB BRANCH_INDIRECT	ACCESS:          3  HIT:          2  MISS:          1
BTB BRANCH_CONDITIONAL	ACCESS:   40419403  HIT:   40419303  MISS:        100
BTB BRANCH_DIRECT_CALL	ACCESS:        361  HIT:        318  MISS:         43
BTB BRANCH_INDIRECT_CALL	ACCESS:          9  HIT:          6  MISS:          3
BTB BRANCH_RETURN	ACCESS:        370  HIT:        209  MISS:        161
BTB BRANCH_OTHER ACCESS:          0  HIT:          0  MISS:          0

L2C TOTAL     ACCESS:   10976367  HIT:    3179226  MISS:    7797141  HIT %:    28.9643  MISS %:    71.0357   MPKI: 38.9857
L2C LOAD      ACCESS:    3498927  HIT:     953994  MISS:    2544933  HIT %:    27.2653  MISS %:    72.7347   MPKI: 12.7247
L2C DATA LOAD MPKI: 12.7246
L2C INSTRUCTION LOAD MPKI: 8.5e-05
L2C RFO       ACCESS:     288925  HIT:       6884  MISS:     282041  HIT %:    2.38263  MISS %:    97.6174   MPKI: 1.4102
L2C PREFETCH  ACCESS:    5805079  HIT:     963290  MISS:    4841789  HIT %:    16.5939  MISS %:    83.4061   MPKI: 24.2089
L2C DATA PREFETCH MPKI: 24.2089
L2C INSTRUCTION PREFETCH MPKI: 0
L2C WRITEBACK ACCESS:    1236189  HIT:    1141806  MISS:      94383  HIT %:     92.365  MISS %:      7.635   MPKI: 0.471915
L2C LOAD TRANSLATION ACCESS:     147236  HIT:     113252  MISS:      33984  HIT %:    76.9187  MISS %:    23.0813   MPKI: 0.16992
L2C TRANSLATION FROM L1D PREFETCHER ACCESS:         11  HIT:          0  MISS:         11  HIT %:          0  MISS %:        100   MPKI: 5.5e-05
L2C PREFETCH  REQUESTED:          0  ISSUED:          0  USEFUL:     118879  USELESS:    4729385
L2C USEFUL LOAD PREFETCHES:     118879 PREFETCH ISSUED TO LOWER LEVEL:    4848624  ACCURACY: 2.45181
L2C TIMELY PREFETCHES:     118879 LATE PREFETCHES: 0 DROPPED PREFETCHES: 0
L2C PREFETCHES SAME FILL-ORIGIN LEVEL: 0 DIFFERENT FILL-ORIGIN LEVEL: 0
L2C AVERAGE MISS LATENCY: 274.48 cycles
L2C RQ	ACCESS:    3941504	FORWARD:          0	MERGED:          0	TO_CACHE:    3941486
L2C WQ	ACCESS:    1236954	FORWARD:         37	MERGED:          0	TO_CACHE:    1236954
L2C PQ	ACCESS:    5815551	FORWARD:          0	MERGED:          0	TO_CACHE:    5815532

L2C Instructions Evicting Data 16
L2C Translations Evicting Data 33360
L2C Data Evicting Data 7644805
L2C Instructions Evicting Instructions 0
L2C Translations Evicting Instructions 0
L2C Data Evicting Instructions 16
L2C Instructions Evicting Translations 1
L2C Translations Evicting Translations 677
L2C Data Evicting Translations 33236
L2C Dense regions hint from L2: 0
PSCL5 TOTAL     ACCESS:     146194  HIT:     146194  MISS:          0  HIT %:        100  MISS %:          0   MPKI: 0
PSCL5 LOAD TRANSLATION ACCESS:     146187  HIT:     146187  MISS:          0  HIT %:        100  MISS %:          0   MPKI: 0
PSCL5 TRANSLATION FROM L1D PREFETCHER ACCESS:          7  HIT:          7  MISS:          0  HIT %:        100  MISS %:          0   MPKI: 0
PSCL5 PREFETCH  REQUESTED:          0  ISSUED:          0  USEFUL:          0  USELESS:          0
PSCL5 USEFUL LOAD PREFETCHES:          0 PREFETCH ISSUED TO LOWER LEVEL:          0  ACCURACY: -nan
PSCL5 TIMELY PREFETCHES:          0 LATE PREFETCHES: 0 DROPPED PREFETCHES: 0
PSCL5 PREFETCHES SAME FILL-ORIGIN LEVEL: 0 DIFFERENT FILL-ORIGIN LEVEL: 0

PSCL4 TOTAL     ACCESS:     146194  HIT:     146194  MISS:          0  HIT %:        100  MISS %:          0   MPKI: 0
PSCL4 LOAD TRANSLATION ACCESS:     146187  HIT:     146187  MISS:          0  HIT %:        100  MISS %:          0   MPKI: 0
PSCL4 TRANSLATION FROM L1D PREFETCHER ACCESS:          7  HIT:          7  MISS:          0  HIT %:        100  MISS %:          0   MPKI: 0
PSCL4 PREFETCH  REQUESTED:          0  ISSUED:          0  USEFUL:          0  USELESS:          0
PSCL4 USEFUL LOAD PREFETCHES:          0 PREFETCH ISSUED TO LOWER LEVEL:          0  ACCURACY: -nan
PSCL4 TIMELY PREFETCHES:          0 LATE PREFETCHES: 0 DROPPED PREFETCHES: 0
PSCL4 PREFETCHES SAME FILL-ORIGIN LEVEL: 0 DIFFERENT FILL-ORIGIN LEVEL: 0

PSCL3 TOTAL     ACCESS:     146194  HIT:     146194  MISS:          0  HIT %:        100  MISS %:          0   MPKI: 0
PSCL3 LOAD TRANSLATION ACCESS:     146187  HIT:     146187  MISS:          0  HIT %:        100  MISS %:          0   MPKI: 0
PSCL3 TRANSLATION FROM L1D PREFETCHER ACCESS:          7  HIT:          7  MISS:          0  HIT %:        100  MISS %:          0   MPKI: 0
PSCL3 PREFETCH  REQUESTED:          0  ISSUED:          0  USEFUL:          0  USELESS:          0
PSCL3 USEFUL LOAD PREFETCHES:          0 PREFETCH ISSUED TO LOWER LEVEL:          0  ACCURACY: -nan
PSCL3 TIMELY PREFETCHES:          0 LATE PREFETCHES: 0 DROPPED PREFETCHES: 0
PSCL3 PREFETCHES SAME FILL-ORIGIN LEVEL: 0 DIFFERENT FILL-ORIGIN LEVEL: 0

PSCL2 TOTAL     ACCESS:     146194  HIT:     145140  MISS:       1054  HIT %:     99.279  MISS %:    0.72096   MPKI: 0.00527
PSCL2 LOAD TRANSLATION ACCESS:     146191  HIT:     145137  MISS:       1054  HIT %:     99.279  MISS %:   0.720975   MPKI: 0.00527
PSCL2 TRANSLATION FROM L1D PREFETCHER ACCESS:          3  HIT:          3  MISS:          0  HIT %:        100  MISS %:          0   MPKI: 0
PSCL2 PREFETCH  REQUESTED:          0  ISSUED:          0  USEFUL:          0  USELESS:          0
PSCL2 USEFUL LOAD PREFETCHES:          0 PREFETCH ISSUED TO LOWER LEVEL:          0  ACCURACY: -nan
PSCL2 TIMELY PREFETCHES:          0 LATE PREFETCHES: 0 DROPPED PREFETCHES: 0
PSCL2 PREFETCHES SAME FILL-ORIGIN LEVEL: 0 DIFFERENT FILL-ORIGIN LEVEL: 0

LLC TOTAL     ACCESS:    8715260  HIT:    3354808  MISS:    5360452  HIT %:    38.4935  MISS %:    61.5065   MPKI: 26.8023
LLC LOAD      ACCESS:    2544929  HIT:    1214350  MISS:    1330579  HIT %:    47.7165  MISS %:    52.2835   MPKI: 6.6529
LLC RFO       ACCESS:     282041  HIT:      16218  MISS:     265823  HIT %:    5.75023  MISS %:    94.2498   MPKI: 1.32912
LLC PREFETCH  ACCESS:    4841783  HIT:    1177361  MISS:    3664422  HIT %:    24.3167  MISS %:    75.6833   MPKI: 18.3221
LLC WRITEBACK ACCESS:    1012512  HIT:     945551  MISS:      66961  HIT %:    93.3866  MISS %:    6.61335   MPKI: 0.334805
LLC LOAD TRANSLATION ACCESS:      33984  HIT:       1324  MISS:      32660  HIT %:    3.89595  MISS %:     96.104   MPKI: 0.1633
LLC TRANSLATION FROM L1D PREFETCHER ACCESS:         11  HIT:          4  MISS:          7  HIT %:    36.3636  MISS %:    63.6364   MPKI: 3.5e-05
LLC PREFETCH  REQUESTED:          0  ISSUED:          0  USEFUL:     516989  USELESS:   14151562
LLC USEFUL LOAD PREFETCHES:     516989 PREFETCH ISSUED TO LOWER LEVEL:   14670535  ACCURACY: 3.524
LLC TIMELY PREFETCHES:     516989 LATE PREFETCHES: 0 DROPPED PREFETCHES: 0
LLC PREFETCHES SAME FILL-ORIGIN LEVEL: 0 DIFFERENT FILL-ORIGIN LEVEL: 0
LLC AVERAGE MISS LATENCY: 1426.11 cycles
LLC RQ	ACCESS:   11464594	FORWARD:          0	MERGED:          0	TO_CACHE:   11464577
LLC WQ	ACCESS:    4052609	FORWARD:         37	MERGED:          0	TO_CACHE:    4052609
LLC PQ	ACCESS:   19375151	FORWARD:          0	MERGED:          0	TO_CACHE:   19375131

LLC Dense regions hint to LLC: 0

RAW hits: 297740
Loads Generated: 47703668
Loads sent to L1D: 47405926
Stores Generated: 7636858
Stores sent to L1D: 7636858
Major fault: 0 Minor fault: 29015
Allocated PAGES: 116060

CPU 2 cumulative IPC: 0.28125 instructions: 200000000 cycles: 711110507
ITLB TOTAL     ACCESS:   33730107  HIT:   33730107  MISS:          0  HIT %:        100  MISS %:          0   MPKI: 0
ITLB LOAD TRANSLATION ACCESS:   33730107  HIT:   33730107  MISS:          0  HIT %:        100  MISS %:          0   MPKI: 0
ITLB PREFETCH  REQUESTED:          0  ISSUED:          0  USEFUL:          0  USELESS:          0
ITLB USEFUL LOAD PREFETCHES:          0 PREFETCH ISSUED TO LOWER LEVEL:          0  ACCURACY: -nan
ITLB TIMELY PREFETCHES:          0 LATE PREFETCHES: 0 DROPPED PREFETCHES: 0
ITLB PREFETCHES SAME FILL-ORIGIN LEVEL: 0 DIFFERENT FILL-ORIGIN LEVEL: 0
ITLB AVERAGE MISS LATENCY: -nan cycles
ITLB RQ	ACCESS:   41342664	FORWARD:          0	MERGED:    7612557	TO_CACHE:   33730107

DTLB TOTAL     ACCESS:   35350439  HIT:   34618382  MISS:     732057  HIT %:    97.9291  MISS %:    2.07086   MPKI: 3.66029
DTLB LOAD TRANSLATION ACCESS:   35350439  HIT:   34618382  MISS:     732057  HIT %:    97.9291  MISS %:    2.07086   MPKI: 3.66029
DTLB PREFETCH  REQUESTED:          0  ISSUED:          0  USEFUL:          0  USELESS:          0
DTLB USEFUL LOAD PREFETCHES:          0 PREFETCH ISSUED TO LOWER LEVEL:          0  ACCURACY: -nan
DTLB TIMELY PREFETCHES:          0 LATE PREFETCHES: 0 DROPPED PREFETCHES: 0
DTLB PREFETCHES SAME FILL-ORIGIN LEVEL: 0 DIFFERENT FILL-ORIGIN LEVEL: 0
DTLB AVERAGE MISS LATENCY: 36.3965 cycles
DTLB RQ	ACCESS:   38036330	FORWARD:          0	MERGED:    2535442	TO_CACHE:   35500888

STLB TOTAL     ACCESS:    6103105  HIT:    5956917  MISS:     146188  HIT %:    97.6047  MISS %:    2.39531   MPKI: 0.73094
STLB LOAD TRANSLATION ACCESS:     732057  HIT:     585875  MISS:     146182  HIT %:    80.0313  MISS %:    19.9687   MPKI: 0.73091
STLB TRANSLATION FROM L1D PREFETCHER ACCESS:    5371048  HIT:    5371042  MISS:          6  HIT %:    99.9999  MISS %: 0.00011171   MPKI: 3e-05
STLB PREFETCH  REQUESTED:          0  ISSUED:          0  USEFUL:          6  USELESS:          0
STLB USEFUL LOAD PREFETCHES:          6 PREFETCH ISSUED TO LOWER LEVEL:          0  ACCURACY: inf
STLB TIMELY PREFETCHES:          6 LATE PREFETCHES: 0 DROPPED PREFETCHES: 0
STLB PREFETCHES SAME FILL-ORIGIN LEVEL: 0 DIFFERENT FILL-ORIGIN LEVEL: 0
STLB AVERAGE MISS LATENCY: 136.673 cycles
STLB RQ	ACCESS:    8582619	FORWARD:          0	MERGED:    2479510	TO_CACHE:    6103109

STLB Hit, L1D data hit: 0
STLB Hit, L2C data hit: 0
STLB Hit, LLC data hit: 0
STLB Hit, LLC data miss: 0
STLB STLB hints to L2: 0
L1D TOTAL     ACCESS:   41786304  HIT:   32192942  MISS:    9593362  HIT %:    77.0419  MISS %:    22.9581   MPKI: 47.9668
L1D LOAD      ACCESS:   29787061  HIT:   25783225  MISS:    4003836  HIT %:    86.5585  MISS %:    13.4415   MPKI: 20.0192
L1D RFO       ACCESS:    4927630  HIT:    4638713  MISS:     288917  HIT %:    94.1368  MISS %:     5.8632   MPKI: 1.44459
L1D PREFETCH  ACCESS:    7071613  HIT:    1771004  MISS:    5300609  HIT %:    25.0438  MISS %:    74.9562   MPKI: 26.503
L1D PREFETCH  REQUESTED:   15701215  ISSUED:   15701197  USEFUL:    2064637  USELESS:    3235971
L1D USEFUL LOAD PREFETCHES:    2064637 PREFETCH ISSUED TO LOWER LEVEL:    5800996  ACCURACY: 35.5911
L1D TIMELY PREFETCHES:    2064637 LATE PREFETCHES: 500385 DROPPED PREFETCHES: 0
L1D PREFETCHES SAME FILL-ORIGIN LEVEL: 5800996 DIFFERENT FILL-ORIGIN LEVEL: 0
L1D AVERAGE MISS LATENCY: 214.875 cycles
L1D RQ	ACCESS:   47406505	FORWARD:          0	MERGED:   16882210	TO_CACHE:   30519570
L1D WQ	ACCESS:    7636844	FORWARD:       4754	MERGED:     120084	TO_CACHE:    7516760
L1D PQ	ACCESS:    7850635	FORWARD:          0	MERGED:         44	TO_CACHE:    7850562

L1D UNIQUE REGIONS ACCESSED: 0
L1D REGIONS CONFLICTS: 0
L1D Cross Page Prefetch Requests: 0
L1D Same Page Prefetch Requests: 11341951
L1D ROI Sum of L1D PQ occupancy: 95024639
L1D PREFETCHES PUSHED FROM L2C: 0
L1I TOTAL     ACCESS:   41342661  HIT:   41342644  MISS:         17  HIT %:        100  MISS %: 4.11198e-05   MPKI: 8.5e-05
L1I LOAD      ACCESS:   41342661  HIT:   41342644  MISS:         17  HIT %:        100  MISS %: 4.11198e-05   MPKI: 8.5e-05
L1I PREFETCH  REQUESTED:          0  ISSUED:          0  USEFUL:          0  USELESS:          0
L1I USEFUL LOAD PREFETCHES:          0 PREFETCH ISSUED TO LOWER LEVEL:          0  ACCURACY: -nan
L1I TIMELY PREFETCHES:          0 LATE PREFETCHES: 0 DROPPED PREFETCHES: 0
L1I PREFETCHES SAME FILL-ORIGIN LEVEL: 0 DIFFERENT FILL-ORIGIN LEVEL: 0
L1I AVERAGE MISS LATENCY: 341.471 cycles
L1I RQ	ACCESS:   64098587	FORWARD:          0	MERGED:   22755923	TO_CACHE:   41342664

BTB TOTAL     ACCESS:   40442150  HIT:   40441797  MISS:        353  HIT %:    99.9991  MISS %: 0.000872852   MPKI: 0.001765
BTB BRANCH_DIRECT_JUMP	ACCESS:      22041  HIT:      21996  MISS:         45
BTB BRANCH_INDIRECT	ACCESS:          3  HIT:          2  MISS:          1
BTB BRANCH_CONDITIONAL	ACCESS:   40419366  HIT:   40419266  MISS:        100
BTB BRANCH_DIRECT_CALL	ACCESS:        361  HIT:        318  MISS:         43
BTB BRANCH_INDIRECT_CALL	ACCESS:          9  HIT:          6  MISS:          3
BTB BRANCH_RETURN	ACCESS:        370  HIT:        209  MISS:        161
BTB BRANCH_OTHER ACCESS:          0  HIT:          0  MISS:          0

L2C TOTAL     ACCESS:   10976745  HIT:    3174849  MISS:    7801896  HIT %:    28.9234  MISS %:    71.0766   MPKI: 39.0095
L2C LOAD      ACCESS:    3503450  HIT:     951174  MISS:    2552276  HIT %:    27.1496  MISS %:    72.8504   MPKI: 12.7614
L2C DATA LOAD MPKI: 12.7613
L2C INSTRUCTION LOAD MPKI: 8.5e-05
L2C RFO       ACCESS:     288915  HIT:       7086  MISS:     281829  HIT %:    2.45262  MISS %:    97.5474   MPKI: 1.40915
L2C PREFETCH  ACCESS:    5800979  HIT:     962028  MISS:    4838951  HIT %:    16.5839  MISS %:    83.4161   MPKI: 24.1948
L2C DATA PREFETCH MPKI: 24.1948
L2C INSTRUCTION PREFETCH MPKI: 0
L2C WRITEBACK ACCESS:    1236159  HIT:    1141392  MISS:      94767  HIT %:    92.3338  MISS %:    7.66625   MPKI: 0.473835
L2C LOAD TRANSLATION ACCESS:     147233  HIT:     113169  MISS:      34064  HIT %:    76.8639  MISS %:    23.1361   MPKI: 0.17032
[...]
Allocated PAGES: 116060

CPU 3 cumulative IPC: 0.281262 instructions: 200000000 cycles: 711081960
ITLB TOTAL     ACCESS:   33725324  HIT:   33725324  MISS:          0  HIT %:        100  MISS %:          0   MPKI: 0
ITLB LOAD TRANSLATION ACCESS:   33725324  HIT:   33725324  MISS:          0  HIT %:        100  MISS %:          0   MPKI: 0
ITLB PREFETCH  REQUESTED:          0  ISSUED:          0  USEFUL:          0  USELESS:          0
ITLB USEFUL LOAD PREFETCHES:          0 PREFETCH ISSUED TO LOWER LEVEL:          0  ACCURACY: -nan
ITLB TIMELY PREFETCHES:          0 LATE PREFETCHES: 0 DROPPED PREFETCHES: 0
ITLB PREFETCHES SAME FILL-ORIGIN LEVEL: 0 DIFFERENT FILL-ORIGIN LEVEL: 0
ITLB AVERAGE MISS LATENCY: -nan cycles
ITLB RQ	ACCESS:   41339139	FORWARD:          0	MERGED:    7612934	TO_CACHE:   33726205

DTLB TOTAL     ACCESS:   35366041  HIT:   34633981  MISS:     732060  HIT %:      97.93  MISS %:    2.06995   MPKI: 3.6603
DTLB LOAD TRANSLATION ACCESS:   35366041  HIT:   34633981  MISS:     732060  HIT %:      97.93  MISS %:    2.06995   MPKI: 3.6603
DTLB PREFETCH  REQUESTED:          0  ISSUED:          0  USEFUL:          0  USELESS:          0
DTLB USEFUL LOAD PREFETCHES:          0 PREFETCH ISSUED TO LOWER LEVEL:          0  ACCURACY: -nan
DTLB TIMELY PREFETCHES:          0 LATE PREFETCHES: 0 DROPPED PREFETCHES: 0
DTLB PREFETCHES SAME FILL-ORIGIN LEVEL: 0 DIFFERENT FILL-ORIGIN LEVEL: 0
DTLB AVERAGE MISS LATENCY: 36.2594 cycles
DTLB RQ	ACCESS:   38051923	FORWARD:          0	MERGED:    2534240	TO_CACHE:   35517683

STLB TOTAL     ACCESS:    6104001  HIT:    5957806  MISS:     146195  HIT %:    97.6049  MISS %:    2.39507   MPKI: 0.730975
STLB LOAD TRANSLATION ACCESS:     732060  HIT:     585871  MISS:     146189  HIT %:    80.0305  MISS %:    19.9695   MPKI: 0.730945
STLB TRANSLATION FROM L1D PREFETCHER ACCESS:    5371941  HIT:    5371935  MISS:          6  HIT %:    99.9999  MISS %: 0.000111691   MPKI: 3e-05
STLB PREFETCH  REQUESTED:          0  ISSUED:          0  USEFUL:          6  USELESS:          0
STLB USEFUL LOAD PREFETCHES:          6 PREFETCH ISSUED TO LOWER LEVEL:          0  ACCURACY: inf
STLB TIMELY PREFETCHES:          6 LATE PREFETCHES: 0 DROPPED PREFETCHES: 0
STLB PREFETCHES SAME FILL-ORIGIN LEVEL: 0 DIFFERENT FILL-ORIGIN LEVEL: 0
STLB AVERAGE MISS LATENCY: 135.973 cycles
STLB RQ	ACCESS:    8581266	FORWARD:          0	MERGED:    2476962	TO_CACHE:    6104304

STLB Hit, L1D data hit: 0
STLB Hit, L2C data hit: 0
STLB Hit, LLC data hit: 0
STLB Hit, LLC data miss: 0
STLB STLB hints to L2: 0
L1D TOTAL     ACCESS:   41809014  HIT:   32217225  MISS:    9591789  HIT %:    77.0581  MISS %:    22.9419   MPKI: 47.9589
L1D LOAD      ACCESS:   29801726  HIT:   25799379  MISS:    4002347  HIT %:    86.5701  MISS %:    13.4299   MPKI: 20.0117
L1D RFO       ACCESS:    4933718  HIT:    4644797  MISS:     288921  HIT %:    94.1439  MISS %:    5.85605   MPKI: 1.4446
L1D PREFETCH  ACCESS:    7073570  HIT:    1773049  MISS:    5300521  HIT %:    25.0658  MISS %:    74.9342   MPKI: 26.5026
L1D PREFETCH  REQUESTED:   15698521  ISSUED:   15698500  USEFUL:    2066136  USELESS:    3234577
L1D USEFUL LOAD PREFETCHES:    2066136 PREFETCH ISSUED TO LOWER LEVEL:    5801938  ACCURACY: 35.6111
L1D TIMELY PREFETCHES:    2066136 LATE PREFETCHES: 501217 DROPPED PREFETCHES: 0
L1D PREFETCHES SAME FILL-ORIGIN LEVEL: 5801938 DIFFERENT FILL-ORIGIN LEVEL: 0
L1D AVERAGE MISS LATENCY: 215.226 cycles
L1D RQ	ACCESS:   47409622	FORWARD:          0	MERGED:   16870846	TO_CACHE:   30533795
L1D WQ	ACCESS:    7637082	FORWARD:       5010	MERGED:     118954	TO_CACHE:    7518128
L1D PQ	ACCESS:    7849306	FORWARD:          0	MERGED:         83	TO_CACHE:    7849194

L1D UNIQUE REGIONS ACCESSED: 0
L1D REGIONS CONFLICTS: 0
L1D Cross Page Prefetch Requests: 0
L1D Same Page Prefetch Requests: 11343730
L1D ROI Sum of L1D PQ occupancy: 95175120
L1D PREFETCHES PUSHED FROM L2C: 0
L1I TOTAL     ACCESS:   41337894  HIT:   41337877  MISS:         17  HIT %:        100  MISS %: 4.11245e-05   MPKI: 8.5e-05
L1I LOAD      ACCESS:   41337894  HIT:   41337877  MISS:         17  HIT %:        100  MISS %: 4.11245e-05   MPKI: 8.5e-05
L1I PREFETCH  REQUESTED:          0  ISSUED:          0  USEFUL:          0  USELESS:          0
L1I USEFUL LOAD PREFETCHES:          0 PREFETCH ISSUED TO LOWER LEVEL:          0  ACCURACY: -nan
L1I TIMELY PREFETCHES:          0 LATE PREFETCHES: 0 DROPPED PREFETCHES: 0
L1I PREFETCHES SAME FILL-ORIGIN LEVEL: 0 DIFFERENT FILL-ORIGIN LEVEL: 0
L1I AVERAGE MISS LATENCY: 333.235 cycles
L1I RQ	ACCESS:   64092445	FORWARD:          0	MERGED:   22753306	TO_CACHE:   41339139

BTB TOTAL     ACCESS:   40442092  HIT:   40441735  MISS:        357  HIT %:    99.9991  MISS %: 0.000882744   MPKI: 0.001785
BTB BRANCH_DIRECT_JUMP	ACCESS:      22041  HIT:      21996  MISS:         45
BTB BRANCH_INDIRECT	ACCESS:          3  HIT:          2  MISS:          1
BTB BRANCH_CONDITIONAL	ACCESS:   40419308  HIT:   40419204  MISS:        104
BTB BRANCH_DIRECT_CALL	ACCESS:        361  HIT:        318  MISS:         43
BTB BRANCH_INDIRECT_CALL	ACCESS:          9  HIT:          6  MISS:          3
BTB BRANCH_RETURN	ACCESS:        370  HIT:        209  MISS:        161
BTB BRANCH_OTHER ACCESS:          0  HIT:          0  MISS:          0

L2C TOTAL     ACCESS:   10975266  HIT:    3162789  MISS:    7812477  HIT %:    28.8174  MISS %:    71.1826   MPKI: 39.0624
L2C LOAD      ACCESS:    3501136  HIT:     947480  MISS:    2553656  HIT %:    27.0621  MISS %:    72.9379   MPKI: 12.7683
L2C DATA LOAD MPKI: 12.7682
L2C INSTRUCTION LOAD MPKI: 8.5e-05
L2C RFO       ACCESS:     288918  HIT:       7410  MISS:     281508  HIT %:    2.56474  MISS %:    97.4353   MPKI: 1.40754
L2C PREFETCH  ACCESS:    5801708  HIT:     961282  MISS:    4840426  HIT %:    16.5689  MISS %:    83.4311   MPKI: 24.2021
L2C DATA PREFETCH MPKI: 24.2021
L2C INSTRUCTION PREFETCH MPKI: 0
L2C WRITEBACK ACCESS:    1236255  HIT:    1133352  MISS:     102903  HIT %:    91.6762  MISS %:    8.32377   MPKI: 0.514515
L2C LOAD TRANSLATION ACCESS:     147240  HIT:     113265  MISS:      33975  HIT %:    76.9254  MISS %:    23.0746   MPKI: 0.169875
L2C TRANSLATION FROM L1D PREFETCHER ACCESS:          9  HIT:          0  MISS:          9  HIT %:          0  MISS %:        100   MPKI: 4.5e-05
L2C PREFETCH  REQUESTED:          0  ISSUED:          0  USEFUL:     118606  USELESS:    4721645
L2C USEFUL LOAD PREFETCHES:     118606 PREFETCH ISSUED TO LOWER LEVEL:    4840560  ACCURACY: 2.45025
L2C TIMELY PREFETCHES:     118606 LATE PREFETCHES: 0 DROPPED PREFETCHES: 0
L2C PREFETCHES SAME FILL-ORIGIN LEVEL: 0 DIFFERENT FILL-ORIGIN LEVEL: 0
L2C AVERAGE MISS LATENCY: 274.744 cycles
L2C RQ	ACCESS:    3937474	FORWARD:          0	MERGED:          0	TO_CACHE:    3937456
L2C WQ	ACCESS:    1236273	FORWARD:         44	MERGED:          0	TO_CACHE:    1236273
L2C PQ	ACCESS:    5801938	FORWARD:          0	MERGED:          0	TO_CACHE:    5801912

L2C Instructions Evicting Data 17
L2C Translations Evicting Data 33239
L2C Data Evicting Data 7642686
L2C Instructions Evicting Instructions 0
L2C Translations Evicting Instructions 1
L2C Data Evicting Instructions 15
L2C Instructions Evicting Translations 0
L2C Translations Evicting Translations 745
L2C Data Evicting Translations 33083
L2C Dense regions hint from L2: 0
PSCL5 TOTAL     ACCESS:     146195  HIT:     146195  MISS:          0  HIT %:        100  MISS %:          0   MPKI: 0
PSCL5 LOAD TRANSLATION ACCESS:     146189  HIT:     146189  MISS:          0  HIT %:        100  MISS %:          0   MPKI: 0
PSCL5 TRANSLATION FROM L1D PREFETCHER ACCESS:          6  HIT:          6  MISS:          0  HIT %:        100  MISS %:          0   MPKI: 0
PSCL5 PREFETCH  REQUESTED:          0  ISSUED:          0  USEFUL:          0  USELESS:          0
PSCL5 USEFUL LOAD PREFETCHES:          0 PREFETCH ISSUED TO LOWER LEVEL:          0  ACCURACY: -nan
PSCL5 TIMELY PREFETCHES:          0 LATE PREFETCHES: 0 DROPPED PREFETCHES: 0
PSCL5 PREFETCHES SAME FILL-ORIGIN LEVEL: 0 DIFFERENT FILL-ORIGIN LEVEL: 0

PSCL4 TOTAL     ACCESS:     146195  HIT:     146195  MISS:          0  HIT %:        100  MISS %:          0   MPKI: 0
PSCL4 LOAD TRANSLATION ACCESS:     146189  HIT:     146189  MISS:          0  HIT %:        100  MISS %:          0   MPKI: 0
PSCL4 TRANSLATION FROM L1D PREFETCHER ACCESS:          6  HIT:          6  MISS:          0  HIT %:        100  MISS %:          0   MPKI: 0
PSCL4 PREFETCH  REQUESTED:          0  ISSUED:          0  USEFUL:          0  USELESS:          0
PSCL4 USEFUL LOAD PREFETCHES:          0 PREFETCH ISSUED TO LOWER LEVEL:          0  ACCURACY: -nan
PSCL4 TIMELY PREFETCHES:          0 LATE PREFETCHES: 0 DROPPED PREFETCHES: 0
PSCL4 PREFETCHES SAME FILL-ORIGIN LEVEL: 0 DIFFERENT FILL-ORIGIN LEVEL: 0

PSCL3 TOTAL     ACCESS:     146195  HIT:     146195  MISS:          0  HIT %:        100  MISS %:          0   MPKI: 0
PSCL3 LOAD TRANSLATION ACCESS:     146189  HIT:     146189  MISS:          0  HIT %:        100  MISS %:          0   MPKI: 0
PSCL3 TRANSLATION FROM L1D PREFETCHER ACCESS:          6  HIT:          6  MISS:          0  HIT %:        100  MISS %:          0   MPKI: 0
PSCL3 PREFETCH  REQUESTED:          0  ISSUED:          0  USEFUL:          0  USELESS:          0
PSCL3 USEFUL LOAD PREFETCHES:          0 PREFETCH ISSUED TO LOWER LEVEL:          0  ACCURACY: -nan
PSCL3 TIMELY PREFETCHES:          0 LATE PREFETCHES: 0 DROPPED PREFETCHES: 0
PSCL3 PREFETCHES SAME FILL-ORIGIN LEVEL: 0 DIFFERENT FILL-ORIGIN LEVEL: 0

PSCL2 TOTAL     ACCESS:     146195  HIT:     145140  MISS:       1055  HIT %:    99.2784  MISS %:   0.721639   MPKI: 0.005275
PSCL2 LOAD TRANSLATION ACCESS:     146192  HIT:     145137  MISS:       1055  HIT %:    99.2783  MISS %:   0.721654   MPKI: 0.005275
PSCL2 TRANSLATION FROM L1D PREFETCHER ACCESS:          3  HIT:          3  MISS:          0  HIT %:        100  MISS %:          0   MPKI: 0
PSCL2 PREFETCH  REQUESTED:          0  ISSUED:          0  USEFUL:          0  USELESS:          0
PSCL2 USEFUL LOAD PREFETCHES:          0 PREFETCH ISSUED TO LOWER LEVEL:          0  ACCURACY: -nan
PSCL2 TIMELY PREFETCHES:          0 LATE PREFETCHES: 0 DROPPED PREFETCHES: 0
PSCL2 PREFETCHES SAME FILL-ORIGIN LEVEL: 0 DIFFERENT FILL-ORIGIN LEVEL: 0

LLC TOTAL     ACCESS:    8722724  HIT:    3345856  MISS:    5376868  HIT %:    38.3579  MISS %:    61.6421   MPKI: 26.8843
LLC LOAD      ACCESS:    2553654  HIT:    1207581  MISS:    1346073  HIT %:    47.2884  MISS %:    52.7116   MPKI: 6.73036
LLC RFO       ACCESS:     281508  HIT:      16372  MISS:     265136  HIT %:    5.81582  MISS %:    94.1842   MPKI: 1.32568
LLC PREFETCH  ACCESS:    4840424  HIT:    1173112  MISS:    3667312  HIT %:    24.2357  MISS %:    75.7643   MPKI: 18.3366
LLC WRITEBACK ACCESS:    1013154  HIT:     947554  MISS:      65600  HIT %:    93.5252  MISS %:    6.47483   MPKI: 0.328
LLC LOAD TRANSLATION ACCESS:      33975  HIT:       1234  MISS:      32741  HIT %:    3.63208  MISS %:    96.3679   MPKI: 0.163705
LLC TRANSLATION FROM L1D PREFETCHER ACCESS:          9  HIT:          3  MISS:          6  HIT %:    33.3333  MISS %:    66.6667   MPKI: 3e-05
LLC PREFETCH  REQUESTED:          0  ISSUED:          0  USEFUL:     516989  USELESS:   14151562
LLC USEFUL LOAD PREFETCHES:     516989 PREFETCH ISSUED TO LOWER LEVEL:   14670535  ACCURACY: 3.524
LLC TIMELY PREFETCHES:     516989 LATE PREFETCHES: 0 DROPPED PREFETCHES: 0
LLC PREFETCHES SAME FILL-ORIGIN LEVEL: 0 DIFFERENT FILL-ORIGIN LEVEL: 0
LLC AVERAGE MISS LATENCY: 1421.76 cycles
LLC RQ	ACCESS:   11464594	FORWARD:          0	MERGED:          0	TO_CACHE:   11464577
LLC WQ	ACCESS:    4052609	FORWARD:         37	MERGED:          0	TO_CACHE:    4052609
LLC PQ	ACCESS:   19375151	FORWARD:          0	MERGED:          0	TO_CACHE:   19375131

LLC Dense regions hint to LLC: 0

RAW hits: 295821
Loads Generated: 47703579
Loads sent to L1D: 47407756
Stores Generated: 7636820
Stores sent to L1D: 7636820
Major fault: 0 Minor fault: 29015
Allocated PAGES: 116060

stream: 
stream:times selected: 10691062
stream:pref_filled: 4924060
stream:pref_useful: 848099
stream:pref_late: 186005
stream:misses: 855404
stream:misses_by_poll: 0

CS: 
CS:times selected: 3737081
CS:pref_filled: 2370060
CS:pref_useful: 2044290
CS:pref_late: 305263
CS:misses: 1099653
CS:misses_by_poll: 9456

CPLX: 
CPLX:times selected: 6913271
CPLX:pref_filled: 140044
CPLX:pref_useful: 24012
CPLX:pref_late: 7483
CPLX:misses: 4016452
CPLX:misses_by_poll: 105

NL_L1: 
NL:times selected: 32222
NL:pref_filled: 23903
NL:pref_useful: 4406
NL:pref_late: 273
NL:misses: 23041
NL:misses_by_poll: 1

total selections: 21373636
total_filled: 5311187
total_useful: 2070226
total_late: 506723
total_polluted: 9562
total_misses_after_warmup: 4741168
conflicts: 810
Degree Incremented Times: 464784
Degree Decremented Times: 1908083

L1 IP Table Write Accesses: 122189486
L1 IP Table Read Accesses: 122188676
L1 RST Write Accesses: 29311621
L1 RST Read Accesses: 58623242
L1 CSPT Write Accesses: 29311621
L1 CSPT Read Accesses: 47253050
L1 RR Filter Tag Write Accesses: 31440384
L1 RR Filter Tag Read Accesses: 1752230290
L1 IP Table Tag Write Accesses: 122190578
L1 IP Table Tag Read Accesses: 122190578
L1 RST Tag Write Accesses: 0
L1 RST Tag Read Accesses: 262776161
L1 RR Filter Write Accesses: 0
L1 RR Filter Read Accesses: 63561702
test: 11961213

stream: 
stream:times selected: 10690612
stream:pref_filled: 4491985
stream:pref_useful: 641460
stream:pref_late: 185702
stream:misses: 855818
stream:misses_by_poll: 0

CS: 
CS:times selected: 3736651
CS:pref_filled: 2439613
CS:pref_useful: 2104439
CS:pref_late: 305363
CS:misses: 1277114
CS:misses_by_poll: 10041

CPLX: 
CPLX:times selected: 6913241
CPLX:pref_filled: 141827
CPLX:pref_useful: 24943
CPLX:pref_late: 7553
CPLX:misses: 4019108
CPLX:misses_by_poll: 102

NL_L1: 
NL:times selected: 32238
NL:pref_filled: 24158
NL:pref_useful: 4579
NL:pref_late: 297
NL:misses: 23000
NL:misses_by_poll: 0

total selections: 21372742
total_filled: 5312348
total_useful: 2070695
total_late: 506829
total_polluted: 10143
total_misses_after_warmup: 4738776
conflicts: 810
Degree Incremented Times: 464784
Degree Decremented Times: 1908083

L1 IP Table Write Accesses: 122189486
L1 IP Table Read Accesses: 122188676
L1 RST Write Accesses: 29311621
L1 RST Read Accesses: 58623242
L1 CSPT Write Accesses: 29311621
L1 CSPT Read Accesses: 47253050
L1 RR Filter Tag Write Accesses: 31440384
L1 RR Filter Tag Read Accesses: 1752230290
L1 IP Table Tag Write Accesses: 122190578
L1 IP Table Tag Read Accesses: 122190578
L1 RST Tag Write Accesses: 0
L1 RST Tag Read Accesses: 262776161
L1 RR Filter Write Accesses: 0
L1 RR Filter Read Accesses: 63561702
test: 11961213

stream: 
stream:times selected: 10673418
stream:pref_filled: 4487578
stream:pref_useful: 640804
stream:pref_late: 186484
stream:misses: 855098
stream:misses_by_poll: 0

CS: 
CS:times selected: 3733572
CS:pref_filled: 2435034
CS:pref_useful: 2100114
CS:pref_late: 302118
CS:misses: 1279917
CS:misses_by_poll: 9862

CPLX: 
CPLX:times selected: 6899210
CPLX:pref_filled: 142649
CPLX:pref_useful: 24910
CPLX:pref_late: 7446
CPLX:misses: 4011720
CPLX:misses_by_poll: 94

NL_L1: 
NL:times selected: 31888
NL:pref_filled: 23890
NL:pref_useful: 4594
NL:pref_late: 284
NL:misses: 22592
NL:misses_by_poll: 0

total selections: 21338088
total_filled: 5300609
total_useful: 2064637
total_late: 504241
total_polluted: 9956
total_misses_after_warmup: 4736375
conflicts: 810
Degree Incremented Times: 464784
Degree Decremented Times: 1908083

L1 IP Table Write Accesses: 122189486
L1 IP Table Read Accesses: 122188676
L1 RST Write Accesses: 29311621
L1 RST Read Accesses: 58623242
L1 CSPT Write Accesses: 29311621
L1 CSPT Read Accesses: 47253050
L1 RR Filter Tag Write Accesses: 31440384
L1 RR Filter Tag Read Accesses: 1752230290
L1 IP Table Tag Write Accesses: 122190578
L1 IP Table Tag Read Accesses: 122190578
L1 RST Tag Write Accesses: 0
L1 RST Tag Read Accesses: 262776161
L1 RR Filter Write Accesses: 0
L1 RR Filter Read Accesses: 63561702
test: 11961213

stream: 
stream:times selected: 10672165
stream:pref_filled: 4483360
stream:pref_useful: 639741
stream:pref_late: 185759
stream:misses: 854370
stream:misses_by_poll: 0

CS: 
CS:times selected: 3734404
CS:pref_filled: 2437501
CS:pref_useful: 2102243
CS:pref_late: 303615
CS:misses: 1281295
CS:misses_by_poll: 10032

CPLX: 
CPLX:times selected: 6897139
CPLX:pref_filled: 142840
CPLX:pref_useful: 25202
CPLX:pref_late: 7484
CPLX:misses: 4011909
CPLX:misses_by_poll: 100

NL_L1: 
NL:times selected: 32132
NL:pref_filled: 24059
NL:pref_useful: 4581
NL:pref_late: 267
NL:misses: 22864
NL:misses_by_poll: 1

total selections: 21335840
total_filled: 5300718
total_useful: 2066136
total_late: 505050
total_polluted: 10133
total_misses_after_warmup: 4733073
conflicts: 810
Degree Incremented Times: 464784
Degree Decremented Times: 1908083

L1 IP Table Write Accesses: 122189486
L1 IP Table Read Accesses: 122188676
L1 RST Write Accesses: 29311621
L1 RST Read Accesses: 58623242
L1 CSPT Write Accesses: 29311621
L1 CSPT Read Accesses: 47253050
L1 RR Filter Tag Write Accesses: 31440384
L1 RR Filter Tag Read Accesses: 1752230290
L1 IP Table Tag Write Accesses: 122190578
L1 IP Table Tag Read Accesses: 122190578
L1 RST Tag Write Accesses: 0
L1 RST Tag Read Accesses: 262776161
L1 RR Filter Write Accesses: 0
L1 RR Filter Read Accesses: 63561702
test: 11961213

DRAM Statistics
 CHANNEL 0
 RQ ROW_BUFFER_HIT:    2297020  ROW_BUFFER_MISS:   18917731
 DBUS_CONGESTED:         60
 WQ ROW_BUFFER_HIT:     236081  ROW_BUFFER_MISS:    3434385  FULL:          0

 AVG_CONGESTED_CYCLE: 5
 All warmup complete: 5
Channel 0 Bank busy for read cycles: 0
Channel 0 Bank busy for write cycles: 0
Channel 0
Rank 0
0banks busy for read cycles: 22165536
0banks busy for write cycles: 958
1banks busy for read cycles: 10262277
1banks busy for write cycles: 579056
2banks busy for read cycles: 28981933
2banks busy for write cycles: 434706
3banks busy for read cycles: 62367809
3banks busy for write cycles: 420453
4banks busy for read cycles: 98391757
4banks busy for write cycles: 421303
5banks busy for read cycles: 116682915
5banks busy for write cycles: 455571
6banks busy for read cycles: 109339164
6banks busy for write cycles: 1756905
7banks busy for read cycles: 89424181
7banks busy for write cycles: 17726566
8banks busy for read cycles: 70252246
8banks busy for write cycles: 81447172

CPU 0 Branch Prediction Accuracy: 88.7444% MPKI: 23.6891 Average ROB Occupancy at Mispredict: 13.0821
Branch types
NOT_BRANCH: 158116869 78.9531%
BRANCH_DIRECT_JUMP: 22041 0.0110058%
BRANCH_INDIRECT: 3 1.498e-06%
BRANCH_CONDITIONAL: 42127150 21.0355%
BRANCH_DIRECT_CALL: 361 0.00018026%
BRANCH_INDIRECT_CALL: 9 4.49401e-06%
BRANCH_RETURN: 370 0.000184754%
BRANCH_OTHER: 0 0%


CPU 1 Branch Prediction Accuracy: 88.7446% MPKI: 23.6888 Average ROB Occupancy at Mispredict: 13.0813
Branch types
NOT_BRANCH: 158113885 78.9531%
BRANCH_DIRECT_JUMP: 22041 0.011006%
BRANCH_INDIRECT: 3 1.49803e-06%
BRANCH_CONDITIONAL: 42126480 21.0356%
BRANCH_DIRECT_CALL: 361 0.000180263%
BRANCH_INDIRECT_CALL: 9 4.49409e-06%
BRANCH_RETURN: 370 0.000184757%
BRANCH_OTHER: 0 0%


CPU 2 Branch Prediction Accuracy: 88.7511% MPKI: 23.681 Average ROB Occupancy at Mispredict: 13.0803
Branch types
NOT_BRANCH: 157895752 78.9479%
BRANCH_DIRECT_JUMP: 22041 0.0110205%
BRANCH_INDIRECT: 3 1.5e-06%
BRANCH_CONDITIONAL: 42081453 21.0407%
BRANCH_DIRECT_CALL: 361 0.0001805%
BRANCH_INDIRECT_CALL: 9 4.5e-06%
BRANCH_RETURN: 370 0.000185%
BRANCH_OTHER: 0 0%


CPU 3 Branch Prediction Accuracy: 88.7509% MPKI: 23.6817 Average ROB Occupancy at Mispredict: 13.0823
Branch types
NOT_BRANCH: 157900764 78.9479%
BRANCH_DIRECT_JUMP: 22041 0.0110202%
BRANCH_INDIRECT: 3 1.49995e-06%
BRANCH_CONDITIONAL: 42082612 21.0407%
BRANCH_DIRECT_CALL: 361 0.000180494%
BRANCH_INDIRECT_CALL: 9 4.49986e-06%
BRANCH_RETURN: 370 0.000184994%
BRANCH_OTHER: 0 0%

DRAM PAGES: 1048576
Allocated PAGES: 116060
