
*** ChampSim Multicore Out-of-Order Simulator ***

Warmup Instructions: 50000000
Simulation Instructions: 200000000
Number of CPUs: 4
LLC sets: 8192
LLC ways: 16
Off-chip DRAM Size: 4096 MB Channels: 1 Width: 64-bit Data Rate: 6400 MT/s
CPU 0 runs ./traces/spec/482.sphinx3-1522B.champsimtrace.xz
.xz
CPU 1 runs ./traces/spec/482.sphinx3-1522B.champsimtrace.xz
.xz
CPU 2 runs ./traces/spec/482.sphinx3-1522B.champsimtrace.xz
.xz
CPU 3 runs ./traces/spec/482.sphinx3-1522B.champsimtrace.xz
.xz
BTB has LRU replacement policy
ITLB has LRU replacement policy
DTLB has LRU replacement policy
STLB has LRU replacement policy
L1I has LRU replacement policy
IP Table Entries: 1024
CSPT Entries: 128
RR_ENTRIES: 32
RST_ENTRIES: 8
L1D has LRU replacement policy
Initialize SRRIP state for L2C
Initialize DRRIP state for LLC
BTB has LRU replacement policy
ITLB has LRU replacement policy
DTLB has LRU replacement policy
STLB has LRU replacement policy
L1I has LRU replacement policy
IP Table Entries: 1024
CSPT Entries: 128
RR_ENTRIES: 32
RST_ENTRIES: 8
L1D has LRU replacement policy
Initialize SRRIP state for L2C
Initialize DRRIP state for LLC
BTB has LRU replacement policy
ITLB has LRU replacement policy
DTLB has LRU replacement policy
STLB has LRU replacement policy
L1I has LRU replacement policy
IP Table Entries: 1024
CSPT Entries: 128
RR_ENTRIES: 32
RST_ENTRIES: 8
L1D has LRU replacement policy
Initialize SRRIP state for L2C
Initialize DRRIP state for LLC
BTB has LRU replacement policy
ITLB has LRU replacement policy
DTLB has LRU replacement policy
STLB has LRU replacement policy
L1I has LRU replacement policy
IP Table Entries: 1024
CSPT Entries: 128
RR_ENTRIES: 32
RST_ENTRIES: 8
L1D has LRU replacement policy
Initialize SRRIP state for L2C
Initialize DRRIP state for LLC
Heartbeat CPU 1 instructions: 10000000 cycles: 2963499 heartbeat IPC: 3.37439 cumulative IPC: 3.37439 (Simulation time: 0 hr 2 min 58 sec) 
Heartbeat CPU 0 instructions: 10000000 cycles: 2963739 heartbeat IPC: 3.37412 cumulative IPC: 3.37412 (Simulation time: 0 hr 2 min 58 sec) 
Heartbeat CPU 2 instructions: 10000000 cycles: 2964082 heartbeat IPC: 3.37373 cumulative IPC: 3.37373 (Simulation time: 0 hr 2 min 58 sec) 
Heartbeat CPU 3 instructions: 10000000 cycles: 2964289 heartbeat IPC: 3.37349 cumulative IPC: 3.37349 (Simulation time: 0 hr 2 min 58 sec) 
Heartbeat CPU 1 instructions: 20000000 cycles: 5913713 heartbeat IPC: 3.38958 cumulative IPC: 3.38197 (Simulation time: 0 hr 5 min 59 sec) 
Heartbeat CPU 0 instructions: 20000000 cycles: 5914936 heartbeat IPC: 3.38846 cumulative IPC: 3.38127 (Simulation time: 0 hr 5 min 59 sec) 
Heartbeat CPU 3 instructions: 20000000 cycles: 5916166 heartbeat IPC: 3.38768 cumulative IPC: 3.38057 (Simulation time: 0 hr 5 min 59 sec) 
Heartbeat CPU 2 instructions: 20000000 cycles: 5916485 heartbeat IPC: 3.38707 cumulative IPC: 3.38039 (Simulation time: 0 hr 5 min 59 sec) 
Heartbeat CPU 1 instructions: 30000001 cycles: 8791680 heartbeat IPC: 3.47468 cumulative IPC: 3.41232 (Simulation time: 0 hr 9 min 7 sec) 
Heartbeat CPU 3 instructions: 30000001 cycles: 8794934 heartbeat IPC: 3.47371 cumulative IPC: 3.41105 (Simulation time: 0 hr 9 min 7 sec) 
Heartbeat CPU 0 instructions: 30000001 cycles: 8795324 heartbeat IPC: 3.47175 cumulative IPC: 3.4109 (Simulation time: 0 hr 9 min 7 sec) 
Heartbeat CPU 2 instructions: 30000001 cycles: 8798287 heartbeat IPC: 3.47005 cumulative IPC: 3.40975 (Simulation time: 0 hr 9 min 7 sec) 
Heartbeat CPU 1 instructions: 40000001 cycles: 11713895 heartbeat IPC: 3.42206 cumulative IPC: 3.41475 (Simulation time: 0 hr 12 min 28 sec) 
Heartbeat CPU 3 instructions: 40000001 cycles: 11717097 heartbeat IPC: 3.42212 cumulative IPC: 3.41382 (Simulation time: 0 hr 12 min 28 sec) 
Heartbeat CPU 0 instructions: 40000001 cycles: 11717529 heartbeat IPC: 3.42207 cumulative IPC: 3.41369 (Simulation time: 0 hr 12 min 28 sec) 
Heartbeat CPU 2 instructions: 40000001 cycles: 11719601 heartbeat IPC: 3.42312 cumulative IPC: 3.41309 (Simulation time: 0 hr 12 min 28 sec) 
Heartbeat CPU 1 instructions: 50000002 cycles: 14662691 heartbeat IPC: 3.39121 cumulative IPC: 3.41002 (Simulation time: 0 hr 15 min 43 sec) 
Heartbeat CPU 3 instructions: 50000002 cycles: 14666212 heartbeat IPC: 3.39085 cumulative IPC: 3.4092 (Simulation time: 0 hr 15 min 43 sec) 
Heartbeat CPU 0 instructions: 50000002 cycles: 14667162 heartbeat IPC: 3.39025 cumulative IPC: 3.40898 (Simulation time: 0 hr 15 min 43 sec) 
Heartbeat CPU 2 instructions: 50000002 cycles: 14668458 heartbeat IPC: 3.39114 cumulative IPC: 3.40867 (Simulation time: 0 hr 15 min 43 sec) 

Warmup complete CPU 0 instructions: 50004811 cycles: 14668458 (Simulation time: 0 hr 15 min 43 sec) 
Warmup complete CPU 1 instructions: 50021476 cycles: 14668458 (Simulation time: 0 hr 15 min 43 sec) 
Warmup complete CPU 2 instructions: 50000002 cycles: 14668458 (Simulation time: 0 hr 15 min 43 sec) 
Warmup complete CPU 3 instructions: 50008347 cycles: 14668457 (Simulation time: 0 hr 15 min 43 sec) 

Heartbeat CPU 1 instructions: 60000001 cycles: 24560245 heartbeat IPC: 1.01035 cumulative IPC: 1.00877 (Simulation time: 0 hr 18 min 55 sec) 
Heartbeat CPU 2 instructions: 60000001 cycles: 24607619 heartbeat IPC: 1.00612 cumulative IPC: 1.00612 (Simulation time: 0 hr 18 min 57 sec) 
Heartbeat CPU 0 instructions: 60000001 cycles: 24631368 heartbeat IPC: 1.00359 cumulative IPC: 1.00324 (Simulation time: 0 hr 18 min 57 sec) 
Heartbeat CPU 3 instructions: 60000001 cycles: 24756393 heartbeat IPC: 0.991062 cumulative IPC: 0.990456 (Simulation time: 0 hr 18 min 59 sec) 
Heartbeat CPU 1 instructions: 70000000 cycles: 34962807 heartbeat IPC: 0.961302 cumulative IPC: 0.984438 (Simulation time: 0 hr 22 min 15 sec) 
Heartbeat CPU 2 instructions: 70000000 cycles: 35104829 heartbeat IPC: 0.952634 cumulative IPC: 0.978647 (Simulation time: 0 hr 22 min 19 sec) 
Heartbeat CPU 0 instructions: 70000002 cycles: 35167200 heartbeat IPC: 0.949142 cumulative IPC: 0.975435 (Simulation time: 0 hr 22 min 20 sec) 
Heartbeat CPU 3 instructions: 70000000 cycles: 35265503 heartbeat IPC: 0.951555 cumulative IPC: 0.970608 (Simulation time: 0 hr 22 min 21 sec) 
Heartbeat CPU 1 instructions: 80000002 cycles: 45633907 heartbeat IPC: 0.937111 cumulative IPC: 0.968128 (Simulation time: 0 hr 25 min 42 sec) 
Heartbeat CPU 2 instructions: 80000002 cycles: 45837711 heartbeat IPC: 0.931716 cumulative IPC: 0.962487 (Simulation time: 0 hr 25 min 45 sec) 
Heartbeat CPU 0 instructions: 80000002 cycles: 45953586 heartbeat IPC: 0.927095 cumulative IPC: 0.958768 (Simulation time: 0 hr 25 min 46 sec) 
Heartbeat CPU 3 instructions: 80000002 cycles: 46017714 heartbeat IPC: 0.930041 cumulative IPC: 0.956694 (Simulation time: 0 hr 25 min 47 sec) 
Heartbeat CPU 1 instructions: 90000002 cycles: 55992281 heartbeat IPC: 0.965402 cumulative IPC: 0.967445 (Simulation time: 0 hr 29 min 3 sec) 
Heartbeat CPU 2 instructions: 90000002 cycles: 56269686 heartbeat IPC: 0.958591 cumulative IPC: 0.96151 (Simulation time: 0 hr 29 min 7 sec) 
Heartbeat CPU 0 instructions: 90000002 cycles: 56441658 heartbeat IPC: 0.953464 cumulative IPC: 0.957437 (Simulation time: 0 hr 29 min 10 sec) 
Heartbeat CPU 3 instructions: 90000002 cycles: 56517941 heartbeat IPC: 0.95236 cumulative IPC: 0.955607 (Simulation time: 0 hr 29 min 11 sec) 
Heartbeat CPU 1 instructions: 100000001 cycles: 66030988 heartbeat IPC: 0.996144 cumulative IPC: 0.973054 (Simulation time: 0 hr 32 min 19 sec) 
Heartbeat CPU 2 instructions: 100000001 cycles: 66402117 heartbeat IPC: 0.98693 cumulative IPC: 0.966489 (Simulation time: 0 hr 32 min 27 sec) 
Heartbeat CPU 0 instructions: 100000001 cycles: 66602017 heartbeat IPC: 0.984217 cumulative IPC: 0.962676 (Simulation time: 0 hr 32 min 30 sec) 
Heartbeat CPU 3 instructions: 100000001 cycles: 66605422 heartbeat IPC: 0.991328 cumulative IPC: 0.962545 (Simulation time: 0 hr 32 min 30 sec) 
Heartbeat CPU 1 instructions: 110000000 cycles: 76036838 heartbeat IPC: 0.999415 cumulative IPC: 0.977352 (Simulation time: 0 hr 35 min 56 sec) 
Heartbeat CPU 2 instructions: 110000000 cycles: 76614793 heartbeat IPC: 0.979175 cumulative IPC: 0.96858 (Simulation time: 0 hr 36 min 6 sec) 
Heartbeat CPU 3 instructions: 110000000 cycles: 76737416 heartbeat IPC: 0.986972 cumulative IPC: 0.966532 (Simulation time: 0 hr 36 min 8 sec) 
Heartbeat CPU 0 instructions: 110000000 cycles: 76788253 heartbeat IPC: 0.981717 cumulative IPC: 0.965798 (Simulation time: 0 hr 36 min 9 sec) 
Heartbeat CPU 1 instructions: 120000003 cycles: 85957947 heartbeat IPC: 1.00795 cumulative IPC: 0.981611 (Simulation time: 0 hr 39 min 16 sec) 
Heartbeat CPU 3 instructions: 120000003 cycles: 86785617 heartbeat IPC: 0.995203 cumulative IPC: 0.970527 (Simulation time: 0 hr 39 min 36 sec) 
Heartbeat CPU 2 instructions: 120000003 cycles: 86787245 heartbeat IPC: 0.983047 cumulative IPC: 0.970621 (Simulation time: 0 hr 39 min 36 sec) 
Heartbeat CPU 0 instructions: 120000003 cycles: 86882389 heartbeat IPC: 0.990674 cumulative IPC: 0.969275 (Simulation time: 0 hr 39 min 38 sec) 
Heartbeat CPU 1 instructions: 130000000 cycles: 96467270 heartbeat IPC: 0.951536 cumulative IPC: 0.977747 (Simulation time: 0 hr 43 min 2 sec) 
Heartbeat CPU 3 instructions: 130000000 cycles: 97221251 heartbeat IPC: 0.958255 cumulative IPC: 0.968976 (Simulation time: 0 hr 43 min 21 sec) 
Heartbeat CPU 0 instructions: 130000000 cycles: 97416143 heartbeat IPC: 0.949329 cumulative IPC: 0.966736 (Simulation time: 0 hr 43 min 26 sec) 
Heartbeat CPU 2 instructions: 130000000 cycles: 97456426 heartbeat IPC: 0.937279 cumulative IPC: 0.966324 (Simulation time: 0 hr 43 min 27 sec) 
Heartbeat CPU 1 instructions: 140000001 cycles: 106662708 heartbeat IPC: 0.980831 cumulative IPC: 0.978089 (Simulation time: 0 hr 46 min 47 sec) 
Heartbeat CPU 3 instructions: 140000001 cycles: 107573026 heartbeat IPC: 0.966018 cumulative IPC: 0.968646 (Simulation time: 0 hr 47 min 5 sec) 
Heartbeat CPU 0 instructions: 140000001 cycles: 107817676 heartbeat IPC: 0.961397 cumulative IPC: 0.96614 (Simulation time: 0 hr 47 min 11 sec) 
Heartbeat CPU 2 instructions: 140000001 cycles: 107946906 heartbeat IPC: 0.953245 cumulative IPC: 0.964853 (Simulation time: 0 hr 47 min 13 sec) 
Heartbeat CPU 1 instructions: 150000002 cycles: 116679013 heartbeat IPC: 0.998372 cumulative IPC: 0.98008 (Simulation time: 0 hr 50 min 12 sec) 
Heartbeat CPU 3 instructions: 150000002 cycles: 117649027 heartbeat IPC: 0.992457 cumulative IPC: 0.970976 (Simulation time: 0 hr 50 min 29 sec) 
Heartbeat CPU 0 instructions: 150000002 cycles: 117969346 heartbeat IPC: 0.98506 cumulative IPC: 0.967999 (Simulation time: 0 hr 50 min 36 sec) 
Heartbeat CPU 2 instructions: 150000002 cycles: 118264450 heartbeat IPC: 0.969223 cumulative IPC: 0.965288 (Simulation time: 0 hr 50 min 42 sec) 
Heartbeat CPU 1 instructions: 160000001 cycles: 126605856 heartbeat IPC: 1.00737 cumulative IPC: 0.9825 (Simulation time: 0 hr 53 min 33 sec) 
Heartbeat CPU 3 instructions: 160000001 cycles: 127687575 heartbeat IPC: 0.99616 cumulative IPC: 0.973213 (Simulation time: 0 hr 53 min 56 sec) 
Heartbeat CPU 0 instructions: 160000001 cycles: 128055991 heartbeat IPC: 0.99141 cumulative IPC: 0.970082 (Simulation time: 0 hr 54 min 5 sec) 
Heartbeat CPU 2 instructions: 160000001 cycles: 128509324 heartbeat IPC: 0.976098 cumulative IPC: 0.966261 (Simulation time: 0 hr 54 min 16 sec) 
Heartbeat CPU 1 instructions: 170000000 cycles: 136451784 heartbeat IPC: 1.01565 cumulative IPC: 0.98518 (Simulation time: 0 hr 56 min 50 sec) 
Heartbeat CPU 3 instructions: 170000003 cycles: 137580101 heartbeat IPC: 1.01086 cumulative IPC: 0.976243 (Simulation time: 0 hr 57 min 15 sec) 
Heartbeat CPU 0 instructions: 170000003 cycles: 138035580 heartbeat IPC: 1.00205 cumulative IPC: 0.972668 (Simulation time: 0 hr 57 min 26 sec) 
Heartbeat CPU 2 instructions: 170000003 cycles: 138662752 heartbeat IPC: 0.984889 cumulative IPC: 0.967786 (Simulation time: 0 hr 57 min 43 sec) 
Heartbeat CPU 1 instructions: 180000002 cycles: 146250830 heartbeat IPC: 1.02051 cumulative IPC: 0.987811 (Simulation time: 1 hr 0 min 35 sec) 
Heartbeat CPU 3 instructions: 180000002 cycles: 147408378 heartbeat IPC: 1.01747 cumulative IPC: 0.979296 (Simulation time: 1 hr 1 min 3 sec) 
Heartbeat CPU 0 instructions: 180000002 cycles: 147960787 heartbeat IPC: 1.00754 cumulative IPC: 0.975264 (Simulation time: 1 hr 1 min 14 sec) 
Heartbeat CPU 2 instructions: 180000002 cycles: 148725482 heartbeat IPC: 0.993766 cumulative IPC: 0.969737 (Simulation time: 1 hr 1 min 32 sec) 
Heartbeat CPU 1 instructions: 190000000 cycles: 156075295 heartbeat IPC: 1.01787 cumulative IPC: 0.989899 (Simulation time: 1 hr 4 min 13 sec) 
Heartbeat CPU 3 instructions: 190000001 cycles: 157243294 heartbeat IPC: 1.01679 cumulative IPC: 0.981882 (Simulation time: 1 hr 4 min 38 sec) 
Heartbeat CPU 0 instructions: 190000001 cycles: 157879476 heartbeat IPC: 1.0082 cumulative IPC: 0.977545 (Simulation time: 1 hr 4 min 52 sec) 
Heartbeat CPU 2 instructions: 190000000 cycles: 158719240 heartbeat IPC: 1.00062 cumulative IPC: 0.971879 (Simulation time: 1 hr 5 min 7 sec) 
Heartbeat CPU 1 instructions: 200000001 cycles: 165692420 heartbeat IPC: 1.03981 cumulative IPC: 0.993078 (Simulation time: 1 hr 7 min 24 sec) 
Heartbeat CPU 3 instructions: 200000001 cycles: 167054645 heartbeat IPC: 1.01923 cumulative IPC: 0.984286 (Simulation time: 1 hr 7 min 49 sec) 
Heartbeat CPU 0 instructions: 200000002 cycles: 167748969 heartbeat IPC: 1.01322 cumulative IPC: 0.979845 (Simulation time: 1 hr 8 min 4 sec) 
Heartbeat CPU 2 instructions: 200000002 cycles: 168606041 heartbeat IPC: 1.01145 cumulative IPC: 0.974421 (Simulation time: 1 hr 8 min 22 sec) 
Heartbeat CPU 1 instructions: 210000003 cycles: 175301695 heartbeat IPC: 1.04066 cumulative IPC: 0.995924 (Simulation time: 1 hr 10 min 33 sec) 
Heartbeat CPU 3 instructions: 210000003 cycles: 176741795 heartbeat IPC: 1.0323 cumulative IPC: 0.987156 (Simulation time: 1 hr 11 min 4 sec) 
Heartbeat CPU 0 instructions: 210000003 cycles: 177439347 heartbeat IPC: 1.03195 cumulative IPC: 0.982947 (Simulation time: 1 hr 11 min 16 sec) 
Heartbeat CPU 2 instructions: 210000003 cycles: 178404797 heartbeat IPC: 1.02054 cumulative IPC: 0.977181 (Simulation time: 1 hr 11 min 37 sec) 
Heartbeat CPU 1 instructions: 220000000 cycles: 184999804 heartbeat IPC: 1.03113 cumulative IPC: 0.997929 (Simulation time: 1 hr 13 min 43 sec) 
Heartbeat CPU 3 instructions: 220000000 cycles: 186587835 heartbeat IPC: 1.01564 cumulative IPC: 0.988787 (Simulation time: 1 hr 14 min 18 sec) 
Heartbeat CPU 0 instructions: 220000000 cycles: 187284964 heartbeat IPC: 1.01568 cumulative IPC: 0.984814 (Simulation time: 1 hr 14 min 32 sec) 
Heartbeat CPU 2 instructions: 220000000 cycles: 188308992 heartbeat IPC: 1.00967 cumulative IPC: 0.979034 (Simulation time: 1 hr 14 min 49 sec) 
Heartbeat CPU 1 instructions: 230000001 cycles: 194913803 heartbeat IPC: 1.00867 cumulative IPC: 0.99852 (Simulation time: 1 hr 17 min 13 sec) 
Heartbeat CPU 3 instructions: 230000001 cycles: 196590537 heartbeat IPC: 0.99973 cumulative IPC: 0.989389 (Simulation time: 1 hr 17 min 48 sec) 
Heartbeat CPU 0 instructions: 230000001 cycles: 197237217 heartbeat IPC: 1.0048 cumulative IPC: 0.985904 (Simulation time: 1 hr 18 min 2 sec) 
Heartbeat CPU 2 instructions: 230000001 cycles: 198367840 heartbeat IPC: 0.99415 cumulative IPC: 0.979862 (Simulation time: 1 hr 18 min 24 sec) 
Heartbeat CPU 1 instructions: 240000001 cycles: 204826645 heartbeat IPC: 1.00879 cumulative IPC: 0.999055 (Simulation time: 1 hr 20 min 37 sec) 
Heartbeat CPU 3 instructions: 240000001 cycles: 206604036 heartbeat IPC: 0.998652 cumulative IPC: 0.989872 (Simulation time: 1 hr 21 min 14 sec) 
Heartbeat CPU 0 instructions: 240000001 cycles: 207198001 heartbeat IPC: 1.00394 cumulative IPC: 0.986837 (Simulation time: 1 hr 21 min 28 sec) 
Heartbeat CPU 2 instructions: 240000001 cycles: 208559620 heartbeat IPC: 0.981183 cumulative IPC: 0.979931 (Simulation time: 1 hr 21 min 55 sec) 
Heartbeat CPU 1 instructions: 250000000 cycles: 214546201 heartbeat IPC: 1.02885 cumulative IPC: 1.0005 (Simulation time: 1 hr 23 min 58 sec) 
Finished CPU 1 instructions: 200000003 cycles: 199894337 cumulative IPC: 1.00053 (Simulation time: 1 hr 23 min 58 sec) 
Heartbeat CPU 3 instructions: 250000000 cycles: 216433782 heartbeat IPC: 1.01732 cumulative IPC: 0.991209 (Simulation time: 1 hr 24 min 37 sec) 
Finished CPU 3 instructions: 200000000 cycles: 201771364 cumulative IPC: 0.991221 (Simulation time: 1 hr 24 min 37 sec) 
Heartbeat CPU 0 instructions: 250000000 cycles: 217009819 heartbeat IPC: 1.01918 cumulative IPC: 0.988405 (Simulation time: 1 hr 24 min 49 sec) 
Finished CPU 0 instructions: 200000003 cycles: 202344747 cumulative IPC: 0.988412 (Simulation time: 1 hr 24 min 49 sec) 
Heartbeat CPU 2 instructions: 250000000 cycles: 218527853 heartbeat IPC: 1.00319 cumulative IPC: 0.981068 (Simulation time: 1 hr 25 min 25 sec) 
Finished CPU 2 instructions: 200000002 cycles: 203859396 cumulative IPC: 0.981068 (Simulation time: 1 hr 25 min 25 sec) 

ChampSim completed all CPUs

Total Simulation Statistics (not including warmup)

CPU 0 cumulative IPC: 0.990326 instructions: 201887286 cycles: 203859396
ITLB TOTAL     ACCESS:   36472314  HIT:   36472313  MISS:          1  HIT %:        100  MISS %: 2.74181e-06   MPKI: 4.95326e-06
ITLB LOAD      ACCESS:          0  HIT:          0  MISS:          0  HIT %:       -nan  MISS %:       -nan   MPKI: 0
ITLB RFO       ACCESS:          0  HIT:          0  MISS:          0  HIT %:       -nan  MISS %:       -nan   MPKI: 0
ITLB PREFETCH  ACCESS:          0  HIT:          0  MISS:          0  HIT %:       -nan  MISS %:       -nan   MPKI: 0
ITLB WRITEBACK ACCESS:          0  HIT:          0  MISS:          0  HIT %:       -nan  MISS %:       -nan   MPKI: 0
DTLB TOTAL     ACCESS:   28599252  HIT:   28340953  MISS:     258299  HIT %:    99.0968  MISS %:   0.903167   MPKI: 1.27942
DTLB LOAD      ACCESS:          0  HIT:          0  MISS:          0  HIT %:       -nan  MISS %:       -nan   MPKI: 0
DTLB RFO       ACCESS:          0  HIT:          0  MISS:          0  HIT %:       -nan  MISS %:       -nan   MPKI: 0
DTLB PREFETCH  ACCESS:          0  HIT:          0  MISS:          0  HIT %:       -nan  MISS %:       -nan   MPKI: 0
DTLB WRITEBACK ACCESS:          0  HIT:          0  MISS:          0  HIT %:       -nan  MISS %:       -nan   MPKI: 0
STLB TOTAL     ACCESS:    3454785  HIT:    3381562  MISS:      73223  HIT %:    97.8805  MISS %:    2.11947   MPKI: 0.362692
STLB LOAD      ACCESS:          0  HIT:          0  MISS:          0  HIT %:       -nan  MISS %:       -nan   MPKI: 0
STLB RFO       ACCESS:          0  HIT:          0  MISS:          0  HIT %:       -nan  MISS %:       -nan   MPKI: 0
STLB PREFETCH  ACCESS:          0  HIT:          0  MISS:          0  HIT %:       -nan  MISS %:       -nan   MPKI: 0
STLB WRITEBACK ACCESS:          0  HIT:          0  MISS:          0  HIT %:       -nan  MISS %:       -nan   MPKI: 0
L1D TOTAL     ACCESS:   35904560  HIT:   32510576  MISS:    3393984  HIT %:    90.5472  MISS %:    9.45279   MPKI: 16.8113
L1D LOAD      ACCESS:   28173929  HIT:   27169948  MISS:    1003981  HIT %:    96.4365  MISS %:    3.56351   MPKI: 4.97298
L1D RFO       ACCESS:    2846739  HIT:    2676770  MISS:     169969  HIT %:    94.0293  MISS %:    5.97066   MPKI: 0.8419
L1D PREFETCH  ACCESS:    4883892  HIT:    2663858  MISS:    2220034  HIT %:    54.5438  MISS %:    45.4562   MPKI: 10.9964
L1D WRITEBACK ACCESS:          0  HIT:          0  MISS:          0  HIT %:       -nan  MISS %:       -nan   MPKI: 0
L1I TOTAL     ACCESS:   40830412  HIT:   40830173  MISS:        239  HIT %:    99.9994  MISS %: 0.000585348   MPKI: 0.00118383
L1I LOAD      ACCESS:   40830412  HIT:   40830173  MISS:        239  HIT %:    99.9994  MISS %: 0.000585348   MPKI: 0.00118383
L1I RFO       ACCESS:          0  HIT:          0  MISS:          0  HIT %:       -nan  MISS %:       -nan   MPKI: 0
L1I PREFETCH  ACCESS:          0  HIT:          0  MISS:          0  HIT %:       -nan  MISS %:       -nan   MPKI: 0
L1I WRITEBACK ACCESS:          0  HIT:          0  MISS:          0  HIT %:       -nan  MISS %:       -nan   MPKI: 0
L2C TOTAL     ACCESS:    3688883  HIT:     907759  MISS:    2781124  HIT %:     24.608  MISS %:     75.392   MPKI: 13.7756
L2C LOAD      ACCESS:     566315  HIT:     287222  MISS:     279093  HIT %:    50.7177  MISS %:    49.2823   MPKI: 1.38242
L2C RFO       ACCESS:     169949  HIT:      14567  MISS:     155382  HIT %:    8.57139  MISS %:    91.4286   MPKI: 0.769647
L2C PREFETCH  ACCESS:    2657949  HIT:     361408  MISS:    2296541  HIT %:    13.5973  MISS %:    86.4027   MPKI: 11.3754
L2C WRITEBACK ACCESS:     221447  HIT:     190927  MISS:      30520  HIT %:    86.2179  MISS %:    13.7821   MPKI: 0.151173
PSCL5 TOTAL     ACCESS:      73223  HIT:      73223  MISS:          0  HIT %:        100  MISS %:          0   MPKI: 0
PSCL5 LOAD      ACCESS:          0  HIT:          0  MISS:          0  HIT %:       -nan  MISS %:       -nan   MPKI: 0
PSCL5 RFO       ACCESS:          0  HIT:          0  MISS:          0  HIT %:       -nan  MISS %:       -nan   MPKI: 0
PSCL5 PREFETCH  ACCESS:          0  HIT:          0  MISS:          0  HIT %:       -nan  MISS %:       -nan   MPKI: 0
PSCL5 WRITEBACK ACCESS:          0  HIT:          0  MISS:          0  HIT %:       -nan  MISS %:       -nan   MPKI: 0
PSCL4 TOTAL     ACCESS:      73223  HIT:      73223  MISS:          0  HIT %:        100  MISS %:          0   MPKI: 0
PSCL4 LOAD      ACCESS:          0  HIT:          0  MISS:          0  HIT %:       -nan  MISS %:       -nan   MPKI: 0
PSCL4 RFO       ACCESS:          0  HIT:          0  MISS:          0  HIT %:       -nan  MISS %:       -nan   MPKI: 0
PSCL4 PREFETCH  ACCESS:          0  HIT:          0  MISS:          0  HIT %:       -nan  MISS %:       -nan   MPKI: 0
PSCL4 WRITEBACK ACCESS:          0  HIT:          0  MISS:          0  HIT %:       -nan  MISS %:       -nan   MPKI: 0
PSCL3 TOTAL     ACCESS:      73223  HIT:      73223  MISS:          0  HIT %:        100  MISS %:          0   MPKI: 0
PSCL3 LOAD      ACCESS:          0  HIT:          0  MISS:          0  HIT %:       -nan  MISS %:       -nan   MPKI: 0
PSCL3 RFO       ACCESS:          0  HIT:          0  MISS:          0  HIT %:       -nan  MISS %:       -nan   MPKI: 0
PSCL3 PREFETCH  ACCESS:          0  HIT:          0  MISS:          0  HIT %:       -nan  MISS %:       -nan   MPKI: 0
PSCL3 WRITEBACK ACCESS:          0  HIT:          0  MISS:          0  HIT %:       -nan  MISS %:       -nan   MPKI: 0
PSCL2 TOTAL     ACCESS:      73223  HIT:      73223  MISS:          0  HIT %:        100  MISS %:          0   MPKI: 0
PSCL2 LOAD      ACCESS:          0  HIT:          0  MISS:          0  HIT %:       -nan  MISS %:       -nan   MPKI: 0
PSCL2 RFO       ACCESS:          0  HIT:          0  MISS:          0  HIT %:       -nan  MISS %:       -nan   MPKI: 0
PSCL2 PREFETCH  ACCESS:          0  HIT:          0  MISS:          0  HIT %:       -nan  MISS %:       -nan   MPKI: 0
PSCL2 WRITEBACK ACCESS:          0  HIT:          0  MISS:          0  HIT %:       -nan  MISS %:       -nan   MPKI: 0

stream: 
stream:times selected: 6674394
stream:pref_filled: 640451
stream:pref_useful: 192455
stream:pref_late: 41418
stream:misses: 104012
stream:misses_by_poll: 0

CS: 
CS:times selected: 5088783
CS:pref_filled: 2208718
CS:pref_useful: 2029776
CS:pref_late: 389563
CS:misses: 1467795
CS:misses_by_poll: 15017

CPLX: 
CPLX:times selected: 1570375
CPLX:pref_filled: 39807
CPLX:pref_useful: 7002
CPLX:pref_late: 279
CPLX:misses: 493053
CPLX:misses_by_poll: 35

NL_L1: 
NL:times selected: 5965
NL:pref_filled: 1914
NL:pref_useful: 475
NL:pref_late: 28
NL:misses: 2325
NL:misses_by_poll: 0

total selections: 13339517
total_filled: 2220034
total_useful: 1694356
total_late: 440350
total_polluted: 15052
total_misses_after_warmup: 1968010
conflicts: 146741
Degree Incremented Times: 600668
Degree Decremented Times: 1839362

L1 IP Table Write Accesses: 116487444
L1 IP Table Read Accesses: 116340703
L1 RST Write Accesses: 21691830
L1 RST Read Accesses: 43383660
L1 CSPT Write Accesses: 21691830
L1 CSPT Read Accesses: 26739298
L1 RR Filter Tag Write Accesses: 23734249
L1 RR Filter Tag Read Accesses: 1707775849
L1 IP Table Tag Write Accesses: 116809338
L1 IP Table Tag Read Accesses: 116809338
L1 RST Tag Write Accesses: 0
L1 RST Tag Read Accesses: 210295181
L1 RR Filter Write Accesses: 0
L1 RR Filter Read Accesses: 71160358
test: 2941449
LLC TOTAL     ACCESS:    2951090  HIT:     574857  MISS:    2376233  HIT %:    19.4795  MISS %:    80.5205   MPKI: 11.7701
LLC LOAD      ACCESS:     279092  HIT:      97033  MISS:     182059  HIT %:    34.7674  MISS %:    65.2326   MPKI: 0.901785
LLC RFO       ACCESS:     155381  HIT:      87406  MISS:      67975  HIT %:    56.2527  MISS %:    43.7473   MPKI: 0.336698
LLC PREFETCH  ACCESS:    2296540  HIT:     188595  MISS:    2107945  HIT %:    8.21214  MISS %:    91.7879   MPKI: 10.4412
LLC WRITEBACK ACCESS:     200489  HIT:     198321  MISS:       2168  HIT %:    98.9186  MISS %:    1.08136   MPKI: 0.0107387

RAW hits: 309447
Loads Generated: 51774679
Loads sent to L1D: 51465234
Stores Generated: 3768431
Stores sent to L1D: 3768431

CPU 1 cumulative IPC: 0.999976 instructions: 203854580 cycles: 203859396
ITLB TOTAL     ACCESS:   36840005  HIT:   36840004  MISS:          1  HIT %:        100  MISS %: 2.71444e-06   MPKI: 4.90546e-06
ITLB LOAD      ACCESS:          0  HIT:          0  MISS:          0  HIT %:       -nan  MISS %:       -nan   MPKI: 0
ITLB RFO       ACCESS:          0  HIT:          0  MISS:          0  HIT %:       -nan  MISS %:       -nan   MPKI: 0
ITLB PREFETCH  ACCESS:          0  HIT:          0  MISS:          0  HIT %:       -nan  MISS %:       -nan   MPKI: 0
ITLB WRITEBACK ACCESS:          0  HIT:          0  MISS:          0  HIT %:       -nan  MISS %:       -nan   MPKI: 0
DTLB TOTAL     ACCESS:   29010720  HIT:   28748751  MISS:     261969  HIT %:     99.097  MISS %:   0.903008   MPKI: 1.28508
DTLB LOAD      ACCESS:          0  HIT:          0  MISS:          0  HIT %:       -nan  MISS %:       -nan   MPKI: 0
DTLB RFO       ACCESS:          0  HIT:          0  MISS:          0  HIT %:       -nan  MISS %:       -nan   MPKI: 0
DTLB PREFETCH  ACCESS:          0  HIT:          0  MISS:          0  HIT %:       -nan  MISS %:       -nan   MPKI: 0
DTLB WRITEBACK ACCESS:          0  HIT:          0  MISS:          0  HIT %:       -nan  MISS %:       -nan   MPKI: 0
STLB TOTAL     ACCESS:    3544334  HIT:    3470096  MISS:      74238  HIT %:    97.9054  MISS %:    2.09455   MPKI: 0.364171
STLB LOAD      ACCESS:          0  HIT:          0  MISS:          0  HIT %:       -nan  MISS %:       -nan   MPKI: 0
STLB RFO       ACCESS:          0  HIT:          0  MISS:          0  HIT %:       -nan  MISS %:       -nan   MPKI: 0
STLB PREFETCH  ACCESS:          0  HIT:          0  MISS:          0  HIT %:       -nan  MISS %:       -nan   MPKI: 0
STLB WRITEBACK ACCESS:          0  HIT:          0  MISS:          0  HIT %:       -nan  MISS %:       -nan   MPKI: 0
L1D TOTAL     ACCESS:   36629631  HIT:   33201799  MISS:    3427832  HIT %:    90.6419  MISS %:    9.35808   MPKI: 16.8151
L1D LOAD      ACCESS:   28629686  HIT:   27634390  MISS:     995296  HIT %:    96.5236  MISS %:    3.47645   MPKI: 4.88238
L1D RFO       ACCESS:    2943132  HIT:    2771559  MISS:     171573  HIT %:    94.1704  MISS %:    5.82961   MPKI: 0.841644
L1D PREFETCH  ACCESS:    5056813  HIT:    2795850  MISS:    2260963  HIT %:    55.2888  MISS %:    44.7112   MPKI: 11.0911
L1D WRITEBACK ACCESS:          0  HIT:          0  MISS:          0  HIT %:       -nan  MISS %:       -nan   MPKI: 0
L1I TOTAL     ACCESS:   41250392  HIT:   41250129  MISS:        263  HIT %:    99.9994  MISS %: 0.00063757   MPKI: 0.00129014
L1I LOAD      ACCESS:   41250392  HIT:   41250129  MISS:        263  HIT %:    99.9994  MISS %: 0.00063757   MPKI: 0.00129014
L1I RFO       ACCESS:          0  HIT:          0  MISS:          0  HIT %:       -nan  MISS %:       -nan   MPKI: 0
L1I PREFETCH  ACCESS:          0  HIT:          0  MISS:          0  HIT %:       -nan  MISS %:       -nan   MPKI: 0
L1I WRITEBACK ACCESS:          0  HIT:          0  MISS:          0  HIT %:       -nan  MISS %:       -nan   MPKI: 0
L2C TOTAL     ACCESS:    3726249  HIT:     905778  MISS:    2820471  HIT %:     24.308  MISS %:     75.692   MPKI: 13.8357
L2C LOAD      ACCESS:     576362  HIT:     288788  MISS:     287574  HIT %:    50.1053  MISS %:    49.8947   MPKI: 1.41068
L2C RFO       ACCESS:     171544  HIT:      17617  MISS:     153927  HIT %:    10.2697  MISS %:    89.7303   MPKI: 0.755082
L2C PREFETCH  ACCESS:    2680178  HIT:     358447  MISS:    2321731  HIT %:     13.374  MISS %:     86.626   MPKI: 11.3892
L2C WRITEBACK ACCESS:     223927  HIT:     186570  MISS:      37357  HIT %:    83.3173  MISS %:    16.6827   MPKI: 0.183253
PSCL5 TOTAL     ACCESS:      74238  HIT:      74238  MISS:          0  HIT %:        100  MISS %:          0   MPKI: 0
PSCL5 LOAD      ACCESS:          0  HIT:          0  MISS:          0  HIT %:       -nan  MISS %:       -nan   MPKI: 0
PSCL5 RFO       ACCESS:          0  HIT:          0  MISS:          0  HIT %:       -nan  MISS %:       -nan   MPKI: 0
PSCL5 PREFETCH  ACCESS:          0  HIT:          0  MISS:          0  HIT %:       -nan  MISS %:       -nan   MPKI: 0
PSCL5 WRITEBACK ACCESS:          0  HIT:          0  MISS:          0  HIT %:       -nan  MISS %:       -nan   MPKI: 0
PSCL4 TOTAL     ACCESS:      74238  HIT:      74238  MISS:          0  HIT %:        100  MISS %:          0   MPKI: 0
PSCL4 LOAD      ACCESS:          0  HIT:          0  MISS:          0  HIT %:       -nan  MISS %:       -nan   MPKI: 0
PSCL4 RFO       ACCESS:          0  HIT:          0  MISS:          0  HIT %:       -nan  MISS %:       -nan   MPKI: 0
PSCL4 PREFETCH  ACCESS:          0  HIT:          0  MISS:          0  HIT %:       -nan  MISS %:       -nan   MPKI: 0
PSCL4 WRITEBACK ACCESS:          0  HIT:          0  MISS:          0  HIT %:       -nan  MISS %:       -nan   MPKI: 0
PSCL3 TOTAL     ACCESS:      74238  HIT:      74238  MISS:          0  HIT %:        100  MISS %:          0   MPKI: 0
PSCL3 LOAD      ACCESS:          0  HIT:          0  MISS:          0  HIT %:       -nan  MISS %:       -nan   MPKI: 0
PSCL3 RFO       ACCESS:          0  HIT:          0  MISS:          0  HIT %:       -nan  MISS %:       -nan   MPKI: 0
PSCL3 PREFETCH  ACCESS:          0  HIT:          0  MISS:          0  HIT %:       -nan  MISS %:       -nan   MPKI: 0
PSCL3 WRITEBACK ACCESS:          0  HIT:          0  MISS:          0  HIT %:       -nan  MISS %:       -nan   MPKI: 0
PSCL2 TOTAL     ACCESS:      74238  HIT:      74238  MISS:          0  HIT %:        100  MISS %:          0   MPKI: 0
PSCL2 LOAD      ACCESS:          0  HIT:          0  MISS:          0  HIT %:       -nan  MISS %:       -nan   MPKI: 0
PSCL2 RFO       ACCESS:          0  HIT:          0  MISS:          0  HIT %:       -nan  MISS %:       -nan   MPKI: 0
PSCL2 PREFETCH  ACCESS:          0  HIT:          0  MISS:          0  HIT %:       -nan  MISS %:       -nan   MPKI: 0
PSCL2 WRITEBACK ACCESS:          0  HIT:          0  MISS:          0  HIT %:       -nan  MISS %:       -nan   MPKI: 0

stream: 
stream:times selected: 6747936
stream:pref_filled: 645536
stream:pref_useful: 191335
stream:pref_late: 41165
stream:misses: 106088
stream:misses_by_poll: 0

CS: 
CS:times selected: 5131268
CS:pref_filled: 2241061
CS:pref_useful: 2059693
CS:pref_late: 371125
CS:misses: 1437268
CS:misses_by_poll: 14188

CPLX: 
CPLX:times selected: 1600378
CPLX:pref_filled: 40258
CPLX:pref_useful: 7256
CPLX:pref_late: 297
CPLX:misses: 499606
CPLX:misses_by_poll: 26

NL_L1: 
NL:times selected: 6269
NL:pref_filled: 2024
NL:pref_useful: 528
NL:pref_late: 22
NL:misses: 2444
NL:misses_by_poll: 0

total selections: 13485851
total_filled: 2260963
total_useful: 1725643
total_late: 421596
total_polluted: 14214
total_misses_after_warmup: 1944252
conflicts: 146741
Degree Incremented Times: 600668
Degree Decremented Times: 1839362

L1 IP Table Write Accesses: 116487444
L1 IP Table Read Accesses: 116340703
L1 RST Write Accesses: 21691830
L1 RST Read Accesses: 43383660
L1 CSPT Write Accesses: 21691830
L1 CSPT Read Accesses: 26739298
L1 RR Filter Tag Write Accesses: 23734249
L1 RR Filter Tag Read Accesses: 1707775849
L1 IP Table Tag Write Accesses: 116809338
L1 IP Table Tag Read Accesses: 116809338
L1 RST Tag Write Accesses: 0
L1 RST Tag Read Accesses: 210295181
L1 RR Filter Write Accesses: 0
L1 RR Filter Read Accesses: 71160358
test: 2941449
LLC TOTAL     ACCESS:    2983822  HIT:     634414  MISS:    2349408  HIT %:    21.2618  MISS %:    78.7382   MPKI: 11.5249
LLC LOAD      ACCESS:     287572  HIT:     103018  MISS:     184554  HIT %:    35.8234  MISS %:    64.1766   MPKI: 0.905322
LLC RFO       ACCESS:     153923  HIT:      91085  MISS:      62838  HIT %:    59.1757  MISS %:    40.8243   MPKI: 0.308249
LLC PREFETCH  ACCESS:    2321729  HIT:     237330  MISS:    2084399  HIT %:    10.2221  MISS %:    89.7779   MPKI: 10.2249
LLC WRITEBACK ACCESS:     200716  HIT:     198639  MISS:       2077  HIT %:    98.9652  MISS %:     1.0348   MPKI: 0.0101886

RAW hits: 317231
Loads Generated: 52296953
Loads sent to L1D: 51979718
Stores Generated: 3886475
Stores sent to L1D: 3886473

CPU 2 cumulative IPC: 0.981068 instructions: 200000002 cycles: 203859396
ITLB TOTAL     ACCESS:   36184453  HIT:   36184452  MISS:          1  HIT %:        100  MISS %: 2.76362e-06   MPKI: 5e-06
ITLB LOAD      ACCESS:          0  HIT:          0  MISS:          0  HIT %:       -nan  MISS %:       -nan   MPKI: 0
ITLB RFO       ACCESS:          0  HIT:          0  MISS:          0  HIT %:       -nan  MISS %:       -nan   MPKI: 0
ITLB PREFETCH  ACCESS:          0  HIT:          0  MISS:          0  HIT %:       -nan  MISS %:       -nan   MPKI: 0
ITLB WRITEBACK ACCESS:          0  HIT:          0  MISS:          0  HIT %:       -nan  MISS %:       -nan   MPKI: 0
DTLB TOTAL     ACCESS:   28312631  HIT:   28055212  MISS:     257419  HIT %:    99.0908  MISS %:   0.909202   MPKI: 1.28709
DTLB LOAD      ACCESS:          0  HIT:          0  MISS:          0  HIT %:       -nan  MISS %:       -nan   MPKI: 0
DTLB RFO       ACCESS:          0  HIT:          0  MISS:          0  HIT %:       -nan  MISS %:       -nan   MPKI: 0
DTLB PREFETCH  ACCESS:          0  HIT:          0  MISS:          0  HIT %:       -nan  MISS %:       -nan   MPKI: 0
DTLB WRITEBACK ACCESS:          0  HIT:          0  MISS:          0  HIT %:       -nan  MISS %:       -nan   MPKI: 0
STLB TOTAL     ACCESS:    3438181  HIT:    3365409  MISS:      72772  HIT %:    97.8834  MISS %:    2.11658   MPKI: 0.36386
STLB LOAD      ACCESS:          0  HIT:          0  MISS:          0  HIT %:       -nan  MISS %:       -nan   MPKI: 0
STLB RFO       ACCESS:          0  HIT:          0  MISS:          0  HIT %:       -nan  MISS %:       -nan   MPKI: 0
STLB PREFETCH  ACCESS:          0  HIT:          0  MISS:          0  HIT %:       -nan  MISS %:       -nan   MPKI: 0
STLB WRITEBACK ACCESS:          0  HIT:          0  MISS:          0  HIT %:       -nan  MISS %:       -nan   MPKI: 0
L1D TOTAL     ACCESS:   35576718  HIT:   32210705  MISS:    3366013  HIT %:    90.5387  MISS %:    9.46128   MPKI: 16.8301
L1D LOAD      ACCESS:   27888641  HIT:   26892374  MISS:     996267  HIT %:    96.4277  MISS %:     3.5723   MPKI: 4.98133
L1D RFO       ACCESS:    2805890  HIT:    2636673  MISS:     169217  HIT %:    93.9692  MISS %:    6.03078   MPKI: 0.846085
L1D PREFETCH  ACCESS:    4882187  HIT:    2681658  MISS:    2200529  HIT %:    54.9274  MISS %:    45.0726   MPKI: 11.0026
L1D WRITEBACK ACCESS:          0  HIT:          0  MISS:          0  HIT %:       -nan  MISS %:       -nan   MPKI: 0
L1I TOTAL     ACCESS:   40476346  HIT:   40476107  MISS:        239  HIT %:    99.9994  MISS %: 0.000590468   MPKI: 0.001195
L1I LOAD      ACCESS:   40476346  HIT:   40476107  MISS:        239  HIT %:    99.9994  MISS %: 0.000590468   MPKI: 0.001195
L1I RFO       ACCESS:          0  HIT:          0  MISS:          0  HIT %:       -nan  MISS %:       -nan   MPKI: 0
L1I PREFETCH  ACCESS:          0  HIT:          0  MISS:          0  HIT %:       -nan  MISS %:       -nan   MPKI: 0
L1I WRITEBACK ACCESS:          0  HIT:          0  MISS:          0  HIT %:       -nan  MISS %:       -nan   MPKI: 0
L2C TOTAL     ACCESS:    3659656  HIT:     890726  MISS:    2768930  HIT %:    24.3391  MISS %:    75.6609   MPKI: 13.8446
L2C LOAD      ACCESS:     564849  HIT:     284941  MISS:     279908  HIT %:    50.4455  MISS %:    49.5545   MPKI: 1.39954
L2C RFO       ACCESS:     169188  HIT:      16663  MISS:     152525  HIT %:    9.84881  MISS %:    90.1512   MPKI: 0.762625
L2C PREFETCH  ACCESS:    2632201  HIT:     349649  MISS:    2282552  HIT %:    13.2835  MISS %:    86.7165   MPKI: 11.4128
L2C WRITEBACK ACCESS:     220646  HIT:     186184  MISS:      34462  HIT %:    84.3813  MISS %:    15.6187   MPKI: 0.17231
PSCL5 TOTAL     ACCESS:      72772  HIT:      72772  MISS:          0  HIT %:        100  MISS %:          0   MPKI: 0
PSCL5 LOAD      ACCESS:          0  HIT:          0  MISS:          0  HIT %:       -nan  MISS %:       -nan   MPKI: 0
PSCL5 RFO       ACCESS:          0  HIT:          0  MISS:          0  HIT %:       -nan  MISS %:       -nan   MPKI: 0
PSCL5 PREFETCH  ACCESS:          0  HIT:          0  MISS:          0  HIT %:       -nan  MISS %:       -nan   MPKI: 0
PSCL5 WRITEBACK ACCESS:          0  HIT:          0  MISS:          0  HIT %:       -nan  MISS %:       -nan   MPKI: 0
PSCL4 TOTAL     ACCESS:      72772  HIT:      72772  MISS:          0  HIT %:        100  MISS %:          0   MPKI: 0
PSCL4 LOAD      ACCESS:          0  HIT:          0  MISS:          0  HIT %:       -nan  MISS %:       -nan   MPKI: 0
PSCL4 RFO       ACCESS:          0  HIT:          0  MISS:          0  HIT %:       -nan  MISS %:       -nan   MPKI: 0
PSCL4 PREFETCH  ACCESS:          0  HIT:          0  MISS:          0  HIT %:       -nan  MISS %:       -nan   MPKI: 0
PSCL4 WRITEBACK ACCESS:          0  HIT:          0  MISS:          0  HIT %:       -nan  MISS %:       -nan   MPKI: 0
PSCL3 TOTAL     ACCESS:      72772  HIT:      72772  MISS:          0  HIT %:        100  MISS %:          0   MPKI: 0
PSCL3 LOAD      ACCESS:          0  HIT:          0  MISS:          0  HIT %:       -nan  MISS %:       -nan   MPKI: 0
PSCL3 RFO       ACCESS:          0  HIT:          0  MISS:          0  HIT %:       -nan  MISS %:       -nan   MPKI: 0
PSCL3 PREFETCH  ACCESS:          0  HIT:          0  MISS:          0  HIT %:       -nan  MISS %:       -nan   MPKI: 0
PSCL3 WRITEBACK ACCESS:          0  HIT:          0  MISS:          0  HIT %:       -nan  MISS %:       -nan   MPKI: 0
PSCL2 TOTAL     ACCESS:      72772  HIT:      72772  MISS:          0  HIT %:        100  MISS %:          0   MPKI: 0
PSCL2 LOAD      ACCESS:          0  HIT:          0  MISS:          0  HIT %:       -nan  MISS %:       -nan   MPKI: 0
PSCL2 RFO       ACCESS:          0  HIT:          0  MISS:          0  HIT %:       -nan  MISS %:       -nan   MPKI: 0
PSCL2 PREFETCH  ACCESS:          0  HIT:          0  MISS:          0  HIT %:       -nan  MISS %:       -nan   MPKI: 0
PSCL2 WRITEBACK ACCESS:          0  HIT:          0  MISS:          0  HIT %:       -nan  MISS %:       -nan   MPKI: 0

stream: 
stream:times selected: 6631273
stream:pref_filled: 636496
stream:pref_useful: 191382
stream:pref_late: 41480
stream:misses: 104585
stream:misses_by_poll: 0

CS: 
CS:times selected: 5047921
CS:pref_filled: 2183381
CS:pref_useful: 2006154
CS:pref_late: 383148
CS:misses: 1453706
CS:misses_by_poll: 14267

CPLX: 
CPLX:times selected: 1568113
CPLX:pref_filled: 39760
CPLX:pref_useful: 7043
CPLX:pref_late: 303
CPLX:misses: 492353
CPLX:misses_by_poll: 31

NL_L1: 
NL:times selected: 5957
NL:pref_filled: 1946
NL:pref_useful: 452
NL:pref_late: 34
NL:misses: 2329
NL:misses_by_poll: 0

total selections: 13253264
total_filled: 2200529
total_useful: 1677174
total_late: 434049
total_polluted: 14298
total_misses_after_warmup: 1945690
conflicts: 146741
Degree Incremented Times: 600668
Degree Decremented Times: 1839362

L1 IP Table Write Accesses: 116487444
L1 IP Table Read Accesses: 116340703
L1 RST Write Accesses: 21691830
L1 RST Read Accesses: 43383660
L1 CSPT Write Accesses: 21691830
L1 CSPT Read Accesses: 26739298
L1 RR Filter Tag Write Accesses: 23734249
L1 RR Filter Tag Read Accesses: 1707775849
L1 IP Table Tag Write Accesses: 116809338
L1 IP Table Tag Read Accesses: 116809338
L1 RST Tag Write Accesses: 0
L1 RST Tag Read Accesses: 210295181
L1 RR Filter Write Accesses: 0
L1 RR Filter Read Accesses: 71160358
test: 2941449
LLC TOTAL     ACCESS:    2933111  HIT:     466314  MISS:    2466797  HIT %:    15.8983  MISS %:    84.1017   MPKI: 12.334
LLC LOAD      ACCESS:     279903  HIT:      84565  MISS:     195338  HIT %:    30.2123  MISS %:    69.7877   MPKI: 0.97669
LLC RFO       ACCESS:     152522  HIT:      87817  MISS:      64705  HIT %:    57.5766  MISS %:    42.4234   MPKI: 0.323525
LLC PREFETCH  ACCESS:    2282551  HIT:     151330  MISS:    2131221  HIT %:    6.62986  MISS %:    93.3701   MPKI: 10.6561
LLC WRITEBACK ACCESS:     198652  HIT:     140326  MISS:      58326  HIT %:    70.6391  MISS %:    29.3609   MPKI: 0.29163

RAW hits: 309319
Loads Generated: 51307903
Loads sent to L1D: 50998580
Stores Generated: 3751816
Stores sent to L1D: 3751814

CPU 3 cumulative IPC: 0.992569 instructions: 202344529 cycles: 203859397
ITLB TOTAL     ACCESS:   36563717  HIT:   36563716  MISS:          1  HIT %:        100  MISS %: 2.73495e-06   MPKI: 4.94207e-06
ITLB LOAD      ACCESS:          0  HIT:          0  MISS:          0  HIT %:       -nan  MISS %:       -nan   MPKI: 0
ITLB RFO       ACCESS:          0  HIT:          0  MISS:          0  HIT %:       -nan  MISS %:       -nan   MPKI: 0
ITLB PREFETCH  ACCESS:          0  HIT:          0  MISS:          0  HIT %:       -nan  MISS %:       -nan   MPKI: 0
ITLB WRITEBACK ACCESS:          0  HIT:          0  MISS:          0  HIT %:       -nan  MISS %:       -nan   MPKI: 0
DTLB TOTAL     ACCESS:   28685038  HIT:   28425701  MISS:     259337  HIT %:    99.0959  MISS %:   0.904085   MPKI: 1.28166
DTLB LOAD      ACCESS:          0  HIT:          0  MISS:          0  HIT %:       -nan  MISS %:       -nan   MPKI: 0
DTLB RFO       ACCESS:          0  HIT:          0  MISS:          0  HIT %:       -nan  MISS %:       -nan   MPKI: 0
DTLB PREFETCH  ACCESS:          0  HIT:          0  MISS:          0  HIT %:       -nan  MISS %:       -nan   MPKI: 0
DTLB WRITEBACK ACCESS:          0  HIT:          0  MISS:          0  HIT %:       -nan  MISS %:       -nan   MPKI: 0
STLB TOTAL     ACCESS:    3471119  HIT:    3397630  MISS:      73489  HIT %:    97.8828  MISS %:    2.11716   MPKI: 0.363187
STLB LOAD      ACCESS:          0  HIT:          0  MISS:          0  HIT %:       -nan  MISS %:       -nan   MPKI: 0
STLB RFO       ACCESS:          0  HIT:          0  MISS:          0  HIT %:       -nan  MISS %:       -nan   MPKI: 0
STLB PREFETCH  ACCESS:          0  HIT:          0  MISS:          0  HIT %:       -nan  MISS %:       -nan   MPKI: 0
STLB WRITEBACK ACCESS:          0  HIT:          0  MISS:          0  HIT %:       -nan  MISS %:       -nan   MPKI: 0
L1D TOTAL     ACCESS:   36033095  HIT:   32628933  MISS:    3404162  HIT %:    90.5527  MISS %:    9.44732   MPKI: 16.8236
L1D LOAD      ACCESS:   28275355  HIT:   27270571  MISS:    1004784  HIT %:    96.4464  MISS %:    3.55357   MPKI: 4.96571
L1D RFO       ACCESS:    2851454  HIT:    2681347  MISS:     170107  HIT %:    94.0344  MISS %:    5.96562   MPKI: 0.84068
L1D PREFETCH  ACCESS:    4906286  HIT:    2677015  MISS:    2229271  HIT %:     54.563  MISS %:     45.437   MPKI: 11.0172
L1D WRITEBACK ACCESS:          0  HIT:          0  MISS:          0  HIT %:       -nan  MISS %:       -nan   MPKI: 0
L1I TOTAL     ACCESS:   40924895  HIT:   40924656  MISS:        239  HIT %:    99.9994  MISS %: 0.000583997   MPKI: 0.00118115
L1I LOAD      ACCESS:   40924895  HIT:   40924656  MISS:        239  HIT %:    99.9994  MISS %: 0.000583997   MPKI: 0.00118115
L1I RFO       ACCESS:          0  HIT:          0  MISS:          0  HIT %:       -nan  MISS %:       -nan   MPKI: 0
L1I PREFETCH  ACCESS:          0  HIT:          0  MISS:          0  HIT %:       -nan  MISS %:       -nan   MPKI: 0
L1I WRITEBACK ACCESS:          0  HIT:          0  MISS:          0  HIT %:       -nan  MISS %:       -nan   MPKI: 0
L2C TOTAL     ACCESS:    3699494  HIT:     889441  MISS:    2810053  HIT %:    24.0422  MISS %:    75.9578   MPKI: 13.8875
L2C LOAD      ACCESS:     569399  HIT:     284577  MISS:     284822  HIT %:    49.9785  MISS %:    50.0215   MPKI: 1.40761
L2C RFO       ACCESS:     170084  HIT:      14496  MISS:     155588  HIT %:    8.52285  MISS %:    91.4772   MPKI: 0.768926
L2C PREFETCH  ACCESS:    2664907  HIT:     350176  MISS:    2314731  HIT %:    13.1403  MISS %:    86.8597   MPKI: 11.4396
L2C WRITEBACK ACCESS:     221615  HIT:     186246  MISS:      35369  HIT %:    84.0403  MISS %:    15.9597   MPKI: 0.174796
PSCL5 TOTAL     ACCESS:      73489  HIT:      73489  MISS:          0  HIT %:        100  MISS %:          0   MPKI: 0
PSCL5 LOAD      ACCESS:          0  HIT:          0  MISS:          0  HIT %:       -nan  MISS %:       -nan   MPKI: 0
PSCL5 RFO       ACCESS:          0  HIT:          0  MISS:          0  HIT %:       -nan  MISS %:       -nan   MPKI: 0
PSCL5 PREFETCH  ACCESS:          0  HIT:          0  MISS:          0  HIT %:       -nan  MISS %:       -nan   MPKI: 0
PSCL5 WRITEBACK ACCESS:          0  HIT:          0  MISS:          0  HIT %:       -nan  MISS %:       -nan   MPKI: 0
PSCL4 TOTAL     ACCESS:      73489  HIT:      73489  MISS:          0  HIT %:        100  MISS %:          0   MPKI: 0
PSCL4 LOAD      ACCESS:          0  HIT:          0  MISS:          0  HIT %:       -nan  MISS %:       -nan   MPKI: 0
PSCL4 RFO       ACCESS:          0  HIT:          0  MISS:          0  HIT %:       -nan  MISS %:       -nan   MPKI: 0
PSCL4 PREFETCH  ACCESS:          0  HIT:          0  MISS:          0  HIT %:       -nan  MISS %:       -nan   MPKI: 0
PSCL4 WRITEBACK ACCESS:          0  HIT:          0  MISS:          0  HIT %:       -nan  MISS %:       -nan   MPKI: 0
PSCL3 TOTAL     ACCESS:      73489  HIT:      73489  MISS:          0  HIT %:        100  MISS %:          0   MPKI: 0
PSCL3 LOAD      ACCESS:          0  HIT:          0  MISS:          0  HIT %:       -nan  MISS %:       -nan   MPKI: 0
PSCL3 RFO       ACCESS:          0  HIT:          0  MISS:          0  HIT %:       -nan  MISS %:       -nan   MPKI: 0
PSCL3 PREFETCH  ACCESS:          0  HIT:          0  MISS:          0  HIT %:       -nan  MISS %:       -nan   MPKI: 0
PSCL3 WRITEBACK ACCESS:          0  HIT:          0  MISS:          0  HIT %:       -nan  MISS %:       -nan   MPKI: 0
PSCL2 TOTAL     ACCESS:      73489  HIT:      73489  MISS:          0  HIT %:        100  MISS %:          0   MPKI: 0
PSCL2 LOAD      ACCESS:          0  HIT:          0  MISS:          0  HIT %:       -nan  MISS %:       -nan   MPKI: 0
PSCL2 RFO       ACCESS:          0  HIT:          0  MISS:          0  HIT %:       -nan  MISS %:       -nan   MPKI: 0
PSCL2 PREFETCH  ACCESS:          0  HIT:          0  MISS:          0  HIT %:       -nan  MISS %:       -nan   MPKI: 0
PSCL2 WRITEBACK ACCESS:          0  HIT:          0  MISS:          0  HIT %:       -nan  MISS %:       -nan   MPKI: 0

stream: 
stream:times selected: 6689997
stream:pref_filled: 643842
stream:pref_useful: 194417
stream:pref_late: 41759
stream:misses: 104954
stream:misses_by_poll: 0

CS: 
CS:times selected: 5099387
CS:pref_filled: 2205039
CS:pref_useful: 2025515
CS:pref_late: 387238
CS:misses: 1474600
CS:misses_by_poll: 13337

CPLX: 
CPLX:times selected: 1575352
CPLX:pref_filled: 40001
CPLX:pref_useful: 7041
CPLX:pref_late: 280
CPLX:misses: 495466
CPLX:misses_by_poll: 45

NL_L1: 
NL:times selected: 5959
NL:pref_filled: 1956
NL:pref_useful: 502
NL:pref_late: 16
NL:misses: 2304
NL:misses_by_poll: 0

total selections: 13370695
total_filled: 2229271
total_useful: 1700902
total_late: 438187
total_polluted: 13382
total_misses_after_warmup: 1968301
conflicts: 146741
Degree Incremented Times: 600668
Degree Decremented Times: 1839362

L1 IP Table Write Accesses: 116487444
L1 IP Table Read Accesses: 116340703
L1 RST Write Accesses: 21691830
L1 RST Read Accesses: 43383660
L1 CSPT Write Accesses: 21691830
L1 CSPT Read Accesses: 26739298
L1 RR Filter Tag Write Accesses: 23734249
L1 RR Filter Tag Read Accesses: 1707775849
L1 IP Table Tag Write Accesses: 116809338
L1 IP Table Tag Read Accesses: 116809338
L1 RST Tag Write Accesses: 0
L1 RST Tag Read Accesses: 210295181
L1 RR Filter Write Accesses: 0
L1 RR Filter Read Accesses: 71160358
test: 2941449
LLC TOTAL     ACCESS:    2975398  HIT:     599838  MISS:    2375560  HIT %:    20.1599  MISS %:    79.8401   MPKI: 11.7402
LLC LOAD      ACCESS:     284822  HIT:     103736  MISS:     181086  HIT %:    36.4213  MISS %:    63.5787   MPKI: 0.894939
LLC RFO       ACCESS:     155586  HIT:      94666  MISS:      60920  HIT %:    60.8448  MISS %:    39.1552   MPKI: 0.301071
LLC PREFETCH  ACCESS:    2314728  HIT:     199559  MISS:    2115169  HIT %:    8.62127  MISS %:    91.3787   MPKI: 10.4533
LLC WRITEBACK ACCESS:     200719  HIT:     198811  MISS:       1908  HIT %:    99.0494  MISS %:   0.950583   MPKI: 0.00942946

RAW hits: 310179
Loads Generated: 51895932
Loads sent to L1D: 51585752
Stores Generated: 3777790
Stores sent to L1D: 3777790

Region of Interest Statistics

CPU 0 cumulative IPC: 0.988412 instructions: 200000003 cycles: 202344747
ITLB TOTAL     ACCESS:   36187046  HIT:   36187045  MISS:          1  HIT %:        100  MISS %: 2.76342e-06   MPKI: 5e-06
ITLB LOAD TRANSLATION ACCESS:   36187046  HIT:   36187045  MISS:          1  HIT %:        100  MISS %: 2.76342e-06   MPKI: 5e-06
ITLB PREFETCH  REQUESTED:          0  ISSUED:          0  USEFUL:          0  USELESS:          0
ITLB USEFUL LOAD PREFETCHES:          0 PREFETCH ISSUED TO LOWER LEVEL:          0  ACCURACY: -nan
ITLB TIMELY PREFETCHES:          0 LATE PREFETCHES: 0 DROPPED PREFETCHES: 0
ITLB PREFETCHES SAME FILL-ORIGIN LEVEL: 0 DIFFERENT FILL-ORIGIN LEVEL: 0
ITLB AVERAGE MISS LATENCY: 320 cycles
ITLB RQ	ACCESS:   40830513	FORWARD:          0	MERGED:    4358199	TO_CACHE:   36472314

DTLB TOTAL     ACCESS:   28380890  HIT:   28123490  MISS:     257400  HIT %:    99.0931  MISS %:   0.906948   MPKI: 1.287
DTLB LOAD TRANSLATION ACCESS:   28380890  HIT:   28123490  MISS:     257400  HIT %:    99.0931  MISS %:   0.906948   MPKI: 1.287
DTLB PREFETCH  REQUESTED:          0  ISSUED:          0  USEFUL:          0  USELESS:          0
DTLB USEFUL LOAD PREFETCHES:          0 PREFETCH ISSUED TO LOWER LEVEL:          0  ACCURACY: -nan
DTLB TIMELY PREFETCHES:          0 LATE PREFETCHES: 0 DROPPED PREFETCHES: 0
DTLB PREFETCHES SAME FILL-ORIGIN LEVEL: 0 DIFFERENT FILL-ORIGIN LEVEL: 0
DTLB AVERAGE MISS LATENCY: 44.1287 cycles
DTLB RQ	ACCESS:   32891878	FORWARD:          0	MERGED:    4245832	TO_CACHE:   28646046

STLB TOTAL     ACCESS:    3427954  HIT:    3355184  MISS:      72770  HIT %:    97.8772  MISS %:    2.12284   MPKI: 0.36385
STLB LOAD TRANSLATION ACCESS:     257401  HIT:     184631  MISS:      72770  HIT %:    71.7289  MISS %:    28.2711   MPKI: 0.36385
STLB TRANSLATION FROM L1D PREFETCHER ACCESS:    3170553  HIT:    3170553  MISS:          0  HIT %:        100  MISS %:          0   MPKI: 0
STLB PREFETCH  REQUESTED:          0  ISSUED:          0  USEFUL:          0  USELESS:          0
STLB USEFUL LOAD PREFETCHES:          0 PREFETCH ISSUED TO LOWER LEVEL:          0  ACCURACY: -nan
STLB TIMELY PREFETCHES:          0 LATE PREFETCHES: 0 DROPPED PREFETCHES: 0
STLB PREFETCHES SAME FILL-ORIGIN LEVEL: 0 DIFFERENT FILL-ORIGIN LEVEL: 0
STLB AVERAGE MISS LATENCY: 123.914 cycles
STLB RQ	ACCESS:    6154853	FORWARD:          0	MERGED:    2700068	TO_CACHE:    3454785

STLB Hit, L1D data hit: 0
STLB Hit, L2C data hit: 0
STLB Hit, LLC data hit: 0
STLB Hit, LLC data miss: 0
STLB STLB hints to L2: 0
L1D TOTAL     ACCESS:   35611554  HIT:   32244876  MISS:    3366678  HIT %:    90.5461  MISS %:    9.45389   MPKI: 16.8334
L1D LOAD      ACCESS:   27933997  HIT:   26937940  MISS:     996057  HIT %:    96.4342  MISS %:    3.56575   MPKI: 4.98028
L1D RFO       ACCESS:    2831357  HIT:    2662144  MISS:     169213  HIT %:    94.0236  MISS %:    5.97639   MPKI: 0.846065
L1D PREFETCH  ACCESS:    4846200  HIT:    2644792  MISS:    2201408  HIT %:    54.5746  MISS %:    45.4254   MPKI: 11.007
L1D PREFETCH  REQUESTED:   11793731  ISSUED:   11793467  USEFUL:    1694356  USELESS:     525476
L1D USEFUL LOAD PREFETCHES:    1694356 PREFETCH ISSUED TO LOWER LEVEL:    2657952  ACCURACY: 63.7467
L1D TIMELY PREFETCHES:    1694356 LATE PREFETCHES: 437899 DROPPED PREFETCHES: 0
L1D PREFETCHES SAME FILL-ORIGIN LEVEL: 2657952 DIFFERENT FILL-ORIGIN LEVEL: 0
L1D AVERAGE MISS LATENCY: 194.26 cycles
L1D RQ	ACCESS:   51465234	FORWARD:          0	MERGED:   22284524	TO_CACHE:   29137954
L1D WQ	ACCESS:    3768431	FORWARD:      43117	MERGED:      14507	TO_CACHE:    3753924
L1D PQ	ACCESS:    5896914	FORWARD:          0	MERGED:          0	TO_CACHE:    5896553

L1D UNIQUE REGIONS ACCESSED: 0
L1D REGIONS CONFLICTS: 0
L1D Cross Page Prefetch Requests: 0
L1D Same Page Prefetch Requests: 7418220
L1D ROI Sum of L1D PQ occupancy: 65935346
L1D PREFETCHES PUSHED FROM L2C: 0
L1I TOTAL     ACCESS:   40475760  HIT:   40475521  MISS:        239  HIT %:    99.9994  MISS %: 0.000590477   MPKI: 0.001195
L1I LOAD      ACCESS:   40475760  HIT:   40475521  MISS:        239  HIT %:    99.9994  MISS %: 0.000590477   MPKI: 0.001195
L1I PREFETCH  REQUESTED:          0  ISSUED:          0  USEFUL:          0  USELESS:          0
L1I USEFUL LOAD PREFETCHES:          0 PREFETCH ISSUED TO LOWER LEVEL:          0  ACCURACY: -nan
L1I TIMELY PREFETCHES:          0 LATE PREFETCHES: 0 DROPPED PREFETCHES: 0
L1I PREFETCHES SAME FILL-ORIGIN LEVEL: 0 DIFFERENT FILL-ORIGIN LEVEL: 0
L1I AVERAGE MISS LATENCY: 289.9 cycles
L1I RQ	ACCESS:   51488663	FORWARD:          0	MERGED:   10658150	TO_CACHE:   40830513

BTB TOTAL     ACCESS:   16922976  HIT:   16872553  MISS:      50423  HIT %:     99.702  MISS %:   0.297956   MPKI: 0.252115
BTB BRANCH_DIRECT_JUMP	ACCESS:     367556  HIT:     367456  MISS:        100
BTB BRANCH_INDIRECT	ACCESS:          0  HIT:          0  MISS:          0
BTB BRANCH_CONDITIONAL	ACCESS:   15993628  HIT:   15993327  MISS:        301
BTB BRANCH_DIRECT_CALL	ACCESS:     280858  HIT:     280715  MISS:        143
BTB BRANCH_INDIRECT_CALL	ACCESS:         38  HIT:         37  MISS:          1
BTB BRANCH_RETURN	ACCESS:     280896  HIT:     231018  MISS:      49878
BTB BRANCH_OTHER ACCESS:          0  HIT:          0  MISS:          0

L2C TOTAL     ACCESS:    3660323  HIT:     905115  MISS:    2755208  HIT %:    24.7277  MISS %:    75.2723   MPKI: 13.776
L2C LOAD      ACCESS:     564263  HIT:     286524  MISS:     277739  HIT %:    50.7784  MISS %:    49.2216   MPKI: 1.38869
L2C DATA LOAD MPKI: 1.3875
L2C INSTRUCTION LOAD MPKI: 0.001195
L2C RFO       ACCESS:     169193  HIT:      14530  MISS:     154663  HIT %:    8.58783  MISS %:    91.4122   MPKI: 0.773315
L2C PREFETCH  ACCESS:    2633451  HIT:     360621  MISS:    2272830  HIT %:    13.6939  MISS %:    86.3061   MPKI: 11.3641
L2C DATA PREFETCH MPKI: 11.3641
L2C INSTRUCTION PREFETCH MPKI: 0
L2C WRITEBACK ACCESS:     220646  HIT:     190155  MISS:      30491  HIT %:     86.181  MISS %:     13.819   MPKI: 0.152455
L2C LOAD TRANSLATION ACCESS:      72770  HIT:      53285  MISS:      19485  HIT %:    73.2239  MISS %:    26.7761   MPKI: 0.097425
L2C PREFETCH  REQUESTED:          0  ISSUED:          0  USEFUL:      30012  USELESS:    2265778
L2C USEFUL LOAD PREFETCHES:      30012 PREFETCH ISSUED TO LOWER LEVEL:    2296543  ACCURACY: 1.30683
L2C TIMELY PREFETCHES:      30012 LATE PREFETCHES: 0 DROPPED PREFETCHES: 0
L2C PREFETCHES SAME FILL-ORIGIN LEVEL: 0 DIFFERENT FILL-ORIGIN LEVEL: 0
L2C AVERAGE MISS LATENCY: 296.842 cycles
L2C RQ	ACCESS:     809497	FORWARD:          0	MERGED:          0	TO_CACHE:     809488
L2C WQ	ACCESS:     221447	FORWARD:         10	MERGED:          0	TO_CACHE:     221447
L2C PQ	ACCESS:    2657952	FORWARD:          0	MERGED:          0	TO_CACHE:    2657951

L2C Instructions Evicting Data 237
L2C Translations Evicting Data 19513
L2C Data Evicting Data 2711248
L2C Instructions Evicting Instructions 0
L2C Translations Evicting Instructions 0
L2C Data Evicting Instructions 234
L2C Instructions Evicting Translations 2
L2C Translations Evicting Translations 75
L2C Data Evicting Translations 19295
L2C Dense regions hint from L2: 0
PSCL5 TOTAL     ACCESS:      72770  HIT:      72770  MISS:          0  HIT %:        100  MISS %:          0   MPKI: 0
PSCL5 LOAD TRANSLATION ACCESS:      72770  HIT:      72770  MISS:          0  HIT %:        100  MISS %:          0   MPKI: 0
PSCL5 PREFETCH  REQUESTED:          0  ISSUED:          0  USEFUL:          0  USELESS:          0
PSCL5 USEFUL LOAD PREFETCHES:          0 PREFETCH ISSUED TO LOWER LEVEL:          0  ACCURACY: -nan
PSCL5 TIMELY PREFETCHES:          0 LATE PREFETCHES: 0 DROPPED PREFETCHES: 0
PSCL5 PREFETCHES SAME FILL-ORIGIN LEVEL: 0 DIFFERENT FILL-ORIGIN LEVEL: 0

PSCL4 TOTAL     ACCESS:      72770  HIT:      72770  MISS:          0  HIT %:        100  MISS %:          0   MPKI: 0
PSCL4 LOAD TRANSLATION ACCESS:      72770  HIT:      72770  MISS:          0  HIT %:        100  MISS %:          0   MPKI: 0
PSCL4 PREFETCH  REQUESTED:          0  ISSUED:          0  USEFUL:          0  USELESS:          0
PSCL4 USEFUL LOAD PREFETCHES:          0 PREFETCH ISSUED TO LOWER LEVEL:          0  ACCURACY: -nan
PSCL4 TIMELY PREFETCHES:          0 LATE PREFETCHES: 0 DROPPED PREFETCHES: 0
PSCL4 PREFETCHES SAME FILL-ORIGIN LEVEL: 0 DIFFERENT FILL-ORIGIN LEVEL: 0

PSCL3 TOTAL     ACCESS:      72770  HIT:      72770  MISS:          0  HIT %:        100  MISS %:          0   MPKI: 0
PSCL3 LOAD TRANSLATION ACCESS:      72770  HIT:      72770  MISS:          0  HIT %:        100  MISS %:          0   MPKI: 0
PSCL3 PREFETCH  REQUESTED:          0  ISSUED:          0  USEFUL:          0  USELESS:          0
PSCL3 USEFUL LOAD PREFETCHES:          0 PREFETCH ISSUED TO LOWER LEVEL:          0  ACCURACY: -nan
PSCL3 TIMELY PREFETCHES:          0 LATE PREFETCHES: 0 DROPPED PREFETCHES: 0
PSCL3 PREFETCHES SAME FILL-ORIGIN LEVEL: 0 DIFFERENT FILL-ORIGIN LEVEL: 0

PSCL2 TOTAL     ACCESS:      72770  HIT:      72770  MISS:          0  HIT %:        100  MISS %:          0   MPKI: 0
PSCL2 LOAD TRANSLATION ACCESS:      72770  HIT:      72770  MISS:          0  HIT %:        100  MISS %:          0   MPKI: 0
PSCL2 PREFETCH  REQUESTED:          0  ISSUED:          0  USEFUL:          0  USELESS:          0
PSCL2 USEFUL LOAD PREFETCHES:          0 PREFETCH ISSUED TO LOWER LEVEL:          0  ACCURACY: -nan
PSCL2 TIMELY PREFETCHES:          0 LATE PREFETCHES: 0 DROPPED PREFETCHES: 0
PSCL2 PREFETCHES SAME FILL-ORIGIN LEVEL: 0 DIFFERENT FILL-ORIGIN LEVEL: 0

LLC TOTAL     ACCESS:    2923204  HIT:     570061  MISS:    2353143  HIT %:    19.5012  MISS %:    80.4988   MPKI: 11.7657
LLC LOAD      ACCESS:     277738  HIT:      96613  MISS:     181125  HIT %:    34.7857  MISS %:    65.2143   MPKI: 0.905625
LLC RFO       ACCESS:     154662  HIT:      86743  MISS:      67919  HIT %:    56.0855  MISS %:    43.9145   MPKI: 0.339595
LLC PREFETCH  ACCESS:    2272829  HIT:     186897  MISS:    2085932  HIT %:     8.2231  MISS %:    91.7769   MPKI: 10.4297
LLC WRITEBACK ACCESS:     198490  HIT:     196332  MISS:       2158  HIT %:    98.9128  MISS %:    1.08721   MPKI: 0.01079
LLC LOAD TRANSLATION ACCESS:      19485  HIT:       3476  MISS:      16009  HIT %:    17.8394  MISS %:    82.1606   MPKI: 0.080045
LLC PREFETCH  REQUESTED:          0  ISSUED:          0  USEFUL:      14567  USELESS:    8423390
LLC USEFUL LOAD PREFETCHES:      14567 PREFETCH ISSUED TO LOWER LEVEL:    8438741  ACCURACY: 0.172621
LLC TIMELY PREFETCHES:      14567 LATE PREFETCHES: 0 DROPPED PREFETCHES: 0
LLC PREFETCHES SAME FILL-ORIGIN LEVEL: 0 DIFFERENT FILL-ORIGIN LEVEL: 0
LLC AVERAGE MISS LATENCY: 1243.42 cycles
LLC RQ	ACCESS:    1827316	FORWARD:          0	MERGED:          0	TO_CACHE:    1827298
LLC WQ	ACCESS:     800576	FORWARD:         25	MERGED:          0	TO_CACHE:     800576
LLC PQ	ACCESS:    9215562	FORWARD:          0	MERGED:          0	TO_CACHE:    9215555

LLC Dense regions hint to LLC: 0

RAW hits: 308547
Loads Generated: 51307888
Loads sent to L1D: 50999343
Stores Generated: 3751814
Stores sent to L1D: 3751814
Major fault: 0 Minor fault: 2364
Allocated PAGES: 9456

CPU 1 cumulative IPC: 1.00053 instructions: 200000003 cycles: 199894337
ITLB TOTAL     ACCESS:   36144218  HIT:   36144217  MISS:          1  HIT %:        100  MISS %: 2.76669e-06   MPKI: 5e-06
ITLB LOAD TRANSLATION ACCESS:   36144218  HIT:   36144217  MISS:          1  HIT %:        100  MISS %: 2.76669e-06   MPKI: 5e-06
ITLB PREFETCH  REQUESTED:          0  ISSUED:          0  USEFUL:          0  USELESS:          0
ITLB USEFUL LOAD PREFETCHES:          0 PREFETCH ISSUED TO LOWER LEVEL:          0  ACCURACY: -nan
ITLB TIMELY PREFETCHES:          0 LATE PREFETCHES: 0 DROPPED PREFETCHES: 0
ITLB PREFETCHES SAME FILL-ORIGIN LEVEL: 0 DIFFERENT FILL-ORIGIN LEVEL: 0
ITLB AVERAGE MISS LATENCY: 365 cycles
ITLB RQ	ACCESS:   41250510	FORWARD:          0	MERGED:    4410506	TO_CACHE:   36840004

DTLB TOTAL     ACCESS:   28433283  HIT:   28175853  MISS:     257430  HIT %:    99.0946  MISS %:   0.905383   MPKI: 1.28715
DTLB LOAD TRANSLATION ACCESS:   28433283  HIT:   28175853  MISS:     257430  HIT %:    99.0946  MISS %:   0.905383   MPKI: 1.28715
DTLB PREFETCH  REQUESTED:          0  ISSUED:          0  USEFUL:          0  USELESS:          0
DTLB USEFUL LOAD PREFETCHES:          0 PREFETCH ISSUED TO LOWER LEVEL:          0  ACCURACY: -nan
DTLB TIMELY PREFETCHES:          0 LATE PREFETCHES: 0 DROPPED PREFETCHES: 0
DTLB PREFETCHES SAME FILL-ORIGIN LEVEL: 0 DIFFERENT FILL-ORIGIN LEVEL: 0
DTLB AVERAGE MISS LATENCY: 44.4937 cycles
DTLB RQ	ACCESS:   33448905	FORWARD:          0	MERGED:    4389783	TO_CACHE:   29059122

STLB TOTAL     ACCESS:    3468910  HIT:    3396138  MISS:      72772  HIT %:    97.9022  MISS %:    2.09783   MPKI: 0.36386
STLB LOAD TRANSLATION ACCESS:     257431  HIT:     184659  MISS:      72772  HIT %:    71.7315  MISS %:    28.2685   MPKI: 0.36386
STLB TRANSLATION FROM L1D PREFETCHER ACCESS:    3211479  HIT:    3211479  MISS:          0  HIT %:        100  MISS %:          0   MPKI: 0
STLB PREFETCH  REQUESTED:          0  ISSUED:          0  USEFUL:          0  USELESS:          0
STLB USEFUL LOAD PREFETCHES:          0 PREFETCH ISSUED TO LOWER LEVEL:          0  ACCURACY: -nan
STLB TIMELY PREFETCHES:          0 LATE PREFETCHES: 0 DROPPED PREFETCHES: 0
STLB PREFETCHES SAME FILL-ORIGIN LEVEL: 0 DIFFERENT FILL-ORIGIN LEVEL: 0
STLB AVERAGE MISS LATENCY: 124.765 cycles
STLB RQ	ACCESS:    6298848	FORWARD:          0	MERGED:    2754514	TO_CACHE:    3544334

STLB Hit, L1D data hit: 0
STLB Hit, L2C data hit: 0
STLB Hit, LLC data hit: 0
STLB Hit, LLC data miss: 0
STLB STLB hints to L2: 0
L1D TOTAL     ACCESS:   35862920  HIT:   32495739  MISS:    3367181  HIT %:     90.611  MISS %:    9.38903   MPKI: 16.8359
L1D LOAD      ACCESS:   28097228  HIT:   27120573  MISS:     976655  HIT %:     96.524  MISS %:    3.47598   MPKI: 4.88327
L1D RFO       ACCESS:    2821395  HIT:    2652179  MISS:     169216  HIT %:    94.0024  MISS %:     5.9976   MPKI: 0.84608
L1D PREFETCH  ACCESS:    4944297  HIT:    2722987  MISS:    2221310  HIT %:    55.0733  MISS %:    44.9267   MPKI: 11.1065
L1D PREFETCH  REQUESTED:   12074495  ISSUED:   12074133  USEFUL:    1725643  USELESS:     535266
L1D USEFUL LOAD PREFETCHES:    1725643 PREFETCH ISSUED TO LOWER LEVEL:    2680178  ACCURACY: 64.3854
L1D TIMELY PREFETCHES:    1725643 LATE PREFETCHES: 419189 DROPPED PREFETCHES: 0
L1D PREFETCHES SAME FILL-ORIGIN LEVEL: 2680178 DIFFERENT FILL-ORIGIN LEVEL: 0
L1D AVERAGE MISS LATENCY: 192.852 cycles
L1D RQ	ACCESS:   51979718	FORWARD:          0	MERGED:   22357413	TO_CACHE:   29578636
L1D WQ	ACCESS:    3886473	FORWARD:      44045	MERGED:      16204	TO_CACHE:    3870269
L1D PQ	ACCESS:    6037255	FORWARD:          0	MERGED:          1	TO_CACHE:    6036878

L1D UNIQUE REGIONS ACCESSED: 0
L1D REGIONS CONFLICTS: 0
L1D Cross Page Prefetch Requests: 0
L1D Same Page Prefetch Requests: 7585976
L1D ROI Sum of L1D PQ occupancy: 67614579
L1D PREFETCHES PUSHED FROM L2C: 0
L1I TOTAL     ACCESS:   40447132  HIT:   40446893  MISS:        239  HIT %:    99.9994  MISS %: 0.000590895   MPKI: 0.001195
L1I LOAD      ACCESS:   40447132  HIT:   40446893  MISS:        239  HIT %:    99.9994  MISS %: 0.000590895   MPKI: 0.001195
L1I PREFETCH  REQUESTED:          0  ISSUED:          0  USEFUL:          0  USELESS:          0
L1I USEFUL LOAD PREFETCHES:          0 PREFETCH ISSUED TO LOWER LEVEL:          0  ACCURACY: -nan
L1I TIMELY PREFETCHES:          0 LATE PREFETCHES: 0 DROPPED PREFETCHES: 0
L1I PREFETCHES SAME FILL-ORIGIN LEVEL: 0 DIFFERENT FILL-ORIGIN LEVEL: 0
L1I AVERAGE MISS LATENCY: 351.607 cycles
L1I RQ	ACCESS:   51953756	FORWARD:          0	MERGED:   10703246	TO_CACHE:   41250510

BTB TOTAL     ACCESS:   16922974  HIT:   16872551  MISS:      50423  HIT %:     99.702  MISS %:   0.297956   MPKI: 0.252115
BTB BRANCH_DIRECT_JUMP	ACCESS:     367556  HIT:     367456  MISS:        100
BTB BRANCH_INDIRECT	ACCESS:          0  HIT:          0  MISS:          0
BTB BRANCH_CONDITIONAL	ACCESS:   15993626  HIT:   15993325  MISS:        301
BTB BRANCH_DIRECT_CALL	ACCESS:     280858  HIT:     280715  MISS:        143
BTB BRANCH_INDIRECT_CALL	ACCESS:         38  HIT:         37  MISS:          1
BTB BRANCH_RETURN	ACCESS:     280896  HIT:     231018  MISS:      49878
BTB BRANCH_OTHER ACCESS:          0  HIT:          0  MISS:          0

L2C TOTAL     ACCESS:    3660833  HIT:     889162  MISS:    2771671  HIT %:    24.2885  MISS %:    75.7115   MPKI: 13.8584
L2C LOAD      ACCESS:     565185  HIT:     283317  MISS:     281868  HIT %:    50.1282  MISS %:    49.8718   MPKI: 1.40934
L2C DATA LOAD MPKI: 1.40814
L2C INSTRUCTION LOAD MPKI: 0.001195
L2C RFO       ACCESS:     169190  HIT:      17102  MISS:     152088  HIT %:    10.1082  MISS %:    89.8918   MPKI: 0.76044
L2C PREFETCH  ACCESS:    2633034  HIT:     352061  MISS:    2280973  HIT %:    13.3709  MISS %:    86.6291   MPKI: 11.4049
L2C DATA PREFETCH MPKI: 11.4049
L2C INSTRUCTION PREFETCH MPKI: 0
L2C WRITEBACK ACCESS:     220652  HIT:     183354  MISS:      37298  HIT %:    83.0965  MISS %:    16.9035   MPKI: 0.18649
L2C LOAD TRANSLATION ACCESS:      72772  HIT:      53328  MISS:      19444  HIT %:    73.2809  MISS %:    26.7191   MPKI: 0.09722
L2C PREFETCH  REQUESTED:          0  ISSUED:          0  USEFUL:      33101  USELESS:    2290149
L2C USEFUL LOAD PREFETCHES:      33101 PREFETCH ISSUED TO LOWER LEVEL:    2321731  ACCURACY: 1.4257
L2C TIMELY PREFETCHES:      33101 LATE PREFETCHES: 0 DROPPED PREFETCHES: 0
L2C PREFETCHES SAME FILL-ORIGIN LEVEL: 0 DIFFERENT FILL-ORIGIN LEVEL: 0
L2C AVERAGE MISS LATENCY: 288.531 cycles
L2C RQ	ACCESS:     822155	FORWARD:          0	MERGED:          0	TO_CACHE:     822144
L2C WQ	ACCESS:     223927	FORWARD:         11	MERGED:          0	TO_CACHE:     223927
L2C PQ	ACCESS:    2680178	FORWARD:          0	MERGED:          0	TO_CACHE:    2680178

L2C Instructions Evicting Data 261
L2C Translations Evicting Data 19770
L2C Data Evicting Data 2743137
L2C Instructions Evicting Instructions 2
L2C Translations Evicting Instructions 0
L2C Data Evicting Instructions 233
L2C Instructions Evicting Translations 0
L2C Translations Evicting Translations 112
L2C Data Evicting Translations 19599
L2C Dense regions hint from L2: 0
PSCL5 TOTAL     ACCESS:      72772  HIT:      72772  MISS:          0  HIT %:        100  MISS %:          0   MPKI: 0
PSCL5 LOAD TRANSLATION ACCESS:      72772  HIT:      72772  MISS:          0  HIT %:        100  MISS %:          0   MPKI: 0
PSCL5 PREFETCH  REQUESTED:          0  ISSUED:          0  USEFUL:          0  USELESS:          0
PSCL5 USEFUL LOAD PREFETCHES:          0 PREFETCH ISSUED TO LOWER LEVEL:          0  ACCURACY: -nan
PSCL5 TIMELY PREFETCHES:          0 LATE PREFETCHES: 0 DROPPED PREFETCHES: 0
PSCL5 PREFETCHES SAME FILL-ORIGIN LEVEL: 0 DIFFERENT FILL-ORIGIN LEVEL: 0

PSCL4 TOTAL     ACCESS:      72772  HIT:      72772  MISS:          0  HIT %:        100  MISS %:          0   MPKI: 0
PSCL4 LOAD TRANSLATION ACCESS:      72772  HIT:      72772  MISS:          0  HIT %:        100  MISS %:          0   MPKI: 0
PSCL4 PREFETCH  REQUESTED:          0  ISSUED:          0  USEFUL:          0  USELESS:          0
PSCL4 USEFUL LOAD PREFETCHES:          0 PREFETCH ISSUED TO LOWER LEVEL:          0  ACCURACY: -nan
PSCL4 TIMELY PREFETCHES:          0 LATE PREFETCHES: 0 DROPPED PREFETCHES: 0
PSCL4 PREFETCHES SAME FILL-ORIGIN LEVEL: 0 DIFFERENT FILL-ORIGIN LEVEL: 0

PSCL3 TOTAL     ACCESS:      72772  HIT:      72772  MISS:          0  HIT %:        100  MISS %:          0   MPKI: 0
PSCL3 LOAD TRANSLATION ACCESS:      72772  HIT:      72772  MISS:          0  HIT %:        100  MISS %:          0   MPKI: 0
PSCL3 PREFETCH  REQUESTED:          0  ISSUED:          0  USEFUL:          0  USELESS:          0
PSCL3 USEFUL LOAD PREFETCHES:          0 PREFETCH ISSUED TO LOWER LEVEL:          0  ACCURACY: -nan
PSCL3 TIMELY PREFETCHES:          0 LATE PREFETCHES: 0 DROPPED PREFETCHES: 0
PSCL3 PREFETCHES SAME FILL-ORIGIN LEVEL: 0 DIFFERENT FILL-ORIGIN LEVEL: 0

PSCL2 TOTAL     ACCESS:      72772  HIT:      72772  MISS:          0  HIT %:        100  MISS %:          0   MPKI: 0
PSCL2 LOAD TRANSLATION ACCESS:      72772  HIT:      72772  MISS:          0  HIT %:        100  MISS %:          0   MPKI: 0
PSCL2 PREFETCH  REQUESTED:          0  ISSUED:          0  USEFUL:          0  USELESS:          0
PSCL2 USEFUL LOAD PREFETCHES:          0 PREFETCH ISSUED TO LOWER LEVEL:          0  ACCURACY: -nan
PSCL2 TIMELY PREFETCHES:          0 LATE PREFETCHES: 0 DROPPED PREFETCHES: 0
PSCL2 PREFETCHES SAME FILL-ORIGIN LEVEL: 0 DIFFERENT FILL-ORIGIN LEVEL: 0

LLC TOTAL     ACCESS:    2932636  HIT:     624129  MISS:    2308507  HIT %:    21.2822  MISS %:    78.7178   MPKI: 11.5425
LLC LOAD      ACCESS:     281866  HIT:     101267  MISS:     180599  HIT %:    35.9274  MISS %:    64.0726   MPKI: 0.902995
LLC RFO       ACCESS:     152084  HIT:      90217  MISS:      61867  HIT %:    59.3205  MISS %:    40.6795   MPKI: 0.309335
LLC PREFETCH  ACCESS:    2280972  HIT:     232221  MISS:    2048751  HIT %:    10.1808  MISS %:    89.8192   MPKI: 10.2438
LLC WRITEBACK ACCESS:     198270  HIT:     196225  MISS:       2045  HIT %:    98.9686  MISS %:    1.03142   MPKI: 0.010225
LLC LOAD TRANSLATION ACCESS:      19444  HIT:       4199  MISS:      15245  HIT %:    21.5954  MISS %:    78.4046   MPKI: 0.076225
LLC PREFETCH  REQUESTED:          0  ISSUED:          0  USEFUL:      14567  USELESS:    8423390
LLC USEFUL LOAD PREFETCHES:      14567 PREFETCH ISSUED TO LOWER LEVEL:    8438741  ACCURACY: 0.172621
LLC TIMELY PREFETCHES:      14567 LATE PREFETCHES: 0 DROPPED PREFETCHES: 0
LLC PREFETCHES SAME FILL-ORIGIN LEVEL: 0 DIFFERENT FILL-ORIGIN LEVEL: 0
LLC AVERAGE MISS LATENCY: 1267.46 cycles
LLC RQ	ACCESS:    1827316	FORWARD:          0	MERGED:          0	TO_CACHE:    1827298
LLC WQ	ACCESS:     800576	FORWARD:         25	MERGED:          0	TO_CACHE:     800576
LLC PQ	ACCESS:    9215562	FORWARD:          0	MERGED:          0	TO_CACHE:    9215555

LLC Dense regions hint to LLC: 0

RAW hits: 308301
Loads Generated: 51307898
Loads sent to L1D: 50999593
Stores Generated: 3751816
Stores sent to L1D: 3751814
Major fault: 0 Minor fault: 2364
Allocated PAGES: 9456

CPU 2 cumulative IPC: 0.981068 instructions: 200000002 cycles: 203859396
ITLB TOTAL     ACCESS:   36184453  HIT:   36184452  MISS:          1  HIT %:        100  MISS %: 2.76362e-06   MPKI: 5e-06
ITLB LOAD TRANSLATION ACCESS:   36184453  HIT:   36184452  MISS:          1  HIT %:        100  MISS %: 2.76362e-06   MPKI: 5e-06
ITLB PREFETCH  REQUESTED:          0  ISSUED:          0  USEFUL:          0  USELESS:          0
ITLB USEFUL LOAD PREFETCHES:          0 PREFETCH ISSUED TO LOWER LEVEL:          0  ACCURACY: -nan
ITLB TIMELY PREFETCHES:          0 LATE PREFETCHES: 0 DROPPED PREFETCHES: 0
ITLB PREFETCHES SAME FILL-ORIGIN LEVEL: 0 DIFFERENT FILL-ORIGIN LEVEL: 0
ITLB AVERAGE MISS LATENCY: 320 cycles
ITLB RQ	ACCESS:   40476453	FORWARD:          0	MERGED:    4292001	TO_CACHE:   36184452

DTLB TOTAL     ACCESS:   28312631  HIT:   28055212  MISS:     257419  HIT %:    99.0908  MISS %:   0.909202   MPKI: 1.28709
DTLB LOAD TRANSLATION ACCESS:   28312631  HIT:   28055212  MISS:     257419  HIT %:    99.0908  MISS %:   0.909202   MPKI: 1.28709
DTLB PREFETCH  REQUESTED:          0  ISSUED:          0  USEFUL:          0  USELESS:          0
DTLB USEFUL LOAD PREFETCHES:          0 PREFETCH ISSUED TO LOWER LEVEL:          0  ACCURACY: -nan
DTLB TIMELY PREFETCHES:          0 LATE PREFETCHES: 0 DROPPED PREFETCHES: 0
DTLB PREFETCHES SAME FILL-ORIGIN LEVEL: 0 DIFFERENT FILL-ORIGIN LEVEL: 0
DTLB AVERAGE MISS LATENCY: 45.471 cycles
DTLB RQ	ACCESS:   32575330	FORWARD:          0	MERGED:    4214866	TO_CACHE:   28360464

STLB TOTAL     ACCESS:    3438181  HIT:    3365409  MISS:      72772  HIT %:    97.8834  MISS %:    2.11658   MPKI: 0.36386
STLB LOAD TRANSLATION ACCESS:     257420  HIT:     184648  MISS:      72772  HIT %:    71.7302  MISS %:    28.2698   MPKI: 0.36386
STLB TRANSLATION FROM L1D PREFETCHER ACCESS:    3180761  HIT:    3180761  MISS:          0  HIT %:        100  MISS %:          0   MPKI: 0
STLB PREFETCH  REQUESTED:          0  ISSUED:          0  USEFUL:          0  USELESS:          0
STLB USEFUL LOAD PREFETCHES:          0 PREFETCH ISSUED TO LOWER LEVEL:          0  ACCURACY: -nan
STLB TIMELY PREFETCHES:          0 LATE PREFETCHES: 0 DROPPED PREFETCHES: 0
STLB PREFETCHES SAME FILL-ORIGIN LEVEL: 0 DIFFERENT FILL-ORIGIN LEVEL: 0
STLB AVERAGE MISS LATENCY: 128.786 cycles
STLB RQ	ACCESS:    6138395	FORWARD:          0	MERGED:    2700213	TO_CACHE:    3438182

STLB Hit, L1D data hit: 0
STLB Hit, L2C data hit: 0
STLB Hit, LLC data hit: 0
STLB Hit, LLC data miss: 0
STLB STLB hints to L2: 0
L1D TOTAL     ACCESS:   35576718  HIT:   32210705  MISS:    3366013  HIT %:    90.5387  MISS %:    9.46128   MPKI: 16.8301
L1D LOAD      ACCESS:   27888641  HIT:   26892374  MISS:     996267  HIT %:    96.4277  MISS %:     3.5723   MPKI: 4.98133
L1D RFO       ACCESS:    2805890  HIT:    2636673  MISS:     169217  HIT %:    93.9692  MISS %:    6.03078   MPKI: 0.846085
L1D PREFETCH  ACCESS:    4882187  HIT:    2681658  MISS:    2200529  HIT %:    54.9274  MISS %:    45.0726   MPKI: 11.0026
L1D PREFETCH  REQUESTED:   11762744  ISSUED:   11762293  USEFUL:    1677174  USELESS:     523354
L1D USEFUL LOAD PREFETCHES:    1677174 PREFETCH ISSUED TO LOWER LEVEL:    2632205  ACCURACY: 63.7175
L1D TIMELY PREFETCHES:    1677174 LATE PREFETCHES: 431649 DROPPED PREFETCHES: 0
L1D PREFETCHES SAME FILL-ORIGIN LEVEL: 2632205 DIFFERENT FILL-ORIGIN LEVEL: 0
L1D AVERAGE MISS LATENCY: 196.906 cycles
L1D RQ	ACCESS:   50998580	FORWARD:          0	MERGED:   22117790	TO_CACHE:   28838064
L1D WQ	ACCESS:    3751814	FORWARD:      43069	MERGED:      14548	TO_CACHE:    3737266
L1D PQ	ACCESS:    5881318	FORWARD:          0	MERGED:          0	TO_CACHE:    5880975

L1D UNIQUE REGIONS ACCESSED: 0
L1D REGIONS CONFLICTS: 0
L1D Cross Page Prefetch Requests: 0
L1D Same Page Prefetch Requests: 7396060
L1D ROI Sum of L1D PQ occupancy: 65900934
L1D PREFETCHES PUSHED FROM L2C: 0
L1I TOTAL     ACCESS:   40476346  HIT:   40476107  MISS:        239  HIT %:    99.9994  MISS %: 0.000590468   MPKI: 0.001195
L1I LOAD      ACCESS:   40476346  HIT:   40476107  MISS:        239  HIT %:    99.9994  MISS %: 0.000590468   MPKI: 0.001195
L1I PREFETCH  REQUESTED:          0  ISSUED:          0  USEFUL:          0  USELESS:          0
L1I USEFUL LOAD PREFETCHES:          0 PREFETCH ISSUED TO LOWER LEVEL:          0  ACCURACY: -nan
L1I TIMELY PREFETCHES:          0 LATE PREFETCHES: 0 DROPPED PREFETCHES: 0
L1I PREFETCHES SAME FILL-ORIGIN LEVEL: 0 DIFFERENT FILL-ORIGIN LEVEL: 0
L1I AVERAGE MISS LATENCY: 296.552 cycles
L1I RQ	ACCESS:   51081844	FORWARD:          0	MERGED:   10605391	TO_CACHE:   40476453

BTB TOTAL     ACCESS:   16922967  HIT:   16872542  MISS:      50425  HIT %:     99.702  MISS %:   0.297968   MPKI: 0.252125
BTB BRANCH_DIRECT_JUMP	ACCESS:     367556  HIT:     367456  MISS:        100
BTB BRANCH_INDIRECT	ACCESS:          0  HIT:          0  MISS:          0
BTB BRANCH_CONDITIONAL	ACCESS:   15993619  HIT:   15993316  MISS:        303
BTB BRANCH_DIRECT_CALL	ACCESS:     280858  HIT:     280715  MISS:        143
BTB BRANCH_INDIRECT_CALL	ACCESS:         38  HIT:         37  MISS:          1
BTB BRANCH_RETURN	ACCESS:     280896  HIT:     231018  MISS:      49878
BTB BRANCH_OTHER ACCESS:          0  HIT:          0  MISS:          0

L2C TOTAL     ACCESS:    3659656  HIT:     890726  MISS:    2768930  HIT %:    24.3391  MISS %:    75.6609   MPKI: 13.8446
L2C LOAD      ACCESS:     564849  HIT:     284941  MISS:     279908  HIT %:    50.4455  MISS %:    49.5545   MPKI: 1.39954
L2C DATA LOAD MPKI: 1.39834
L2C INSTRUCTION LOAD MPKI: 0.001195
L2C RFO       ACCESS:     169188  HIT:      16663  MISS:     152525  HIT %:    9.84881  MISS %:    90.1512   MPKI: 0.762625
L2C PREFETCH  ACCESS:    2632201  HIT:     349649  MISS:    2282552  HIT %:    13.2835  MISS %:    86.7165   MPKI: 11.4128
L2C DATA PREFETCH MPKI: 11.4128
L2C INSTRUCTION PREFETCH MPKI: 0
L2C WRITEBACK ACCESS:     220646  HIT:     186184  MISS:      34462  HIT %:    84.3813  MISS %:    15.6187   MPKI: 0.17231
L2C LOAD TRANSLATION ACCESS:      72772  HIT:      53289  MISS:      19483  HIT %:    73.2273  MISS %:    26.7727   MPKI: 0.097415
L2C PREFETCH  REQUESTED:          0  ISSUED:          0  USEFUL:      30291  USELESS:    2252569
L2C USEFUL LOAD PREFETCHES:      30291 PREFETCH ISSUED TO LOWER LEVEL:    2282556  ACCURACY: 1.32706
L2C TIMELY PREFETCHES:      30291 LATE PREFETCHES: 0 DROPPED PREFETCHES: 0
L2C PREFETCHES SAME FILL-ORIGIN LEVEL: 0 DIFFERENT FILL-ORIGIN LEVEL: 0
L2C AVERAGE MISS LATENCY: 297.256 cycles
L2C RQ	ACCESS:     806823	FORWARD:          0	MERGED:          0	TO_CACHE:     806809
L2C WQ	ACCESS:     220646	FORWARD:         14	MERGED:          0	TO_CACHE:     220646
L2C PQ	ACCESS:    2632205	FORWARD:          0	MERGED:          0	TO_CACHE:    2632205

L2C Instructions Evicting Data 235
L2C Translations Evicting Data 19385
L2C Data Evicting Data 2695322
L2C Instructions Evicting Instructions 1
L2C Translations Evicting Instructions 0
L2C Data Evicting Instructions 237
L2C Instructions Evicting Translations 3
L2C Translations Evicting Translations 98
L2C Data Evicting Translations 19187
L2C Dense regions hint from L2: 0
PSCL5 TOTAL     ACCESS:      72772  HIT:      72772  MISS:          0  HIT %:        100  MISS %:          0   MPKI: 0
PSCL5 LOAD TRANSLATION ACCESS:      72772  HIT:      72772  MISS:          0  HIT %:        100  MISS %:          0   MPKI: 0
PSCL5 PREFETCH  REQUESTED:          0  ISSUED:          0  USEFUL:          0  USELESS:          0
PSCL5 USEFUL LOAD PREFETCHES:          0 PREFETCH ISSUED TO LOWER LEVEL:          0  ACCURACY: -nan
PSCL5 TIMELY PREFETCHES:          0 LATE PREFETCHES: 0 DROPPED PREFETCHES: 0
PSCL5 PREFETCHES SAME FILL-ORIGIN LEVEL: 0 DIFFERENT FILL-ORIGIN LEVEL: 0

PSCL4 TOTAL     ACCESS:      72772  HIT:      72772  MISS:          0  HIT %:        100  MISS %:          0   MPKI: 0
[...]
LLC PREFETCH  REQUESTED:          0  ISSUED:          0  USEFUL:      14567  USELESS:    8423390
LLC USEFUL LOAD PREFETCHES:      14567 PREFETCH ISSUED TO LOWER LEVEL:    8438741  ACCURACY: 0.172621
LLC TIMELY PREFETCHES:      14567 LATE PREFETCHES: 0 DROPPED PREFETCHES: 0
LLC PREFETCHES SAME FILL-ORIGIN LEVEL: 0 DIFFERENT FILL-ORIGIN LEVEL: 0
LLC AVERAGE MISS LATENCY: 1186.13 cycles
LLC RQ	ACCESS:    1827316	FORWARD:          0	MERGED:          0	TO_CACHE:    1827298
LLC WQ	ACCESS:     800576	FORWARD:         25	MERGED:          0	TO_CACHE:     800576
LLC PQ	ACCESS:    9215562	FORWARD:          0	MERGED:          0	TO_CACHE:    9215555

LLC Dense regions hint to LLC: 0

RAW hits: 309319
Loads Generated: 51307903
Loads sent to L1D: 50998580
Stores Generated: 3751816
Stores sent to L1D: 3751814
Major fault: 0 Minor fault: 2364
Allocated PAGES: 9456

CPU 3 cumulative IPC: 0.991221 instructions: 200000000 cycles: 201771364
ITLB TOTAL     ACCESS:   36174023  HIT:   36174022  MISS:          1  HIT %:        100  MISS %: 2.76441e-06   MPKI: 5e-06
ITLB LOAD TRANSLATION ACCESS:   36174023  HIT:   36174022  MISS:          1  HIT %:        100  MISS %: 2.76441e-06   MPKI: 5e-06
ITLB PREFETCH  REQUESTED:          0  ISSUED:          0  USEFUL:          0  USELESS:          0
ITLB USEFUL LOAD PREFETCHES:          0 PREFETCH ISSUED TO LOWER LEVEL:          0  ACCURACY: -nan
ITLB TIMELY PREFETCHES:          0 LATE PREFETCHES: 0 DROPPED PREFETCHES: 0
ITLB PREFETCHES SAME FILL-ORIGIN LEVEL: 0 DIFFERENT FILL-ORIGIN LEVEL: 0
ITLB AVERAGE MISS LATENCY: 343 cycles
ITLB RQ	ACCESS:   40924998	FORWARD:          0	MERGED:    4361280	TO_CACHE:   36563718

DTLB TOTAL     ACCESS:   28389033  HIT:   28131571  MISS:     257462  HIT %:    99.0931  MISS %:   0.906907   MPKI: 1.28731
DTLB LOAD TRANSLATION ACCESS:   28389033  HIT:   28131571  MISS:     257462  HIT %:    99.0931  MISS %:   0.906907   MPKI: 1.28731
DTLB PREFETCH  REQUESTED:          0  ISSUED:          0  USEFUL:          0  USELESS:          0
DTLB USEFUL LOAD PREFETCHES:          0 PREFETCH ISSUED TO LOWER LEVEL:          0  ACCURACY: -nan
DTLB TIMELY PREFETCHES:          0 LATE PREFETCHES: 0 DROPPED PREFETCHES: 0
DTLB PREFETCHES SAME FILL-ORIGIN LEVEL: 0 DIFFERENT FILL-ORIGIN LEVEL: 0
DTLB AVERAGE MISS LATENCY: 44.9962 cycles
DTLB RQ	ACCESS:   33002130	FORWARD:          0	MERGED:    4268855	TO_CACHE:   28733275

STLB TOTAL     ACCESS:    3433776  HIT:    3361006  MISS:      72770  HIT %:    97.8808  MISS %:    2.11924   MPKI: 0.36385
STLB LOAD TRANSLATION ACCESS:     257463  HIT:     184693  MISS:      72770  HIT %:    71.7357  MISS %:    28.2643   MPKI: 0.36385
STLB TRANSLATION FROM L1D PREFETCHER ACCESS:    3176313  HIT:    3176313  MISS:          0  HIT %:        100  MISS %:          0   MPKI: 0
STLB PREFETCH  REQUESTED:          0  ISSUED:          0  USEFUL:          0  USELESS:          0
STLB USEFUL LOAD PREFETCHES:          0 PREFETCH ISSUED TO LOWER LEVEL:          0  ACCURACY: -nan
STLB TIMELY PREFETCHES:          0 LATE PREFETCHES: 0 DROPPED PREFETCHES: 0
STLB PREFETCHES SAME FILL-ORIGIN LEVEL: 0 DIFFERENT FILL-ORIGIN LEVEL: 0
STLB AVERAGE MISS LATENCY: 126.897 cycles
STLB RQ	ACCESS:    6173791	FORWARD:          0	MERGED:    2702672	TO_CACHE:    3471119

STLB Hit, L1D data hit: 0
STLB Hit, L2C data hit: 0
STLB Hit, LLC data hit: 0
STLB Hit, LLC data miss: 0
STLB STLB hints to L2: 0
L1D TOTAL     ACCESS:   35646427  HIT:   32279635  MISS:    3366792  HIT %:     90.555  MISS %:    9.44496   MPKI: 16.834
L1D LOAD      ACCESS:   27965530  HIT:   26971921  MISS:     993609  HIT %:     96.447  MISS %:    3.55298   MPKI: 4.96805
L1D RFO       ACCESS:    2827410  HIT:    2658162  MISS:     169248  HIT %:     94.014  MISS %:    5.98597   MPKI: 0.84624
L1D PREFETCH  ACCESS:    4853487  HIT:    2649552  MISS:    2203935  HIT %:    54.5907  MISS %:    45.4093   MPKI: 11.0197
L1D PREFETCH  REQUESTED:   11829575  ISSUED:   11829260  USEFUL:    1700902  USELESS:     528177
L1D USEFUL LOAD PREFETCHES:    1700902 PREFETCH ISSUED TO LOWER LEVEL:    2664910  ACCURACY: 63.8259
L1D TIMELY PREFETCHES:    1700902 LATE PREFETCHES: 435617 DROPPED PREFETCHES: 0
L1D PREFETCHES SAME FILL-ORIGIN LEVEL: 2664910 DIFFERENT FILL-ORIGIN LEVEL: 0
L1D AVERAGE MISS LATENCY: 194.313 cycles
L1D RQ	ACCESS:   51585752	FORWARD:          0	MERGED:   22303957	TO_CACHE:   29238869
L1D WQ	ACCESS:    3777790	FORWARD:      43280	MERGED:      14529	TO_CACHE:    3763261
L1D PQ	ACCESS:    5914807	FORWARD:          0	MERGED:          0	TO_CACHE:    5914453

L1D UNIQUE REGIONS ACCESSED: 0
L1D REGIONS CONFLICTS: 0
L1D Cross Page Prefetch Requests: 0
L1D Same Page Prefetch Requests: 7431957
L1D ROI Sum of L1D PQ occupancy: 66197557
L1D PREFETCHES PUSHED FROM L2C: 0
L1I TOTAL     ACCESS:   40463507  HIT:   40463268  MISS:        239  HIT %:    99.9994  MISS %: 0.000590656   MPKI: 0.001195
L1I LOAD      ACCESS:   40463507  HIT:   40463268  MISS:        239  HIT %:    99.9994  MISS %: 0.000590656   MPKI: 0.001195
L1I PREFETCH  REQUESTED:          0  ISSUED:          0  USEFUL:          0  USELESS:          0
L1I USEFUL LOAD PREFETCHES:          0 PREFETCH ISSUED TO LOWER LEVEL:          0  ACCURACY: -nan
L1I TIMELY PREFETCHES:          0 LATE PREFETCHES: 0 DROPPED PREFETCHES: 0
L1I PREFETCHES SAME FILL-ORIGIN LEVEL: 0 DIFFERENT FILL-ORIGIN LEVEL: 0
L1I AVERAGE MISS LATENCY: 290.774 cycles
L1I RQ	ACCESS:   51587408	FORWARD:          0	MERGED:   10662410	TO_CACHE:   40924998

BTB TOTAL     ACCESS:   16922970  HIT:   16872547  MISS:      50423  HIT %:     99.702  MISS %:   0.297956   MPKI: 0.252115
BTB BRANCH_DIRECT_JUMP	ACCESS:     367556  HIT:     367456  MISS:        100
BTB BRANCH_INDIRECT	ACCESS:          0  HIT:          0  MISS:          0
BTB BRANCH_CONDITIONAL	ACCESS:   15993622  HIT:   15993321  MISS:        301
BTB BRANCH_DIRECT_CALL	ACCESS:     280858  HIT:     280715  MISS:        143
BTB BRANCH_INDIRECT_CALL	ACCESS:         38  HIT:         37  MISS:          1
BTB BRANCH_RETURN	ACCESS:     280896  HIT:     231018  MISS:      49878
BTB BRANCH_OTHER ACCESS:          0  HIT:          0  MISS:          0

L2C TOTAL     ACCESS:    3660473  HIT:     883367  MISS:    2777106  HIT %:    24.1326  MISS %:    75.8674   MPKI: 13.8855
L2C LOAD      ACCESS:     564854  HIT:     282385  MISS:     282469  HIT %:    49.9926  MISS %:    50.0074   MPKI: 1.41234
L2C DATA LOAD MPKI: 1.41115
L2C INSTRUCTION LOAD MPKI: 0.001195
L2C RFO       ACCESS:     169225  HIT:      14427  MISS:     154798  HIT %:    8.52534  MISS %:    91.4747   MPKI: 0.77399
L2C PREFETCH  ACCESS:    2632941  HIT:     347817  MISS:    2285124  HIT %:    13.2102  MISS %:    86.7898   MPKI: 11.4256
L2C DATA PREFETCH MPKI: 11.4256
L2C INSTRUCTION PREFETCH MPKI: 0
L2C WRITEBACK ACCESS:     220683  HIT:     185324  MISS:      35359  HIT %:    83.9775  MISS %:    16.0225   MPKI: 0.176795
L2C LOAD TRANSLATION ACCESS:      72770  HIT:      53414  MISS:      19356  HIT %:    73.4011  MISS %:    26.5989   MPKI: 0.09678
L2C PREFETCH  REQUESTED:          0  ISSUED:          0  USEFUL:      28275  USELESS:    2286476
L2C USEFUL LOAD PREFETCHES:      28275 PREFETCH ISSUED TO LOWER LEVEL:    2314732  ACCURACY: 1.22152
L2C TIMELY PREFETCHES:      28275 LATE PREFETCHES: 0 DROPPED PREFETCHES: 0
L2C PREFETCHES SAME FILL-ORIGIN LEVEL: 0 DIFFERENT FILL-ORIGIN LEVEL: 0
L2C AVERAGE MISS LATENCY: 294.054 cycles
L2C RQ	ACCESS:     812981	FORWARD:          0	MERGED:          0	TO_CACHE:     812972
L2C WQ	ACCESS:     221615	FORWARD:         11	MERGED:          0	TO_CACHE:     221615
L2C PQ	ACCESS:    2664910	FORWARD:          0	MERGED:          0	TO_CACHE:    2664908

L2C Instructions Evicting Data 239
L2C Translations Evicting Data 19429
L2C Data Evicting Data 2735416
L2C Instructions Evicting Instructions 0
L2C Translations Evicting Instructions 0
L2C Data Evicting Instructions 239
L2C Instructions Evicting Translations 0
L2C Translations Evicting Translations 114
L2C Data Evicting Translations 19247
L2C Dense regions hint from L2: 0
PSCL5 TOTAL     ACCESS:      72770  HIT:      72770  MISS:          0  HIT %:        100  MISS %:          0   MPKI: 0
PSCL5 LOAD TRANSLATION ACCESS:      72770  HIT:      72770  MISS:          0  HIT %:        100  MISS %:          0   MPKI: 0
PSCL5 PREFETCH  REQUESTED:          0  ISSUED:          0  USEFUL:          0  USELESS:          0
PSCL5 USEFUL LOAD PREFETCHES:          0 PREFETCH ISSUED TO LOWER LEVEL:          0  ACCURACY: -nan
PSCL5 TIMELY PREFETCHES:          0 LATE PREFETCHES: 0 DROPPED PREFETCHES: 0
PSCL5 PREFETCHES SAME FILL-ORIGIN LEVEL: 0 DIFFERENT FILL-ORIGIN LEVEL: 0

PSCL4 TOTAL     ACCESS:      72770  HIT:      72770  MISS:          0  HIT %:        100  MISS %:          0   MPKI: 0
PSCL4 LOAD TRANSLATION ACCESS:      72770  HIT:      72770  MISS:          0  HIT %:        100  MISS %:          0   MPKI: 0
PSCL4 PREFETCH  REQUESTED:          0  ISSUED:          0  USEFUL:          0  USELESS:          0
PSCL4 USEFUL LOAD PREFETCHES:          0 PREFETCH ISSUED TO LOWER LEVEL:          0  ACCURACY: -nan
PSCL4 TIMELY PREFETCHES:          0 LATE PREFETCHES: 0 DROPPED PREFETCHES: 0
PSCL4 PREFETCHES SAME FILL-ORIGIN LEVEL: 0 DIFFERENT FILL-ORIGIN LEVEL: 0

PSCL3 TOTAL     ACCESS:      72770  HIT:      72770  MISS:          0  HIT %:        100  MISS %:          0   MPKI: 0
PSCL3 LOAD TRANSLATION ACCESS:      72770  HIT:      72770  MISS:          0  HIT %:        100  MISS %:          0   MPKI: 0
PSCL3 PREFETCH  REQUESTED:          0  ISSUED:          0  USEFUL:          0  USELESS:          0
PSCL3 USEFUL LOAD PREFETCHES:          0 PREFETCH ISSUED TO LOWER LEVEL:          0  ACCURACY: -nan
PSCL3 TIMELY PREFETCHES:          0 LATE PREFETCHES: 0 DROPPED PREFETCHES: 0
PSCL3 PREFETCHES SAME FILL-ORIGIN LEVEL: 0 DIFFERENT FILL-ORIGIN LEVEL: 0

PSCL2 TOTAL     ACCESS:      72770  HIT:      72770  MISS:          0  HIT %:        100  MISS %:          0   MPKI: 0
PSCL2 LOAD TRANSLATION ACCESS:      72770  HIT:      72770  MISS:          0  HIT %:        100  MISS %:          0   MPKI: 0
PSCL2 PREFETCH  REQUESTED:          0  ISSUED:          0  USEFUL:          0  USELESS:          0
PSCL2 USEFUL LOAD PREFETCHES:          0 PREFETCH ISSUED TO LOWER LEVEL:          0  ACCURACY: -nan
PSCL2 TIMELY PREFETCHES:          0 LATE PREFETCHES: 0 DROPPED PREFETCHES: 0
PSCL2 PREFETCHES SAME FILL-ORIGIN LEVEL: 0 DIFFERENT FILL-ORIGIN LEVEL: 0

LLC TOTAL     ACCESS:    2940709  HIT:     594674  MISS:    2346035  HIT %:    20.2221  MISS %:    79.7779   MPKI: 11.7302
LLC LOAD      ACCESS:     282469  HIT:     103126  MISS:     179343  HIT %:    36.5088  MISS %:    63.4912   MPKI: 0.896715
LLC RFO       ACCESS:     154796  HIT:      93986  MISS:      60810  HIT %:     60.716  MISS %:     39.284   MPKI: 0.30405
LLC PREFETCH  ACCESS:    2285121  HIT:     197462  MISS:    2087659  HIT %:    8.64121  MISS %:    91.3588   MPKI: 10.4383
LLC WRITEBACK ACCESS:     198967  HIT:     197074  MISS:       1893  HIT %:    99.0486  MISS %:   0.951414   MPKI: 0.009465
LLC LOAD TRANSLATION ACCESS:      19356  HIT:       3026  MISS:      16330  HIT %:    15.6334  MISS %:    84.3666   MPKI: 0.08165
LLC PREFETCH  REQUESTED:          0  ISSUED:          0  USEFUL:      14567  USELESS:    8423390
LLC USEFUL LOAD PREFETCHES:      14567 PREFETCH ISSUED TO LOWER LEVEL:    8438741  ACCURACY: 0.172621
LLC TIMELY PREFETCHES:      14567 LATE PREFETCHES: 0 DROPPED PREFETCHES: 0
LLC PREFETCHES SAME FILL-ORIGIN LEVEL: 0 DIFFERENT FILL-ORIGIN LEVEL: 0
LLC AVERAGE MISS LATENCY: 1247.18 cycles
LLC RQ	ACCESS:    1827316	FORWARD:          0	MERGED:          0	TO_CACHE:    1827298
LLC WQ	ACCESS:     800576	FORWARD:         25	MERGED:          0	TO_CACHE:     800576
LLC PQ	ACCESS:    9215562	FORWARD:          0	MERGED:          0	TO_CACHE:    9215555

LLC Dense regions hint to LLC: 0

RAW hits: 308262
Loads Generated: 51307882
Loads sent to L1D: 50999622
Stores Generated: 3751816
Stores sent to L1D: 3751816
Major fault: 0 Minor fault: 2364
Allocated PAGES: 9456

stream: 
stream:times selected: 6674394
stream:pref_filled: 640451
stream:pref_useful: 192455
stream:pref_late: 41418
stream:misses: 104012
stream:misses_by_poll: 0

CS: 
CS:times selected: 5088783
CS:pref_filled: 2208718
CS:pref_useful: 2029776
CS:pref_late: 389563
CS:misses: 1467795
CS:misses_by_poll: 15017

CPLX: 
CPLX:times selected: 1570375
CPLX:pref_filled: 39807
CPLX:pref_useful: 7002
CPLX:pref_late: 279
CPLX:misses: 493053
CPLX:misses_by_poll: 35

NL_L1: 
NL:times selected: 5965
NL:pref_filled: 1914
NL:pref_useful: 475
NL:pref_late: 28
NL:misses: 2325
NL:misses_by_poll: 0

total selections: 13339517
total_filled: 2220034
total_useful: 1694356
total_late: 440350
total_polluted: 15052
total_misses_after_warmup: 1968010
conflicts: 146741
Degree Incremented Times: 600668
Degree Decremented Times: 1839362

L1 IP Table Write Accesses: 116487444
L1 IP Table Read Accesses: 116340703
L1 RST Write Accesses: 21691830
L1 RST Read Accesses: 43383660
L1 CSPT Write Accesses: 21691830
L1 CSPT Read Accesses: 26739298
L1 RR Filter Tag Write Accesses: 23734249
L1 RR Filter Tag Read Accesses: 1707775849
L1 IP Table Tag Write Accesses: 116809338
L1 IP Table Tag Read Accesses: 116809338
L1 RST Tag Write Accesses: 0
L1 RST Tag Read Accesses: 210295181
L1 RR Filter Write Accesses: 0
L1 RR Filter Read Accesses: 71160358
test: 2941449

stream: 
stream:times selected: 6747936
stream:pref_filled: 645536
stream:pref_useful: 191335
stream:pref_late: 41165
stream:misses: 106088
stream:misses_by_poll: 0

CS: 
CS:times selected: 5131268
CS:pref_filled: 2241061
CS:pref_useful: 2059693
CS:pref_late: 371125
CS:misses: 1437268
CS:misses_by_poll: 14188

CPLX: 
CPLX:times selected: 1600378
CPLX:pref_filled: 40258
CPLX:pref_useful: 7256
CPLX:pref_late: 297
CPLX:misses: 499606
CPLX:misses_by_poll: 26

NL_L1: 
NL:times selected: 6269
NL:pref_filled: 2024
NL:pref_useful: 528
NL:pref_late: 22
NL:misses: 2444
NL:misses_by_poll: 0

total selections: 13485851
total_filled: 2260963
total_useful: 1725643
total_late: 421596
total_polluted: 14214
total_misses_after_warmup: 1944252
conflicts: 146741
Degree Incremented Times: 600668
Degree Decremented Times: 1839362

L1 IP Table Write Accesses: 116487444
L1 IP Table Read Accesses: 116340703
L1 RST Write Accesses: 21691830
L1 RST Read Accesses: 43383660
L1 CSPT Write Accesses: 21691830
L1 CSPT Read Accesses: 26739298
L1 RR Filter Tag Write Accesses: 23734249
L1 RR Filter Tag Read Accesses: 1707775849
L1 IP Table Tag Write Accesses: 116809338
L1 IP Table Tag Read Accesses: 116809338
L1 RST Tag Write Accesses: 0
L1 RST Tag Read Accesses: 210295181
L1 RR Filter Write Accesses: 0
L1 RR Filter Read Accesses: 71160358
test: 2941449

stream: 
stream:times selected: 6631273
stream:pref_filled: 636496
stream:pref_useful: 191382
stream:pref_late: 41480
stream:misses: 104585
stream:misses_by_poll: 0

CS: 
CS:times selected: 5047921
CS:pref_filled: 2183381
CS:pref_useful: 2006154
CS:pref_late: 383148
CS:misses: 1453706
CS:misses_by_poll: 14267

CPLX: 
CPLX:times selected: 1568113
CPLX:pref_filled: 39760
CPLX:pref_useful: 7043
CPLX:pref_late: 303
CPLX:misses: 492353
CPLX:misses_by_poll: 31

NL_L1: 
NL:times selected: 5957
NL:pref_filled: 1946
NL:pref_useful: 452
NL:pref_late: 34
NL:misses: 2329
NL:misses_by_poll: 0

total selections: 13253264
total_filled: 2200529
total_useful: 1677174
total_late: 434049
total_polluted: 14298
total_misses_after_warmup: 1945690
conflicts: 146741
Degree Incremented Times: 600668
Degree Decremented Times: 1839362

L1 IP Table Write Accesses: 116487444
L1 IP Table Read Accesses: 116340703
L1 RST Write Accesses: 21691830
L1 RST Read Accesses: 43383660
L1 CSPT Write Accesses: 21691830
L1 CSPT Read Accesses: 26739298
L1 RR Filter Tag Write Accesses: 23734249
L1 RR Filter Tag Read Accesses: 1707775849
L1 IP Table Tag Write Accesses: 116809338
L1 IP Table Tag Read Accesses: 116809338
L1 RST Tag Write Accesses: 0
L1 RST Tag Read Accesses: 210295181
L1 RR Filter Write Accesses: 0
L1 RR Filter Read Accesses: 71160358
test: 2941449

stream: 
stream:times selected: 6689997
stream:pref_filled: 643842
stream:pref_useful: 194417
stream:pref_late: 41759
stream:misses: 104954
stream:misses_by_poll: 0

CS: 
CS:times selected: 5099387
CS:pref_filled: 2205039
CS:pref_useful: 2025515
CS:pref_late: 387238
CS:misses: 1474600
CS:misses_by_poll: 13337

CPLX: 
CPLX:times selected: 1575352
CPLX:pref_filled: 40001
CPLX:pref_useful: 7041
CPLX:pref_late: 280
CPLX:misses: 495466
CPLX:misses_by_poll: 45

NL_L1: 
NL:times selected: 5959
NL:pref_filled: 1956
NL:pref_useful: 502
NL:pref_late: 16
NL:misses: 2304
NL:misses_by_poll: 0

total selections: 13370695
total_filled: 2229271
total_useful: 1700902
total_late: 438187
total_polluted: 13382
total_misses_after_warmup: 1968301
conflicts: 146741
Degree Incremented Times: 600668
Degree Decremented Times: 1839362

L1 IP Table Write Accesses: 116487444
L1 IP Table Read Accesses: 116340703
L1 RST Write Accesses: 21691830
L1 RST Read Accesses: 43383660
L1 CSPT Write Accesses: 21691830
L1 CSPT Read Accesses: 26739298
L1 RR Filter Tag Write Accesses: 23734249
L1 RR Filter Tag Read Accesses: 1707775849
L1 IP Table Tag Write Accesses: 116809338
L1 IP Table Tag Read Accesses: 116809338
L1 RST Tag Write Accesses: 0
L1 RST Tag Read Accesses: 210295181
L1 RR Filter Write Accesses: 0
L1 RR Filter Read Accesses: 71160358
test: 2941449

DRAM Statistics
 CHANNEL 0
 RQ ROW_BUFFER_HIT:    3458778  ROW_BUFFER_MISS:    6042017
 DBUS_CONGESTED:        126
 WQ ROW_BUFFER_HIT:      39070  ROW_BUFFER_MISS:     304626  FULL:          0

 AVG_CONGESTED_CYCLE: 5
 All warmup complete: 5
Channel 0 Bank busy for read cycles: 0
Channel 0 Bank busy for write cycles: 0
Channel 0
Rank 0
0banks busy for read cycles: 1363493
0banks busy for write cycles: 161
1banks busy for read cycles: 1669008
1banks busy for write cycles: 81092
2banks busy for read cycles: 5043281
2banks busy for write cycles: 54351
3banks busy for read cycles: 12799790
3banks busy for write cycles: 54001
4banks busy for read cycles: 26576535
4banks busy for write cycles: 53068
5banks busy for read cycles: 40401152
5banks busy for write cycles: 56837
6banks busy for read cycles: 44388275
6banks busy for write cycles: 183314
7banks busy for read cycles: 38295293
7banks busy for write cycles: 1494192
8banks busy for read cycles: 24879832
8banks busy for write cycles: 6465722

CPU 0 Branch Prediction Accuracy: 99.0917% MPKI: 0.812751 Average ROB Occupancy at Mispredict: 81.7616
Branch types
NOT_BRANCH: 183821955 91.0518%
BRANCH_DIRECT_JUMP: 368909 0.18273%
BRANCH_INDIRECT: 0 0%
BRANCH_CONDITIONAL: 17133156 8.4865%
BRANCH_DIRECT_CALL: 281500 0.139434%
BRANCH_INDIRECT_CALL: 38 1.88224e-05%
BRANCH_RETURN: 281538 0.139453%
BRANCH_OTHER: 0 0%


CPU 1 Branch Prediction Accuracy: 99.0875% MPKI: 0.818262 Average ROB Occupancy at Mispredict: 83.5437
Branch types
NOT_BRANCH: 185571589 91.0314%
BRANCH_DIRECT_JUMP: 376746 0.184811%
BRANCH_INDIRECT: 0 0%
BRANCH_CONDITIONAL: 17332033 8.50216%
BRANCH_DIRECT_CALL: 286907 0.140741%
BRANCH_INDIRECT_CALL: 38 1.86407e-05%
BRANCH_RETURN: 286946 0.14076%
BRANCH_OTHER: 0 0%


CPU 2 Branch Prediction Accuracy: 99.0886% MPKI: 0.81831 Average ROB Occupancy at Mispredict: 83.772
Branch types
NOT_BRANCH: 182042395 91.0212%
BRANCH_DIRECT_JUMP: 367556 0.183778%
BRANCH_INDIRECT: 0 0%
BRANCH_CONDITIONAL: 17028067 8.51403%
BRANCH_DIRECT_CALL: 280858 0.140429%
BRANCH_INDIRECT_CALL: 38 1.9e-05%
BRANCH_RETURN: 280896 0.140448%
BRANCH_OTHER: 0 0%


CPU 3 Branch Prediction Accuracy: 99.0903% MPKI: 0.814365 Average ROB Occupancy at Mispredict: 82.0367
Branch types
NOT_BRANCH: 184229519 91.0474%
BRANCH_DIRECT_JUMP: 370879 0.183291%
BRANCH_INDIRECT: 0 0%
BRANCH_CONDITIONAL: 17178316 8.48964%
BRANCH_DIRECT_CALL: 282707 0.139716%
BRANCH_INDIRECT_CALL: 38 1.87799e-05%
BRANCH_RETURN: 282745 0.139734%
BRANCH_OTHER: 0 0%

DRAM PAGES: 1048576
Allocated PAGES: 9456
