
*** ChampSim Multicore Out-of-Order Simulator ***

Warmup Instructions: 50000000
Simulation Instructions: 200000000
Number of CPUs: 4
LLC sets: 8192
LLC ways: 16
Off-chip DRAM Size: 4096 MB Channels: 1 Width: 64-bit Data Rate: 6400 MT/s
CPU 0 runs ./traces/spec/607.cactuBSSN_s-2421B.champsimtrace.xz
.xz
CPU 1 runs ./traces/spec/607.cactuBSSN_s-2421B.champsimtrace.xz
.xz
CPU 2 runs ./traces/spec/607.cactuBSSN_s-2421B.champsimtrace.xz
.xz
CPU 3 runs ./traces/spec/607.cactuBSSN_s-2421B.champsimtrace.xz
.xz
BTB has LRU replacement policy
ITLB has LRU replacement policy
DTLB has LRU replacement policy
STLB has LRU replacement policy
L1I has LRU replacement policy
IP Table Entries: 1024
CSPT Entries: 128
RR_ENTRIES: 32
RST_ENTRIES: 8
L1D has LRU replacement policy
Initialize SRRIP state for L2C
Initialize DRRIP state for LLC
BTB has LRU replacement policy
ITLB has LRU replacement policy
DTLB has LRU replacement policy
STLB has LRU replacement policy
L1I has LRU replacement policy
IP Table Entries: 1024
CSPT Entries: 128
RR_ENTRIES: 32
RST_ENTRIES: 8
L1D has LRU replacement policy
Initialize SRRIP state for L2C
Initialize DRRIP state for LLC
BTB has LRU replacement policy
ITLB has LRU replacement policy
DTLB has LRU replacement policy
STLB has LRU replacement policy
L1I has LRU replacement policy
IP Table Entries: 1024
CSPT Entries: 128
RR_ENTRIES: 32
RST_ENTRIES: 8
L1D has LRU replacement policy
Initialize SRRIP state for L2C
Initialize DRRIP state for LLC
BTB has LRU replacement policy
ITLB has LRU replacement policy
DTLB has LRU replacement policy
STLB has LRU replacement policy
L1I has LRU replacement policy
IP Table Entries: 1024
CSPT Entries: 128
RR_ENTRIES: 32
RST_ENTRIES: 8
L1D has LRU replacement policy
Initialize SRRIP state for L2C
Initialize DRRIP state for LLC
Heartbeat CPU 0 instructions: 10000002 cycles: 3590874 heartbeat IPC: 2.78484 cumulative IPC: 2.78484 (Simulation time: 0 hr 4 min 49 sec) 
Heartbeat CPU 1 instructions: 10000002 cycles: 3591600 heartbeat IPC: 2.78428 cumulative IPC: 2.78428 (Simulation time: 0 hr 4 min 49 sec) 
Heartbeat CPU 2 instructions: 10000002 cycles: 3591680 heartbeat IPC: 2.78421 cumulative IPC: 2.78421 (Simulation time: 0 hr 4 min 49 sec) 
Heartbeat CPU 3 instructions: 10000002 cycles: 3591835 heartbeat IPC: 2.78409 cumulative IPC: 2.78409 (Simulation time: 0 hr 4 min 49 sec) 
Heartbeat CPU 0 instructions: 20000001 cycles: 7175111 heartbeat IPC: 2.78999 cumulative IPC: 2.78741 (Simulation time: 0 hr 9 min 49 sec) 
Heartbeat CPU 1 instructions: 20000001 cycles: 7176244 heartbeat IPC: 2.78968 cumulative IPC: 2.78697 (Simulation time: 0 hr 9 min 49 sec) 
Heartbeat CPU 2 instructions: 20000001 cycles: 7176554 heartbeat IPC: 2.7895 cumulative IPC: 2.78685 (Simulation time: 0 hr 9 min 49 sec) 
Heartbeat CPU 3 instructions: 20000001 cycles: 7176645 heartbeat IPC: 2.78955 cumulative IPC: 2.78682 (Simulation time: 0 hr 9 min 49 sec) 
Heartbeat CPU 0 instructions: 30000002 cycles: 10763139 heartbeat IPC: 2.78705 cumulative IPC: 2.78729 (Simulation time: 0 hr 14 min 32 sec) 
Heartbeat CPU 1 instructions: 30000002 cycles: 10764246 heartbeat IPC: 2.78707 cumulative IPC: 2.787 (Simulation time: 0 hr 14 min 33 sec) 
Heartbeat CPU 2 instructions: 30000002 cycles: 10764567 heartbeat IPC: 2.78706 cumulative IPC: 2.78692 (Simulation time: 0 hr 14 min 33 sec) 
Heartbeat CPU 3 instructions: 30000002 cycles: 10764750 heartbeat IPC: 2.78699 cumulative IPC: 2.78687 (Simulation time: 0 hr 14 min 33 sec) 
Heartbeat CPU 0 instructions: 40000003 cycles: 14350403 heartbeat IPC: 2.78764 cumulative IPC: 2.78738 (Simulation time: 0 hr 19 min 33 sec) 
Heartbeat CPU 1 instructions: 40000003 cycles: 14351851 heartbeat IPC: 2.78738 cumulative IPC: 2.7871 (Simulation time: 0 hr 19 min 33 sec) 
Heartbeat CPU 2 instructions: 40000003 cycles: 14352573 heartbeat IPC: 2.78706 cumulative IPC: 2.78696 (Simulation time: 0 hr 19 min 33 sec) 
Heartbeat CPU 3 instructions: 40000003 cycles: 14352684 heartbeat IPC: 2.78712 cumulative IPC: 2.78694 (Simulation time: 0 hr 19 min 33 sec) 
Heartbeat CPU 0 instructions: 50000003 cycles: 17936974 heartbeat IPC: 2.78818 cumulative IPC: 2.78754 (Simulation time: 0 hr 24 min 48 sec) 
Heartbeat CPU 1 instructions: 50000003 cycles: 17938399 heartbeat IPC: 2.7882 cumulative IPC: 2.78732 (Simulation time: 0 hr 24 min 49 sec) 
Heartbeat CPU 2 instructions: 50000003 cycles: 17939071 heartbeat IPC: 2.78824 cumulative IPC: 2.78721 (Simulation time: 0 hr 24 min 49 sec) 
Heartbeat CPU 3 instructions: 50000003 cycles: 17939487 heartbeat IPC: 2.788 cumulative IPC: 2.78715 (Simulation time: 0 hr 24 min 49 sec) 

Warmup complete CPU 0 instructions: 50007242 cycles: 17939487 (Simulation time: 0 hr 24 min 49 sec) 
Warmup complete CPU 1 instructions: 50003079 cycles: 17939487 (Simulation time: 0 hr 24 min 49 sec) 
Warmup complete CPU 2 instructions: 50001513 cycles: 17939487 (Simulation time: 0 hr 24 min 49 sec) 
Warmup complete CPU 3 instructions: 50000003 cycles: 17939487 (Simulation time: 0 hr 24 min 49 sec) 

Heartbeat CPU 1 instructions: 60000000 cycles: 27452006 heartbeat IPC: 1.05113 cumulative IPC: 1.05092 (Simulation time: 0 hr 28 min 23 sec) 
Heartbeat CPU 3 instructions: 60000000 cycles: 27492510 heartbeat IPC: 1.04679 cumulative IPC: 1.04679 (Simulation time: 0 hr 28 min 24 sec) 
Heartbeat CPU 0 instructions: 60000000 cycles: 27543282 heartbeat IPC: 1.04098 cumulative IPC: 1.0405 (Simulation time: 0 hr 28 min 26 sec) 
Heartbeat CPU 2 instructions: 60000000 cycles: 27581704 heartbeat IPC: 1.03706 cumulative IPC: 1.03695 (Simulation time: 0 hr 28 min 27 sec) 
Heartbeat CPU 1 instructions: 70000003 cycles: 36051079 heartbeat IPC: 1.16292 cumulative IPC: 1.1041 (Simulation time: 0 hr 32 min 10 sec) 
Heartbeat CPU 3 instructions: 70000003 cycles: 36095043 heartbeat IPC: 1.16245 cumulative IPC: 1.10159 (Simulation time: 0 hr 32 min 12 sec) 
Heartbeat CPU 0 instructions: 70000003 cycles: 36145208 heartbeat IPC: 1.16253 cumulative IPC: 1.09816 (Simulation time: 0 hr 32 min 13 sec) 
Heartbeat CPU 2 instructions: 70000001 cycles: 36187981 heartbeat IPC: 1.16194 cumulative IPC: 1.0959 (Simulation time: 0 hr 32 min 14 sec) 
Heartbeat CPU 1 instructions: 80000001 cycles: 44590843 heartbeat IPC: 1.17099 cumulative IPC: 1.12553 (Simulation time: 0 hr 35 min 40 sec) 
Heartbeat CPU 3 instructions: 80000001 cycles: 44595909 heartbeat IPC: 1.17635 cumulative IPC: 1.12543 (Simulation time: 0 hr 35 min 40 sec) 
Heartbeat CPU 0 instructions: 80000001 cycles: 44688734 heartbeat IPC: 1.17048 cumulative IPC: 1.12126 (Simulation time: 0 hr 35 min 42 sec) 
Heartbeat CPU 2 instructions: 80000001 cycles: 44735317 heartbeat IPC: 1.16996 cumulative IPC: 1.11952 (Simulation time: 0 hr 35 min 43 sec) 
Heartbeat CPU 1 instructions: 90000000 cycles: 53241244 heartbeat IPC: 1.15602 cumulative IPC: 1.133 (Simulation time: 0 hr 39 min 18 sec) 
Heartbeat CPU 3 instructions: 90000000 cycles: 53296405 heartbeat IPC: 1.14936 cumulative IPC: 1.13132 (Simulation time: 0 hr 39 min 19 sec) 
Heartbeat CPU 0 instructions: 90000000 cycles: 53335216 heartbeat IPC: 1.15654 cumulative IPC: 1.12988 (Simulation time: 0 hr 39 min 20 sec) 
Heartbeat CPU 2 instructions: 90000000 cycles: 53377103 heartbeat IPC: 1.15717 cumulative IPC: 1.1287 (Simulation time: 0 hr 39 min 21 sec) 
Heartbeat CPU 1 instructions: 100000000 cycles: 61803398 heartbeat IPC: 1.16793 cumulative IPC: 1.13982 (Simulation time: 0 hr 42 min 52 sec) 
Heartbeat CPU 3 instructions: 100000000 cycles: 61853565 heartbeat IPC: 1.16861 cumulative IPC: 1.13859 (Simulation time: 0 hr 42 min 53 sec) 
Heartbeat CPU 0 instructions: 100000000 cycles: 61962763 heartbeat IPC: 1.15908 cumulative IPC: 1.1356 (Simulation time: 0 hr 42 min 55 sec) 
Heartbeat CPU 2 instructions: 100000000 cycles: 61972595 heartbeat IPC: 1.1634 cumulative IPC: 1.13547 (Simulation time: 0 hr 42 min 55 sec) 
Heartbeat CPU 1 instructions: 110000000 cycles: 70409682 heartbeat IPC: 1.16194 cumulative IPC: 1.14345 (Simulation time: 0 hr 46 min 25 sec) 
Heartbeat CPU 3 instructions: 110000000 cycles: 70498099 heartbeat IPC: 1.1568 cumulative IPC: 1.14158 (Simulation time: 0 hr 46 min 28 sec) 
Heartbeat CPU 0 instructions: 110000000 cycles: 70632863 heartbeat IPC: 1.15339 cumulative IPC: 1.13853 (Simulation time: 0 hr 46 min 31 sec) 
Heartbeat CPU 2 instructions: 110000000 cycles: 70681152 heartbeat IPC: 1.1483 cumulative IPC: 1.13759 (Simulation time: 0 hr 46 min 33 sec) 
Heartbeat CPU 1 instructions: 120000000 cycles: 79000478 heartbeat IPC: 1.16404 cumulative IPC: 1.14634 (Simulation time: 0 hr 49 min 50 sec) 
Heartbeat CPU 3 instructions: 120000000 cycles: 79112864 heartbeat IPC: 1.1608 cumulative IPC: 1.14429 (Simulation time: 0 hr 49 min 52 sec) 
Heartbeat CPU 0 instructions: 120000000 cycles: 79219932 heartbeat IPC: 1.16454 cumulative IPC: 1.14217 (Simulation time: 0 hr 49 min 55 sec) 
Heartbeat CPU 2 instructions: 120000000 cycles: 79303975 heartbeat IPC: 1.15971 cumulative IPC: 1.1407 (Simulation time: 0 hr 49 min 56 sec) 
Heartbeat CPU 1 instructions: 130000000 cycles: 87650576 heartbeat IPC: 1.15606 cumulative IPC: 1.14755 (Simulation time: 0 hr 53 min 25 sec) 
Heartbeat CPU 3 instructions: 130000000 cycles: 87740606 heartbeat IPC: 1.15905 cumulative IPC: 1.14611 (Simulation time: 0 hr 53 min 28 sec) 
Heartbeat CPU 0 instructions: 130000000 cycles: 87878171 heartbeat IPC: 1.15497 cumulative IPC: 1.14376 (Simulation time: 0 hr 53 min 31 sec) 
Heartbeat CPU 2 instructions: 130000000 cycles: 87963661 heartbeat IPC: 1.15478 cumulative IPC: 1.14244 (Simulation time: 0 hr 53 min 34 sec) 
Heartbeat CPU 1 instructions: 140000003 cycles: 96262967 heartbeat IPC: 1.16112 cumulative IPC: 1.14904 (Simulation time: 0 hr 57 min 20 sec) 
Heartbeat CPU 3 instructions: 140000002 cycles: 96347654 heartbeat IPC: 1.16184 cumulative IPC: 1.14784 (Simulation time: 0 hr 57 min 22 sec) 
Heartbeat CPU 0 instructions: 140000002 cycles: 96485554 heartbeat IPC: 1.16179 cumulative IPC: 1.14573 (Simulation time: 0 hr 57 min 25 sec) 
Heartbeat CPU 2 instructions: 140000002 cycles: 96571531 heartbeat IPC: 1.16173 cumulative IPC: 1.14455 (Simulation time: 0 hr 57 min 28 sec) 
Heartbeat CPU 1 instructions: 150000000 cycles: 105325100 heartbeat IPC: 1.10349 cumulative IPC: 1.14432 (Simulation time: 1 hr 0 min 54 sec) 
Heartbeat CPU 3 instructions: 150000000 cycles: 105411808 heartbeat IPC: 1.10325 cumulative IPC: 1.14322 (Simulation time: 1 hr 0 min 57 sec) 
Heartbeat CPU 0 instructions: 150000000 cycles: 105628106 heartbeat IPC: 1.09379 cumulative IPC: 1.14032 (Simulation time: 1 hr 1 min 2 sec) 
Heartbeat CPU 2 instructions: 150000000 cycles: 105663636 heartbeat IPC: 1.09986 cumulative IPC: 1.13992 (Simulation time: 1 hr 1 min 2 sec) 
Heartbeat CPU 1 instructions: 160000002 cycles: 113912621 heartbeat IPC: 1.16448 cumulative IPC: 1.14612 (Simulation time: 1 hr 4 min 32 sec) 
Heartbeat CPU 3 instructions: 160000002 cycles: 113995741 heartbeat IPC: 1.16497 cumulative IPC: 1.14516 (Simulation time: 1 hr 4 min 34 sec) 
Heartbeat CPU 0 instructions: 160000002 cycles: 114183365 heartbeat IPC: 1.16887 cumulative IPC: 1.14285 (Simulation time: 1 hr 4 min 39 sec) 
Heartbeat CPU 2 instructions: 160000002 cycles: 114222977 heartbeat IPC: 1.16831 cumulative IPC: 1.14244 (Simulation time: 1 hr 4 min 41 sec) 
Heartbeat CPU 1 instructions: 170000002 cycles: 122433098 heartbeat IPC: 1.17364 cumulative IPC: 1.14837 (Simulation time: 1 hr 8 min 0 sec) 
Heartbeat CPU 3 instructions: 170000002 cycles: 122514481 heartbeat IPC: 1.17388 cumulative IPC: 1.1475 (Simulation time: 1 hr 8 min 2 sec) 
Heartbeat CPU 0 instructions: 170000002 cycles: 122697534 heartbeat IPC: 1.17451 cumulative IPC: 1.14543 (Simulation time: 1 hr 8 min 6 sec) 
Heartbeat CPU 2 instructions: 170000000 cycles: 122747913 heartbeat IPC: 1.17303 cumulative IPC: 1.14493 (Simulation time: 1 hr 8 min 7 sec) 
Heartbeat CPU 1 instructions: 180000001 cycles: 131067220 heartbeat IPC: 1.1582 cumulative IPC: 1.14912 (Simulation time: 1 hr 11 min 18 sec) 
Heartbeat CPU 3 instructions: 180000001 cycles: 131112787 heartbeat IPC: 1.16302 cumulative IPC: 1.14868 (Simulation time: 1 hr 11 min 19 sec) 
Heartbeat CPU 0 instructions: 180000001 cycles: 131236107 heartbeat IPC: 1.17116 cumulative IPC: 1.14737 (Simulation time: 1 hr 11 min 21 sec) 
Heartbeat CPU 2 instructions: 180000001 cycles: 131383153 heartbeat IPC: 1.15805 cumulative IPC: 1.14593 (Simulation time: 1 hr 11 min 24 sec) 
Heartbeat CPU 1 instructions: 190000002 cycles: 139608046 heartbeat IPC: 1.17085 cumulative IPC: 1.15064 (Simulation time: 1 hr 14 min 40 sec) 
Heartbeat CPU 3 instructions: 190000002 cycles: 139652186 heartbeat IPC: 1.17104 cumulative IPC: 1.15025 (Simulation time: 1 hr 14 min 41 sec) 
Heartbeat CPU 0 instructions: 190000002 cycles: 139837844 heartbeat IPC: 1.16256 cumulative IPC: 1.14844 (Simulation time: 1 hr 14 min 46 sec) 
Heartbeat CPU 2 instructions: 190000002 cycles: 139929969 heartbeat IPC: 1.17003 cumulative IPC: 1.14762 (Simulation time: 1 hr 14 min 48 sec) 
Heartbeat CPU 1 instructions: 200000002 cycles: 148263558 heartbeat IPC: 1.15533 cumulative IPC: 1.15095 (Simulation time: 1 hr 17 min 54 sec) 
Heartbeat CPU 3 instructions: 200000002 cycles: 148308838 heartbeat IPC: 1.15518 cumulative IPC: 1.15058 (Simulation time: 1 hr 17 min 55 sec) 
Heartbeat CPU 0 instructions: 200000002 cycles: 148536710 heartbeat IPC: 1.14958 cumulative IPC: 1.14851 (Simulation time: 1 hr 18 min 0 sec) 
Heartbeat CPU 2 instructions: 200000002 cycles: 148578850 heartbeat IPC: 1.15622 cumulative IPC: 1.14819 (Simulation time: 1 hr 18 min 1 sec) 
Heartbeat CPU 1 instructions: 210000003 cycles: 156953745 heartbeat IPC: 1.15072 cumulative IPC: 1.15094 (Simulation time: 1 hr 21 min 17 sec) 
Heartbeat CPU 3 instructions: 210000003 cycles: 156999187 heartbeat IPC: 1.1507 cumulative IPC: 1.15058 (Simulation time: 1 hr 21 min 18 sec) 
Heartbeat CPU 0 instructions: 210000003 cycles: 157233180 heartbeat IPC: 1.14989 cumulative IPC: 1.1486 (Simulation time: 1 hr 21 min 22 sec) 
Heartbeat CPU 2 instructions: 210000003 cycles: 157280158 heartbeat IPC: 1.14925 cumulative IPC: 1.14825 (Simulation time: 1 hr 21 min 23 sec) 
Heartbeat CPU 1 instructions: 220000000 cycles: 165641922 heartbeat IPC: 1.15099 cumulative IPC: 1.15094 (Simulation time: 1 hr 24 min 45 sec) 
Heartbeat CPU 3 instructions: 220000000 cycles: 165681318 heartbeat IPC: 1.15179 cumulative IPC: 1.15066 (Simulation time: 1 hr 24 min 46 sec) 
Heartbeat CPU 0 instructions: 220000000 cycles: 165912951 heartbeat IPC: 1.1521 cumulative IPC: 1.14881 (Simulation time: 1 hr 24 min 52 sec) 
Heartbeat CPU 2 instructions: 220000000 cycles: 165959692 heartbeat IPC: 1.15214 cumulative IPC: 1.14848 (Simulation time: 1 hr 24 min 54 sec) 
Heartbeat CPU 1 instructions: 230000003 cycles: 174182312 heartbeat IPC: 1.17091 cumulative IPC: 1.15203 (Simulation time: 1 hr 28 min 17 sec) 
Heartbeat CPU 3 instructions: 230000003 cycles: 174224290 heartbeat IPC: 1.17055 cumulative IPC: 1.15174 (Simulation time: 1 hr 28 min 18 sec) 
Heartbeat CPU 0 instructions: 230000003 cycles: 174479600 heartbeat IPC: 1.16732 cumulative IPC: 1.14982 (Simulation time: 1 hr 28 min 25 sec) 
Heartbeat CPU 2 instructions: 230000003 cycles: 174490527 heartbeat IPC: 1.17222 cumulative IPC: 1.14978 (Simulation time: 1 hr 28 min 25 sec) 
Heartbeat CPU 1 instructions: 240000000 cycles: 183035607 heartbeat IPC: 1.12952 cumulative IPC: 1.15083 (Simulation time: 1 hr 31 min 39 sec) 
Heartbeat CPU 3 instructions: 240000000 cycles: 183127590 heartbeat IPC: 1.12318 cumulative IPC: 1.1502 (Simulation time: 1 hr 31 min 41 sec) 
Heartbeat CPU 0 instructions: 240000000 cycles: 183410580 heartbeat IPC: 1.1197 cumulative IPC: 1.14819 (Simulation time: 1 hr 31 min 48 sec) 
Heartbeat CPU 2 instructions: 240000000 cycles: 183498521 heartbeat IPC: 1.11012 cumulative IPC: 1.14762 (Simulation time: 1 hr 31 min 50 sec) 
Heartbeat CPU 1 instructions: 250000002 cycles: 191661644 heartbeat IPC: 1.15928 cumulative IPC: 1.15125 (Simulation time: 1 hr 35 min 8 sec) 
Finished CPU 1 instructions: 200000002 cycles: 173727541 cumulative IPC: 1.15123 (Simulation time: 1 hr 35 min 8 sec) 
Heartbeat CPU 3 instructions: 250000000 cycles: 191704096 heartbeat IPC: 1.16598 cumulative IPC: 1.15098 (Simulation time: 1 hr 35 min 9 sec) 
Finished CPU 3 instructions: 200000001 cycles: 173764610 cumulative IPC: 1.15098 (Simulation time: 1 hr 35 min 9 sec) 
Heartbeat CPU 0 instructions: 250000002 cycles: 192063877 heartbeat IPC: 1.15563 cumulative IPC: 1.14856 (Simulation time: 1 hr 35 min 16 sec) 
Finished CPU 0 instructions: 200000002 cycles: 174131989 cumulative IPC: 1.14855 (Simulation time: 1 hr 35 min 16 sec) 
Heartbeat CPU 2 instructions: 250000000 cycles: 192103907 heartbeat IPC: 1.16206 cumulative IPC: 1.14833 (Simulation time: 1 hr 35 min 17 sec) 
Finished CPU 2 instructions: 200000003 cycles: 174166098 cumulative IPC: 1.14833 (Simulation time: 1 hr 35 min 17 sec) 

ChampSim completed all CPUs

Total Simulation Statistics (not including warmup)

CPU 0 cumulative IPC: 1.14852 instructions: 200033461 cycles: 174166098
ITLB TOTAL     ACCESS:   26887786  HIT:   26887732  MISS:         54  HIT %:    99.9998  MISS %: 0.000200835   MPKI: 0.000269955
ITLB LOAD      ACCESS:          0  HIT:          0  MISS:          0  HIT %:       -nan  MISS %:       -nan   MPKI: 0
ITLB RFO       ACCESS:          0  HIT:          0  MISS:          0  HIT %:       -nan  MISS %:       -nan   MPKI: 0
ITLB PREFETCH  ACCESS:          0  HIT:          0  MISS:          0  HIT %:       -nan  MISS %:       -nan   MPKI: 0
ITLB WRITEBACK ACCESS:          0  HIT:          0  MISS:          0  HIT %:       -nan  MISS %:       -nan   MPKI: 0
DTLB TOTAL     ACCESS:   38370450  HIT:   23362363  MISS:   15008087  HIT %:    60.8863  MISS %:    39.1137   MPKI: 75.0279
DTLB LOAD      ACCESS:          0  HIT:          0  MISS:          0  HIT %:       -nan  MISS %:       -nan   MPKI: 0
DTLB RFO       ACCESS:          0  HIT:          0  MISS:          0  HIT %:       -nan  MISS %:       -nan   MPKI: 0
DTLB PREFETCH  ACCESS:          0  HIT:          0  MISS:          0  HIT %:       -nan  MISS %:       -nan   MPKI: 0
DTLB WRITEBACK ACCESS:          0  HIT:          0  MISS:          0  HIT %:       -nan  MISS %:       -nan   MPKI: 0
STLB TOTAL     ACCESS:   17282215  HIT:   17257638  MISS:      24577  HIT %:    99.8578  MISS %:    0.14221   MPKI: 0.122864
STLB LOAD      ACCESS:          0  HIT:          0  MISS:          0  HIT %:       -nan  MISS %:       -nan   MPKI: 0
STLB RFO       ACCESS:          0  HIT:          0  MISS:          0  HIT %:       -nan  MISS %:       -nan   MPKI: 0
STLB PREFETCH  ACCESS:          0  HIT:          0  MISS:          0  HIT %:       -nan  MISS %:       -nan   MPKI: 0
STLB WRITEBACK ACCESS:          0  HIT:          0  MISS:          0  HIT %:       -nan  MISS %:       -nan   MPKI: 0
L1D TOTAL     ACCESS:   59358217  HIT:   34092382  MISS:   25265835  HIT %:     57.435  MISS %:     42.565   MPKI: 126.308
L1D LOAD      ACCESS:   34435053  HIT:   13027964  MISS:   21407089  HIT %:    37.8334  MISS %:    62.1666   MPKI: 107.018
L1D RFO       ACCESS:   22591815  HIT:   20985343  MISS:    1606472  HIT %:    92.8891  MISS %:    7.11086   MPKI: 8.03102
L1D PREFETCH  ACCESS:    2331349  HIT:      79075  MISS:    2252274  HIT %:    3.39181  MISS %:    96.6082   MPKI: 11.2595
L1D WRITEBACK ACCESS:          0  HIT:          0  MISS:          0  HIT %:       -nan  MISS %:       -nan   MPKI: 0
L1I TOTAL     ACCESS:   35251929  HIT:   35202460  MISS:      49469  HIT %:    99.8597  MISS %:    0.14033   MPKI: 0.247304
L1I LOAD      ACCESS:   35251929  HIT:   35202460  MISS:      49469  HIT %:    99.8597  MISS %:    0.14033   MPKI: 0.247304
L1I RFO       ACCESS:          0  HIT:          0  MISS:          0  HIT %:       -nan  MISS %:       -nan   MPKI: 0
L1I PREFETCH  ACCESS:          0  HIT:          0  MISS:          0  HIT %:       -nan  MISS %:       -nan   MPKI: 0
L1I WRITEBACK ACCESS:          0  HIT:          0  MISS:          0  HIT %:       -nan  MISS %:       -nan   MPKI: 0
L2C TOTAL     ACCESS:   26823298  HIT:   24383463  MISS:    2439835  HIT %:     90.904  MISS %:    9.09595   MPKI: 12.1971
L2C LOAD      ACCESS:   21118815  HIT:   20142180  MISS:     976635  HIT %:    95.3755  MISS %:    4.62448   MPKI: 4.88236
L2C RFO       ACCESS:    1602005  HIT:    1595808  MISS:       6197  HIT %:    99.6132  MISS %:   0.386828   MPKI: 0.0309798
L2C PREFETCH  ACCESS:    2252378  HIT:     830393  MISS:    1421985  HIT %:    36.8674  MISS %:    63.1326   MPKI: 7.10874
L2C WRITEBACK ACCESS:    1810747  HIT:    1807355  MISS:       3392  HIT %:    99.8127  MISS %:   0.187326   MPKI: 0.0169572
PSCL5 TOTAL     ACCESS:      24577  HIT:      24577  MISS:          0  HIT %:        100  MISS %:          0   MPKI: 0
PSCL5 LOAD      ACCESS:          0  HIT:          0  MISS:          0  HIT %:       -nan  MISS %:       -nan   MPKI: 0
PSCL5 RFO       ACCESS:          0  HIT:          0  MISS:          0  HIT %:       -nan  MISS %:       -nan   MPKI: 0
PSCL5 PREFETCH  ACCESS:          0  HIT:          0  MISS:          0  HIT %:       -nan  MISS %:       -nan   MPKI: 0
PSCL5 WRITEBACK ACCESS:          0  HIT:          0  MISS:          0  HIT %:       -nan  MISS %:       -nan   MPKI: 0
PSCL4 TOTAL     ACCESS:      24577  HIT:      24577  MISS:          0  HIT %:        100  MISS %:          0   MPKI: 0
PSCL4 LOAD      ACCESS:          0  HIT:          0  MISS:          0  HIT %:       -nan  MISS %:       -nan   MPKI: 0
PSCL4 RFO       ACCESS:          0  HIT:          0  MISS:          0  HIT %:       -nan  MISS %:       -nan   MPKI: 0
PSCL4 PREFETCH  ACCESS:          0  HIT:          0  MISS:          0  HIT %:       -nan  MISS %:       -nan   MPKI: 0
PSCL4 WRITEBACK ACCESS:          0  HIT:          0  MISS:          0  HIT %:       -nan  MISS %:       -nan   MPKI: 0
PSCL3 TOTAL     ACCESS:      24577  HIT:      24573  MISS:          4  HIT %:    99.9837  MISS %:  0.0162754   MPKI: 1.99967e-05
PSCL3 LOAD      ACCESS:          0  HIT:          0  MISS:          0  HIT %:       -nan  MISS %:       -nan   MPKI: 0
PSCL3 RFO       ACCESS:          0  HIT:          0  MISS:          0  HIT %:       -nan  MISS %:       -nan   MPKI: 0
PSCL3 PREFETCH  ACCESS:          0  HIT:          0  MISS:          0  HIT %:       -nan  MISS %:       -nan   MPKI: 0
PSCL3 WRITEBACK ACCESS:          0  HIT:          0  MISS:          0  HIT %:       -nan  MISS %:       -nan   MPKI: 0
PSCL2 TOTAL     ACCESS:      24577  HIT:       9732  MISS:      14845  HIT %:     39.598  MISS %:     60.402   MPKI: 0.0742126
PSCL2 LOAD      ACCESS:          0  HIT:          0  MISS:          0  HIT %:       -nan  MISS %:       -nan   MPKI: 0
PSCL2 RFO       ACCESS:          0  HIT:          0  MISS:          0  HIT %:       -nan  MISS %:       -nan   MPKI: 0
PSCL2 PREFETCH  ACCESS:          0  HIT:          0  MISS:          0  HIT %:       -nan  MISS %:       -nan   MPKI: 0
PSCL2 WRITEBACK ACCESS:          0  HIT:          0  MISS:          0  HIT %:       -nan  MISS %:       -nan   MPKI: 0

stream: 
stream:times selected: 2848369
stream:pref_filled: 2466225
stream:pref_useful: 9385
stream:pref_late: 133
stream:misses: 5640
stream:misses_by_poll: 0

CS: 
CS:times selected: 2663794
CS:pref_filled: 11188
CS:pref_useful: 45
CS:pref_late: 2
CS:misses: 17352
CS:misses_by_poll: 12

CPLX: 
CPLX:times selected: 2846998
CPLX:pref_filled: 8678
CPLX:pref_useful: 493
CPLX:pref_late: 2
CPLX:misses: 16381289
CPLX:misses_by_poll: 1

NL_L1: 
NL:times selected: 20
NL:pref_filled: 15
NL:pref_useful: 2
NL:pref_late: 0
NL:misses: 10
NL:misses_by_poll: 0

total selections: 8359181
total_filled: 2252274
total_useful: 1388
total_late: 146
total_polluted: 13
total_misses_after_warmup: 21887599
conflicts: 8348130
Degree Incremented Times: 0
Degree Decremented Times: 3505695

L1 IP Table Write Accesses: 107120652
L1 IP Table Read Accesses: 98772522
L1 RST Write Accesses: 10190918
L1 RST Read Accesses: 20381836
L1 CSPT Write Accesses: 10190918
L1 CSPT Read Accesses: 20381815
L1 RR Filter Tag Write Accesses: 9906535
L1 RR Filter Tag Read Accesses: 939479777
L1 IP Table Tag Write Accesses: 139808934
L1 IP Table Tag Read Accesses: 139808934
L1 RST Tag Write Accesses: 0
L1 RST Tag Read Accesses: 91746100
L1 RR Filter Write Accesses: 0
L1 RR Filter Read Accesses: 29585405
test: 261023
LLC TOTAL     ACCESS:    2632162  HIT:    1082371  MISS:    1549791  HIT %:     41.121  MISS %:     58.879   MPKI: 7.74766
LLC LOAD      ACCESS:     976633  HIT:     528372  MISS:     448261  HIT %:    54.1014  MISS %:    45.8986   MPKI: 2.24093
LLC RFO       ACCESS:       6162  HIT:       5053  MISS:       1109  HIT %:    82.0026  MISS %:    17.9974   MPKI: 0.00554407
LLC PREFETCH  ACCESS:    1421985  HIT:     329950  MISS:    1092035  HIT %:    23.2035  MISS %:    76.7965   MPKI: 5.45926
LLC WRITEBACK ACCESS:     195756  HIT:     191215  MISS:       4541  HIT %:    97.6803  MISS %:    2.31972   MPKI: 0.0227012

RAW hits: 140982
Loads Generated: 57300718
Loads sent to L1D: 57159738
Stores Generated: 22789179
Stores sent to L1D: 22789179

CPU 1 cumulative IPC: 1.15135 instructions: 200526585 cycles: 174166098
ITLB TOTAL     ACCESS:   26942501  HIT:   26942447  MISS:         54  HIT %:    99.9998  MISS %: 0.000200427   MPKI: 0.000269291
ITLB LOAD      ACCESS:          0  HIT:          0  MISS:          0  HIT %:       -nan  MISS %:       -nan   MPKI: 0
ITLB RFO       ACCESS:          0  HIT:          0  MISS:          0  HIT %:       -nan  MISS %:       -nan   MPKI: 0
ITLB PREFETCH  ACCESS:          0  HIT:          0  MISS:          0  HIT %:       -nan  MISS %:       -nan   MPKI: 0
ITLB WRITEBACK ACCESS:          0  HIT:          0  MISS:          0  HIT %:       -nan  MISS %:       -nan   MPKI: 0
DTLB TOTAL     ACCESS:   38454370  HIT:   23409291  MISS:   15045079  HIT %:    60.8755  MISS %:    39.1245   MPKI: 75.0279
DTLB LOAD      ACCESS:          0  HIT:          0  MISS:          0  HIT %:       -nan  MISS %:       -nan   MPKI: 0
DTLB RFO       ACCESS:          0  HIT:          0  MISS:          0  HIT %:       -nan  MISS %:       -nan   MPKI: 0
DTLB PREFETCH  ACCESS:          0  HIT:          0  MISS:          0  HIT %:       -nan  MISS %:       -nan   MPKI: 0
DTLB WRITEBACK ACCESS:          0  HIT:          0  MISS:          0  HIT %:       -nan  MISS %:       -nan   MPKI: 0
STLB TOTAL     ACCESS:   17305249  HIT:   17280646  MISS:      24603  HIT %:    99.8578  MISS %:   0.142171   MPKI: 0.122692
STLB LOAD      ACCESS:          0  HIT:          0  MISS:          0  HIT %:       -nan  MISS %:       -nan   MPKI: 0
STLB RFO       ACCESS:          0  HIT:          0  MISS:          0  HIT %:       -nan  MISS %:       -nan   MPKI: 0
STLB PREFETCH  ACCESS:          0  HIT:          0  MISS:          0  HIT %:       -nan  MISS %:       -nan   MPKI: 0
STLB WRITEBACK ACCESS:          0  HIT:          0  MISS:          0  HIT %:       -nan  MISS %:       -nan   MPKI: 0
L1D TOTAL     ACCESS:   59470252  HIT:   34172793  MISS:   25297459  HIT %:     57.462  MISS %:     42.538   MPKI: 126.155
L1D LOAD      ACCESS:   34508010  HIT:   13053459  MISS:   21454551  HIT %:    37.8273  MISS %:    62.1727   MPKI: 106.991
L1D RFO       ACCESS:   22648933  HIT:   21039012  MISS:    1609921  HIT %:    92.8918  MISS %:    7.10815   MPKI: 8.02847
L1D PREFETCH  ACCESS:    2313309  HIT:      80322  MISS:    2232987  HIT %:    3.47217  MISS %:    96.5278   MPKI: 11.1356
L1D WRITEBACK ACCESS:          0  HIT:          0  MISS:          0  HIT %:       -nan  MISS %:       -nan   MPKI: 0
L1I TOTAL     ACCESS:   35318848  HIT:   35269269  MISS:      49579  HIT %:    99.8596  MISS %:   0.140375   MPKI: 0.247244
L1I LOAD      ACCESS:   35318848  HIT:   35269269  MISS:      49579  HIT %:    99.8596  MISS %:   0.140375   MPKI: 0.247244
L1I RFO       ACCESS:          0  HIT:          0  MISS:          0  HIT %:       -nan  MISS %:       -nan   MPKI: 0
L1I PREFETCH  ACCESS:          0  HIT:          0  MISS:          0  HIT %:       -nan  MISS %:       -nan   MPKI: 0
L1I WRITEBACK ACCESS:          0  HIT:          0  MISS:          0  HIT %:       -nan  MISS %:       -nan   MPKI: 0
L2C TOTAL     ACCESS:   26860395  HIT:   24451055  MISS:    2409340  HIT %:    91.0301  MISS %:    8.96986   MPKI: 12.0151
L2C LOAD      ACCESS:   21169129  HIT:   20234149  MISS:     934980  HIT %:    95.5833  MISS %:    4.41671   MPKI: 4.66262
L2C RFO       ACCESS:    1605416  HIT:    1597751  MISS:       7665  HIT %:    99.5226  MISS %:   0.477446   MPKI: 0.0382244
L2C PREFETCH  ACCESS:    2233055  HIT:     802224  MISS:    1430831  HIT %:     35.925  MISS %:     64.075   MPKI: 7.13537
L2C WRITEBACK ACCESS:    1813404  HIT:    1809464  MISS:       3940  HIT %:    99.7827  MISS %:   0.217271   MPKI: 0.0196483
PSCL5 TOTAL     ACCESS:      24603  HIT:      24603  MISS:          0  HIT %:        100  MISS %:          0   MPKI: 0
PSCL5 LOAD      ACCESS:          0  HIT:          0  MISS:          0  HIT %:       -nan  MISS %:       -nan   MPKI: 0
PSCL5 RFO       ACCESS:          0  HIT:          0  MISS:          0  HIT %:       -nan  MISS %:       -nan   MPKI: 0
PSCL5 PREFETCH  ACCESS:          0  HIT:          0  MISS:          0  HIT %:       -nan  MISS %:       -nan   MPKI: 0
PSCL5 WRITEBACK ACCESS:          0  HIT:          0  MISS:          0  HIT %:       -nan  MISS %:       -nan   MPKI: 0
PSCL4 TOTAL     ACCESS:      24603  HIT:      24603  MISS:          0  HIT %:        100  MISS %:          0   MPKI: 0
PSCL4 LOAD      ACCESS:          0  HIT:          0  MISS:          0  HIT %:       -nan  MISS %:       -nan   MPKI: 0
PSCL4 RFO       ACCESS:          0  HIT:          0  MISS:          0  HIT %:       -nan  MISS %:       -nan   MPKI: 0
PSCL4 PREFETCH  ACCESS:          0  HIT:          0  MISS:          0  HIT %:       -nan  MISS %:       -nan   MPKI: 0
PSCL4 WRITEBACK ACCESS:          0  HIT:          0  MISS:          0  HIT %:       -nan  MISS %:       -nan   MPKI: 0
PSCL3 TOTAL     ACCESS:      24603  HIT:      24599  MISS:          4  HIT %:    99.9837  MISS %:  0.0162582   MPKI: 1.99475e-05
PSCL3 LOAD      ACCESS:          0  HIT:          0  MISS:          0  HIT %:       -nan  MISS %:       -nan   MPKI: 0
PSCL3 RFO       ACCESS:          0  HIT:          0  MISS:          0  HIT %:       -nan  MISS %:       -nan   MPKI: 0
PSCL3 PREFETCH  ACCESS:          0  HIT:          0  MISS:          0  HIT %:       -nan  MISS %:       -nan   MPKI: 0
PSCL3 WRITEBACK ACCESS:          0  HIT:          0  MISS:          0  HIT %:       -nan  MISS %:       -nan   MPKI: 0
PSCL2 TOTAL     ACCESS:      24603  HIT:       9746  MISS:      14857  HIT %:    39.6131  MISS %:    60.3869   MPKI: 0.0740899
PSCL2 LOAD      ACCESS:          0  HIT:          0  MISS:          0  HIT %:       -nan  MISS %:       -nan   MPKI: 0
PSCL2 RFO       ACCESS:          0  HIT:          0  MISS:          0  HIT %:       -nan  MISS %:       -nan   MPKI: 0
PSCL2 PREFETCH  ACCESS:          0  HIT:          0  MISS:          0  HIT %:       -nan  MISS %:       -nan   MPKI: 0
PSCL2 WRITEBACK ACCESS:          0  HIT:          0  MISS:          0  HIT %:       -nan  MISS %:       -nan   MPKI: 0

stream: 
stream:times selected: 2842425
stream:pref_filled: 2388419
stream:pref_useful: 9519
stream:pref_late: 91
stream:misses: 5495
stream:misses_by_poll: 0

CS: 
CS:times selected: 2657273
CS:pref_filled: 11388
CS:pref_useful: 83
CS:pref_late: 3
CS:misses: 17171
CS:misses_by_poll: 6

CPLX: 
CPLX:times selected: 2840991
CPLX:pref_filled: 7093
CPLX:pref_useful: 316
CPLX:pref_late: 1
CPLX:misses: 16281424
CPLX:misses_by_poll: 2

NL_L1: 
NL:times selected: 19
NL:pref_filled: 8
NL:pref_useful: 0
NL:pref_late: 0
NL:misses: 23
NL:misses_by_poll: 0

total selections: 8340708
total_filled: 2232987
total_useful: 1325
total_late: 98
total_polluted: 8
total_misses_after_warmup: 21939314
conflicts: 8348130
Degree Incremented Times: 0
Degree Decremented Times: 3505695

L1 IP Table Write Accesses: 107120652
L1 IP Table Read Accesses: 98772522
L1 RST Write Accesses: 10190918
L1 RST Read Accesses: 20381836
L1 CSPT Write Accesses: 10190918
L1 CSPT Read Accesses: 20381815
L1 RR Filter Tag Write Accesses: 9906535
L1 RR Filter Tag Read Accesses: 939479777
L1 IP Table Tag Write Accesses: 139808934
L1 IP Table Tag Read Accesses: 139808934
L1 RST Tag Write Accesses: 0
L1 RST Tag Read Accesses: 91746100
L1 RR Filter Write Accesses: 0
L1 RR Filter Read Accesses: 29585405
test: 261023
LLC TOTAL     ACCESS:    2603446  HIT:    1047167  MISS:    1556279  HIT %:    40.2223  MISS %:    59.7777   MPKI: 7.76096
LLC LOAD      ACCESS:     934975  HIT:     500907  MISS:     434068  HIT %:    53.5744  MISS %:    46.4256   MPKI: 2.16464
LLC RFO       ACCESS:       7557  HIT:       6448  MISS:       1109  HIT %:    85.3249  MISS %:    14.6751   MPKI: 0.00553044
LLC PREFETCH  ACCESS:    1430831  HIT:     318226  MISS:    1112605  HIT %:    22.2406  MISS %:    77.7594   MPKI: 5.54842
LLC WRITEBACK ACCESS:     198159  HIT:     193400  MISS:       4759  HIT %:    97.5984  MISS %:    2.40161   MPKI: 0.0237325

RAW hits: 141554
Loads Generated: 57441673
Loads sent to L1D: 57300107
Stores Generated: 22845326
Stores sent to L1D: 22845328

CPU 2 cumulative IPC: 1.14833 instructions: 200000003 cycles: 174166098
ITLB TOTAL     ACCESS:   26876519  HIT:   26876465  MISS:         54  HIT %:    99.9998  MISS %: 0.000200919   MPKI: 0.00027
ITLB LOAD      ACCESS:          0  HIT:          0  MISS:          0  HIT %:       -nan  MISS %:       -nan   MPKI: 0
ITLB RFO       ACCESS:          0  HIT:          0  MISS:          0  HIT %:       -nan  MISS %:       -nan   MPKI: 0
ITLB PREFETCH  ACCESS:          0  HIT:          0  MISS:          0  HIT %:       -nan  MISS %:       -nan   MPKI: 0
ITLB WRITEBACK ACCESS:          0  HIT:          0  MISS:          0  HIT %:       -nan  MISS %:       -nan   MPKI: 0
DTLB TOTAL     ACCESS:   38345121  HIT:   23339741  MISS:   15005380  HIT %:    60.8676  MISS %:    39.1324   MPKI: 75.0269
DTLB LOAD      ACCESS:          0  HIT:          0  MISS:          0  HIT %:       -nan  MISS %:       -nan   MPKI: 0
DTLB RFO       ACCESS:          0  HIT:          0  MISS:          0  HIT %:       -nan  MISS %:       -nan   MPKI: 0
DTLB PREFETCH  ACCESS:          0  HIT:          0  MISS:          0  HIT %:       -nan  MISS %:       -nan   MPKI: 0
DTLB WRITEBACK ACCESS:          0  HIT:          0  MISS:          0  HIT %:       -nan  MISS %:       -nan   MPKI: 0
STLB TOTAL     ACCESS:   17275214  HIT:   17250660  MISS:      24554  HIT %:    99.8579  MISS %:   0.142134   MPKI: 0.12277
STLB LOAD      ACCESS:          0  HIT:          0  MISS:          0  HIT %:       -nan  MISS %:       -nan   MPKI: 0
STLB RFO       ACCESS:          0  HIT:          0  MISS:          0  HIT %:       -nan  MISS %:       -nan   MPKI: 0
STLB PREFETCH  ACCESS:          0  HIT:          0  MISS:          0  HIT %:       -nan  MISS %:       -nan   MPKI: 0
STLB WRITEBACK ACCESS:          0  HIT:          0  MISS:          0  HIT %:       -nan  MISS %:       -nan   MPKI: 0
L1D TOTAL     ACCESS:   59328956  HIT:   34083672  MISS:   25245284  HIT %:    57.4486  MISS %:    42.5514   MPKI: 126.226
L1D LOAD      ACCESS:   34419233  HIT:   13020894  MISS:   21398339  HIT %:    37.8303  MISS %:    62.1697   MPKI: 106.992
L1D RFO       ACCESS:   22587589  HIT:   20981046  MISS:    1606543  HIT %:    92.8875  MISS %:     7.1125   MPKI: 8.03271
L1D PREFETCH  ACCESS:    2322134  HIT:      81732  MISS:    2240402  HIT %:    3.51969  MISS %:    96.4803   MPKI: 11.202
L1D WRITEBACK ACCESS:          0  HIT:          0  MISS:          0  HIT %:       -nan  MISS %:       -nan   MPKI: 0
L1I TOTAL     ACCESS:   35241655  HIT:   35192030  MISS:      49625  HIT %:    99.8592  MISS %:   0.140813   MPKI: 0.248125
L1I LOAD      ACCESS:   35241655  HIT:   35192030  MISS:      49625  HIT %:    99.8592  MISS %:   0.140813   MPKI: 0.248125
L1I RFO       ACCESS:          0  HIT:          0  MISS:          0  HIT %:       -nan  MISS %:       -nan   MPKI: 0
L1I PREFETCH  ACCESS:          0  HIT:          0  MISS:          0  HIT %:       -nan  MISS %:       -nan   MPKI: 0
L1I WRITEBACK ACCESS:          0  HIT:          0  MISS:          0  HIT %:       -nan  MISS %:       -nan   MPKI: 0
L2C TOTAL     ACCESS:   26806668  HIT:   24280379  MISS:    2526289  HIT %:    90.5759  MISS %:    9.42411   MPKI: 12.6314
L2C LOAD      ACCESS:   21113945  HIT:   20053265  MISS:    1060680  HIT %:    94.9764  MISS %:     5.0236   MPKI: 5.3034
L2C RFO       ACCESS:    1602178  HIT:    1586402  MISS:      15776  HIT %:    99.0153  MISS %:    0.98466   MPKI: 0.07888
L2C PREFETCH  ACCESS:    2240486  HIT:     826100  MISS:    1414386  HIT %:    36.8715  MISS %:    63.1285   MPKI: 7.07193
L2C WRITEBACK ACCESS:    1810747  HIT:    1807176  MISS:       3571  HIT %:    99.8028  MISS %:   0.197211   MPKI: 0.017855
PSCL5 TOTAL     ACCESS:      24554  HIT:      24554  MISS:          0  HIT %:        100  MISS %:          0   MPKI: 0
PSCL5 LOAD      ACCESS:          0  HIT:          0  MISS:          0  HIT %:       -nan  MISS %:       -nan   MPKI: 0
PSCL5 RFO       ACCESS:          0  HIT:          0  MISS:          0  HIT %:       -nan  MISS %:       -nan   MPKI: 0
PSCL5 PREFETCH  ACCESS:          0  HIT:          0  MISS:          0  HIT %:       -nan  MISS %:       -nan   MPKI: 0
PSCL5 WRITEBACK ACCESS:          0  HIT:          0  MISS:          0  HIT %:       -nan  MISS %:       -nan   MPKI: 0
PSCL4 TOTAL     ACCESS:      24554  HIT:      24554  MISS:          0  HIT %:        100  MISS %:          0   MPKI: 0
PSCL4 LOAD      ACCESS:          0  HIT:          0  MISS:          0  HIT %:       -nan  MISS %:       -nan   MPKI: 0
PSCL4 RFO       ACCESS:          0  HIT:          0  MISS:          0  HIT %:       -nan  MISS %:       -nan   MPKI: 0
PSCL4 PREFETCH  ACCESS:          0  HIT:          0  MISS:          0  HIT %:       -nan  MISS %:       -nan   MPKI: 0
PSCL4 WRITEBACK ACCESS:          0  HIT:          0  MISS:          0  HIT %:       -nan  MISS %:       -nan   MPKI: 0
PSCL3 TOTAL     ACCESS:      24554  HIT:      24550  MISS:          4  HIT %:    99.9837  MISS %:  0.0162906   MPKI: 2e-05
PSCL3 LOAD      ACCESS:          0  HIT:          0  MISS:          0  HIT %:       -nan  MISS %:       -nan   MPKI: 0
PSCL3 RFO       ACCESS:          0  HIT:          0  MISS:          0  HIT %:       -nan  MISS %:       -nan   MPKI: 0
PSCL3 PREFETCH  ACCESS:          0  HIT:          0  MISS:          0  HIT %:       -nan  MISS %:       -nan   MPKI: 0
PSCL3 WRITEBACK ACCESS:          0  HIT:          0  MISS:          0  HIT %:       -nan  MISS %:       -nan   MPKI: 0
PSCL2 TOTAL     ACCESS:      24554  HIT:       9727  MISS:      14827  HIT %:    39.6147  MISS %:    60.3853   MPKI: 0.074135
PSCL2 LOAD      ACCESS:          0  HIT:          0  MISS:          0  HIT %:       -nan  MISS %:       -nan   MPKI: 0
PSCL2 RFO       ACCESS:          0  HIT:          0  MISS:          0  HIT %:       -nan  MISS %:       -nan   MPKI: 0
PSCL2 PREFETCH  ACCESS:          0  HIT:          0  MISS:          0  HIT %:       -nan  MISS %:       -nan   MPKI: 0
PSCL2 WRITEBACK ACCESS:          0  HIT:          0  MISS:          0  HIT %:       -nan  MISS %:       -nan   MPKI: 0

stream: 
stream:times selected: 2849234
stream:pref_filled: 2342415
stream:pref_useful: 9508
stream:pref_late: 92
stream:misses: 5430
stream:misses_by_poll: 0

CS: 
CS:times selected: 2664703
CS:pref_filled: 10189
CS:pref_useful: 46
CS:pref_late: 2
CS:misses: 16305
CS:misses_by_poll: 9

CPLX: 
CPLX:times selected: 2847846
CPLX:pref_filled: 5785
CPLX:pref_useful: 212
CPLX:pref_late: 2
CPLX:misses: 16369066
CPLX:misses_by_poll: 2

NL_L1: 
NL:times selected: 15
NL:pref_filled: 5
NL:pref_useful: 0
NL:pref_late: 0
NL:misses: 12
NL:misses_by_poll: 0

total selections: 8361798
total_filled: 2240402
total_useful: 1279
total_late: 100
total_polluted: 11
total_misses_after_warmup: 21886909
conflicts: 8348130
Degree Incremented Times: 0
Degree Decremented Times: 3505695

L1 IP Table Write Accesses: 107120652
L1 IP Table Read Accesses: 98772522
L1 RST Write Accesses: 10190918
L1 RST Read Accesses: 20381836
L1 CSPT Write Accesses: 10190918
L1 CSPT Read Accesses: 20381815
L1 RR Filter Tag Write Accesses: 9906535
L1 RR Filter Tag Read Accesses: 939479777
L1 IP Table Tag Write Accesses: 139808934
L1 IP Table Tag Read Accesses: 139808934
L1 RST Tag Write Accesses: 0
L1 RST Tag Read Accesses: 91746100
L1 RR Filter Write Accesses: 0
L1 RR Filter Read Accesses: 29585405
test: 261023
LLC TOTAL     ACCESS:    2721025  HIT:    1173476  MISS:    1547549  HIT %:    43.1262  MISS %:    56.8738   MPKI: 7.73774
LLC LOAD      ACCESS:    1060673  HIT:     622692  MISS:     437981  HIT %:    58.7073  MISS %:    41.2927   MPKI: 2.1899
LLC RFO       ACCESS:      15623  HIT:      14515  MISS:       1108  HIT %:    92.9079  MISS %:    7.09211   MPKI: 0.00554
LLC PREFETCH  ACCESS:    1414386  HIT:     313723  MISS:    1100663  HIT %:    22.1809  MISS %:    77.8191   MPKI: 5.50331
LLC WRITEBACK ACCESS:     198467  HIT:     194405  MISS:       4062  HIT %:    97.9533  MISS %:    2.04669   MPKI: 0.02031

RAW hits: 141134
Loads Generated: 57291718
Loads sent to L1D: 57150584
Stores Generated: 22785093
Stores sent to L1D: 22785093

CPU 3 cumulative IPC: 1.1511 instructions: 200482153 cycles: 174166098
ITLB TOTAL     ACCESS:   26917386  HIT:   26917332  MISS:         54  HIT %:    99.9998  MISS %: 0.000200614   MPKI: 0.000269351
ITLB LOAD      ACCESS:          0  HIT:          0  MISS:          0  HIT %:       -nan  MISS %:       -nan   MPKI: 0
ITLB RFO       ACCESS:          0  HIT:          0  MISS:          0  HIT %:       -nan  MISS %:       -nan   MPKI: 0
ITLB PREFETCH  ACCESS:          0  HIT:          0  MISS:          0  HIT %:       -nan  MISS %:       -nan   MPKI: 0
ITLB WRITEBACK ACCESS:          0  HIT:          0  MISS:          0  HIT %:       -nan  MISS %:       -nan   MPKI: 0
DTLB TOTAL     ACCESS:   38437407  HIT:   23395867  MISS:   15041540  HIT %:    60.8674  MISS %:    39.1326   MPKI: 75.0268
DTLB LOAD      ACCESS:          0  HIT:          0  MISS:          0  HIT %:       -nan  MISS %:       -nan   MPKI: 0
DTLB RFO       ACCESS:          0  HIT:          0  MISS:          0  HIT %:       -nan  MISS %:       -nan   MPKI: 0
DTLB PREFETCH  ACCESS:          0  HIT:          0  MISS:          0  HIT %:       -nan  MISS %:       -nan   MPKI: 0
DTLB WRITEBACK ACCESS:          0  HIT:          0  MISS:          0  HIT %:       -nan  MISS %:       -nan   MPKI: 0
STLB TOTAL     ACCESS:   17313045  HIT:   17288443  MISS:      24602  HIT %:    99.8579  MISS %:   0.142101   MPKI: 0.122714
STLB LOAD      ACCESS:          0  HIT:          0  MISS:          0  HIT %:       -nan  MISS %:       -nan   MPKI: 0
STLB RFO       ACCESS:          0  HIT:          0  MISS:          0  HIT %:       -nan  MISS %:       -nan   MPKI: 0
STLB PREFETCH  ACCESS:          0  HIT:          0  MISS:          0  HIT %:       -nan  MISS %:       -nan   MPKI: 0
STLB WRITEBACK ACCESS:          0  HIT:          0  MISS:          0  HIT %:       -nan  MISS %:       -nan   MPKI: 0
L1D TOTAL     ACCESS:   59473779  HIT:   34159979  MISS:   25313800  HIT %:     57.437  MISS %:     42.563   MPKI: 126.265
L1D LOAD      ACCESS:   34494421  HIT:   13046485  MISS:   21447936  HIT %:     37.822  MISS %:     62.178   MPKI: 106.982
L1D RFO       ACCESS:   22643375  HIT:   21033528  MISS:    1609847  HIT %:    92.8904  MISS %:    7.10957   MPKI: 8.02988
L1D PREFETCH  ACCESS:    2335983  HIT:      79966  MISS:    2256017  HIT %:    3.42323  MISS %:    96.5768   MPKI: 11.253
L1D WRITEBACK ACCESS:          0  HIT:          0  MISS:          0  HIT %:       -nan  MISS %:       -nan   MPKI: 0
L1I TOTAL     ACCESS:   35289511  HIT:   35239854  MISS:      49657  HIT %:    99.8593  MISS %:   0.140713   MPKI: 0.247688
L1I LOAD      ACCESS:   35289511  HIT:   35239854  MISS:      49657  HIT %:    99.8593  MISS %:   0.140713   MPKI: 0.247688
L1I RFO       ACCESS:          0  HIT:          0  MISS:          0  HIT %:       -nan  MISS %:       -nan   MPKI: 0
L1I PREFETCH  ACCESS:          0  HIT:          0  MISS:          0  HIT %:       -nan  MISS %:       -nan   MPKI: 0
L1I WRITEBACK ACCESS:          0  HIT:          0  MISS:          0  HIT %:       -nan  MISS %:       -nan   MPKI: 0
L2C TOTAL     ACCESS:   26878699  HIT:   24336144  MISS:    2542555  HIT %:    90.5406  MISS %:    9.45937   MPKI: 12.6822
L2C LOAD      ACCESS:   21163815  HIT:   20112149  MISS:    1051666  HIT %:    95.0308  MISS %:    4.96917   MPKI: 5.24568
L2C RFO       ACCESS:    1605440  HIT:    1592862  MISS:      12578  HIT %:    99.2165  MISS %:   0.783461   MPKI: 0.0627388
L2C PREFETCH  ACCESS:    2256107  HIT:     813088  MISS:    1443019  HIT %:    36.0394  MISS %:    63.9606   MPKI: 7.19774
L2C WRITEBACK ACCESS:    1813948  HIT:    1810378  MISS:       3570  HIT %:    99.8032  MISS %:   0.196808   MPKI: 0.0178071
PSCL5 TOTAL     ACCESS:      24602  HIT:      24602  MISS:          0  HIT %:        100  MISS %:          0   MPKI: 0
PSCL5 LOAD      ACCESS:          0  HIT:          0  MISS:          0  HIT %:       -nan  MISS %:       -nan   MPKI: 0
PSCL5 RFO       ACCESS:          0  HIT:          0  MISS:          0  HIT %:       -nan  MISS %:       -nan   MPKI: 0
PSCL5 PREFETCH  ACCESS:          0  HIT:          0  MISS:          0  HIT %:       -nan  MISS %:       -nan   MPKI: 0
PSCL5 WRITEBACK ACCESS:          0  HIT:          0  MISS:          0  HIT %:       -nan  MISS %:       -nan   MPKI: 0
PSCL4 TOTAL     ACCESS:      24602  HIT:      24602  MISS:          0  HIT %:        100  MISS %:          0   MPKI: 0
PSCL4 LOAD      ACCESS:          0  HIT:          0  MISS:          0  HIT %:       -nan  MISS %:       -nan   MPKI: 0
PSCL4 RFO       ACCESS:          0  HIT:          0  MISS:          0  HIT %:       -nan  MISS %:       -nan   MPKI: 0
PSCL4 PREFETCH  ACCESS:          0  HIT:          0  MISS:          0  HIT %:       -nan  MISS %:       -nan   MPKI: 0
PSCL4 WRITEBACK ACCESS:          0  HIT:          0  MISS:          0  HIT %:       -nan  MISS %:       -nan   MPKI: 0
PSCL3 TOTAL     ACCESS:      24602  HIT:      24598  MISS:          4  HIT %:    99.9837  MISS %:  0.0162588   MPKI: 1.99519e-05
PSCL3 LOAD      ACCESS:          0  HIT:          0  MISS:          0  HIT %:       -nan  MISS %:       -nan   MPKI: 0
PSCL3 RFO       ACCESS:          0  HIT:          0  MISS:          0  HIT %:       -nan  MISS %:       -nan   MPKI: 0
PSCL3 PREFETCH  ACCESS:          0  HIT:          0  MISS:          0  HIT %:       -nan  MISS %:       -nan   MPKI: 0
PSCL3 WRITEBACK ACCESS:          0  HIT:          0  MISS:          0  HIT %:       -nan  MISS %:       -nan   MPKI: 0
PSCL2 TOTAL     ACCESS:      24602  HIT:       9746  MISS:      14856  HIT %:    39.6147  MISS %:    60.3853   MPKI: 0.0741014
PSCL2 LOAD      ACCESS:          0  HIT:          0  MISS:          0  HIT %:       -nan  MISS %:       -nan   MPKI: 0
PSCL2 RFO       ACCESS:          0  HIT:          0  MISS:          0  HIT %:       -nan  MISS %:       -nan   MPKI: 0
PSCL2 PREFETCH  ACCESS:          0  HIT:          0  MISS:          0  HIT %:       -nan  MISS %:       -nan   MPKI: 0
PSCL2 WRITEBACK ACCESS:          0  HIT:          0  MISS:          0  HIT %:       -nan  MISS %:       -nan   MPKI: 0

stream: 
stream:times selected: 2856274
stream:pref_filled: 2312895
stream:pref_useful: 13534
stream:pref_late: 104
stream:misses: 5444
stream:misses_by_poll: 0

CS: 
CS:times selected: 2670027
CS:pref_filled: 11205
CS:pref_useful: 76
CS:pref_late: 2
CS:misses: 17171
CS:misses_by_poll: 11

CPLX: 
CPLX:times selected: 2854863
CPLX:pref_filled: 5244
CPLX:pref_useful: 170
CPLX:pref_late: 1
CPLX:misses: 16371905
CPLX:misses_by_poll: 2

NL_L1: 
NL:times selected: 14
NL:pref_filled: 2
NL:pref_useful: 1
NL:pref_late: 0
NL:misses: 12
NL:misses_by_poll: 0

total selections: 8381178
total_filled: 2256017
total_useful: 1357
total_late: 112
total_polluted: 13
total_misses_after_warmup: 21938210
conflicts: 8348130
Degree Incremented Times: 0
Degree Decremented Times: 3505695

L1 IP Table Write Accesses: 107120652
L1 IP Table Read Accesses: 98772522
L1 RST Write Accesses: 10190918
L1 RST Read Accesses: 20381836
L1 CSPT Write Accesses: 10190918
L1 CSPT Read Accesses: 20381815
L1 RR Filter Tag Write Accesses: 9906535
L1 RR Filter Tag Read Accesses: 939479777
L1 IP Table Tag Write Accesses: 139808934
L1 IP Table Tag Read Accesses: 139808934
L1 RST Tag Write Accesses: 0
L1 RST Tag Read Accesses: 91746100
L1 RR Filter Write Accesses: 0
L1 RR Filter Read Accesses: 29585405
test: 261023
LLC TOTAL     ACCESS:    2736924  HIT:    1185417  MISS:    1551507  HIT %:     43.312  MISS %:     56.688   MPKI: 7.73888
LLC LOAD      ACCESS:    1051656  HIT:     618750  MISS:     432906  HIT %:    58.8358  MISS %:    41.1642   MPKI: 2.15932
LLC RFO       ACCESS:      12496  HIT:      11387  MISS:       1109  HIT %:    91.1252  MISS %:    8.87484   MPKI: 0.00553166
LLC PREFETCH  ACCESS:    1443019  HIT:     333560  MISS:    1109459  HIT %:    23.1154  MISS %:    76.8846   MPKI: 5.53395
LLC WRITEBACK ACCESS:     198031  HIT:     193758  MISS:       4273  HIT %:    97.8423  MISS %:    2.15774   MPKI: 0.0213136

RAW hits: 141806
Loads Generated: 57429325
Loads sent to L1D: 57287519
Stores Generated: 22840138
Stores sent to L1D: 22840139

Region of Interest Statistics

CPU 0 cumulative IPC: 1.14855 instructions: 200000002 cycles: 174131989
ITLB TOTAL     ACCESS:   26883263  HIT:   26883209  MISS:         54  HIT %:    99.9998  MISS %: 0.000200868   MPKI: 0.00027
ITLB LOAD TRANSLATION ACCESS:   26883263  HIT:   26883209  MISS:         54  HIT %:    99.9998  MISS %: 0.000200868   MPKI: 0.00027
ITLB PREFETCH  REQUESTED:          0  ISSUED:          0  USEFUL:          0  USELESS:          0
ITLB USEFUL LOAD PREFETCHES:          0 PREFETCH ISSUED TO LOWER LEVEL:          0  ACCURACY: -nan
ITLB TIMELY PREFETCHES:          0 LATE PREFETCHES: 0 DROPPED PREFETCHES: 0
ITLB PREFETCHES SAME FILL-ORIGIN LEVEL: 0 DIFFERENT FILL-ORIGIN LEVEL: 0
ITLB AVERAGE MISS LATENCY: 431.574 cycles
ITLB RQ	ACCESS:   35277364	FORWARD:          0	MERGED:    8389569	TO_CACHE:   26887795

DTLB TOTAL     ACCESS:   38364055  HIT:   23358478  MISS:   15005577  HIT %:    60.8864  MISS %:    39.1136   MPKI: 75.0279
DTLB LOAD TRANSLATION ACCESS:   38364055  HIT:   23358478  MISS:   15005577  HIT %:    60.8864  MISS %:    39.1136   MPKI: 75.0279
DTLB PREFETCH  REQUESTED:          0  ISSUED:          0  USEFUL:          0  USELESS:          0
DTLB USEFUL LOAD PREFETCHES:          0 PREFETCH ISSUED TO LOWER LEVEL:          0  ACCURACY: -nan
DTLB TIMELY PREFETCHES:          0 LATE PREFETCHES: 0 DROPPED PREFETCHES: 0
DTLB PREFETCHES SAME FILL-ORIGIN LEVEL: 0 DIFFERENT FILL-ORIGIN LEVEL: 0
DTLB AVERAGE MISS LATENCY: 10.2334 cycles
DTLB RQ	ACCESS:   57686276	FORWARD:          0	MERGED:   17092651	TO_CACHE:   40593625

STLB TOTAL     ACCESS:   17279346  HIT:   17254794  MISS:      24552  HIT %:    99.8579  MISS %:   0.142089   MPKI: 0.12276
STLB LOAD TRANSLATION ACCESS:   15005631  HIT:   14981079  MISS:      24552  HIT %:    99.8364  MISS %:   0.163619   MPKI: 0.12276
STLB TRANSLATION FROM L1D PREFETCHER ACCESS:    2273715  HIT:    2273715  MISS:          0  HIT %:        100  MISS %:          0   MPKI: 0
STLB PREFETCH  REQUESTED:          0  ISSUED:          0  USEFUL:          0  USELESS:          0
STLB USEFUL LOAD PREFETCHES:          0 PREFETCH ISSUED TO LOWER LEVEL:          0  ACCURACY: -nan
STLB TIMELY PREFETCHES:          0 LATE PREFETCHES: 0 DROPPED PREFETCHES: 0
STLB PREFETCHES SAME FILL-ORIGIN LEVEL: 0 DIFFERENT FILL-ORIGIN LEVEL: 0
STLB AVERAGE MISS LATENCY: 444.525 cycles
STLB RQ	ACCESS:   17442833	FORWARD:          0	MERGED:     160618	TO_CACHE:   17282215

STLB Hit, L1D data hit: 0
STLB Hit, L2C data hit: 0
STLB Hit, LLC data hit: 0
STLB Hit, LLC data miss: 0
STLB STLB hints to L2: 0
L1D TOTAL     ACCESS:   59348331  HIT:   34086696  MISS:   25261635  HIT %:     57.435  MISS %:     42.565   MPKI: 126.308
L1D LOAD      ACCESS:   34429337  HIT:   13025829  MISS:   21403508  HIT %:    37.8335  MISS %:    62.1665   MPKI: 107.018
L1D RFO       ACCESS:   22588009  HIT:   20981804  MISS:    1606205  HIT %:    92.8891  MISS %:    7.11087   MPKI: 8.03102
L1D PREFETCH  ACCESS:    2330985  HIT:      79063  MISS:    2251922  HIT %:    3.39183  MISS %:    96.6082   MPKI: 11.2596
L1D PREFETCH  REQUESTED:    4916234  ISSUED:    4869384  USEFUL:       1388  USELESS:    2250903
L1D USEFUL LOAD PREFETCHES:       1388 PREFETCH ISSUED TO LOWER LEVEL:    2252391  ACCURACY: 0.0616234
L1D TIMELY PREFETCHES:       1388 LATE PREFETCHES: 106 DROPPED PREFETCHES: 0
L1D PREFETCHES SAME FILL-ORIGIN LEVEL: 2252391 DIFFERENT FILL-ORIGIN LEVEL: 0
L1D AVERAGE MISS LATENCY: 45.5617 cycles
L1D RQ	ACCESS:   57159738	FORWARD:          0	MERGED:   22196405	TO_CACHE:   34915205
L1D WQ	ACCESS:   22772103	FORWARD:      48128	MERGED:       1032	TO_CACHE:   22771071
L1D PQ	ACCESS:    2434692	FORWARD:          0	MERGED:          0	TO_CACHE:    2434692

L1D UNIQUE REGIONS ACCESSED: 0
L1D REGIONS CONFLICTS: 0
L1D Cross Page Prefetch Requests: 0
L1D Same Page Prefetch Requests: 2711635
L1D ROI Sum of L1D PQ occupancy: 199978248
L1D PREFETCHES PUSHED FROM L2C: 0
L1I TOTAL     ACCESS:   35245983  HIT:   35196514  MISS:      49469  HIT %:    99.8596  MISS %:   0.140354   MPKI: 0.247345
L1I LOAD      ACCESS:   35245983  HIT:   35196514  MISS:      49469  HIT %:    99.8596  MISS %:   0.140354   MPKI: 0.247345
L1I PREFETCH  REQUESTED:          0  ISSUED:          0  USEFUL:          0  USELESS:          0
L1I USEFUL LOAD PREFETCHES:          0 PREFETCH ISSUED TO LOWER LEVEL:          0  ACCURACY: -nan
L1I TIMELY PREFETCHES:          0 LATE PREFETCHES: 0 DROPPED PREFETCHES: 0
L1I PREFETCHES SAME FILL-ORIGIN LEVEL: 0 DIFFERENT FILL-ORIGIN LEVEL: 0
L1I AVERAGE MISS LATENCY: 16.5522 cycles
L1I RQ	ACCESS:   51739860	FORWARD:          0	MERGED:   16462496	TO_CACHE:   35277364

BTB TOTAL     ACCESS:     207275  HIT:     204090  MISS:       3185  HIT %:    98.4634  MISS %:    1.53661   MPKI: 0.015925
BTB BRANCH_DIRECT_JUMP	ACCESS:      61454  HIT:      61424  MISS:         30
BTB BRANCH_INDIRECT	ACCESS:      58899  HIT:      58822  MISS:         77
BTB BRANCH_CONDITIONAL	ACCESS:      74902  HIT:      74513  MISS:        389
BTB BRANCH_DIRECT_CALL	ACCESS:       6007  HIT:       5387  MISS:        620
BTB BRANCH_INDIRECT_CALL	ACCESS:          3  HIT:          0  MISS:          3
BTB BRANCH_RETURN	ACCESS:       6010  HIT:       3944  MISS:       2066
BTB BRANCH_OTHER ACCESS:          0  HIT:          0  MISS:          0

L2C TOTAL     ACCESS:   26818790  HIT:   24379385  MISS:    2439405  HIT %:    90.9041  MISS %:    9.09588   MPKI: 12.197
L2C LOAD      ACCESS:   21115273  HIT:   20138824  MISS:     976449  HIT %:    95.3756  MISS %:    4.62437   MPKI: 4.88224
L2C DATA LOAD MPKI: 4.87799
L2C INSTRUCTION LOAD MPKI: 0.00425
L2C RFO       ACCESS:    1601739  HIT:    1595543  MISS:       6196  HIT %:    99.6132  MISS %:    0.38683   MPKI: 0.03098
L2C PREFETCH  ACCESS:    2252026  HIT:     830251  MISS:    1421775  HIT %:    36.8668  MISS %:    63.1332   MPKI: 7.10887
L2C DATA PREFETCH MPKI: 7.10887
L2C INSTRUCTION PREFETCH MPKI: 0
L2C WRITEBACK ACCESS:    1810444  HIT:    1807052  MISS:       3392  HIT %:    99.8126  MISS %:   0.187357   MPKI: 0.01696
L2C LOAD TRANSLATION ACCESS:      39308  HIT:       7715  MISS:      31593  HIT %:     19.627  MISS %:     80.373   MPKI: 0.157965
L2C PREFETCH  REQUESTED:          0  ISSUED:          0  USEFUL:    1109503  USELESS:     312446
L2C USEFUL LOAD PREFETCHES:    1109503 PREFETCH ISSUED TO LOWER LEVEL:    1421996  ACCURACY: 78.0243
L2C TIMELY PREFETCHES:    1109503 LATE PREFETCHES: 0 DROPPED PREFETCHES: 0
L2C PREFETCHES SAME FILL-ORIGIN LEVEL: 0 DIFFERENT FILL-ORIGIN LEVEL: 0
L2C AVERAGE MISS LATENCY: 334.47 cycles
L2C RQ	ACCESS:   23102278	FORWARD:          0	MERGED:          0	TO_CACHE:   22760175
L2C WQ	ACCESS:    1810747	FORWARD:     342105	MERGED:          0	TO_CACHE:    1810747
L2C PQ	ACCESS:    2252391	FORWARD:          0	MERGED:          0	TO_CACHE:    2252389

L2C Instructions Evicting Data 799
L2C Translations Evicting Data 31254
L2C Data Evicting Data 2371824
L2C Instructions Evicting Instructions 42
L2C Translations Evicting Instructions 25
L2C Data Evicting Instructions 924
L2C Instructions Evicting Translations 9
L2C Translations Evicting Translations 347
L2C Data Evicting Translations 31219
L2C Dense regions hint from L2: 0
PSCL5 TOTAL     ACCESS:      24552  HIT:      24552  MISS:          0  HIT %:        100  MISS %:          0   MPKI: 0
PSCL5 LOAD TRANSLATION ACCESS:      24552  HIT:      24552  MISS:          0  HIT %:        100  MISS %:          0   MPKI: 0
PSCL5 PREFETCH  REQUESTED:          0  ISSUED:          0  USEFUL:          0  USELESS:          0
PSCL5 USEFUL LOAD PREFETCHES:          0 PREFETCH ISSUED TO LOWER LEVEL:          0  ACCURACY: -nan
PSCL5 TIMELY PREFETCHES:          0 LATE PREFETCHES: 0 DROPPED PREFETCHES: 0
PSCL5 PREFETCHES SAME FILL-ORIGIN LEVEL: 0 DIFFERENT FILL-ORIGIN LEVEL: 0

PSCL4 TOTAL     ACCESS:      24552  HIT:      24552  MISS:          0  HIT %:        100  MISS %:          0   MPKI: 0
PSCL4 LOAD TRANSLATION ACCESS:      24552  HIT:      24552  MISS:          0  HIT %:        100  MISS %:          0   MPKI: 0
PSCL4 PREFETCH  REQUESTED:          0  ISSUED:          0  USEFUL:          0  USELESS:          0
PSCL4 USEFUL LOAD PREFETCHES:          0 PREFETCH ISSUED TO LOWER LEVEL:          0  ACCURACY: -nan
PSCL4 TIMELY PREFETCHES:          0 LATE PREFETCHES: 0 DROPPED PREFETCHES: 0
PSCL4 PREFETCHES SAME FILL-ORIGIN LEVEL: 0 DIFFERENT FILL-ORIGIN LEVEL: 0

PSCL3 TOTAL     ACCESS:      24552  HIT:      24548  MISS:          4  HIT %:    99.9837  MISS %:   0.016292   MPKI: 2e-05
PSCL3 LOAD TRANSLATION ACCESS:      24552  HIT:      24548  MISS:          4  HIT %:    99.9837  MISS %:   0.016292   MPKI: 2e-05
PSCL3 PREFETCH  REQUESTED:          0  ISSUED:          0  USEFUL:          0  USELESS:          0
PSCL3 USEFUL LOAD PREFETCHES:          0 PREFETCH ISSUED TO LOWER LEVEL:          0  ACCURACY: -nan
PSCL3 TIMELY PREFETCHES:          0 LATE PREFETCHES: 0 DROPPED PREFETCHES: 0
PSCL3 PREFETCHES SAME FILL-ORIGIN LEVEL: 0 DIFFERENT FILL-ORIGIN LEVEL: 0

PSCL2 TOTAL     ACCESS:      24552  HIT:       9727  MISS:      14825  HIT %:     39.618  MISS %:     60.382   MPKI: 0.074125
PSCL2 LOAD TRANSLATION ACCESS:      24552  HIT:       9727  MISS:      14825  HIT %:     39.618  MISS %:     60.382   MPKI: 0.074125
PSCL2 PREFETCH  REQUESTED:          0  ISSUED:          0  USEFUL:          0  USELESS:          0
PSCL2 USEFUL LOAD PREFETCHES:          0 PREFETCH ISSUED TO LOWER LEVEL:          0  ACCURACY: -nan
PSCL2 TIMELY PREFETCHES:          0 LATE PREFETCHES: 0 DROPPED PREFETCHES: 0
PSCL2 PREFETCHES SAME FILL-ORIGIN LEVEL: 0 DIFFERENT FILL-ORIGIN LEVEL: 0

LLC TOTAL     ACCESS:    2631689  HIT:    1082169  MISS:    1549520  HIT %:    41.1207  MISS %:    58.8793   MPKI: 7.7476
LLC LOAD      ACCESS:     976447  HIT:     528285  MISS:     448162  HIT %:    54.1028  MISS %:    45.8972   MPKI: 2.24081
LLC RFO       ACCESS:       6161  HIT:       5052  MISS:       1109  HIT %:    81.9997  MISS %:    18.0003   MPKI: 0.005545
LLC PREFETCH  ACCESS:    1421775  HIT:     329908  MISS:    1091867  HIT %:     23.204  MISS %:     76.796   MPKI: 5.45933
LLC WRITEBACK ACCESS:     195713  HIT:     191173  MISS:       4540  HIT %:    97.6803  MISS %:    2.31972   MPKI: 0.0227
LLC LOAD TRANSLATION ACCESS:      31593  HIT:      27751  MISS:       3842  HIT %:    87.8391  MISS %:    12.1609   MPKI: 0.01921
LLC PREFETCH  REQUESTED:          0  ISSUED:          0  USEFUL:    1179949  USELESS:    3202456
LLC USEFUL LOAD PREFETCHES:    1179949 PREFETCH ISSUED TO LOWER LEVEL:    4420694  ACCURACY: 26.6915
LLC TIMELY PREFETCHES:    1179949 LATE PREFETCHES: 0 DROPPED PREFETCHES: 0
LLC PREFETCHES SAME FILL-ORIGIN LEVEL: 0 DIFFERENT FILL-ORIGIN LEVEL: 0
LLC AVERAGE MISS LATENCY: 1874.79 cycles
LLC RQ	ACCESS:    4193328	FORWARD:          0	MERGED:          0	TO_CACHE:    4192926
LLC WQ	ACCESS:     790413	FORWARD:        402	MERGED:          0	TO_CACHE:     790413
LLC PQ	ACCESS:    5710242	FORWARD:          0	MERGED:          0	TO_CACHE:    5710242

LLC Dense regions hint to LLC: 0

RAW hits: 140958
Loads Generated: 57291149
Loads sent to L1D: 57150193
Stores Generated: 22785337
Stores sent to L1D: 22785337
Major fault: 0 Minor fault: 17300
Allocated PAGES: 69175

CPU 1 cumulative IPC: 1.15123 instructions: 200000002 cycles: 173727541
ITLB TOTAL     ACCESS:   26871705  HIT:   26871651  MISS:         54  HIT %:    99.9998  MISS %: 0.000200955   MPKI: 0.00027
ITLB LOAD TRANSLATION ACCESS:   26871705  HIT:   26871651  MISS:         54  HIT %:    99.9998  MISS %: 0.000200955   MPKI: 0.00027
ITLB PREFETCH  REQUESTED:          0  ISSUED:          0  USEFUL:          0  USELESS:          0
ITLB USEFUL LOAD PREFETCHES:          0 PREFETCH ISSUED TO LOWER LEVEL:          0  ACCURACY: -nan
ITLB TIMELY PREFETCHES:          0 LATE PREFETCHES: 0 DROPPED PREFETCHES: 0
ITLB PREFETCHES SAME FILL-ORIGIN LEVEL: 0 DIFFERENT FILL-ORIGIN LEVEL: 0
ITLB AVERAGE MISS LATENCY: 419.296 cycles
ITLB RQ	ACCESS:   35344281	FORWARD:          0	MERGED:    8401769	TO_CACHE:   26942512

DTLB TOTAL     ACCESS:   38353320  HIT:   23347932  MISS:   15005388  HIT %:    60.8759  MISS %:    39.1241   MPKI: 75.0269
DTLB LOAD TRANSLATION ACCESS:   38353320  HIT:   23347932  MISS:   15005388  HIT %:    60.8759  MISS %:    39.1241   MPKI: 75.0269
DTLB PREFETCH  REQUESTED:          0  ISSUED:          0  USEFUL:          0  USELESS:          0
DTLB USEFUL LOAD PREFETCHES:          0 PREFETCH ISSUED TO LOWER LEVEL:          0  ACCURACY: -nan
DTLB TIMELY PREFETCHES:          0 LATE PREFETCHES: 0 DROPPED PREFETCHES: 0
DTLB PREFETCHES SAME FILL-ORIGIN LEVEL: 0 DIFFERENT FILL-ORIGIN LEVEL: 0
DTLB AVERAGE MISS LATENCY: 10.2523 cycles
DTLB RQ	ACCESS:   57819581	FORWARD:          0	MERGED:   17135586	TO_CACHE:   40683995

STLB TOTAL     ACCESS:   17259724  HIT:   17235171  MISS:      24553  HIT %:    99.8577  MISS %:   0.142256   MPKI: 0.122765
STLB LOAD TRANSLATION ACCESS:   15005442  HIT:   14980889  MISS:      24553  HIT %:    99.8364  MISS %:   0.163627   MPKI: 0.122765
STLB TRANSLATION FROM L1D PREFETCHER ACCESS:    2254282  HIT:    2254282  MISS:          0  HIT %:        100  MISS %:          0   MPKI: 0
STLB PREFETCH  REQUESTED:          0  ISSUED:          0  USEFUL:          0  USELESS:          0
STLB USEFUL LOAD PREFETCHES:          0 PREFETCH ISSUED TO LOWER LEVEL:          0  ACCURACY: -nan
STLB TIMELY PREFETCHES:          0 LATE PREFETCHES: 0 DROPPED PREFETCHES: 0
STLB PREFETCHES SAME FILL-ORIGIN LEVEL: 0 DIFFERENT FILL-ORIGIN LEVEL: 0
STLB AVERAGE MISS LATENCY: 441.897 cycles
STLB RQ	ACCESS:   17461974	FORWARD:          0	MERGED:     156725	TO_CACHE:   17305249

STLB Hit, L1D data hit: 0
STLB Hit, L2C data hit: 0
STLB Hit, LLC data hit: 0
STLB Hit, LLC data miss: 0
STLB STLB hints to L2: 0
L1D TOTAL     ACCESS:   59314447  HIT:   34083627  MISS:   25230820  HIT %:    57.4626  MISS %:    42.5374   MPKI: 126.154
L1D LOAD      ACCESS:   34417906  HIT:   13019935  MISS:   21397971  HIT %:     37.829  MISS %:     62.171   MPKI: 106.99
L1D RFO       ACCESS:   22589294  HIT:   20983569  MISS:    1605725  HIT %:    92.8917  MISS %:    7.10835   MPKI: 8.02862
L1D PREFETCH  ACCESS:    2307247  HIT:      80123  MISS:    2227124  HIT %:    3.47267  MISS %:    96.5273   MPKI: 11.1356
L1D PREFETCH  REQUESTED:    4882907  ISSUED:    4833682  USEFUL:       1325  USELESS:    2231666
L1D USEFUL LOAD PREFETCHES:       1325 PREFETCH ISSUED TO LOWER LEVEL:    2233058  ACCURACY: 0.0593357
L1D TIMELY PREFETCHES:       1325 LATE PREFETCHES: 71 DROPPED PREFETCHES: 0
L1D PREFETCHES SAME FILL-ORIGIN LEVEL: 2233058 DIFFERENT FILL-ORIGIN LEVEL: 0
L1D AVERAGE MISS LATENCY: 45.1257 cycles
L1D RQ	ACCESS:   57300107	FORWARD:          0	MERGED:   22259388	TO_CACHE:   34992588
L1D WQ	ACCESS:   22828028	FORWARD:      48131	MERGED:       1035	TO_CACHE:   22826993
L1D PQ	ACCESS:    2416841	FORWARD:          0	MERGED:          0	TO_CACHE:    2416841

L1D UNIQUE REGIONS ACCESSED: 0
L1D REGIONS CONFLICTS: 0
L1D Cross Page Prefetch Requests: 0
L1D Same Page Prefetch Requests: 2612819
L1D ROI Sum of L1D PQ occupancy: 190527286
L1D PREFETCHES PUSHED FROM L2C: 0
L1I TOTAL     ACCESS:   35225836  HIT:   35176257  MISS:      49579  HIT %:    99.8593  MISS %:   0.140746   MPKI: 0.247895
L1I LOAD      ACCESS:   35225836  HIT:   35176257  MISS:      49579  HIT %:    99.8593  MISS %:   0.140746   MPKI: 0.247895
L1I PREFETCH  REQUESTED:          0  ISSUED:          0  USEFUL:          0  USELESS:          0
L1I USEFUL LOAD PREFETCHES:          0 PREFETCH ISSUED TO LOWER LEVEL:          0  ACCURACY: -nan
L1I TIMELY PREFETCHES:          0 LATE PREFETCHES: 0 DROPPED PREFETCHES: 0
L1I PREFETCHES SAME FILL-ORIGIN LEVEL: 0 DIFFERENT FILL-ORIGIN LEVEL: 0
L1I AVERAGE MISS LATENCY: 16.4911 cycles
L1I RQ	ACCESS:   51896629	FORWARD:          0	MERGED:   16552348	TO_CACHE:   35344281

BTB TOTAL     ACCESS:     207301  HIT:     204096  MISS:       3205  HIT %:    98.4539  MISS %:    1.54606   MPKI: 0.016025
BTB BRANCH_DIRECT_JUMP	ACCESS:      61459  HIT:      61424  MISS:         35
BTB BRANCH_INDIRECT	ACCESS:      58898  HIT:      58821  MISS:         77
BTB BRANCH_CONDITIONAL	ACCESS:      74912  HIT:      74517  MISS:        395
BTB BRANCH_DIRECT_CALL	ACCESS:       6013  HIT:       5388  MISS:        625
BTB BRANCH_INDIRECT_CALL	ACCESS:          3  HIT:          0  MISS:          3
BTB BRANCH_RETURN	ACCESS:       6016  HIT:       3946  MISS:       2070
BTB BRANCH_OTHER ACCESS:          0  HIT:          0  MISS:          0

L2C TOTAL     ACCESS:   26789875  HIT:   24387199  MISS:    2402676  HIT %:    91.0314  MISS %:     8.9686   MPKI: 12.0134
L2C LOAD      ACCESS:   21113505  HIT:   20181387  MISS:     932118  HIT %:    95.5852  MISS %:     4.4148   MPKI: 4.66059
L2C DATA LOAD MPKI: 4.65616
L2C INSTRUCTION LOAD MPKI: 0.004425
L2C RFO       ACCESS:    1601228  HIT:    1593604  MISS:       7624  HIT %:    99.5239  MISS %:   0.476135   MPKI: 0.03812
L2C PREFETCH  ACCESS:    2227192  HIT:     800056  MISS:    1427136  HIT %:    35.9222  MISS %:    64.0778   MPKI: 7.13568
L2C DATA PREFETCH MPKI: 7.13568
L2C INSTRUCTION PREFETCH MPKI: 0
L2C WRITEBACK ACCESS:    1808641  HIT:    1804708  MISS:       3933  HIT %:    99.7825  MISS %:   0.217456   MPKI: 0.019665
L2C LOAD TRANSLATION ACCESS:      39309  HIT:       7444  MISS:      31865  HIT %:    18.9371  MISS %:    81.0629   MPKI: 0.159325
L2C PREFETCH  REQUESTED:          0  ISSUED:          0  USEFUL:    1159640  USELESS:     271155
L2C USEFUL LOAD PREFETCHES:    1159640 PREFETCH ISSUED TO LOWER LEVEL:    1430831  ACCURACY: 81.0466
L2C TIMELY PREFETCHES:    1159640 LATE PREFETCHES: 0 DROPPED PREFETCHES: 0
L2C PREFETCHES SAME FILL-ORIGIN LEVEL: 0 DIFFERENT FILL-ORIGIN LEVEL: 0
L2C AVERAGE MISS LATENCY: 334.214 cycles
L2C RQ	ACCESS:   23153371	FORWARD:          0	MERGED:          0	TO_CACHE:   22813936
L2C WQ	ACCESS:    1813404	FORWARD:     339438	MERGED:          0	TO_CACHE:    1813404
L2C PQ	ACCESS:    2233058	FORWARD:          0	MERGED:          0	TO_CACHE:    2233055

L2C Instructions Evicting Data 824
L2C Translations Evicting Data 31444
L2C Data Evicting Data 2340250
L2C Instructions Evicting Instructions 45
L2C Translations Evicting Instructions 34
L2C Data Evicting Instructions 949
L2C Instructions Evicting Translations 16
L2C Translations Evicting Translations 446
L2C Data Evicting Translations 31389
L2C Dense regions hint from L2: 0
PSCL5 TOTAL     ACCESS:      24553  HIT:      24553  MISS:          0  HIT %:        100  MISS %:          0   MPKI: 0
PSCL5 LOAD TRANSLATION ACCESS:      24553  HIT:      24553  MISS:          0  HIT %:        100  MISS %:          0   MPKI: 0
PSCL5 PREFETCH  REQUESTED:          0  ISSUED:          0  USEFUL:          0  USELESS:          0
PSCL5 USEFUL LOAD PREFETCHES:          0 PREFETCH ISSUED TO LOWER LEVEL:          0  ACCURACY: -nan
PSCL5 TIMELY PREFETCHES:          0 LATE PREFETCHES: 0 DROPPED PREFETCHES: 0
PSCL5 PREFETCHES SAME FILL-ORIGIN LEVEL: 0 DIFFERENT FILL-ORIGIN LEVEL: 0

PSCL4 TOTAL     ACCESS:      24553  HIT:      24553  MISS:          0  HIT %:        100  MISS %:          0   MPKI: 0
PSCL4 LOAD TRANSLATION ACCESS:      24553  HIT:      24553  MISS:          0  HIT %:        100  MISS %:          0   MPKI: 0
PSCL4 PREFETCH  REQUESTED:          0  ISSUED:          0  USEFUL:          0  USELESS:          0
PSCL4 USEFUL LOAD PREFETCHES:          0 PREFETCH ISSUED TO LOWER LEVEL:          0  ACCURACY: -nan
PSCL4 TIMELY PREFETCHES:          0 LATE PREFETCHES: 0 DROPPED PREFETCHES: 0
PSCL4 PREFETCHES SAME FILL-ORIGIN LEVEL: 0 DIFFERENT FILL-ORIGIN LEVEL: 0

PSCL3 TOTAL     ACCESS:      24553  HIT:      24549  MISS:          4  HIT %:    99.9837  MISS %:  0.0162913   MPKI: 2e-05
PSCL3 LOAD TRANSLATION ACCESS:      24553  HIT:      24549  MISS:          4  HIT %:    99.9837  MISS %:  0.0162913   MPKI: 2e-05
PSCL3 PREFETCH  REQUESTED:          0  ISSUED:          0  USEFUL:          0  USELESS:          0
PSCL3 USEFUL LOAD PREFETCHES:          0 PREFETCH ISSUED TO LOWER LEVEL:          0  ACCURACY: -nan
PSCL3 TIMELY PREFETCHES:          0 LATE PREFETCHES: 0 DROPPED PREFETCHES: 0
PSCL3 PREFETCHES SAME FILL-ORIGIN LEVEL: 0 DIFFERENT FILL-ORIGIN LEVEL: 0

PSCL2 TOTAL     ACCESS:      24553  HIT:       9728  MISS:      14825  HIT %:    39.6204  MISS %:    60.3796   MPKI: 0.074125
PSCL2 LOAD TRANSLATION ACCESS:      24553  HIT:       9728  MISS:      14825  HIT %:    39.6204  MISS %:    60.3796   MPKI: 0.074125
PSCL2 PREFETCH  REQUESTED:          0  ISSUED:          0  USEFUL:          0  USELESS:          0
PSCL2 USEFUL LOAD PREFETCHES:          0 PREFETCH ISSUED TO LOWER LEVEL:          0  ACCURACY: -nan
PSCL2 TIMELY PREFETCHES:          0 LATE PREFETCHES: 0 DROPPED PREFETCHES: 0
PSCL2 PREFETCHES SAME FILL-ORIGIN LEVEL: 0 DIFFERENT FILL-ORIGIN LEVEL: 0

LLC TOTAL     ACCESS:    2596262  HIT:    1043955  MISS:    1552307  HIT %:    40.2099  MISS %:    59.7901   MPKI: 7.76153
LLC LOAD      ACCESS:     932113  HIT:     499121  MISS:     432992  HIT %:    53.5473  MISS %:    46.4527   MPKI: 2.16496
LLC RFO       ACCESS:       7516  HIT:       6407  MISS:       1109  HIT %:    85.2448  MISS %:    14.7552   MPKI: 0.005545
LLC PREFETCH  ACCESS:    1427136  HIT:     317412  MISS:    1109724  HIT %:    22.2412  MISS %:    77.7588   MPKI: 5.54862
LLC WRITEBACK ACCESS:     197632  HIT:     192882  MISS:       4750  HIT %:    97.5965  MISS %:    2.40346   MPKI: 0.02375
LLC LOAD TRANSLATION ACCESS:      31865  HIT:      28133  MISS:       3732  HIT %:    88.2881  MISS %:    11.7119   MPKI: 0.01866
LLC PREFETCH  REQUESTED:          0  ISSUED:          0  USEFUL:    1179949  USELESS:    3202456
LLC USEFUL LOAD PREFETCHES:    1179949 PREFETCH ISSUED TO LOWER LEVEL:    4420694  ACCURACY: 26.6915
LLC TIMELY PREFETCHES:    1179949 LATE PREFETCHES: 0 DROPPED PREFETCHES: 0
LLC PREFETCHES SAME FILL-ORIGIN LEVEL: 0 DIFFERENT FILL-ORIGIN LEVEL: 0
LLC AVERAGE MISS LATENCY: 1871.42 cycles
LLC RQ	ACCESS:    4193328	FORWARD:          0	MERGED:          0	TO_CACHE:    4192926
LLC WQ	ACCESS:     790413	FORWARD:        402	MERGED:          0	TO_CACHE:     790413
LLC PQ	ACCESS:    5710242	FORWARD:          0	MERGED:          0	TO_CACHE:    5710242

LLC Dense regions hint to LLC: 0

RAW hits: 141205
Loads Generated: 57291413
Loads sent to L1D: 57150197
Stores Generated: 22785206
Stores sent to L1D: 22785200
Major fault: 0 Minor fault: 17300
Allocated PAGES: 69175

CPU 2 cumulative IPC: 1.14833 instructions: 200000003 cycles: 174166098
ITLB TOTAL     ACCESS:   26876519  HIT:   26876465  MISS:         54  HIT %:    99.9998  MISS %: 0.000200919   MPKI: 0.00027
ITLB LOAD TRANSLATION ACCESS:   26876519  HIT:   26876465  MISS:         54  HIT %:    99.9998  MISS %: 0.000200919   MPKI: 0.00027
ITLB PREFETCH  REQUESTED:          0  ISSUED:          0  USEFUL:          0  USELESS:          0
ITLB USEFUL LOAD PREFETCHES:          0 PREFETCH ISSUED TO LOWER LEVEL:          0  ACCURACY: -nan
ITLB TIMELY PREFETCHES:          0 LATE PREFETCHES: 0 DROPPED PREFETCHES: 0
ITLB PREFETCHES SAME FILL-ORIGIN LEVEL: 0 DIFFERENT FILL-ORIGIN LEVEL: 0
ITLB AVERAGE MISS LATENCY: 456.019 cycles
ITLB RQ	ACCESS:   35267205	FORWARD:          0	MERGED:    8390676	TO_CACHE:   26876529

DTLB TOTAL     ACCESS:   38345121  HIT:   23339741  MISS:   15005380  HIT %:    60.8676  MISS %:    39.1324   MPKI: 75.0269
DTLB LOAD TRANSLATION ACCESS:   38345121  HIT:   23339741  MISS:   15005380  HIT %:    60.8676  MISS %:    39.1324   MPKI: 75.0269
DTLB PREFETCH  REQUESTED:          0  ISSUED:          0  USEFUL:          0  USELESS:          0
DTLB USEFUL LOAD PREFETCHES:          0 PREFETCH ISSUED TO LOWER LEVEL:          0  ACCURACY: -nan
DTLB TIMELY PREFETCHES:          0 LATE PREFETCHES: 0 DROPPED PREFETCHES: 0
DTLB PREFETCHES SAME FILL-ORIGIN LEVEL: 0 DIFFERENT FILL-ORIGIN LEVEL: 0
DTLB AVERAGE MISS LATENCY: 10.2285 cycles
DTLB RQ	ACCESS:   57674757	FORWARD:          0	MERGED:   17108310	TO_CACHE:   40566447

STLB TOTAL     ACCESS:   17275214  HIT:   17250660  MISS:      24554  HIT %:    99.8579  MISS %:   0.142134   MPKI: 0.12277
STLB LOAD TRANSLATION ACCESS:   15005434  HIT:   14980880  MISS:      24554  HIT %:    99.8364  MISS %:   0.163634   MPKI: 0.12277
STLB TRANSLATION FROM L1D PREFETCHER ACCESS:    2269780  HIT:    2269780  MISS:          0  HIT %:        100  MISS %:          0   MPKI: 0
STLB PREFETCH  REQUESTED:          0  ISSUED:          0  USEFUL:          0  USELESS:          0
STLB USEFUL LOAD PREFETCHES:          0 PREFETCH ISSUED TO LOWER LEVEL:          0  ACCURACY: -nan
STLB TIMELY PREFETCHES:          0 LATE PREFETCHES: 0 DROPPED PREFETCHES: 0
STLB PREFETCHES SAME FILL-ORIGIN LEVEL: 0 DIFFERENT FILL-ORIGIN LEVEL: 0
STLB AVERAGE MISS LATENCY: 443.292 cycles
STLB RQ	ACCESS:   17433128	FORWARD:          0	MERGED:     157912	TO_CACHE:   17275216

STLB Hit, L1D data hit: 0
STLB Hit, L2C data hit: 0
STLB Hit, LLC data hit: 0
STLB Hit, LLC data miss: 0
STLB STLB hints to L2: 0
L1D TOTAL     ACCESS:   59328956  HIT:   34083672  MISS:   25245284  HIT %:    57.4486  MISS %:    42.5514   MPKI: 126.226
L1D LOAD      ACCESS:   34419233  HIT:   13020894  MISS:   21398339  HIT %:    37.8303  MISS %:    62.1697   MPKI: 106.992
L1D RFO       ACCESS:   22587589  HIT:   20981046  MISS:    1606543  HIT %:    92.8875  MISS %:     7.1125   MPKI: 8.03271
L1D PREFETCH  ACCESS:    2322134  HIT:      81732  MISS:    2240402  HIT %:    3.51969  MISS %:    96.4803   MPKI: 11.202
L1D PREFETCH  REQUESTED:    4898889  ISSUED:    4855388  USEFUL:       1279  USELESS:    2239146
L1D USEFUL LOAD PREFETCHES:       1279 PREFETCH ISSUED TO LOWER LEVEL:    2240497  ACCURACY: 0.0570855
L1D TIMELY PREFETCHES:       1279 LATE PREFETCHES: 85 DROPPED PREFETCHES: 0
L1D PREFETCHES SAME FILL-ORIGIN LEVEL: 2240497 DIFFERENT FILL-ORIGIN LEVEL: 0
L1D AVERAGE MISS LATENCY: 44.804 cycles
L1D RQ	ACCESS:   57150584	FORWARD:          0	MERGED:   22194782	TO_CACHE:   34907806
L1D WQ	ACCESS:   22767986	FORWARD:      47996	MERGED:       1035	TO_CACHE:   22766951
L1D PQ	ACCESS:    2427695	FORWARD:          0	MERGED:          2	TO_CACHE:    2427693

L1D UNIQUE REGIONS ACCESSED: 0
L1D REGIONS CONFLICTS: 0
L1D Cross Page Prefetch Requests: 0
L1D Same Page Prefetch Requests: 2555280
L1D ROI Sum of L1D PQ occupancy: 186934940
L1D PREFETCHES PUSHED FROM L2C: 0
L1I TOTAL     ACCESS:   35241655  HIT:   35192030  MISS:      49625  HIT %:    99.8592  MISS %:   0.140813   MPKI: 0.248125
L1I LOAD      ACCESS:   35241655  HIT:   35192030  MISS:      49625  HIT %:    99.8592  MISS %:   0.140813   MPKI: 0.248125
L1I PREFETCH  REQUESTED:          0  ISSUED:          0  USEFUL:          0  USELESS:          0
L1I USEFUL LOAD PREFETCHES:          0 PREFETCH ISSUED TO LOWER LEVEL:          0  ACCURACY: -nan
L1I TIMELY PREFETCHES:          0 LATE PREFETCHES: 0 DROPPED PREFETCHES: 0
L1I PREFETCHES SAME FILL-ORIGIN LEVEL: 0 DIFFERENT FILL-ORIGIN LEVEL: 0
L1I AVERAGE MISS LATENCY: 16.7538 cycles
L1I RQ	ACCESS:   51709754	FORWARD:          0	MERGED:   16442549	TO_CACHE:   35267205

BTB TOTAL     ACCESS:     207301  HIT:     204093  MISS:       3208  HIT %:    98.4525  MISS %:    1.54751   MPKI: 0.01604
BTB BRANCH_DIRECT_JUMP	ACCESS:      61458  HIT:      61423  MISS:         35
BTB BRANCH_INDIRECT	ACCESS:      58898  HIT:      58820  MISS:         78
BTB BRANCH_CONDITIONAL	ACCESS:      74913  HIT:      74516  MISS:        397
BTB BRANCH_DIRECT_CALL	ACCESS:       6013  HIT:       5388  MISS:        625
BTB BRANCH_INDIRECT_CALL	ACCESS:          3  HIT:          0  MISS:          3
BTB BRANCH_RETURN	ACCESS:       6016  HIT:       3946  MISS:       2070
BTB BRANCH_OTHER ACCESS:          0  HIT:          0  MISS:          0

L2C TOTAL     ACCESS:   26806668  HIT:   24280379  MISS:    2526289  HIT %:    90.5759  MISS %:    9.42411   MPKI: 12.6314
L2C LOAD      ACCESS:   21113945  HIT:   20053265  MISS:    1060680  HIT %:    94.9764  MISS %:     5.0236   MPKI: 5.3034
L2C DATA LOAD MPKI: 5.29882
L2C INSTRUCTION LOAD MPKI: 0.004575
L2C RFO       ACCESS:    1602178  HIT:    1586402  MISS:      15776  HIT %:    99.0153  MISS %:    0.98466   MPKI: 0.07888
L2C PREFETCH  ACCESS:    2240486  HIT:     826100  MISS:    1414386  HIT %:    36.8715  MISS %:    63.1285   MPKI: 7.07193
L2C DATA PREFETCH MPKI: 7.07193
L2C INSTRUCTION PREFETCH MPKI: 0
L2C WRITEBACK ACCESS:    1810747  HIT:    1807176  MISS:       3571  HIT %:    99.8028  MISS %:   0.197211   MPKI: 0.017855
L2C LOAD TRANSLATION ACCESS:      39312  HIT:       7436  MISS:      31876  HIT %:    18.9153  MISS %:    81.0847   MPKI: 0.15938
L2C PREFETCH  REQUESTED:          0  ISSUED:          0  USEFUL:    1046271  USELESS:     368086
L2C USEFUL LOAD PREFETCHES:    1046271 PREFETCH ISSUED TO LOWER LEVEL:    1414396  ACCURACY: 73.973
L2C TIMELY PREFETCHES:    1046271 LATE PREFETCHES: 0 DROPPED PREFETCHES: 0
L2C PREFETCHES SAME FILL-ORIGIN LEVEL: 0 DIFFERENT FILL-ORIGIN LEVEL: 0
L2C AVERAGE MISS LATENCY: 315.163 cycles
L2C RQ	ACCESS:   23093740	FORWARD:          0	MERGED:          0	TO_CACHE:   22755438
L2C WQ	ACCESS:    1810747	FORWARD:     338303	MERGED:          0	TO_CACHE:    1810747
L2C PQ	ACCESS:    2240497	FORWARD:          0	MERGED:          0	TO_CACHE:    2240496

L2C Instructions Evicting Data 839
L2C Translations Evicting Data 31603
L2C Data Evicting Data 2457400
L2C Instructions Evicting Instructions 66
L2C Translations Evicting Instructions 14
L2C Data Evicting Instructions 980
L2C Instructions Evicting Translations 10
L2C Translations Evicting Translations 259
L2C Data Evicting Translations 31547
L2C Dense regions hint from L2: 0
PSCL5 TOTAL     ACCESS:      24554  HIT:      24554  MISS:          0  HIT %:        100  MISS %:          0   MPKI: 0
PSCL5 LOAD TRANSLATION ACCESS:      24554  HIT:      24554  MISS:          0  HIT %:        100  MISS %:          0   MPKI: 0
PSCL5 PREFETCH  REQUESTED:          0  ISSUED:          0  USEFUL:          0  USELESS:          0
PSCL5 USEFUL LOAD PREFETCHES:          0 PREFETCH ISSUED TO LOWER LEVEL:          0  ACCURACY: -nan
PSCL5 TIMELY PREFETCHES:          0 LATE PREFETCHES: 0 DROPPED PREFETCHES: 0
PSCL5 PREFETCHES SAME FILL-ORIGIN LEVEL: 0 DIFFERENT FILL-ORIGIN LEVEL: 0

PSCL4 TOTAL     ACCESS:      24554  HIT:      24554  MISS:          0  HIT %:        100  MISS %:          0   MPKI: 0
PSCL4 LOAD TRANSLATION ACCESS:      24554  HIT:      24554  MISS:          0  HIT %:        100  MISS %:          0   MPKI: 0
PSCL4 PREFETCH  REQUESTED:          0  ISSUED:          0  USEFUL:          0  USELESS:          0
[...]
LLC LOAD TRANSLATION ACCESS:      31876  HIT:      28141  MISS:       3735  HIT %:    88.2827  MISS %:    11.7173   MPKI: 0.018675
LLC PREFETCH  REQUESTED:          0  ISSUED:          0  USEFUL:    1179949  USELESS:    3202456
LLC USEFUL LOAD PREFETCHES:    1179949 PREFETCH ISSUED TO LOWER LEVEL:    4420694  ACCURACY: 26.6915
LLC TIMELY PREFETCHES:    1179949 LATE PREFETCHES: 0 DROPPED PREFETCHES: 0
LLC PREFETCHES SAME FILL-ORIGIN LEVEL: 0 DIFFERENT FILL-ORIGIN LEVEL: 0
LLC AVERAGE MISS LATENCY: 1877.17 cycles
LLC RQ	ACCESS:    4193328	FORWARD:          0	MERGED:          0	TO_CACHE:    4192926
LLC WQ	ACCESS:     790413	FORWARD:        402	MERGED:          0	TO_CACHE:     790413
LLC PQ	ACCESS:    5710242	FORWARD:          0	MERGED:          0	TO_CACHE:    5710242

LLC Dense regions hint to LLC: 0

RAW hits: 141134
Loads Generated: 57291718
Loads sent to L1D: 57150584
Stores Generated: 22785093
Stores sent to L1D: 22785093
Major fault: 0 Minor fault: 17275
Allocated PAGES: 69175

CPU 3 cumulative IPC: 1.15098 instructions: 200000001 cycles: 173764610
ITLB TOTAL     ACCESS:   26852659  HIT:   26852605  MISS:         54  HIT %:    99.9998  MISS %: 0.000201097   MPKI: 0.00027
ITLB LOAD TRANSLATION ACCESS:   26852659  HIT:   26852605  MISS:         54  HIT %:    99.9998  MISS %: 0.000201097   MPKI: 0.00027
ITLB PREFETCH  REQUESTED:          0  ISSUED:          0  USEFUL:          0  USELESS:          0
ITLB USEFUL LOAD PREFETCHES:          0 PREFETCH ISSUED TO LOWER LEVEL:          0  ACCURACY: -nan
ITLB TIMELY PREFETCHES:          0 LATE PREFETCHES: 0 DROPPED PREFETCHES: 0
ITLB PREFETCHES SAME FILL-ORIGIN LEVEL: 0 DIFFERENT FILL-ORIGIN LEVEL: 0
ITLB AVERAGE MISS LATENCY: 462.407 cycles
ITLB RQ	ACCESS:   35315087	FORWARD:          0	MERGED:    8397691	TO_CACHE:   26917396

DTLB TOTAL     ACCESS:   38345010  HIT:   23339804  MISS:   15005206  HIT %:    60.8679  MISS %:    39.1321   MPKI: 75.026
DTLB LOAD TRANSLATION ACCESS:   38345010  HIT:   23339804  MISS:   15005206  HIT %:    60.8679  MISS %:    39.1321   MPKI: 75.026
DTLB PREFETCH  REQUESTED:          0  ISSUED:          0  USEFUL:          0  USELESS:          0
DTLB USEFUL LOAD PREFETCHES:          0 PREFETCH ISSUED TO LOWER LEVEL:          0  ACCURACY: -nan
DTLB TIMELY PREFETCHES:          0 LATE PREFETCHES: 0 DROPPED PREFETCHES: 0
DTLB PREFETCHES SAME FILL-ORIGIN LEVEL: 0 DIFFERENT FILL-ORIGIN LEVEL: 0
DTLB AVERAGE MISS LATENCY: 10.2417 cycles
DTLB RQ	ACCESS:   57806475	FORWARD:          0	MERGED:   17138997	TO_CACHE:   40667478

STLB TOTAL     ACCESS:   17271298  HIT:   17246746  MISS:      24552  HIT %:    99.8578  MISS %:   0.142155   MPKI: 0.12276
STLB LOAD TRANSLATION ACCESS:   15005261  HIT:   14980709  MISS:      24552  HIT %:    99.8364  MISS %:   0.163623   MPKI: 0.12276
STLB TRANSLATION FROM L1D PREFETCHER ACCESS:    2266037  HIT:    2266037  MISS:          0  HIT %:        100  MISS %:          0   MPKI: 0
STLB PREFETCH  REQUESTED:          0  ISSUED:          0  USEFUL:          0  USELESS:          0
STLB USEFUL LOAD PREFETCHES:          0 PREFETCH ISSUED TO LOWER LEVEL:          0  ACCURACY: -nan
STLB TIMELY PREFETCHES:          0 LATE PREFETCHES: 0 DROPPED PREFETCHES: 0
STLB PREFETCHES SAME FILL-ORIGIN LEVEL: 0 DIFFERENT FILL-ORIGIN LEVEL: 0
STLB AVERAGE MISS LATENCY: 436.891 cycles
STLB RQ	ACCESS:   17482831	FORWARD:          0	MERGED:     169779	TO_CACHE:   17313052

STLB Hit, L1D data hit: 0
STLB Hit, L2C data hit: 0
STLB Hit, LLC data hit: 0
STLB Hit, LLC data miss: 0
STLB STLB hints to L2: 0
L1D TOTAL     ACCESS:   59331072  HIT:   34078330  MISS:   25252742  HIT %:    57.4376  MISS %:    42.5624   MPKI: 126.264
L1D LOAD      ACCESS:   34411948  HIT:   13015750  MISS:   21396198  HIT %:    37.8233  MISS %:    62.1767   MPKI: 106.981
L1D RFO       ACCESS:   22588805  HIT:   20982797  MISS:    1606008  HIT %:    92.8902  MISS %:    7.10975   MPKI: 8.03004
L1D PREFETCH  ACCESS:    2330319  HIT:      79783  MISS:    2250536  HIT %:    3.42369  MISS %:    96.5763   MPKI: 11.2527
L1D PREFETCH  REQUESTED:    4928863  ISSUED:    4882462  USEFUL:       1357  USELESS:    2254664
L1D USEFUL LOAD PREFETCHES:       1357 PREFETCH ISSUED TO LOWER LEVEL:    2256108  ACCURACY: 0.0601478
L1D TIMELY PREFETCHES:       1357 LATE PREFETCHES: 91 DROPPED PREFETCHES: 0
L1D PREFETCHES SAME FILL-ORIGIN LEVEL: 2256108 DIFFERENT FILL-ORIGIN LEVEL: 0
L1D AVERAGE MISS LATENCY: 44.7087 cycles
L1D RQ	ACCESS:   57287519	FORWARD:          0	MERGED:   22254800	TO_CACHE:   34984706
L1D WQ	ACCESS:   22822806	FORWARD:      48013	MERGED:       1037	TO_CACHE:   22821769
L1D PQ	ACCESS:    2441232	FORWARD:          0	MERGED:          2	TO_CACHE:    2441230

L1D UNIQUE REGIONS ACCESSED: 0
L1D REGIONS CONFLICTS: 0
L1D Cross Page Prefetch Requests: 0
L1D Same Page Prefetch Requests: 2521072
L1D ROI Sum of L1D PQ occupancy: 179155852
L1D PREFETCHES PUSHED FROM L2C: 0
L1I TOTAL     ACCESS:   35204448  HIT:   35154791  MISS:      49657  HIT %:    99.8589  MISS %:   0.141053   MPKI: 0.248285
L1I LOAD      ACCESS:   35204448  HIT:   35154791  MISS:      49657  HIT %:    99.8589  MISS %:   0.141053   MPKI: 0.248285
L1I PREFETCH  REQUESTED:          0  ISSUED:          0  USEFUL:          0  USELESS:          0
L1I USEFUL LOAD PREFETCHES:          0 PREFETCH ISSUED TO LOWER LEVEL:          0  ACCURACY: -nan
L1I TIMELY PREFETCHES:          0 LATE PREFETCHES: 0 DROPPED PREFETCHES: 0
L1I PREFETCHES SAME FILL-ORIGIN LEVEL: 0 DIFFERENT FILL-ORIGIN LEVEL: 0
L1I AVERAGE MISS LATENCY: 17.2197 cycles
L1I RQ	ACCESS:   51854121	FORWARD:          0	MERGED:   16539034	TO_CACHE:   35315087

BTB TOTAL     ACCESS:     207305  HIT:     204093  MISS:       3212  HIT %:    98.4506  MISS %:    1.54941   MPKI: 0.01606
BTB BRANCH_DIRECT_JUMP	ACCESS:      61458  HIT:      61423  MISS:         35
BTB BRANCH_INDIRECT	ACCESS:      58898  HIT:      58820  MISS:         78
BTB BRANCH_CONDITIONAL	ACCESS:      74915  HIT:      74516  MISS:        399
BTB BRANCH_DIRECT_CALL	ACCESS:       6013  HIT:       5388  MISS:        625
BTB BRANCH_INDIRECT_CALL	ACCESS:          3  HIT:          0  MISS:          3
BTB BRANCH_RETURN	ACCESS:       6018  HIT:       3946  MISS:       2072
BTB BRANCH_OTHER ACCESS:          0  HIT:          0  MISS:          0

L2C TOTAL     ACCESS:   26814032  HIT:   24277740  MISS:    2536292  HIT %:    90.5412  MISS %:    9.45882   MPKI: 12.6815
L2C LOAD      ACCESS:   21112902  HIT:   20063889  MISS:    1049013  HIT %:    95.0314  MISS %:    4.96859   MPKI: 5.24506
L2C DATA LOAD MPKI: 5.2398
L2C INSTRUCTION LOAD MPKI: 0.00526
L2C RFO       ACCESS:    1601609  HIT:    1589061  MISS:      12548  HIT %:    99.2165  MISS %:   0.783462   MPKI: 0.06274
L2C PREFETCH  ACCESS:    2250626  HIT:     811124  MISS:    1439502  HIT %:    36.0399  MISS %:    63.9601   MPKI: 7.19751
L2C DATA PREFETCH MPKI: 7.19751
L2C INSTRUCTION PREFETCH MPKI: 0
L2C WRITEBACK ACCESS:    1809588  HIT:    1806023  MISS:       3565  HIT %:     99.803  MISS %:   0.197006   MPKI: 0.017825
L2C LOAD TRANSLATION ACCESS:      39307  HIT:       7643  MISS:      31664  HIT %:    19.4444  MISS %:    80.5556   MPKI: 0.15832
L2C PREFETCH  REQUESTED:          0  ISSUED:          0  USEFUL:    1061819  USELESS:     381138
L2C USEFUL LOAD PREFETCHES:    1061819 PREFETCH ISSUED TO LOWER LEVEL:    1443019  ACCURACY: 73.5832
L2C TIMELY PREFETCHES:    1061819 LATE PREFETCHES: 0 DROPPED PREFETCHES: 0
L2C PREFETCHES SAME FILL-ORIGIN LEVEL: 0 DIFFERENT FILL-ORIGIN LEVEL: 0
L2C AVERAGE MISS LATENCY: 312.733 cycles
L2C RQ	ACCESS:   23146741	FORWARD:          0	MERGED:          0	TO_CACHE:   22808647
L2C WQ	ACCESS:    1813948	FORWARD:     338095	MERGED:          0	TO_CACHE:    1813948
L2C PQ	ACCESS:    2256108	FORWARD:          0	MERGED:          0	TO_CACHE:    2256107

L2C Instructions Evicting Data 937
L2C Translations Evicting Data 31348
L2C Data Evicting Data 2473798
L2C Instructions Evicting Instructions 107
L2C Translations Evicting Instructions 22
L2C Data Evicting Instructions 1064
L2C Instructions Evicting Translations 8
L2C Translations Evicting Translations 352
L2C Data Evicting Translations 31348
L2C Dense regions hint from L2: 0
PSCL5 TOTAL     ACCESS:      24552  HIT:      24552  MISS:          0  HIT %:        100  MISS %:          0   MPKI: 0
PSCL5 LOAD TRANSLATION ACCESS:      24552  HIT:      24552  MISS:          0  HIT %:        100  MISS %:          0   MPKI: 0
PSCL5 PREFETCH  REQUESTED:          0  ISSUED:          0  USEFUL:          0  USELESS:          0
PSCL5 USEFUL LOAD PREFETCHES:          0 PREFETCH ISSUED TO LOWER LEVEL:          0  ACCURACY: -nan
PSCL5 TIMELY PREFETCHES:          0 LATE PREFETCHES: 0 DROPPED PREFETCHES: 0
PSCL5 PREFETCHES SAME FILL-ORIGIN LEVEL: 0 DIFFERENT FILL-ORIGIN LEVEL: 0

PSCL4 TOTAL     ACCESS:      24552  HIT:      24552  MISS:          0  HIT %:        100  MISS %:          0   MPKI: 0
PSCL4 LOAD TRANSLATION ACCESS:      24552  HIT:      24552  MISS:          0  HIT %:        100  MISS %:          0   MPKI: 0
PSCL4 PREFETCH  REQUESTED:          0  ISSUED:          0  USEFUL:          0  USELESS:          0
PSCL4 USEFUL LOAD PREFETCHES:          0 PREFETCH ISSUED TO LOWER LEVEL:          0  ACCURACY: -nan
PSCL4 TIMELY PREFETCHES:          0 LATE PREFETCHES: 0 DROPPED PREFETCHES: 0
PSCL4 PREFETCHES SAME FILL-ORIGIN LEVEL: 0 DIFFERENT FILL-ORIGIN LEVEL: 0

PSCL3 TOTAL     ACCESS:      24552  HIT:      24548  MISS:          4  HIT %:    99.9837  MISS %:   0.016292   MPKI: 2e-05
PSCL3 LOAD TRANSLATION ACCESS:      24552  HIT:      24548  MISS:          4  HIT %:    99.9837  MISS %:   0.016292   MPKI: 2e-05
PSCL3 PREFETCH  REQUESTED:          0  ISSUED:          0  USEFUL:          0  USELESS:          0
PSCL3 USEFUL LOAD PREFETCHES:          0 PREFETCH ISSUED TO LOWER LEVEL:          0  ACCURACY: -nan
PSCL3 TIMELY PREFETCHES:          0 LATE PREFETCHES: 0 DROPPED PREFETCHES: 0
PSCL3 PREFETCHES SAME FILL-ORIGIN LEVEL: 0 DIFFERENT FILL-ORIGIN LEVEL: 0

PSCL2 TOTAL     ACCESS:      24552  HIT:       9728  MISS:      14824  HIT %:     39.622  MISS %:     60.378   MPKI: 0.07412
PSCL2 LOAD TRANSLATION ACCESS:      24552  HIT:       9728  MISS:      14824  HIT %:     39.622  MISS %:     60.378   MPKI: 0.07412
PSCL2 PREFETCH  REQUESTED:          0  ISSUED:          0  USEFUL:          0  USELESS:          0
PSCL2 USEFUL LOAD PREFETCHES:          0 PREFETCH ISSUED TO LOWER LEVEL:          0  ACCURACY: -nan
PSCL2 TIMELY PREFETCHES:          0 LATE PREFETCHES: 0 DROPPED PREFETCHES: 0
PSCL2 PREFETCHES SAME FILL-ORIGIN LEVEL: 0 DIFFERENT FILL-ORIGIN LEVEL: 0

LLC TOTAL     ACCESS:    2730204  HIT:    1182336  MISS:    1547868  HIT %:    43.3058  MISS %:    56.6942   MPKI: 7.73934
LLC LOAD      ACCESS:    1049003  HIT:     617053  MISS:     431950  HIT %:    58.8228  MISS %:    41.1772   MPKI: 2.15975
LLC RFO       ACCESS:      12466  HIT:      11357  MISS:       1109  HIT %:    91.1038  MISS %:     8.8962   MPKI: 0.005545
LLC PREFETCH  ACCESS:    1439502  HIT:     332710  MISS:    1106792  HIT %:    23.1129  MISS %:    76.8871   MPKI: 5.53396
LLC WRITEBACK ACCESS:     197569  HIT:     193306  MISS:       4263  HIT %:    97.8423  MISS %:    2.15773   MPKI: 0.021315
LLC LOAD TRANSLATION ACCESS:      31664  HIT:      27910  MISS:       3754  HIT %:    88.1443  MISS %:    11.8557   MPKI: 0.01877
LLC PREFETCH  REQUESTED:          0  ISSUED:          0  USEFUL:    1179949  USELESS:    3202456
LLC USEFUL LOAD PREFETCHES:    1179949 PREFETCH ISSUED TO LOWER LEVEL:    4420694  ACCURACY: 26.6915
LLC TIMELY PREFETCHES:    1179949 LATE PREFETCHES: 0 DROPPED PREFETCHES: 0
LLC PREFETCHES SAME FILL-ORIGIN LEVEL: 0 DIFFERENT FILL-ORIGIN LEVEL: 0
LLC AVERAGE MISS LATENCY: 1876.79 cycles
LLC RQ	ACCESS:    4193328	FORWARD:          0	MERGED:          0	TO_CACHE:    4192926
LLC WQ	ACCESS:     790413	FORWARD:        402	MERGED:          0	TO_CACHE:     790413
LLC PQ	ACCESS:    5710242	FORWARD:          0	MERGED:          0	TO_CACHE:    5710242

LLC Dense regions hint to LLC: 0

RAW hits: 141485
Loads Generated: 57291776
Loads sent to L1D: 57150284
Stores Generated: 22785116
Stores sent to L1D: 22785114
Major fault: 0 Minor fault: 17300
Allocated PAGES: 69175

stream: 
stream:times selected: 2848369
stream:pref_filled: 2466225
stream:pref_useful: 9385
stream:pref_late: 133
stream:misses: 5640
stream:misses_by_poll: 0

CS: 
CS:times selected: 2663794
CS:pref_filled: 11188
CS:pref_useful: 45
CS:pref_late: 2
CS:misses: 17352
CS:misses_by_poll: 12

CPLX: 
CPLX:times selected: 2846998
CPLX:pref_filled: 8678
CPLX:pref_useful: 493
CPLX:pref_late: 2
CPLX:misses: 16381289
CPLX:misses_by_poll: 1

NL_L1: 
NL:times selected: 20
NL:pref_filled: 15
NL:pref_useful: 2
NL:pref_late: 0
NL:misses: 10
NL:misses_by_poll: 0

total selections: 8359181
total_filled: 2252274
total_useful: 1388
total_late: 146
total_polluted: 13
total_misses_after_warmup: 21887599
conflicts: 8348130
Degree Incremented Times: 0
Degree Decremented Times: 3505695

L1 IP Table Write Accesses: 107120652
L1 IP Table Read Accesses: 98772522
L1 RST Write Accesses: 10190918
L1 RST Read Accesses: 20381836
L1 CSPT Write Accesses: 10190918
L1 CSPT Read Accesses: 20381815
L1 RR Filter Tag Write Accesses: 9906535
L1 RR Filter Tag Read Accesses: 939479777
L1 IP Table Tag Write Accesses: 139808934
L1 IP Table Tag Read Accesses: 139808934
L1 RST Tag Write Accesses: 0
L1 RST Tag Read Accesses: 91746100
L1 RR Filter Write Accesses: 0
L1 RR Filter Read Accesses: 29585405
test: 261023

stream: 
stream:times selected: 2842425
stream:pref_filled: 2388419
stream:pref_useful: 9519
stream:pref_late: 91
stream:misses: 5495
stream:misses_by_poll: 0

CS: 
CS:times selected: 2657273
CS:pref_filled: 11388
CS:pref_useful: 83
CS:pref_late: 3
CS:misses: 17171
CS:misses_by_poll: 6

CPLX: 
CPLX:times selected: 2840991
CPLX:pref_filled: 7093
CPLX:pref_useful: 316
CPLX:pref_late: 1
CPLX:misses: 16281424
CPLX:misses_by_poll: 2

NL_L1: 
NL:times selected: 19
NL:pref_filled: 8
NL:pref_useful: 0
NL:pref_late: 0
NL:misses: 23
NL:misses_by_poll: 0

total selections: 8340708
total_filled: 2232987
total_useful: 1325
total_late: 98
total_polluted: 8
total_misses_after_warmup: 21939314
conflicts: 8348130
Degree Incremented Times: 0
Degree Decremented Times: 3505695

L1 IP Table Write Accesses: 107120652
L1 IP Table Read Accesses: 98772522
L1 RST Write Accesses: 10190918
L1 RST Read Accesses: 20381836
L1 CSPT Write Accesses: 10190918
L1 CSPT Read Accesses: 20381815
L1 RR Filter Tag Write Accesses: 9906535
L1 RR Filter Tag Read Accesses: 939479777
L1 IP Table Tag Write Accesses: 139808934
L1 IP Table Tag Read Accesses: 139808934
L1 RST Tag Write Accesses: 0
L1 RST Tag Read Accesses: 91746100
L1 RR Filter Write Accesses: 0
L1 RR Filter Read Accesses: 29585405
test: 261023

stream: 
stream:times selected: 2849234
stream:pref_filled: 2342415
stream:pref_useful: 9508
stream:pref_late: 92
stream:misses: 5430
stream:misses_by_poll: 0

CS: 
CS:times selected: 2664703
CS:pref_filled: 10189
CS:pref_useful: 46
CS:pref_late: 2
CS:misses: 16305
CS:misses_by_poll: 9

CPLX: 
CPLX:times selected: 2847846
CPLX:pref_filled: 5785
CPLX:pref_useful: 212
CPLX:pref_late: 2
CPLX:misses: 16369066
CPLX:misses_by_poll: 2

NL_L1: 
NL:times selected: 15
NL:pref_filled: 5
NL:pref_useful: 0
NL:pref_late: 0
NL:misses: 12
NL:misses_by_poll: 0

total selections: 8361798
total_filled: 2240402
total_useful: 1279
total_late: 100
total_polluted: 11
total_misses_after_warmup: 21886909
conflicts: 8348130
Degree Incremented Times: 0
Degree Decremented Times: 3505695

L1 IP Table Write Accesses: 107120652
L1 IP Table Read Accesses: 98772522
L1 RST Write Accesses: 10190918
L1 RST Read Accesses: 20381836
L1 CSPT Write Accesses: 10190918
L1 CSPT Read Accesses: 20381815
L1 RR Filter Tag Write Accesses: 9906535
L1 RR Filter Tag Read Accesses: 939479777
L1 IP Table Tag Write Accesses: 139808934
L1 IP Table Tag Read Accesses: 139808934
L1 RST Tag Write Accesses: 0
L1 RST Tag Read Accesses: 91746100
L1 RR Filter Write Accesses: 0
L1 RR Filter Read Accesses: 29585405
test: 261023

stream: 
stream:times selected: 2856274
stream:pref_filled: 2312895
stream:pref_useful: 13534
stream:pref_late: 104
stream:misses: 5444
stream:misses_by_poll: 0

CS: 
CS:times selected: 2670027
CS:pref_filled: 11205
CS:pref_useful: 76
CS:pref_late: 2
CS:misses: 17171
CS:misses_by_poll: 11

CPLX: 
CPLX:times selected: 2854863
CPLX:pref_filled: 5244
CPLX:pref_useful: 170
CPLX:pref_late: 1
CPLX:misses: 16371905
CPLX:misses_by_poll: 2

NL_L1: 
NL:times selected: 14
NL:pref_filled: 2
NL:pref_useful: 1
NL:pref_late: 0
NL:misses: 12
NL:misses_by_poll: 0

total selections: 8381178
total_filled: 2256017
total_useful: 1357
total_late: 112
total_polluted: 13
total_misses_after_warmup: 21938210
conflicts: 8348130
Degree Incremented Times: 0
Degree Decremented Times: 3505695

L1 IP Table Write Accesses: 107120652
L1 IP Table Read Accesses: 98772522
L1 RST Write Accesses: 10190918
L1 RST Read Accesses: 20381836
L1 CSPT Write Accesses: 10190918
L1 CSPT Read Accesses: 20381815
L1 RR Filter Tag Write Accesses: 9906535
L1 RR Filter Tag Read Accesses: 939479777
L1 IP Table Tag Write Accesses: 139808934
L1 IP Table Tag Read Accesses: 139808934
L1 RST Tag Write Accesses: 0
L1 RST Tag Read Accesses: 91746100
L1 RR Filter Write Accesses: 0
L1 RR Filter Read Accesses: 29585405
test: 261023

DRAM Statistics
 CHANNEL 0
 RQ ROW_BUFFER_HIT:    3104897  ROW_BUFFER_MISS:    3082594
 DBUS_CONGESTED:       1026
 WQ ROW_BUFFER_HIT:     207220  ROW_BUFFER_MISS:     562268  FULL:          0

 AVG_CONGESTED_CYCLE: 5
 All warmup complete: 5
Channel 0 Bank busy for read cycles: 0
Channel 0 Bank busy for write cycles: 0
Channel 0
Rank 0
0banks busy for read cycles: 4699850
0banks busy for write cycles: 14133
1banks busy for read cycles: 14752869
1banks busy for write cycles: 1932790
2banks busy for read cycles: 18502947
2banks busy for write cycles: 1643842
3banks busy for read cycles: 17146499
3banks busy for write cycles: 1531905
4banks busy for read cycles: 24195685
4banks busy for write cycles: 1532796
5banks busy for read cycles: 28057402
5banks busy for write cycles: 1665142
6banks busy for read cycles: 24711059
6banks busy for write cycles: 2505513
7banks busy for read cycles: 14542851
7banks busy for write cycles: 4694531
8banks busy for read cycles: 4920287
8banks busy for write cycles: 7115998

CPU 0 Branch Prediction Accuracy: 99.5304% MPKI: 0.00653867 Average ROB Occupancy at Mispredict: 37.1147
Branch types
NOT_BRANCH: 199754927 99.8608%
BRANCH_DIRECT_JUMP: 61464 0.0307269%
BRANCH_INDIRECT: 58909 0.0294496%
BRANCH_CONDITIONAL: 146135 0.0730553%
BRANCH_DIRECT_CALL: 6007 0.003003%
BRANCH_INDIRECT_CALL: 3 1.49975e-06%
BRANCH_RETURN: 6010 0.0030045%
BRANCH_OTHER: 0 0%


CPU 1 Branch Prediction Accuracy: 99.5314% MPKI: 0.00652273 Average ROB Occupancy at Mispredict: 37.081
Branch types
NOT_BRANCH: 200247435 99.8608%
BRANCH_DIRECT_JUMP: 61614 0.0307261%
BRANCH_INDIRECT: 59053 0.029449%
BRANCH_CONDITIONAL: 146451 0.0730332%
BRANCH_DIRECT_CALL: 6013 0.0029986%
BRANCH_INDIRECT_CALL: 3 1.49606e-06%
BRANCH_RETURN: 6016 0.0030001%
BRANCH_OTHER: 0 0%


CPU 2 Branch Prediction Accuracy: 99.5304% MPKI: 0.00653995 Average ROB Occupancy at Mispredict: 36.8173
Branch types
NOT_BRANCH: 199721557 99.8608%
BRANCH_DIRECT_JUMP: 61458 0.030729%
BRANCH_INDIRECT: 58898 0.029449%
BRANCH_CONDITIONAL: 146142 0.073071%
BRANCH_DIRECT_CALL: 6013 0.0030065%
BRANCH_INDIRECT_CALL: 3 1.5e-06%
BRANCH_RETURN: 6016 0.003008%
BRANCH_OTHER: 0 0%


CPU 3 Branch Prediction Accuracy: 99.5314% MPKI: 0.00652427 Average ROB Occupancy at Mispredict: 37.0879
Branch types
NOT_BRANCH: 200202787 99.8607%
BRANCH_DIRECT_JUMP: 61600 0.0307259%
BRANCH_INDIRECT: 59040 0.029449%
BRANCH_CONDITIONAL: 146434 0.0730409%
BRANCH_DIRECT_CALL: 6013 0.00299927%
BRANCH_INDIRECT_CALL: 3 1.49639e-06%
BRANCH_RETURN: 6018 0.00300176%
BRANCH_OTHER: 0 0%

DRAM PAGES: 1048576
Allocated PAGES: 69175
