
*** ChampSim Multicore Out-of-Order Simulator ***

Warmup Instructions: 50000000
Simulation Instructions: 200000000
Number of CPUs: 4
LLC sets: 8192
LLC ways: 16
Off-chip DRAM Size: 4096 MB Channels: 1 Width: 64-bit Data Rate: 6400 MT/s
CPU 0 runs ./traces/ligra/ligra_PageRank.com-lj.ungraph.gcc_6.3.0_O3.drop_5000M.length_250M.champsimtrace.xz
.xz
CPU 1 runs ./traces/ligra/ligra_PageRank.com-lj.ungraph.gcc_6.3.0_O3.drop_5000M.length_250M.champsimtrace.xz
.xz
CPU 2 runs ./traces/ligra/ligra_PageRank.com-lj.ungraph.gcc_6.3.0_O3.drop_5000M.length_250M.champsimtrace.xz
.xz
CPU 3 runs ./traces/ligra/ligra_PageRank.com-lj.ungraph.gcc_6.3.0_O3.drop_5000M.length_250M.champsimtrace.xz
.xz
BTB has LRU replacement policy
ITLB has LRU replacement policy
DTLB has LRU replacement policy
STLB has LRU replacement policy
L1I has LRU replacement policy
IP Table Entries: 1024
CSPT Entries: 128
RR_ENTRIES: 32
RST_ENTRIES: 8
L1D has LRU replacement policy
Initialize SRRIP state for L2C
Initialize DRRIP state for LLC
BTB has LRU replacement policy
ITLB has LRU replacement policy
DTLB has LRU replacement policy
STLB has LRU replacement policy
L1I has LRU replacement policy
IP Table Entries: 1024
CSPT Entries: 128
RR_ENTRIES: 32
RST_ENTRIES: 8
L1D has LRU replacement policy
Initialize SRRIP state for L2C
Initialize DRRIP state for LLC
BTB has LRU replacement policy
ITLB has LRU replacement policy
DTLB has LRU replacement policy
STLB has LRU replacement policy
L1I has LRU replacement policy
IP Table Entries: 1024
CSPT Entries: 128
RR_ENTRIES: 32
RST_ENTRIES: 8
L1D has LRU replacement policy
Initialize SRRIP state for L2C
Initialize DRRIP state for LLC
BTB has LRU replacement policy
ITLB has LRU replacement policy
DTLB has LRU replacement policy
STLB has LRU replacement policy
L1I has LRU replacement policy
IP Table Entries: 1024
CSPT Entries: 128
RR_ENTRIES: 32
RST_ENTRIES: 8
L1D has LRU replacement policy
Initialize SRRIP state for L2C
Initialize DRRIP state for LLC
Heartbeat CPU 0 instructions: 10000001 cycles: 3795201 heartbeat IPC: 2.63491 cumulative IPC: 2.63491 (Simulation time: 0 hr 3 min 29 sec) 
Heartbeat CPU 1 instructions: 10000001 cycles: 3796194 heartbeat IPC: 2.63422 cumulative IPC: 2.63422 (Simulation time: 0 hr 3 min 29 sec) 
Heartbeat CPU 2 instructions: 10000001 cycles: 3796212 heartbeat IPC: 2.63421 cumulative IPC: 2.63421 (Simulation time: 0 hr 3 min 29 sec) 
Heartbeat CPU 3 instructions: 10000001 cycles: 3796223 heartbeat IPC: 2.6342 cumulative IPC: 2.6342 (Simulation time: 0 hr 3 min 29 sec) 
Heartbeat CPU 0 instructions: 20000001 cycles: 7591404 heartbeat IPC: 2.63421 cumulative IPC: 2.63456 (Simulation time: 0 hr 6 min 53 sec) 
Heartbeat CPU 1 instructions: 20000001 cycles: 7593342 heartbeat IPC: 2.63356 cumulative IPC: 2.63389 (Simulation time: 0 hr 6 min 53 sec) 
Heartbeat CPU 2 instructions: 20000001 cycles: 7593367 heartbeat IPC: 2.63355 cumulative IPC: 2.63388 (Simulation time: 0 hr 6 min 53 sec) 
Heartbeat CPU 3 instructions: 20000001 cycles: 7593407 heartbeat IPC: 2.63353 cumulative IPC: 2.63386 (Simulation time: 0 hr 6 min 53 sec) 
Heartbeat CPU 0 instructions: 30000001 cycles: 11387047 heartbeat IPC: 2.6346 cumulative IPC: 2.63457 (Simulation time: 0 hr 9 min 52 sec) 
Heartbeat CPU 1 instructions: 30000001 cycles: 11389651 heartbeat IPC: 2.63414 cumulative IPC: 2.63397 (Simulation time: 0 hr 9 min 52 sec) 
Heartbeat CPU 2 instructions: 30000001 cycles: 11389981 heartbeat IPC: 2.63393 cumulative IPC: 2.63389 (Simulation time: 0 hr 9 min 52 sec) 
Heartbeat CPU 3 instructions: 30000001 cycles: 11390029 heartbeat IPC: 2.63392 cumulative IPC: 2.63388 (Simulation time: 0 hr 9 min 52 sec) 
Heartbeat CPU 0 instructions: 40000000 cycles: 15185065 heartbeat IPC: 2.63295 cumulative IPC: 2.63417 (Simulation time: 0 hr 13 min 3 sec) 
Heartbeat CPU 1 instructions: 40000000 cycles: 15187669 heartbeat IPC: 2.63295 cumulative IPC: 2.63372 (Simulation time: 0 hr 13 min 4 sec) 
Heartbeat CPU 2 instructions: 40000000 cycles: 15188861 heartbeat IPC: 2.63235 cumulative IPC: 2.63351 (Simulation time: 0 hr 13 min 4 sec) 
Heartbeat CPU 3 instructions: 40000000 cycles: 15188942 heartbeat IPC: 2.63233 cumulative IPC: 2.63349 (Simulation time: 0 hr 13 min 4 sec) 
Heartbeat CPU 0 instructions: 50000001 cycles: 18985724 heartbeat IPC: 2.63112 cumulative IPC: 2.63356 (Simulation time: 0 hr 16 min 19 sec) 
Heartbeat CPU 1 instructions: 50000001 cycles: 18988328 heartbeat IPC: 2.63112 cumulative IPC: 2.6332 (Simulation time: 0 hr 16 min 19 sec) 
Heartbeat CPU 2 instructions: 50000001 cycles: 18989738 heartbeat IPC: 2.63097 cumulative IPC: 2.633 (Simulation time: 0 hr 16 min 19 sec) 
Heartbeat CPU 3 instructions: 50000001 cycles: 18990349 heartbeat IPC: 2.63061 cumulative IPC: 2.63292 (Simulation time: 0 hr 16 min 19 sec) 

Warmup complete CPU 0 instructions: 50012010 cycles: 18990349 (Simulation time: 0 hr 16 min 19 sec) 
Warmup complete CPU 1 instructions: 50005233 cycles: 18990349 (Simulation time: 0 hr 16 min 19 sec) 
Warmup complete CPU 2 instructions: 50001584 cycles: 18990349 (Simulation time: 0 hr 16 min 19 sec) 
Warmup complete CPU 3 instructions: 50000001 cycles: 18990349 (Simulation time: 0 hr 16 min 19 sec) 

Heartbeat CPU 0 instructions: 60000000 cycles: 27878674 heartbeat IPC: 1.12449 cumulative IPC: 1.12372 (Simulation time: 0 hr 18 min 59 sec) 
Heartbeat CPU 1 instructions: 60000000 cycles: 27890558 heartbeat IPC: 1.12331 cumulative IPC: 1.12298 (Simulation time: 0 hr 18 min 59 sec) 
Heartbeat CPU 2 instructions: 60000000 cycles: 27896563 heartbeat IPC: 1.12273 cumulative IPC: 1.12263 (Simulation time: 0 hr 18 min 59 sec) 
Heartbeat CPU 3 instructions: 60000000 cycles: 27901762 heartbeat IPC: 1.12216 cumulative IPC: 1.12216 (Simulation time: 0 hr 18 min 59 sec) 
Heartbeat CPU 0 instructions: 70000000 cycles: 36819769 heartbeat IPC: 1.11843 cumulative IPC: 1.12107 (Simulation time: 0 hr 21 min 41 sec) 
Heartbeat CPU 1 instructions: 70000000 cycles: 36828788 heartbeat IPC: 1.11879 cumulative IPC: 1.12088 (Simulation time: 0 hr 21 min 41 sec) 
Heartbeat CPU 2 instructions: 70000000 cycles: 36834900 heartbeat IPC: 1.11878 cumulative IPC: 1.1207 (Simulation time: 0 hr 21 min 41 sec) 
Heartbeat CPU 3 instructions: 70000000 cycles: 36841157 heartbeat IPC: 1.11864 cumulative IPC: 1.1204 (Simulation time: 0 hr 21 min 41 sec) 
Heartbeat CPU 0 instructions: 80000001 cycles: 45742741 heartbeat IPC: 1.1207 cumulative IPC: 1.12095 (Simulation time: 0 hr 24 min 12 sec) 
Heartbeat CPU 1 instructions: 80000001 cycles: 45753035 heartbeat IPC: 1.12054 cumulative IPC: 1.12077 (Simulation time: 0 hr 24 min 12 sec) 
Heartbeat CPU 2 instructions: 80000001 cycles: 45758595 heartbeat IPC: 1.12061 cumulative IPC: 1.12067 (Simulation time: 0 hr 24 min 13 sec) 
Heartbeat CPU 3 instructions: 80000001 cycles: 45763561 heartbeat IPC: 1.12077 cumulative IPC: 1.12052 (Simulation time: 0 hr 24 min 13 sec) 
Heartbeat CPU 0 instructions: 90000002 cycles: 54703884 heartbeat IPC: 1.11593 cumulative IPC: 1.11969 (Simulation time: 0 hr 26 min 56 sec) 
Heartbeat CPU 1 instructions: 90000002 cycles: 54712423 heartbeat IPC: 1.11615 cumulative IPC: 1.11961 (Simulation time: 0 hr 26 min 56 sec) 
Heartbeat CPU 2 instructions: 90000002 cycles: 54718306 heartbeat IPC: 1.11611 cumulative IPC: 1.11953 (Simulation time: 0 hr 26 min 56 sec) 
Heartbeat CPU 3 instructions: 90000002 cycles: 54726688 heartbeat IPC: 1.11568 cumulative IPC: 1.11931 (Simulation time: 0 hr 26 min 57 sec) 
Heartbeat CPU 0 instructions: 100000001 cycles: 63717000 heartbeat IPC: 1.10949 cumulative IPC: 1.11763 (Simulation time: 0 hr 29 min 32 sec) 
Heartbeat CPU 1 instructions: 100000001 cycles: 63726198 heartbeat IPC: 1.10941 cumulative IPC: 1.11755 (Simulation time: 0 hr 29 min 32 sec) 
Heartbeat CPU 2 instructions: 100000001 cycles: 63735084 heartbeat IPC: 1.10904 cumulative IPC: 1.11741 (Simulation time: 0 hr 29 min 33 sec) 
Heartbeat CPU 3 instructions: 100000001 cycles: 63742516 heartbeat IPC: 1.10916 cumulative IPC: 1.11726 (Simulation time: 0 hr 29 min 33 sec) 
Heartbeat CPU 0 instructions: 110000000 cycles: 72754908 heartbeat IPC: 1.10645 cumulative IPC: 1.11575 (Simulation time: 0 hr 32 min 9 sec) 
Heartbeat CPU 1 instructions: 110000000 cycles: 72766351 heartbeat IPC: 1.10618 cumulative IPC: 1.11564 (Simulation time: 0 hr 32 min 10 sec) 
Heartbeat CPU 2 instructions: 110000000 cycles: 72772644 heartbeat IPC: 1.10649 cumulative IPC: 1.11558 (Simulation time: 0 hr 32 min 10 sec) 
Heartbeat CPU 3 instructions: 110000000 cycles: 72780758 heartbeat IPC: 1.10641 cumulative IPC: 1.11544 (Simulation time: 0 hr 32 min 10 sec) 
Heartbeat CPU 0 instructions: 120000002 cycles: 81849356 heartbeat IPC: 1.09957 cumulative IPC: 1.11341 (Simulation time: 0 hr 34 min 37 sec) 
Heartbeat CPU 1 instructions: 120000002 cycles: 81862624 heartbeat IPC: 1.09935 cumulative IPC: 1.11329 (Simulation time: 0 hr 34 min 37 sec) 
Heartbeat CPU 2 instructions: 120000002 cycles: 81867568 heartbeat IPC: 1.09951 cumulative IPC: 1.11326 (Simulation time: 0 hr 34 min 37 sec) 
Heartbeat CPU 3 instructions: 120000002 cycles: 81878945 heartbeat IPC: 1.09912 cumulative IPC: 1.11308 (Simulation time: 0 hr 34 min 37 sec) 
Heartbeat CPU 0 instructions: 130000000 cycles: 90836486 heartbeat IPC: 1.1127 cumulative IPC: 1.11332 (Simulation time: 0 hr 37 min 6 sec) 
Heartbeat CPU 1 instructions: 130000000 cycles: 90842383 heartbeat IPC: 1.11362 cumulative IPC: 1.11333 (Simulation time: 0 hr 37 min 6 sec) 
Heartbeat CPU 2 instructions: 130000000 cycles: 90849813 heartbeat IPC: 1.11331 cumulative IPC: 1.11326 (Simulation time: 0 hr 37 min 6 sec) 
Heartbeat CPU 3 instructions: 130000000 cycles: 90858429 heartbeat IPC: 1.11365 cumulative IPC: 1.11315 (Simulation time: 0 hr 37 min 6 sec) 
Heartbeat CPU 0 instructions: 140000001 cycles: 99760684 heartbeat IPC: 1.12055 cumulative IPC: 1.11412 (Simulation time: 0 hr 39 min 46 sec) 
Heartbeat CPU 1 instructions: 140000001 cycles: 99770670 heartbeat IPC: 1.12004 cumulative IPC: 1.11407 (Simulation time: 0 hr 39 min 46 sec) 
Heartbeat CPU 2 instructions: 140000001 cycles: 99777980 heartbeat IPC: 1.12005 cumulative IPC: 1.11401 (Simulation time: 0 hr 39 min 46 sec) 
Heartbeat CPU 3 instructions: 140000001 cycles: 99784818 heartbeat IPC: 1.12027 cumulative IPC: 1.11394 (Simulation time: 0 hr 39 min 46 sec) 
Heartbeat CPU 0 instructions: 150000001 cycles: 108665367 heartbeat IPC: 1.123 cumulative IPC: 1.115 (Simulation time: 0 hr 42 min 33 sec) 
Heartbeat CPU 1 instructions: 150000001 cycles: 108672972 heartbeat IPC: 1.1233 cumulative IPC: 1.11498 (Simulation time: 0 hr 42 min 33 sec) 
Heartbeat CPU 2 instructions: 150000001 cycles: 108682251 heartbeat IPC: 1.12306 cumulative IPC: 1.11491 (Simulation time: 0 hr 42 min 33 sec) 
Heartbeat CPU 3 instructions: 150000001 cycles: 108690715 heartbeat IPC: 1.12285 cumulative IPC: 1.11482 (Simulation time: 0 hr 42 min 33 sec) 
Heartbeat CPU 0 instructions: 160000001 cycles: 117748795 heartbeat IPC: 1.10091 cumulative IPC: 1.11371 (Simulation time: 0 hr 45 min 20 sec) 
Heartbeat CPU 1 instructions: 160000001 cycles: 117755637 heartbeat IPC: 1.101 cumulative IPC: 1.1137 (Simulation time: 0 hr 45 min 21 sec) 
Heartbeat CPU 2 instructions: 160000001 cycles: 117760423 heartbeat IPC: 1.10154 cumulative IPC: 1.11368 (Simulation time: 0 hr 45 min 21 sec) 
Heartbeat CPU 3 instructions: 160000001 cycles: 117772115 heartbeat IPC: 1.10115 cumulative IPC: 1.11357 (Simulation time: 0 hr 45 min 21 sec) 
Heartbeat CPU 0 instructions: 170000000 cycles: 126917295 heartbeat IPC: 1.09069 cumulative IPC: 1.11175 (Simulation time: 0 hr 48 min 13 sec) 
Heartbeat CPU 1 instructions: 170000000 cycles: 126925357 heartbeat IPC: 1.09055 cumulative IPC: 1.11173 (Simulation time: 0 hr 48 min 13 sec) 
Heartbeat CPU 2 instructions: 170000000 cycles: 126931590 heartbeat IPC: 1.09037 cumulative IPC: 1.1117 (Simulation time: 0 hr 48 min 14 sec) 
Heartbeat CPU 3 instructions: 170000000 cycles: 126939978 heartbeat IPC: 1.09077 cumulative IPC: 1.11163 (Simulation time: 0 hr 48 min 14 sec) 
Heartbeat CPU 0 instructions: 180000000 cycles: 136224339 heartbeat IPC: 1.07446 cumulative IPC: 1.10879 (Simulation time: 0 hr 51 min 5 sec) 
Heartbeat CPU 1 instructions: 180000000 cycles: 136232552 heartbeat IPC: 1.07444 cumulative IPC: 1.10877 (Simulation time: 0 hr 51 min 6 sec) 
Heartbeat CPU 2 instructions: 180000000 cycles: 136238997 heartbeat IPC: 1.07441 cumulative IPC: 1.10874 (Simulation time: 0 hr 51 min 6 sec) 
Heartbeat CPU 3 instructions: 180000000 cycles: 136248500 heartbeat IPC: 1.07428 cumulative IPC: 1.10866 (Simulation time: 0 hr 51 min 6 sec) 
Heartbeat CPU 0 instructions: 190000000 cycles: 145510565 heartbeat IPC: 1.07686 cumulative IPC: 1.10645 (Simulation time: 0 hr 53 min 56 sec) 
Heartbeat CPU 1 instructions: 190000000 cycles: 145526169 heartbeat IPC: 1.07601 cumulative IPC: 1.10636 (Simulation time: 0 hr 53 min 56 sec) 
Heartbeat CPU 2 instructions: 190000000 cycles: 145531835 heartbeat IPC: 1.0761 cumulative IPC: 1.10634 (Simulation time: 0 hr 53 min 56 sec) 
Heartbeat CPU 3 instructions: 190000000 cycles: 145540391 heartbeat IPC: 1.07621 cumulative IPC: 1.10628 (Simulation time: 0 hr 53 min 56 sec) 
Heartbeat CPU 0 instructions: 200000000 cycles: 154481712 heartbeat IPC: 1.11468 cumulative IPC: 1.10699 (Simulation time: 0 hr 56 min 40 sec) 
Heartbeat CPU 1 instructions: 200000000 cycles: 154496542 heartbeat IPC: 1.11478 cumulative IPC: 1.10692 (Simulation time: 0 hr 56 min 40 sec) 
Heartbeat CPU 2 instructions: 200000000 cycles: 154506655 heartbeat IPC: 1.11423 cumulative IPC: 1.10687 (Simulation time: 0 hr 56 min 41 sec) 
Heartbeat CPU 3 instructions: 200000000 cycles: 154512116 heartbeat IPC: 1.11461 cumulative IPC: 1.10683 (Simulation time: 0 hr 56 min 41 sec) 
Heartbeat CPU 0 instructions: 210000003 cycles: 163418194 heartbeat IPC: 1.11901 cumulative IPC: 1.10774 (Simulation time: 0 hr 59 min 32 sec) 
Heartbeat CPU 1 instructions: 210000003 cycles: 163430361 heartbeat IPC: 1.11934 cumulative IPC: 1.10769 (Simulation time: 0 hr 59 min 32 sec) 
Heartbeat CPU 2 instructions: 210000003 cycles: 163444013 heartbeat IPC: 1.1189 cumulative IPC: 1.10761 (Simulation time: 0 hr 59 min 32 sec) 
Heartbeat CPU 3 instructions: 210000003 cycles: 163448552 heartbeat IPC: 1.11901 cumulative IPC: 1.10759 (Simulation time: 0 hr 59 min 32 sec) 
Heartbeat CPU 0 instructions: 220000000 cycles: 172286419 heartbeat IPC: 1.12762 cumulative IPC: 1.10889 (Simulation time: 1 hr 2 min 8 sec) 
Heartbeat CPU 1 instructions: 220000000 cycles: 172293009 heartbeat IPC: 1.12833 cumulative IPC: 1.10888 (Simulation time: 1 hr 2 min 8 sec) 
Heartbeat CPU 2 instructions: 220000000 cycles: 172308841 heartbeat IPC: 1.12805 cumulative IPC: 1.10879 (Simulation time: 1 hr 2 min 8 sec) 
Heartbeat CPU 3 instructions: 220000000 cycles: 172316281 heartbeat IPC: 1.12768 cumulative IPC: 1.10875 (Simulation time: 1 hr 2 min 8 sec) 
Heartbeat CPU 0 instructions: 230000000 cycles: 181332517 heartbeat IPC: 1.10545 cumulative IPC: 1.1087 (Simulation time: 1 hr 4 min 59 sec) 
Heartbeat CPU 1 instructions: 230000000 cycles: 181340255 heartbeat IPC: 1.10531 cumulative IPC: 1.10868 (Simulation time: 1 hr 4 min 59 sec) 
Heartbeat CPU 2 instructions: 230000000 cycles: 181351904 heartbeat IPC: 1.10582 cumulative IPC: 1.10863 (Simulation time: 1 hr 5 min 0 sec) 
Heartbeat CPU 3 instructions: 230000000 cycles: 181364841 heartbeat IPC: 1.10515 cumulative IPC: 1.10855 (Simulation time: 1 hr 5 min 0 sec) 
Heartbeat CPU 0 instructions: 240000000 cycles: 190642492 heartbeat IPC: 1.07412 cumulative IPC: 1.10682 (Simulation time: 1 hr 7 min 36 sec) 
Heartbeat CPU 1 instructions: 240000000 cycles: 190649641 heartbeat IPC: 1.07418 cumulative IPC: 1.10681 (Simulation time: 1 hr 7 min 36 sec) 
Heartbeat CPU 2 instructions: 240000000 cycles: 190656009 heartbeat IPC: 1.07479 cumulative IPC: 1.10679 (Simulation time: 1 hr 7 min 36 sec) 
Heartbeat CPU 3 instructions: 240000000 cycles: 190673655 heartbeat IPC: 1.07425 cumulative IPC: 1.10669 (Simulation time: 1 hr 7 min 36 sec) 
*** Reached end of trace for Core: 0 Repeating trace: ./traces/ligra/ligra_PageRank.com-lj.ungraph.gcc_6.3.0_O3.drop_5000M.length_250M.champsimtrace.xz
Heartbeat CPU 0 instructions: 250000000 cycles: 199691923 heartbeat IPC: 1.10504 cumulative IPC: 1.10673 (Simulation time: 1 hr 10 min 31 sec) 
*** Reached end of trace for Core: 1 Repeating trace: ./traces/ligra/ligra_PageRank.com-lj.ungraph.gcc_6.3.0_O3.drop_5000M.length_250M.champsimtrace.xz
Heartbeat CPU 1 instructions: 250000000 cycles: 199698066 heartbeat IPC: 1.10516 cumulative IPC: 1.10673 (Simulation time: 1 hr 10 min 31 sec) 
Finished CPU 0 instructions: 200000002 cycles: 180713501 cumulative IPC: 1.10672 (Simulation time: 1 hr 10 min 31 sec) 
Finished CPU 1 instructions: 200000000 cycles: 180714033 cumulative IPC: 1.10672 (Simulation time: 1 hr 10 min 31 sec) 
*** Reached end of trace for Core: 2 Repeating trace: ./traces/ligra/ligra_PageRank.com-lj.ungraph.gcc_6.3.0_O3.drop_5000M.length_250M.champsimtrace.xz
Heartbeat CPU 2 instructions: 250000000 cycles: 199706601 heartbeat IPC: 1.1049 cumulative IPC: 1.1067 (Simulation time: 1 hr 10 min 31 sec) 
Finished CPU 2 instructions: 200000002 cycles: 180718348 cumulative IPC: 1.10669 (Simulation time: 1 hr 10 min 31 sec) 
*** Reached end of trace for Core: 3 Repeating trace: ./traces/ligra/ligra_PageRank.com-lj.ungraph.gcc_6.3.0_O3.drop_5000M.length_250M.champsimtrace.xz
Heartbeat CPU 3 instructions: 250000000 cycles: 199720731 heartbeat IPC: 1.10533 cumulative IPC: 1.10662 (Simulation time: 1 hr 10 min 32 sec) 
Finished CPU 3 instructions: 200000001 cycles: 180730383 cumulative IPC: 1.10662 (Simulation time: 1 hr 10 min 32 sec) 

ChampSim completed all CPUs

Total Simulation Statistics (not including warmup)

CPU 0 cumulative IPC: 1.10673 instructions: 200019670 cycles: 180730383
ITLB TOTAL     ACCESS:   33170500  HIT:   33170500  MISS:          0  HIT %:        100  MISS %:          0   MPKI: 0
ITLB LOAD      ACCESS:          0  HIT:          0  MISS:          0  HIT %:       -nan  MISS %:       -nan   MPKI: 0
ITLB RFO       ACCESS:          0  HIT:          0  MISS:          0  HIT %:       -nan  MISS %:       -nan   MPKI: 0
ITLB PREFETCH  ACCESS:          0  HIT:          0  MISS:          0  HIT %:       -nan  MISS %:       -nan   MPKI: 0
ITLB WRITEBACK ACCESS:          0  HIT:          0  MISS:          0  HIT %:       -nan  MISS %:       -nan   MPKI: 0
DTLB TOTAL     ACCESS:   20722156  HIT:   20702449  MISS:      19707  HIT %:    99.9049  MISS %:  0.0951011   MPKI: 0.0985253
DTLB LOAD      ACCESS:          0  HIT:          0  MISS:          0  HIT %:       -nan  MISS %:       -nan   MPKI: 0
DTLB RFO       ACCESS:          0  HIT:          0  MISS:          0  HIT %:       -nan  MISS %:       -nan   MPKI: 0
DTLB PREFETCH  ACCESS:          0  HIT:          0  MISS:          0  HIT %:       -nan  MISS %:       -nan   MPKI: 0
DTLB WRITEBACK ACCESS:          0  HIT:          0  MISS:          0  HIT %:       -nan  MISS %:       -nan   MPKI: 0
STLB TOTAL     ACCESS:     561245  HIT:     541538  MISS:      19707  HIT %:    96.4887  MISS %:     3.5113   MPKI: 0.0985253
STLB LOAD      ACCESS:          0  HIT:          0  MISS:          0  HIT %:       -nan  MISS %:       -nan   MPKI: 0
STLB RFO       ACCESS:          0  HIT:          0  MISS:          0  HIT %:       -nan  MISS %:       -nan   MPKI: 0
STLB PREFETCH  ACCESS:          0  HIT:          0  MISS:          0  HIT %:       -nan  MISS %:       -nan   MPKI: 0
STLB WRITEBACK ACCESS:          0  HIT:          0  MISS:          0  HIT %:       -nan  MISS %:       -nan   MPKI: 0
L1D TOTAL     ACCESS:   17451567  HIT:   16190317  MISS:    1261250  HIT %:    92.7729  MISS %:    7.22714   MPKI: 6.30563
L1D LOAD      ACCESS:   15418183  HIT:   15407572  MISS:      10611  HIT %:    99.9312  MISS %:  0.0688213   MPKI: 0.0530498
L1D RFO       ACCESS:    1366591  HIT:     698389  MISS:     668202  HIT %:    51.1045  MISS %:    48.8955   MPKI: 3.34068
L1D PREFETCH  ACCESS:     666793  HIT:      84356  MISS:     582437  HIT %:     12.651  MISS %:     87.349   MPKI: 2.9119
L1D WRITEBACK ACCESS:          0  HIT:          0  MISS:          0  HIT %:       -nan  MISS %:       -nan   MPKI: 0
L1I TOTAL     ACCESS:   33188956  HIT:   33188956  MISS:          0  HIT %:        100  MISS %:          0   MPKI: 0
L1I LOAD      ACCESS:   33188956  HIT:   33188956  MISS:          0  HIT %:        100  MISS %:          0   MPKI: 0
L1I RFO       ACCESS:          0  HIT:          0  MISS:          0  HIT %:       -nan  MISS %:       -nan   MPKI: 0
L1I PREFETCH  ACCESS:          0  HIT:          0  MISS:          0  HIT %:       -nan  MISS %:       -nan   MPKI: 0
L1I WRITEBACK ACCESS:          0  HIT:          0  MISS:          0  HIT %:       -nan  MISS %:       -nan   MPKI: 0
L2C TOTAL     ACCESS:    1949167  HIT:     651309  MISS:    1297858  HIT %:    33.4147  MISS %:    66.5853   MPKI: 6.48865
L2C LOAD      ACCESS:       9311  HIT:         10  MISS:       9301  HIT %:     0.1074  MISS %:    99.8926   MPKI: 0.0465004
L2C RFO       ACCESS:     668202  HIT:          0  MISS:     668202  HIT %:          0  MISS %:        100   MPKI: 3.34068
L2C PREFETCH  ACCESS:     583737  HIT:         68  MISS:     583669  HIT %:  0.0116491  MISS %:    99.9884   MPKI: 2.91806
L2C WRITEBACK ACCESS:     668207  HIT:     634060  MISS:      34147  HIT %:    94.8898  MISS %:    5.11024   MPKI: 0.170718
PSCL5 TOTAL     ACCESS:      19707  HIT:      19707  MISS:          0  HIT %:        100  MISS %:          0   MPKI: 0
PSCL5 LOAD      ACCESS:          0  HIT:          0  MISS:          0  HIT %:       -nan  MISS %:       -nan   MPKI: 0
PSCL5 RFO       ACCESS:          0  HIT:          0  MISS:          0  HIT %:       -nan  MISS %:       -nan   MPKI: 0
PSCL5 PREFETCH  ACCESS:          0  HIT:          0  MISS:          0  HIT %:       -nan  MISS %:       -nan   MPKI: 0
PSCL5 WRITEBACK ACCESS:          0  HIT:          0  MISS:          0  HIT %:       -nan  MISS %:       -nan   MPKI: 0
PSCL4 TOTAL     ACCESS:      19707  HIT:      19707  MISS:          0  HIT %:        100  MISS %:          0   MPKI: 0
PSCL4 LOAD      ACCESS:          0  HIT:          0  MISS:          0  HIT %:       -nan  MISS %:       -nan   MPKI: 0
PSCL4 RFO       ACCESS:          0  HIT:          0  MISS:          0  HIT %:       -nan  MISS %:       -nan   MPKI: 0
PSCL4 PREFETCH  ACCESS:          0  HIT:          0  MISS:          0  HIT %:       -nan  MISS %:       -nan   MPKI: 0
PSCL4 WRITEBACK ACCESS:          0  HIT:          0  MISS:          0  HIT %:       -nan  MISS %:       -nan   MPKI: 0
PSCL3 TOTAL     ACCESS:      19707  HIT:      19707  MISS:          0  HIT %:        100  MISS %:          0   MPKI: 0
PSCL3 LOAD      ACCESS:          0  HIT:          0  MISS:          0  HIT %:       -nan  MISS %:       -nan   MPKI: 0
PSCL3 RFO       ACCESS:          0  HIT:          0  MISS:          0  HIT %:       -nan  MISS %:       -nan   MPKI: 0
PSCL3 PREFETCH  ACCESS:          0  HIT:          0  MISS:          0  HIT %:       -nan  MISS %:       -nan   MPKI: 0
PSCL3 WRITEBACK ACCESS:          0  HIT:          0  MISS:          0  HIT %:       -nan  MISS %:       -nan   MPKI: 0
PSCL2 TOTAL     ACCESS:      19707  HIT:      19666  MISS:         41  HIT %:     99.792  MISS %:   0.208048   MPKI: 0.00020498
PSCL2 LOAD      ACCESS:          0  HIT:          0  MISS:          0  HIT %:       -nan  MISS %:       -nan   MPKI: 0
PSCL2 RFO       ACCESS:          0  HIT:          0  MISS:          0  HIT %:       -nan  MISS %:       -nan   MPKI: 0
PSCL2 PREFETCH  ACCESS:          0  HIT:          0  MISS:          0  HIT %:       -nan  MISS %:       -nan   MPKI: 0
PSCL2 WRITEBACK ACCESS:          0  HIT:          0  MISS:          0  HIT %:       -nan  MISS %:       -nan   MPKI: 0

stream: 
stream:times selected: 888663
stream:pref_filled: 725120
stream:pref_useful: 724954
stream:pref_late: 1218
stream:misses: 38
stream:misses_by_poll: 0

CS: 
CS:times selected: 888655
CS:pref_filled: 2631
CS:pref_useful: 2631
CS:pref_late: 74
CS:misses: 66755
CS:misses_by_poll: 9

CPLX: 
CPLX:times selected: 7
CPLX:pref_filled: 1
CPLX:pref_useful: 1
CPLX:pref_late: 0
CPLX:misses: 2
CPLX:misses_by_poll: 0

NL_L1: 
NL:times selected: 0
NL:pref_filled: 0
NL:pref_useful: 0
NL:pref_late: 0
NL:misses: 0
NL:misses_by_poll: 0

total selections: 1777325
total_filled: 582437
total_useful: 582312
total_late: 1300
total_polluted: 9
total_misses_after_warmup: 61119
conflicts: 0
Degree Incremented Times: 482163
Degree Decremented Times: 0

L1 IP Table Write Accesses: 61874893
L1 IP Table Read Accesses: 61874893
L1 RST Write Accesses: 2964349
L1 RST Read Accesses: 5928698
L1 CSPT Write Accesses: 2964349
L1 CSPT Read Accesses: 2964358
L1 RR Filter Tag Write Accesses: 2671086
L1 RR Filter Tag Read Accesses: 506002166
L1 IP Table Tag Write Accesses: 61874893
L1 IP Table Tag Read Accesses: 61874893
L1 RST Tag Write Accesses: 0
L1 RST Tag Read Accesses: 26674880
L1 RR Filter Write Accesses: 0
L1 RR Filter Read Accesses: 25443860
test: 45929
LLC TOTAL     ACCESS:    1932196  HIT:     646069  MISS:    1286127  HIT %:     33.437  MISS %:     66.563   MPKI: 6.43
LLC LOAD      ACCESS:       9301  HIT:          8  MISS:       9293  HIT %:  0.0860123  MISS %:     99.914   MPKI: 0.0464604
LLC RFO       ACCESS:     668202  HIT:          0  MISS:     668202  HIT %:          0  MISS %:        100   MPKI: 3.34068
LLC PREFETCH  ACCESS:     583669  HIT:         30  MISS:     583639  HIT %:  0.0051399  MISS %:    99.9949   MPKI: 2.91791
LLC WRITEBACK ACCESS:     668485  HIT:     646031  MISS:      22454  HIT %:    96.6411  MISS %:    3.35894   MPKI: 0.112259

RAW hits: 0
Loads Generated: 37854604
Loads sent to L1D: 37854603
Stores Generated: 5345645
Stores sent to L1D: 5345645

CPU 1 cumulative IPC: 1.10672 instructions: 200018084 cycles: 180730383
ITLB TOTAL     ACCESS:   33170311  HIT:   33170311  MISS:          0  HIT %:        100  MISS %:          0   MPKI: 0
ITLB LOAD      ACCESS:          0  HIT:          0  MISS:          0  HIT %:       -nan  MISS %:       -nan   MPKI: 0
ITLB RFO       ACCESS:          0  HIT:          0  MISS:          0  HIT %:       -nan  MISS %:       -nan   MPKI: 0
ITLB PREFETCH  ACCESS:          0  HIT:          0  MISS:          0  HIT %:       -nan  MISS %:       -nan   MPKI: 0
ITLB WRITEBACK ACCESS:          0  HIT:          0  MISS:          0  HIT %:       -nan  MISS %:       -nan   MPKI: 0
DTLB TOTAL     ACCESS:   20721555  HIT:   20701848  MISS:      19707  HIT %:    99.9049  MISS %:  0.0951039   MPKI: 0.0985261
DTLB LOAD      ACCESS:          0  HIT:          0  MISS:          0  HIT %:       -nan  MISS %:       -nan   MPKI: 0
DTLB RFO       ACCESS:          0  HIT:          0  MISS:          0  HIT %:       -nan  MISS %:       -nan   MPKI: 0
DTLB PREFETCH  ACCESS:          0  HIT:          0  MISS:          0  HIT %:       -nan  MISS %:       -nan   MPKI: 0
DTLB WRITEBACK ACCESS:          0  HIT:          0  MISS:          0  HIT %:       -nan  MISS %:       -nan   MPKI: 0
STLB TOTAL     ACCESS:     560567  HIT:     540860  MISS:      19707  HIT %:    96.4845  MISS %:    3.51555   MPKI: 0.0985261
STLB LOAD      ACCESS:          0  HIT:          0  MISS:          0  HIT %:       -nan  MISS %:       -nan   MPKI: 0
STLB RFO       ACCESS:          0  HIT:          0  MISS:          0  HIT %:       -nan  MISS %:       -nan   MPKI: 0
STLB PREFETCH  ACCESS:          0  HIT:          0  MISS:          0  HIT %:       -nan  MISS %:       -nan   MPKI: 0
STLB WRITEBACK ACCESS:          0  HIT:          0  MISS:          0  HIT %:       -nan  MISS %:       -nan   MPKI: 0
L1D TOTAL     ACCESS:   17448073  HIT:   16186864  MISS:    1261209  HIT %:    92.7716  MISS %:    7.22836   MPKI: 6.30547
L1D LOAD      ACCESS:   15416509  HIT:   15405796  MISS:      10713  HIT %:    99.9305  MISS %:  0.0694904   MPKI: 0.0535602
L1D RFO       ACCESS:    1365091  HIT:     696889  MISS:     668202  HIT %:    51.0507  MISS %:    48.9493   MPKI: 3.34071
L1D PREFETCH  ACCESS:     666473  HIT:      84179  MISS:     582294  HIT %:    12.6305  MISS %:    87.3695   MPKI: 2.91121
L1D WRITEBACK ACCESS:          0  HIT:          0  MISS:          0  HIT %:       -nan  MISS %:       -nan   MPKI: 0
L1I TOTAL     ACCESS:   33188767  HIT:   33188767  MISS:          0  HIT %:        100  MISS %:          0   MPKI: 0
L1I LOAD      ACCESS:   33188767  HIT:   33188767  MISS:          0  HIT %:        100  MISS %:          0   MPKI: 0
L1I RFO       ACCESS:          0  HIT:          0  MISS:          0  HIT %:       -nan  MISS %:       -nan   MPKI: 0
L1I PREFETCH  ACCESS:          0  HIT:          0  MISS:          0  HIT %:       -nan  MISS %:       -nan   MPKI: 0
L1I WRITEBACK ACCESS:          0  HIT:          0  MISS:          0  HIT %:       -nan  MISS %:       -nan   MPKI: 0
L2C TOTAL     ACCESS:    1949107  HIT:     653026  MISS:    1296081  HIT %:    33.5039  MISS %:    66.4961   MPKI: 6.47982
L2C LOAD      ACCESS:       9394  HIT:         10  MISS:       9384  HIT %:   0.106451  MISS %:    99.8935   MPKI: 0.0469158
L2C RFO       ACCESS:     668202  HIT:          0  MISS:     668202  HIT %:          0  MISS %:        100   MPKI: 3.34071
L2C PREFETCH  ACCESS:     583613  HIT:         46  MISS:     583567  HIT %: 0.00788194  MISS %:    99.9921   MPKI: 2.91757
L2C WRITEBACK ACCESS:     668188  HIT:     635799  MISS:      32389  HIT %:    95.1527  MISS %:    4.84729   MPKI: 0.16193
PSCL5 TOTAL     ACCESS:      19707  HIT:      19707  MISS:          0  HIT %:        100  MISS %:          0   MPKI: 0
PSCL5 LOAD      ACCESS:          0  HIT:          0  MISS:          0  HIT %:       -nan  MISS %:       -nan   MPKI: 0
PSCL5 RFO       ACCESS:          0  HIT:          0  MISS:          0  HIT %:       -nan  MISS %:       -nan   MPKI: 0
PSCL5 PREFETCH  ACCESS:          0  HIT:          0  MISS:          0  HIT %:       -nan  MISS %:       -nan   MPKI: 0
PSCL5 WRITEBACK ACCESS:          0  HIT:          0  MISS:          0  HIT %:       -nan  MISS %:       -nan   MPKI: 0
PSCL4 TOTAL     ACCESS:      19707  HIT:      19707  MISS:          0  HIT %:        100  MISS %:          0   MPKI: 0
PSCL4 LOAD      ACCESS:          0  HIT:          0  MISS:          0  HIT %:       -nan  MISS %:       -nan   MPKI: 0
PSCL4 RFO       ACCESS:          0  HIT:          0  MISS:          0  HIT %:       -nan  MISS %:       -nan   MPKI: 0
PSCL4 PREFETCH  ACCESS:          0  HIT:          0  MISS:          0  HIT %:       -nan  MISS %:       -nan   MPKI: 0
PSCL4 WRITEBACK ACCESS:          0  HIT:          0  MISS:          0  HIT %:       -nan  MISS %:       -nan   MPKI: 0
PSCL3 TOTAL     ACCESS:      19707  HIT:      19707  MISS:          0  HIT %:        100  MISS %:          0   MPKI: 0
PSCL3 LOAD      ACCESS:          0  HIT:          0  MISS:          0  HIT %:       -nan  MISS %:       -nan   MPKI: 0
PSCL3 RFO       ACCESS:          0  HIT:          0  MISS:          0  HIT %:       -nan  MISS %:       -nan   MPKI: 0
PSCL3 PREFETCH  ACCESS:          0  HIT:          0  MISS:          0  HIT %:       -nan  MISS %:       -nan   MPKI: 0
PSCL3 WRITEBACK ACCESS:          0  HIT:          0  MISS:          0  HIT %:       -nan  MISS %:       -nan   MPKI: 0
PSCL2 TOTAL     ACCESS:      19707  HIT:      19666  MISS:         41  HIT %:     99.792  MISS %:   0.208048   MPKI: 0.000204981
PSCL2 LOAD      ACCESS:          0  HIT:          0  MISS:          0  HIT %:       -nan  MISS %:       -nan   MPKI: 0
PSCL2 RFO       ACCESS:          0  HIT:          0  MISS:          0  HIT %:       -nan  MISS %:       -nan   MPKI: 0
PSCL2 PREFETCH  ACCESS:          0  HIT:          0  MISS:          0  HIT %:       -nan  MISS %:       -nan   MPKI: 0
PSCL2 WRITEBACK ACCESS:          0  HIT:          0  MISS:          0  HIT %:       -nan  MISS %:       -nan   MPKI: 0

stream: 
stream:times selected: 888666
stream:pref_filled: 647140
stream:pref_useful: 647026
stream:pref_late: 1227
stream:misses: 38
stream:misses_by_poll: 0

CS: 
CS:times selected: 888658
CS:pref_filled: 2457
CS:pref_useful: 2457
CS:pref_late: 86
CS:misses: 265150
CS:misses_by_poll: 11

CPLX: 
CPLX:times selected: 7
CPLX:pref_filled: 0
CPLX:pref_useful: 0
CPLX:pref_late: 0
CPLX:misses: 12
CPLX:misses_by_poll: 0

NL_L1: 
NL:times selected: 0
NL:pref_filled: 0
NL:pref_useful: 0
NL:pref_late: 0
NL:misses: 0
NL:misses_by_poll: 0

total selections: 1777331
total_filled: 582294
total_useful: 582205
total_late: 1319
total_polluted: 11
total_misses_after_warmup: 61968
conflicts: 0
Degree Incremented Times: 482163
Degree Decremented Times: 0

L1 IP Table Write Accesses: 61874893
L1 IP Table Read Accesses: 61874893
L1 RST Write Accesses: 2964349
L1 RST Read Accesses: 5928698
L1 CSPT Write Accesses: 2964349
L1 CSPT Read Accesses: 2964358
L1 RR Filter Tag Write Accesses: 2671086
L1 RR Filter Tag Read Accesses: 506002166
L1 IP Table Tag Write Accesses: 61874893
L1 IP Table Tag Read Accesses: 61874893
L1 RST Tag Write Accesses: 0
L1 RST Tag Read Accesses: 26674880
L1 RR Filter Write Accesses: 0
L1 RR Filter Read Accesses: 25443860
test: 45929
LLC TOTAL     ACCESS:    1932018  HIT:     645095  MISS:    1286923  HIT %:    33.3897  MISS %:    66.6103   MPKI: 6.43403
LLC LOAD      ACCESS:       9384  HIT:          5  MISS:       9379  HIT %:  0.0532822  MISS %:    99.9467   MPKI: 0.0468908
LLC RFO       ACCESS:     668202  HIT:          0  MISS:     668202  HIT %:          0  MISS %:        100   MPKI: 3.34071
LLC PREFETCH  ACCESS:     583567  HIT:         17  MISS:     583550  HIT %: 0.00291312  MISS %:    99.9971   MPKI: 2.91749
LLC WRITEBACK ACCESS:     668326  HIT:     645072  MISS:      23254  HIT %:    96.5206  MISS %:    3.47944   MPKI: 0.116259

RAW hits: 0
Loads Generated: 37854321
Loads sent to L1D: 37854318
Stores Generated: 5345610
Stores sent to L1D: 5345606

CPU 2 cumulative IPC: 1.10669 instructions: 200013358 cycles: 180730383
ITLB TOTAL     ACCESS:   33169629  HIT:   33169629  MISS:          0  HIT %:        100  MISS %:          0   MPKI: 0
ITLB LOAD      ACCESS:          0  HIT:          0  MISS:          0  HIT %:       -nan  MISS %:       -nan   MPKI: 0
ITLB RFO       ACCESS:          0  HIT:          0  MISS:          0  HIT %:       -nan  MISS %:       -nan   MPKI: 0
ITLB PREFETCH  ACCESS:          0  HIT:          0  MISS:          0  HIT %:       -nan  MISS %:       -nan   MPKI: 0
ITLB WRITEBACK ACCESS:          0  HIT:          0  MISS:          0  HIT %:       -nan  MISS %:       -nan   MPKI: 0
DTLB TOTAL     ACCESS:   20718460  HIT:   20698754  MISS:      19706  HIT %:    99.9049  MISS %:  0.0951132   MPKI: 0.0985234
DTLB LOAD      ACCESS:          0  HIT:          0  MISS:          0  HIT %:       -nan  MISS %:       -nan   MPKI: 0
DTLB RFO       ACCESS:          0  HIT:          0  MISS:          0  HIT %:       -nan  MISS %:       -nan   MPKI: 0
DTLB PREFETCH  ACCESS:          0  HIT:          0  MISS:          0  HIT %:       -nan  MISS %:       -nan   MPKI: 0
DTLB WRITEBACK ACCESS:          0  HIT:          0  MISS:          0  HIT %:       -nan  MISS %:       -nan   MPKI: 0
STLB TOTAL     ACCESS:     558655  HIT:     538949  MISS:      19706  HIT %:    96.4726  MISS %:     3.5274   MPKI: 0.0985234
STLB LOAD      ACCESS:          0  HIT:          0  MISS:          0  HIT %:       -nan  MISS %:       -nan   MPKI: 0
STLB RFO       ACCESS:          0  HIT:          0  MISS:          0  HIT %:       -nan  MISS %:       -nan   MPKI: 0
STLB PREFETCH  ACCESS:          0  HIT:          0  MISS:          0  HIT %:       -nan  MISS %:       -nan   MPKI: 0
STLB WRITEBACK ACCESS:          0  HIT:          0  MISS:          0  HIT %:       -nan  MISS %:       -nan   MPKI: 0
L1D TOTAL     ACCESS:   17440000  HIT:   16178803  MISS:    1261197  HIT %:    92.7684  MISS %:    7.23163   MPKI: 6.30556
L1D LOAD      ACCESS:   15411907  HIT:   15400853  MISS:      11054  HIT %:    99.9283  MISS %:  0.0717238   MPKI: 0.0552663
L1D RFO       ACCESS:    1362072  HIT:     693894  MISS:     668178  HIT %:     50.944  MISS %:     49.056   MPKI: 3.34067
L1D PREFETCH  ACCESS:     666021  HIT:      84056  MISS:     581965  HIT %:    12.6206  MISS %:    87.3794   MPKI: 2.90963
L1D WRITEBACK ACCESS:          0  HIT:          0  MISS:          0  HIT %:       -nan  MISS %:       -nan   MPKI: 0
L1I TOTAL     ACCESS:   33188085  HIT:   33188085  MISS:          0  HIT %:        100  MISS %:          0   MPKI: 0
L1I LOAD      ACCESS:   33188085  HIT:   33188085  MISS:          0  HIT %:        100  MISS %:          0   MPKI: 0
L1I RFO       ACCESS:          0  HIT:          0  MISS:          0  HIT %:       -nan  MISS %:       -nan   MPKI: 0
L1I PREFETCH  ACCESS:          0  HIT:          0  MISS:          0  HIT %:       -nan  MISS %:       -nan   MPKI: 0
L1I WRITEBACK ACCESS:          0  HIT:          0  MISS:          0  HIT %:       -nan  MISS %:       -nan   MPKI: 0
L2C TOTAL     ACCESS:    1949077  HIT:     655225  MISS:    1293852  HIT %:    33.6172  MISS %:    66.3828   MPKI: 6.46883
L2C LOAD      ACCESS:       9650  HIT:         15  MISS:       9635  HIT %:    0.15544  MISS %:    99.8446   MPKI: 0.0481718
L2C RFO       ACCESS:     668178  HIT:          0  MISS:     668178  HIT %:          0  MISS %:        100   MPKI: 3.34067
L2C PREFETCH  ACCESS:     583369  HIT:         58  MISS:     583311  HIT %: 0.00994225  MISS %:    99.9901   MPKI: 2.91636
L2C WRITEBACK ACCESS:     668171  HIT:     637982  MISS:      30189  HIT %:    95.4818  MISS %:    4.51815   MPKI: 0.150935
PSCL5 TOTAL     ACCESS:      19706  HIT:      19706  MISS:          0  HIT %:        100  MISS %:          0   MPKI: 0
PSCL5 LOAD      ACCESS:          0  HIT:          0  MISS:          0  HIT %:       -nan  MISS %:       -nan   MPKI: 0
PSCL5 RFO       ACCESS:          0  HIT:          0  MISS:          0  HIT %:       -nan  MISS %:       -nan   MPKI: 0
PSCL5 PREFETCH  ACCESS:          0  HIT:          0  MISS:          0  HIT %:       -nan  MISS %:       -nan   MPKI: 0
PSCL5 WRITEBACK ACCESS:          0  HIT:          0  MISS:          0  HIT %:       -nan  MISS %:       -nan   MPKI: 0
PSCL4 TOTAL     ACCESS:      19706  HIT:      19706  MISS:          0  HIT %:        100  MISS %:          0   MPKI: 0
PSCL4 LOAD      ACCESS:          0  HIT:          0  MISS:          0  HIT %:       -nan  MISS %:       -nan   MPKI: 0
PSCL4 RFO       ACCESS:          0  HIT:          0  MISS:          0  HIT %:       -nan  MISS %:       -nan   MPKI: 0
PSCL4 PREFETCH  ACCESS:          0  HIT:          0  MISS:          0  HIT %:       -nan  MISS %:       -nan   MPKI: 0
PSCL4 WRITEBACK ACCESS:          0  HIT:          0  MISS:          0  HIT %:       -nan  MISS %:       -nan   MPKI: 0
PSCL3 TOTAL     ACCESS:      19706  HIT:      19706  MISS:          0  HIT %:        100  MISS %:          0   MPKI: 0
PSCL3 LOAD      ACCESS:          0  HIT:          0  MISS:          0  HIT %:       -nan  MISS %:       -nan   MPKI: 0
PSCL3 RFO       ACCESS:          0  HIT:          0  MISS:          0  HIT %:       -nan  MISS %:       -nan   MPKI: 0
PSCL3 PREFETCH  ACCESS:          0  HIT:          0  MISS:          0  HIT %:       -nan  MISS %:       -nan   MPKI: 0
PSCL3 WRITEBACK ACCESS:          0  HIT:          0  MISS:          0  HIT %:       -nan  MISS %:       -nan   MPKI: 0
PSCL2 TOTAL     ACCESS:      19706  HIT:      19665  MISS:         41  HIT %:    99.7919  MISS %:   0.208058   MPKI: 0.000204986
PSCL2 LOAD      ACCESS:          0  HIT:          0  MISS:          0  HIT %:       -nan  MISS %:       -nan   MPKI: 0
PSCL2 RFO       ACCESS:          0  HIT:          0  MISS:          0  HIT %:       -nan  MISS %:       -nan   MPKI: 0
PSCL2 PREFETCH  ACCESS:          0  HIT:          0  MISS:          0  HIT %:       -nan  MISS %:       -nan   MPKI: 0
PSCL2 WRITEBACK ACCESS:          0  HIT:          0  MISS:          0  HIT %:       -nan  MISS %:       -nan   MPKI: 0

stream: 
stream:times selected: 888667
stream:pref_filled: 605764
stream:pref_useful: 605631
stream:pref_late: 1278
stream:misses: 38
stream:misses_by_poll: 0

CS: 
CS:times selected: 888659
CS:pref_filled: 2632
CS:pref_useful: 2632
CS:pref_late: 112
CS:misses: 372476
CS:misses_by_poll: 2

CPLX: 
CPLX:times selected: 7
CPLX:pref_filled: 0
CPLX:pref_useful: 0
CPLX:pref_late: 0
CPLX:misses: 12
CPLX:misses_by_poll: 0

NL_L1: 
NL:times selected: 0
NL:pref_filled: 0
NL:pref_useful: 0
NL:pref_late: 0
NL:misses: 0
NL:misses_by_poll: 0

total selections: 1777333
total_filled: 581965
total_useful: 581850
total_late: 1404
total_polluted: 2
total_misses_after_warmup: 64554
conflicts: 0
Degree Incremented Times: 482163
Degree Decremented Times: 0

L1 IP Table Write Accesses: 61874893
L1 IP Table Read Accesses: 61874893
L1 RST Write Accesses: 2964349
L1 RST Read Accesses: 5928698
L1 CSPT Write Accesses: 2964349
L1 CSPT Read Accesses: 2964358
L1 RR Filter Tag Write Accesses: 2671086
L1 RR Filter Tag Read Accesses: 506002166
L1 IP Table Tag Write Accesses: 61874893
L1 IP Table Tag Read Accesses: 61874893
L1 RST Tag Write Accesses: 0
L1 RST Tag Read Accesses: 26674880
L1 RR Filter Write Accesses: 0
L1 RR Filter Read Accesses: 25443860
test: 45929
LLC TOTAL     ACCESS:    1932155  HIT:     645767  MISS:    1286388  HIT %:    33.4221  MISS %:    66.5779   MPKI: 6.43151
LLC LOAD      ACCESS:       9635  HIT:          6  MISS:       9629  HIT %:   0.062273  MISS %:    99.9377   MPKI: 0.0481418
LLC RFO       ACCESS:     668178  HIT:          0  MISS:     668178  HIT %:          0  MISS %:        100   MPKI: 3.34067
LLC PREFETCH  ACCESS:     583311  HIT:         28  MISS:     583283  HIT %: 0.00480018  MISS %:    99.9952   MPKI: 2.91622
LLC WRITEBACK ACCESS:     668492  HIT:     645728  MISS:      22764  HIT %:    96.5947  MISS %:    3.40528   MPKI: 0.113812

RAW hits: 0
Loads Generated: 37853436
Loads sent to L1D: 37853436
Stores Generated: 5345451
Stores sent to L1D: 5345448

CPU 3 cumulative IPC: 1.10662 instructions: 200000001 cycles: 180730383
ITLB TOTAL     ACCESS:   33167464  HIT:   33167464  MISS:          0  HIT %:        100  MISS %:          0   MPKI: 0
ITLB LOAD      ACCESS:          0  HIT:          0  MISS:          0  HIT %:       -nan  MISS %:       -nan   MPKI: 0
ITLB RFO       ACCESS:          0  HIT:          0  MISS:          0  HIT %:       -nan  MISS %:       -nan   MPKI: 0
ITLB PREFETCH  ACCESS:          0  HIT:          0  MISS:          0  HIT %:       -nan  MISS %:       -nan   MPKI: 0
ITLB WRITEBACK ACCESS:          0  HIT:          0  MISS:          0  HIT %:       -nan  MISS %:       -nan   MPKI: 0
DTLB TOTAL     ACCESS:   20717242  HIT:   20697540  MISS:      19702  HIT %:    99.9049  MISS %:  0.0950995   MPKI: 0.09851
DTLB LOAD      ACCESS:          0  HIT:          0  MISS:          0  HIT %:       -nan  MISS %:       -nan   MPKI: 0
DTLB RFO       ACCESS:          0  HIT:          0  MISS:          0  HIT %:       -nan  MISS %:       -nan   MPKI: 0
DTLB PREFETCH  ACCESS:          0  HIT:          0  MISS:          0  HIT %:       -nan  MISS %:       -nan   MPKI: 0
DTLB WRITEBACK ACCESS:          0  HIT:          0  MISS:          0  HIT %:       -nan  MISS %:       -nan   MPKI: 0
STLB TOTAL     ACCESS:     558920  HIT:     539218  MISS:      19702  HIT %:     96.475  MISS %:    3.52501   MPKI: 0.09851
STLB LOAD      ACCESS:          0  HIT:          0  MISS:          0  HIT %:       -nan  MISS %:       -nan   MPKI: 0
STLB RFO       ACCESS:          0  HIT:          0  MISS:          0  HIT %:       -nan  MISS %:       -nan   MPKI: 0
STLB PREFETCH  ACCESS:          0  HIT:          0  MISS:          0  HIT %:       -nan  MISS %:       -nan   MPKI: 0
STLB WRITEBACK ACCESS:          0  HIT:          0  MISS:          0  HIT %:       -nan  MISS %:       -nan   MPKI: 0
L1D TOTAL     ACCESS:   17442433  HIT:   16181321  MISS:    1261112  HIT %:    92.7699  MISS %:    7.23014   MPKI: 6.30556
L1D LOAD      ACCESS:   15411038  HIT:   15400048  MISS:      10990  HIT %:    99.9287  MISS %:  0.0713125   MPKI: 0.05495
L1D RFO       ACCESS:    1365743  HIT:     697613  MISS:     668130  HIT %:    51.0794  MISS %:    48.9206   MPKI: 3.34065
L1D PREFETCH  ACCESS:     665652  HIT:      83660  MISS:     581992  HIT %:    12.5681  MISS %:    87.4319   MPKI: 2.90996
L1D WRITEBACK ACCESS:          0  HIT:          0  MISS:          0  HIT %:       -nan  MISS %:       -nan   MPKI: 0
L1I TOTAL     ACCESS:   33185918  HIT:   33185918  MISS:          0  HIT %:        100  MISS %:          0   MPKI: 0
L1I LOAD      ACCESS:   33185918  HIT:   33185918  MISS:          0  HIT %:        100  MISS %:          0   MPKI: 0
L1I RFO       ACCESS:          0  HIT:          0  MISS:          0  HIT %:       -nan  MISS %:       -nan   MPKI: 0
L1I PREFETCH  ACCESS:          0  HIT:          0  MISS:          0  HIT %:       -nan  MISS %:       -nan   MPKI: 0
L1I WRITEBACK ACCESS:          0  HIT:          0  MISS:          0  HIT %:       -nan  MISS %:       -nan   MPKI: 0
L2C TOTAL     ACCESS:    1948950  HIT:     648318  MISS:    1300632  HIT %:     33.265  MISS %:     66.735   MPKI: 6.50316
L2C LOAD      ACCESS:       9608  HIT:         13  MISS:       9595  HIT %:   0.135304  MISS %:    99.8647   MPKI: 0.047975
L2C RFO       ACCESS:     668130  HIT:          0  MISS:     668130  HIT %:          0  MISS %:        100   MPKI: 3.34065
L2C PREFETCH  ACCESS:     583374  HIT:         62  MISS:     583312  HIT %:  0.0106278  MISS %:    99.9894   MPKI: 2.91656
L2C WRITEBACK ACCESS:     668135  HIT:     631073  MISS:      37062  HIT %:    94.4529  MISS %:    5.54708   MPKI: 0.18531
PSCL5 TOTAL     ACCESS:      19703  HIT:      19703  MISS:          0  HIT %:        100  MISS %:          0   MPKI: 0
PSCL5 LOAD      ACCESS:          0  HIT:          0  MISS:          0  HIT %:       -nan  MISS %:       -nan   MPKI: 0
PSCL5 RFO       ACCESS:          0  HIT:          0  MISS:          0  HIT %:       -nan  MISS %:       -nan   MPKI: 0
PSCL5 PREFETCH  ACCESS:          0  HIT:          0  MISS:          0  HIT %:       -nan  MISS %:       -nan   MPKI: 0
PSCL5 WRITEBACK ACCESS:          0  HIT:          0  MISS:          0  HIT %:       -nan  MISS %:       -nan   MPKI: 0
PSCL4 TOTAL     ACCESS:      19703  HIT:      19703  MISS:          0  HIT %:        100  MISS %:          0   MPKI: 0
PSCL4 LOAD      ACCESS:          0  HIT:          0  MISS:          0  HIT %:       -nan  MISS %:       -nan   MPKI: 0
PSCL4 RFO       ACCESS:          0  HIT:          0  MISS:          0  HIT %:       -nan  MISS %:       -nan   MPKI: 0
PSCL4 PREFETCH  ACCESS:          0  HIT:          0  MISS:          0  HIT %:       -nan  MISS %:       -nan   MPKI: 0
PSCL4 WRITEBACK ACCESS:          0  HIT:          0  MISS:          0  HIT %:       -nan  MISS %:       -nan   MPKI: 0
PSCL3 TOTAL     ACCESS:      19703  HIT:      19703  MISS:          0  HIT %:        100  MISS %:          0   MPKI: 0
PSCL3 LOAD      ACCESS:          0  HIT:          0  MISS:          0  HIT %:       -nan  MISS %:       -nan   MPKI: 0
PSCL3 RFO       ACCESS:          0  HIT:          0  MISS:          0  HIT %:       -nan  MISS %:       -nan   MPKI: 0
PSCL3 PREFETCH  ACCESS:          0  HIT:          0  MISS:          0  HIT %:       -nan  MISS %:       -nan   MPKI: 0
PSCL3 WRITEBACK ACCESS:          0  HIT:          0  MISS:          0  HIT %:       -nan  MISS %:       -nan   MPKI: 0
PSCL2 TOTAL     ACCESS:      19702  HIT:      19663  MISS:         39  HIT %:    99.8021  MISS %:   0.197949   MPKI: 0.000195
PSCL2 LOAD      ACCESS:          0  HIT:          0  MISS:          0  HIT %:       -nan  MISS %:       -nan   MPKI: 0
PSCL2 RFO       ACCESS:          0  HIT:          0  MISS:          0  HIT %:       -nan  MISS %:       -nan   MPKI: 0
PSCL2 PREFETCH  ACCESS:          0  HIT:          0  MISS:          0  HIT %:       -nan  MISS %:       -nan   MPKI: 0
PSCL2 WRITEBACK ACCESS:          0  HIT:          0  MISS:          0  HIT %:       -nan  MISS %:       -nan   MPKI: 0

stream: 
stream:times selected: 888554
stream:pref_filled: 588769
stream:pref_useful: 588649
stream:pref_late: 1266
stream:misses: 49
stream:misses_by_poll: 0

CS: 
CS:times selected: 888547
CS:pref_filled: 2501
CS:pref_useful: 2501
CS:pref_late: 104
CS:misses: 415776
CS:misses_by_poll: 13

CPLX: 
CPLX:times selected: 6
CPLX:pref_filled: 0
CPLX:pref_useful: 0
CPLX:pref_late: 0
CPLX:misses: 12
CPLX:misses_by_poll: 0

NL_L1: 
NL:times selected: 0
NL:pref_filled: 0
NL:pref_useful: 0
NL:pref_late: 0
NL:misses: 0
NL:misses_by_poll: 0

total selections: 1777107
total_filled: 581992
total_useful: 581872
total_late: 1382
total_polluted: 13
total_misses_after_warmup: 64327
conflicts: 0
Degree Incremented Times: 482163
Degree Decremented Times: 0

L1 IP Table Write Accesses: 61874893
L1 IP Table Read Accesses: 61874893
L1 RST Write Accesses: 2964349
L1 RST Read Accesses: 5928698
L1 CSPT Write Accesses: 2964349
L1 CSPT Read Accesses: 2964358
L1 RR Filter Tag Write Accesses: 2671086
L1 RR Filter Tag Read Accesses: 506002166
L1 IP Table Tag Write Accesses: 61874893
L1 IP Table Tag Read Accesses: 61874893
L1 RST Tag Write Accesses: 0
L1 RST Tag Read Accesses: 26674880
L1 RR Filter Write Accesses: 0
L1 RR Filter Read Accesses: 25443860
test: 45929
LLC TOTAL     ACCESS:    1932287  HIT:     646330  MISS:    1285957  HIT %:     33.449  MISS %:     66.551   MPKI: 6.42978
LLC LOAD      ACCESS:       9595  HIT:          5  MISS:       9590  HIT %:  0.0521105  MISS %:    99.9479   MPKI: 0.04795
LLC RFO       ACCESS:     668130  HIT:          0  MISS:     668130  HIT %:          0  MISS %:        100   MPKI: 3.34065
LLC PREFETCH  ACCESS:     583312  HIT:         29  MISS:     583283  HIT %: 0.00497161  MISS %:     99.995   MPKI: 2.91641
LLC WRITEBACK ACCESS:     668717  HIT:     646290  MISS:      22427  HIT %:    96.6463  MISS %:    3.35374   MPKI: 0.112135

RAW hits: 0
Loads Generated: 37850897
Loads sent to L1D: 37850896
Stores Generated: 5345044
Stores sent to L1D: 5345046

Region of Interest Statistics

CPU 0 cumulative IPC: 1.10672 instructions: 200000002 cycles: 180713501
ITLB TOTAL     ACCESS:   33167237  HIT:   33167237  MISS:          0  HIT %:        100  MISS %:          0   MPKI: 0
ITLB LOAD TRANSLATION ACCESS:   33167237  HIT:   33167237  MISS:          0  HIT %:        100  MISS %:          0   MPKI: 0
ITLB PREFETCH  REQUESTED:          0  ISSUED:          0  USEFUL:          0  USELESS:          0
ITLB USEFUL LOAD PREFETCHES:          0 PREFETCH ISSUED TO LOWER LEVEL:          0  ACCURACY: -nan
ITLB TIMELY PREFETCHES:          0 LATE PREFETCHES: 0 DROPPED PREFETCHES: 0
ITLB PREFETCHES SAME FILL-ORIGIN LEVEL: 0 DIFFERENT FILL-ORIGIN LEVEL: 0
ITLB AVERAGE MISS LATENCY: -nan cycles
ITLB RQ	ACCESS:   33188957	FORWARD:          0	MERGED:      18457	TO_CACHE:   33170500

DTLB TOTAL     ACCESS:   20720136  HIT:   20700432  MISS:      19704  HIT %:    99.9049  MISS %:  0.0950959   MPKI: 0.09852
DTLB LOAD TRANSLATION ACCESS:   20720136  HIT:   20700432  MISS:      19704  HIT %:    99.9049  MISS %:  0.0950959   MPKI: 0.09852
DTLB PREFETCH  REQUESTED:          0  ISSUED:          0  USEFUL:          0  USELESS:          0
DTLB USEFUL LOAD PREFETCHES:          0 PREFETCH ISSUED TO LOWER LEVEL:          0  ACCURACY: -nan
DTLB TIMELY PREFETCHES:          0 LATE PREFETCHES: 0 DROPPED PREFETCHES: 0
DTLB PREFETCHES SAME FILL-ORIGIN LEVEL: 0 DIFFERENT FILL-ORIGIN LEVEL: 0
DTLB AVERAGE MISS LATENCY: 170.748 cycles
DTLB RQ	ACCESS:   20814337	FORWARD:          0	MERGED:      74072	TO_CACHE:   20740265

STLB TOTAL     ACCESS:     561189  HIT:     541485  MISS:      19704  HIT %:    96.4889  MISS %:    3.51112   MPKI: 0.09852
STLB LOAD TRANSLATION ACCESS:      19704  HIT:          0  MISS:      19704  HIT %:          0  MISS %:        100   MPKI: 0.09852
STLB TRANSLATION FROM L1D PREFETCHER ACCESS:     541485  HIT:     541485  MISS:          0  HIT %:        100  MISS %:          0   MPKI: 0
STLB PREFETCH  REQUESTED:          0  ISSUED:          0  USEFUL:          0  USELESS:          0
STLB USEFUL LOAD PREFETCHES:          0 PREFETCH ISSUED TO LOWER LEVEL:          0  ACCURACY: -nan
STLB TIMELY PREFETCHES:          0 LATE PREFETCHES: 0 DROPPED PREFETCHES: 0
STLB PREFETCHES SAME FILL-ORIGIN LEVEL: 0 DIFFERENT FILL-ORIGIN LEVEL: 0
STLB AVERAGE MISS LATENCY: 161.703 cycles
STLB RQ	ACCESS:     687932	FORWARD:          0	MERGED:     126687	TO_CACHE:     561245

STLB Hit, L1D data hit: 0
STLB Hit, L2C data hit: 0
STLB Hit, LLC data hit: 0
STLB Hit, LLC data miss: 0
STLB STLB hints to L2: 0
L1D TOTAL     ACCESS:   17449972  HIT:   16188852  MISS:    1261120  HIT %:    92.7729  MISS %:    7.22706   MPKI: 6.3056
L1D LOAD      ACCESS:   15416740  HIT:   15406130  MISS:      10610  HIT %:    99.9312  MISS %:  0.0688213   MPKI: 0.05305
L1D RFO       ACCESS:    1366506  HIT:     698376  MISS:     668130  HIT %:    51.1067  MISS %:    48.8933   MPKI: 3.34065
L1D PREFETCH  ACCESS:     666726  HIT:      84346  MISS:     582380  HIT %:    12.6508  MISS %:    87.3492   MPKI: 2.9119
L1D PREFETCH  REQUESTED:    1336450  ISSUED:    1336450  USEFUL:     582312  USELESS:        116
L1D USEFUL LOAD PREFETCHES:     582312 PREFETCH ISSUED TO LOWER LEVEL:     583740  ACCURACY: 99.7554
L1D TIMELY PREFETCHES:     582312 LATE PREFETCHES: 1300 DROPPED PREFETCHES: 0
L1D PREFETCHES SAME FILL-ORIGIN LEVEL: 583740 DIFFERENT FILL-ORIGIN LEVEL: 0
L1D AVERAGE MISS LATENCY: 307.286 cycles
L1D RQ	ACCESS:   37854603	FORWARD:          0	MERGED:   22385911	TO_CACHE:   15468692
L1D WQ	ACCESS:    5345645	FORWARD:          0	MERGED:          0	TO_CACHE:    5345645
L1D PQ	ACCESS:     668225	FORWARD:          0	MERGED:          0	TO_CACHE:     668225

L1D UNIQUE REGIONS ACCESSED: 0
L1D REGIONS CONFLICTS: 0
L1D Cross Page Prefetch Requests: 0
L1D Same Page Prefetch Requests: 816237
L1D ROI Sum of L1D PQ occupancy: 7412999
L1D PREFETCHES PUSHED FROM L2C: 0
L1I TOTAL     ACCESS:   33185692  HIT:   33185692  MISS:          0  HIT %:        100  MISS %:          0   MPKI: 0
L1I LOAD      ACCESS:   33185692  HIT:   33185692  MISS:          0  HIT %:        100  MISS %:          0   MPKI: 0
L1I PREFETCH  REQUESTED:          0  ISSUED:          0  USEFUL:          0  USELESS:          0
L1I USEFUL LOAD PREFETCHES:          0 PREFETCH ISSUED TO LOWER LEVEL:          0  ACCURACY: -nan
L1I TIMELY PREFETCHES:          0 LATE PREFETCHES: 0 DROPPED PREFETCHES: 0
L1I PREFETCHES SAME FILL-ORIGIN LEVEL: 0 DIFFERENT FILL-ORIGIN LEVEL: 0
L1I AVERAGE MISS LATENCY: -nan cycles
L1I RQ	ACCESS:   91525409	FORWARD:          0	MERGED:   58336452	TO_CACHE:   33188957

BTB TOTAL     ACCESS:   75609590  HIT:   75609590  MISS:          0  HIT %:        100  MISS %:          0   MPKI: 0
BTB BRANCH_DIRECT_JUMP	ACCESS:          0  HIT:          0  MISS:          0
BTB BRANCH_INDIRECT	ACCESS:          0  HIT:          0  MISS:          0
BTB BRANCH_CONDITIONAL	ACCESS:   75609590  HIT:   75609590  MISS:          0
BTB BRANCH_DIRECT_CALL	ACCESS:          0  HIT:          0  MISS:          0
BTB BRANCH_INDIRECT_CALL	ACCESS:          0  HIT:          0  MISS:          0
BTB BRANCH_RETURN	ACCESS:          0  HIT:          0  MISS:          0
BTB BRANCH_OTHER ACCESS:          0  HIT:          0  MISS:          0

L2C TOTAL     ACCESS:    1948963  HIT:     651240  MISS:    1297723  HIT %:    33.4147  MISS %:    66.5853   MPKI: 6.48861
L2C LOAD      ACCESS:       9310  HIT:         10  MISS:       9300  HIT %:   0.107411  MISS %:    99.8926   MPKI: 0.0465
L2C DATA LOAD MPKI: 0.0465
L2C INSTRUCTION LOAD MPKI: 0
L2C RFO       ACCESS:     668130  HIT:          0  MISS:     668130  HIT %:          0  MISS %:        100   MPKI: 3.34065
L2C PREFETCH  ACCESS:     583680  HIT:         68  MISS:     583612  HIT %:  0.0116502  MISS %:    99.9883   MPKI: 2.91806
L2C DATA PREFETCH MPKI: 2.91806
L2C INSTRUCTION PREFETCH MPKI: 0
L2C WRITEBACK ACCESS:     668136  HIT:     633993  MISS:      34143  HIT %:    94.8898  MISS %:    5.11019   MPKI: 0.170715
L2C LOAD TRANSLATION ACCESS:      19707  HIT:      17169  MISS:       2538  HIT %:    87.1213  MISS %:    12.8787   MPKI: 0.01269
L2C PREFETCH  REQUESTED:          0  ISSUED:          0  USEFUL:         10  USELESS:     583388
L2C USEFUL LOAD PREFETCHES:         10 PREFETCH ISSUED TO LOWER LEVEL:     583670  ACCURACY: 0.0017133
L2C TIMELY PREFETCHES:         10 LATE PREFETCHES: 0 DROPPED PREFETCHES: 0
L2C PREFETCHES SAME FILL-ORIGIN LEVEL: 0 DIFFERENT FILL-ORIGIN LEVEL: 0
L2C AVERAGE MISS LATENCY: 287.32 cycles
L2C RQ	ACCESS:     697228	FORWARD:          0	MERGED:          0	TO_CACHE:     697228
L2C WQ	ACCESS:     668207	FORWARD:          0	MERGED:          0	TO_CACHE:     668207
L2C PQ	ACCESS:     583740	FORWARD:          0	MERGED:          0	TO_CACHE:     583740

L2C Instructions Evicting Data 0
L2C Translations Evicting Data 2537
L2C Data Evicting Data 1258697
L2C Instructions Evicting Instructions 0
L2C Translations Evicting Instructions 0
L2C Data Evicting Instructions 0
L2C Instructions Evicting Translations 0
L2C Translations Evicting Translations 2
L2C Data Evicting Translations 2475
L2C Dense regions hint from L2: 0
PSCL5 TOTAL     ACCESS:      19705  HIT:      19705  MISS:          0  HIT %:        100  MISS %:          0   MPKI: 0
PSCL5 LOAD TRANSLATION ACCESS:      19705  HIT:      19705  MISS:          0  HIT %:        100  MISS %:          0   MPKI: 0
PSCL5 PREFETCH  REQUESTED:          0  ISSUED:          0  USEFUL:          0  USELESS:          0
PSCL5 USEFUL LOAD PREFETCHES:          0 PREFETCH ISSUED TO LOWER LEVEL:          0  ACCURACY: -nan
PSCL5 TIMELY PREFETCHES:          0 LATE PREFETCHES: 0 DROPPED PREFETCHES: 0
PSCL5 PREFETCHES SAME FILL-ORIGIN LEVEL: 0 DIFFERENT FILL-ORIGIN LEVEL: 0

PSCL4 TOTAL     ACCESS:      19705  HIT:      19705  MISS:          0  HIT %:        100  MISS %:          0   MPKI: 0
PSCL4 LOAD TRANSLATION ACCESS:      19705  HIT:      19705  MISS:          0  HIT %:        100  MISS %:          0   MPKI: 0
PSCL4 PREFETCH  REQUESTED:          0  ISSUED:          0  USEFUL:          0  USELESS:          0
PSCL4 USEFUL LOAD PREFETCHES:          0 PREFETCH ISSUED TO LOWER LEVEL:          0  ACCURACY: -nan
PSCL4 TIMELY PREFETCHES:          0 LATE PREFETCHES: 0 DROPPED PREFETCHES: 0
PSCL4 PREFETCHES SAME FILL-ORIGIN LEVEL: 0 DIFFERENT FILL-ORIGIN LEVEL: 0

PSCL3 TOTAL     ACCESS:      19705  HIT:      19705  MISS:          0  HIT %:        100  MISS %:          0   MPKI: 0
PSCL3 LOAD TRANSLATION ACCESS:      19705  HIT:      19705  MISS:          0  HIT %:        100  MISS %:          0   MPKI: 0
PSCL3 PREFETCH  REQUESTED:          0  ISSUED:          0  USEFUL:          0  USELESS:          0
PSCL3 USEFUL LOAD PREFETCHES:          0 PREFETCH ISSUED TO LOWER LEVEL:          0  ACCURACY: -nan
PSCL3 TIMELY PREFETCHES:          0 LATE PREFETCHES: 0 DROPPED PREFETCHES: 0
PSCL3 PREFETCHES SAME FILL-ORIGIN LEVEL: 0 DIFFERENT FILL-ORIGIN LEVEL: 0

PSCL2 TOTAL     ACCESS:      19705  HIT:      19664  MISS:         41  HIT %:    99.7919  MISS %:   0.208069   MPKI: 0.000205
PSCL2 LOAD TRANSLATION ACCESS:      19705  HIT:      19664  MISS:         41  HIT %:    99.7919  MISS %:   0.208069   MPKI: 0.000205
PSCL2 PREFETCH  REQUESTED:          0  ISSUED:          0  USEFUL:          0  USELESS:          0
PSCL2 USEFUL LOAD PREFETCHES:          0 PREFETCH ISSUED TO LOWER LEVEL:          0  ACCURACY: -nan
PSCL2 TIMELY PREFETCHES:          0 LATE PREFETCHES: 0 DROPPED PREFETCHES: 0
PSCL2 PREFETCHES SAME FILL-ORIGIN LEVEL: 0 DIFFERENT FILL-ORIGIN LEVEL: 0

LLC TOTAL     ACCESS:    1932038  HIT:     646042  MISS:    1285996  HIT %:    33.4384  MISS %:    66.5616   MPKI: 6.42998
LLC LOAD      ACCESS:       9300  HIT:          8  MISS:       9292  HIT %:  0.0860215  MISS %:     99.914   MPKI: 0.04646
LLC RFO       ACCESS:     668130  HIT:          0  MISS:     668130  HIT %:          0  MISS %:        100   MPKI: 3.34065
LLC PREFETCH  ACCESS:     583612  HIT:         30  MISS:     583582  HIT %:  0.0051404  MISS %:    99.9949   MPKI: 2.91791
LLC WRITEBACK ACCESS:     668458  HIT:     646004  MISS:      22454  HIT %:    96.6409  MISS %:    3.35907   MPKI: 0.11227
LLC LOAD TRANSLATION ACCESS:       2538  HIT:          0  MISS:       2538  HIT %:          0  MISS %:        100   MPKI: 0.01269
LLC PREFETCH  REQUESTED:          0  ISSUED:          0  USEFUL:         24  USELESS:    2319446
LLC USEFUL LOAD PREFETCHES:         24 PREFETCH ISSUED TO LOWER LEVEL:    2333758  ACCURACY: 0.00102838
LLC TIMELY PREFETCHES:         24 LATE PREFETCHES: 0 DROPPED PREFETCHES: 0
LLC PREFETCHES SAME FILL-ORIGIN LEVEL: 0 DIFFERENT FILL-ORIGIN LEVEL: 0
LLC AVERAGE MISS LATENCY: 1040.35 cycles
LLC RQ	ACCESS:    2720788	FORWARD:          0	MERGED:          0	TO_CACHE:    2720788
LLC WQ	ACCESS:    2674021	FORWARD:          0	MERGED:          0	TO_CACHE:    2674021
LLC PQ	ACCESS:    2333862	FORWARD:          0	MERGED:          0	TO_CACHE:    2333862

LLC Dense regions hint to LLC: 0

RAW hits: 0
Loads Generated: 37850924
Loads sent to L1D: 37850923
Stores Generated: 5345065
Stores sent to L1D: 5345063
Major fault: 0 Minor fault: 24882
Allocated PAGES: 99528

CPU 1 cumulative IPC: 1.10672 instructions: 200000000 cycles: 180714033
ITLB TOTAL     ACCESS:   33167231  HIT:   33167231  MISS:          0  HIT %:        100  MISS %:          0   MPKI: 0
ITLB LOAD TRANSLATION ACCESS:   33167231  HIT:   33167231  MISS:          0  HIT %:        100  MISS %:          0   MPKI: 0
ITLB PREFETCH  REQUESTED:          0  ISSUED:          0  USEFUL:          0  USELESS:          0
ITLB USEFUL LOAD PREFETCHES:          0 PREFETCH ISSUED TO LOWER LEVEL:          0  ACCURACY: -nan
ITLB TIMELY PREFETCHES:          0 LATE PREFETCHES: 0 DROPPED PREFETCHES: 0
ITLB PREFETCHES SAME FILL-ORIGIN LEVEL: 0 DIFFERENT FILL-ORIGIN LEVEL: 0
ITLB AVERAGE MISS LATENCY: -nan cycles
ITLB RQ	ACCESS:   33188767	FORWARD:          0	MERGED:      18456	TO_CACHE:   33170311

DTLB TOTAL     ACCESS:   20719676  HIT:   20699972  MISS:      19704  HIT %:    99.9049  MISS %:   0.095098   MPKI: 0.09852
DTLB LOAD TRANSLATION ACCESS:   20719676  HIT:   20699972  MISS:      19704  HIT %:    99.9049  MISS %:   0.095098   MPKI: 0.09852
DTLB PREFETCH  REQUESTED:          0  ISSUED:          0  USEFUL:          0  USELESS:          0
DTLB USEFUL LOAD PREFETCHES:          0 PREFETCH ISSUED TO LOWER LEVEL:          0  ACCURACY: -nan
DTLB TIMELY PREFETCHES:          0 LATE PREFETCHES: 0 DROPPED PREFETCHES: 0
DTLB PREFETCHES SAME FILL-ORIGIN LEVEL: 0 DIFFERENT FILL-ORIGIN LEVEL: 0
DTLB AVERAGE MISS LATENCY: 170.233 cycles
DTLB RQ	ACCESS:   20813371	FORWARD:          0	MERGED:      74084	TO_CACHE:   20739287

STLB TOTAL     ACCESS:     560516  HIT:     540812  MISS:      19704  HIT %:    96.4847  MISS %:    3.51533   MPKI: 0.09852
STLB LOAD TRANSLATION ACCESS:      19704  HIT:          0  MISS:      19704  HIT %:          0  MISS %:        100   MPKI: 0.09852
STLB TRANSLATION FROM L1D PREFETCHER ACCESS:     540812  HIT:     540812  MISS:          0  HIT %:        100  MISS %:          0   MPKI: 0
STLB PREFETCH  REQUESTED:          0  ISSUED:          0  USEFUL:          0  USELESS:          0
STLB USEFUL LOAD PREFETCHES:          0 PREFETCH ISSUED TO LOWER LEVEL:          0  ACCURACY: -nan
STLB TIMELY PREFETCHES:          0 LATE PREFETCHES: 0 DROPPED PREFETCHES: 0
STLB PREFETCHES SAME FILL-ORIGIN LEVEL: 0 DIFFERENT FILL-ORIGIN LEVEL: 0
STLB AVERAGE MISS LATENCY: 161.183 cycles
STLB RQ	ACCESS:     687658	FORWARD:          0	MERGED:     127091	TO_CACHE:     560567

STLB Hit, L1D data hit: 0
STLB Hit, L2C data hit: 0
STLB Hit, LLC data hit: 0
STLB Hit, LLC data miss: 0
STLB STLB hints to L2: 0
L1D TOTAL     ACCESS:   17446594  HIT:   16185518  MISS:    1261076  HIT %:    92.7718  MISS %:    7.22821   MPKI: 6.30538
L1D LOAD      ACCESS:   15415195  HIT:   15404485  MISS:      10710  HIT %:    99.9305  MISS %:  0.0694769   MPKI: 0.05355
L1D RFO       ACCESS:    1364990  HIT:     696861  MISS:     668129  HIT %:    51.0525  MISS %:    48.9475   MPKI: 3.34064
L1D PREFETCH  ACCESS:     666409  HIT:      84172  MISS:     582237  HIT %:    12.6307  MISS %:    87.3693   MPKI: 2.91119
L1D PREFETCH  REQUESTED:    1335902  ISSUED:    1335902  USEFUL:     582205  USELESS:         78
L1D USEFUL LOAD PREFETCHES:     582205 PREFETCH ISSUED TO LOWER LEVEL:     583614  ACCURACY: 99.7586
L1D TIMELY PREFETCHES:     582205 LATE PREFETCHES: 1319 DROPPED PREFETCHES: 0
L1D PREFETCHES SAME FILL-ORIGIN LEVEL: 583614 DIFFERENT FILL-ORIGIN LEVEL: 0
L1D AVERAGE MISS LATENCY: 307.404 cycles
L1D RQ	ACCESS:   37854318	FORWARD:          0	MERGED:   22386553	TO_CACHE:   15467765
L1D WQ	ACCESS:    5345606	FORWARD:          0	MERGED:          0	TO_CACHE:    5345606
L1D PQ	ACCESS:     667951	FORWARD:          0	MERGED:          0	TO_CACHE:     667951

L1D UNIQUE REGIONS ACCESSED: 0
L1D REGIONS CONFLICTS: 0
L1D Cross Page Prefetch Requests: 0
L1D Same Page Prefetch Requests: 736538
L1D ROI Sum of L1D PQ occupancy: 7410541
L1D PREFETCHES PUSHED FROM L2C: 0
L1I TOTAL     ACCESS:   33185684  HIT:   33185684  MISS:          0  HIT %:        100  MISS %:          0   MPKI: 0
L1I LOAD      ACCESS:   33185684  HIT:   33185684  MISS:          0  HIT %:        100  MISS %:          0   MPKI: 0
L1I PREFETCH  REQUESTED:          0  ISSUED:          0  USEFUL:          0  USELESS:          0
L1I USEFUL LOAD PREFETCHES:          0 PREFETCH ISSUED TO LOWER LEVEL:          0  ACCURACY: -nan
L1I TIMELY PREFETCHES:          0 LATE PREFETCHES: 0 DROPPED PREFETCHES: 0
L1I PREFETCHES SAME FILL-ORIGIN LEVEL: 0 DIFFERENT FILL-ORIGIN LEVEL: 0
L1I AVERAGE MISS LATENCY: -nan cycles
L1I RQ	ACCESS:   91524748	FORWARD:          0	MERGED:   58335981	TO_CACHE:   33188767

BTB TOTAL     ACCESS:   75609561  HIT:   75609561  MISS:          0  HIT %:        100  MISS %:          0   MPKI: 0
BTB BRANCH_DIRECT_JUMP	ACCESS:          0  HIT:          0  MISS:          0
BTB BRANCH_INDIRECT	ACCESS:          0  HIT:          0  MISS:          0
BTB BRANCH_CONDITIONAL	ACCESS:   75609561  HIT:   75609561  MISS:          0
BTB BRANCH_DIRECT_CALL	ACCESS:          0  HIT:          0  MISS:          0
BTB BRANCH_INDIRECT_CALL	ACCESS:          0  HIT:          0  MISS:          0
BTB BRANCH_RETURN	ACCESS:          0  HIT:          0  MISS:          0
BTB BRANCH_OTHER ACCESS:          0  HIT:          0  MISS:          0

L2C TOTAL     ACCESS:    1948907  HIT:     652965  MISS:    1295942  HIT %:    33.5042  MISS %:    66.4958   MPKI: 6.47971
L2C LOAD      ACCESS:       9392  HIT:         10  MISS:       9382  HIT %:   0.106474  MISS %:    99.8935   MPKI: 0.04691
L2C DATA LOAD MPKI: 0.04691
L2C INSTRUCTION LOAD MPKI: 0
L2C RFO       ACCESS:     668129  HIT:          0  MISS:     668129  HIT %:          0  MISS %:        100   MPKI: 3.34064
L2C PREFETCH  ACCESS:     583555  HIT:         46  MISS:     583509  HIT %: 0.00788272  MISS %:    99.9921   MPKI: 2.91755
L2C DATA PREFETCH MPKI: 2.91755
L2C INSTRUCTION PREFETCH MPKI: 0
L2C WRITEBACK ACCESS:     668124  HIT:     635739  MISS:      32385  HIT %:    95.1528  MISS %:    4.84715   MPKI: 0.161925
L2C LOAD TRANSLATION ACCESS:      19707  HIT:      17170  MISS:       2537  HIT %:    87.1264  MISS %:    12.8736   MPKI: 0.012685
L2C PREFETCH  REQUESTED:          0  ISSUED:          0  USEFUL:         10  USELESS:     583445
L2C USEFUL LOAD PREFETCHES:         10 PREFETCH ISSUED TO LOWER LEVEL:     583568  ACCURACY: 0.0017136
L2C TIMELY PREFETCHES:         10 LATE PREFETCHES: 0 DROPPED PREFETCHES: 0
L2C PREFETCHES SAME FILL-ORIGIN LEVEL: 0 DIFFERENT FILL-ORIGIN LEVEL: 0
L2C AVERAGE MISS LATENCY: 287.818 cycles
L2C RQ	ACCESS:     697306	FORWARD:          0	MERGED:          0	TO_CACHE:     697306
L2C WQ	ACCESS:     668188	FORWARD:          0	MERGED:          0	TO_CACHE:     668188
L2C PQ	ACCESS:     583614	FORWARD:          0	MERGED:          0	TO_CACHE:     583614

L2C Instructions Evicting Data 0
L2C Translations Evicting Data 2538
L2C Data Evicting Data 1258660
L2C Instructions Evicting Instructions 0
L2C Translations Evicting Instructions 0
L2C Data Evicting Instructions 0
L2C Instructions Evicting Translations 0
L2C Translations Evicting Translations 1
L2C Data Evicting Translations 2493
L2C Dense regions hint from L2: 0
PSCL5 TOTAL     ACCESS:      19704  HIT:      19704  MISS:          0  HIT %:        100  MISS %:          0   MPKI: 0
PSCL5 LOAD TRANSLATION ACCESS:      19704  HIT:      19704  MISS:          0  HIT %:        100  MISS %:          0   MPKI: 0
PSCL5 PREFETCH  REQUESTED:          0  ISSUED:          0  USEFUL:          0  USELESS:          0
PSCL5 USEFUL LOAD PREFETCHES:          0 PREFETCH ISSUED TO LOWER LEVEL:          0  ACCURACY: -nan
PSCL5 TIMELY PREFETCHES:          0 LATE PREFETCHES: 0 DROPPED PREFETCHES: 0
PSCL5 PREFETCHES SAME FILL-ORIGIN LEVEL: 0 DIFFERENT FILL-ORIGIN LEVEL: 0

PSCL4 TOTAL     ACCESS:      19704  HIT:      19704  MISS:          0  HIT %:        100  MISS %:          0   MPKI: 0
PSCL4 LOAD TRANSLATION ACCESS:      19704  HIT:      19704  MISS:          0  HIT %:        100  MISS %:          0   MPKI: 0
PSCL4 PREFETCH  REQUESTED:          0  ISSUED:          0  USEFUL:          0  USELESS:          0
PSCL4 USEFUL LOAD PREFETCHES:          0 PREFETCH ISSUED TO LOWER LEVEL:          0  ACCURACY: -nan
PSCL4 TIMELY PREFETCHES:          0 LATE PREFETCHES: 0 DROPPED PREFETCHES: 0
PSCL4 PREFETCHES SAME FILL-ORIGIN LEVEL: 0 DIFFERENT FILL-ORIGIN LEVEL: 0

PSCL3 TOTAL     ACCESS:      19704  HIT:      19704  MISS:          0  HIT %:        100  MISS %:          0   MPKI: 0
PSCL3 LOAD TRANSLATION ACCESS:      19704  HIT:      19704  MISS:          0  HIT %:        100  MISS %:          0   MPKI: 0
PSCL3 PREFETCH  REQUESTED:          0  ISSUED:          0  USEFUL:          0  USELESS:          0
PSCL3 USEFUL LOAD PREFETCHES:          0 PREFETCH ISSUED TO LOWER LEVEL:          0  ACCURACY: -nan
PSCL3 TIMELY PREFETCHES:          0 LATE PREFETCHES: 0 DROPPED PREFETCHES: 0
PSCL3 PREFETCHES SAME FILL-ORIGIN LEVEL: 0 DIFFERENT FILL-ORIGIN LEVEL: 0

PSCL2 TOTAL     ACCESS:      19704  HIT:      19663  MISS:         41  HIT %:    99.7919  MISS %:    0.20808   MPKI: 0.000205
PSCL2 LOAD TRANSLATION ACCESS:      19704  HIT:      19663  MISS:         41  HIT %:    99.7919  MISS %:    0.20808   MPKI: 0.000205
PSCL2 PREFETCH  REQUESTED:          0  ISSUED:          0  USEFUL:          0  USELESS:          0
PSCL2 USEFUL LOAD PREFETCHES:          0 PREFETCH ISSUED TO LOWER LEVEL:          0  ACCURACY: -nan
PSCL2 TIMELY PREFETCHES:          0 LATE PREFETCHES: 0 DROPPED PREFETCHES: 0
PSCL2 PREFETCHES SAME FILL-ORIGIN LEVEL: 0 DIFFERENT FILL-ORIGIN LEVEL: 0

LLC TOTAL     ACCESS:    1931813  HIT:     645025  MISS:    1286788  HIT %:    33.3896  MISS %:    66.6104   MPKI: 6.43394
LLC LOAD      ACCESS:       9382  HIT:          5  MISS:       9377  HIT %:  0.0532935  MISS %:    99.9467   MPKI: 0.046885
LLC RFO       ACCESS:     668129  HIT:          0  MISS:     668129  HIT %:          0  MISS %:        100   MPKI: 3.34064
LLC PREFETCH  ACCESS:     583509  HIT:         17  MISS:     583492  HIT %: 0.00291341  MISS %:    99.9971   MPKI: 2.91746
LLC WRITEBACK ACCESS:     668256  HIT:     645002  MISS:      23254  HIT %:    96.5202  MISS %:     3.4798   MPKI: 0.11627
LLC LOAD TRANSLATION ACCESS:       2537  HIT:          1  MISS:       2536  HIT %:  0.0394166  MISS %:    99.9606   MPKI: 0.01268
LLC PREFETCH  REQUESTED:          0  ISSUED:          0  USEFUL:         24  USELESS:    2319446
LLC USEFUL LOAD PREFETCHES:         24 PREFETCH ISSUED TO LOWER LEVEL:    2333758  ACCURACY: 0.00102838
LLC TIMELY PREFETCHES:         24 LATE PREFETCHES: 0 DROPPED PREFETCHES: 0
LLC PREFETCHES SAME FILL-ORIGIN LEVEL: 0 DIFFERENT FILL-ORIGIN LEVEL: 0
LLC AVERAGE MISS LATENCY: 1039.71 cycles
LLC RQ	ACCESS:    2720788	FORWARD:          0	MERGED:          0	TO_CACHE:    2720788
LLC WQ	ACCESS:    2674021	FORWARD:          0	MERGED:          0	TO_CACHE:    2674021
LLC PQ	ACCESS:    2333862	FORWARD:          0	MERGED:          0	TO_CACHE:    2333862

LLC Dense regions hint to LLC: 0

RAW hits: 0
Loads Generated: 37850912
Loads sent to L1D: 37850910
Stores Generated: 5345043
Stores sent to L1D: 5345043
Major fault: 0 Minor fault: 24882
Allocated PAGES: 99528

CPU 2 cumulative IPC: 1.10669 instructions: 200000002 cycles: 180718348
ITLB TOTAL     ACCESS:   33167428  HIT:   33167428  MISS:          0  HIT %:        100  MISS %:          0   MPKI: 0
ITLB LOAD TRANSLATION ACCESS:   33167428  HIT:   33167428  MISS:          0  HIT %:        100  MISS %:          0   MPKI: 0
ITLB PREFETCH  REQUESTED:          0  ISSUED:          0  USEFUL:          0  USELESS:          0
ITLB USEFUL LOAD PREFETCHES:          0 PREFETCH ISSUED TO LOWER LEVEL:          0  ACCURACY: -nan
ITLB TIMELY PREFETCHES:          0 LATE PREFETCHES: 0 DROPPED PREFETCHES: 0
ITLB PREFETCHES SAME FILL-ORIGIN LEVEL: 0 DIFFERENT FILL-ORIGIN LEVEL: 0
ITLB AVERAGE MISS LATENCY: -nan cycles
ITLB RQ	ACCESS:   33188086	FORWARD:          0	MERGED:      18456	TO_CACHE:   33169630

DTLB TOTAL     ACCESS:   20717114  HIT:   20697410  MISS:      19704  HIT %:    99.9049  MISS %:  0.0951098   MPKI: 0.09852
DTLB LOAD TRANSLATION ACCESS:   20717114  HIT:   20697410  MISS:      19704  HIT %:    99.9049  MISS %:  0.0951098   MPKI: 0.09852
DTLB PREFETCH  REQUESTED:          0  ISSUED:          0  USEFUL:          0  USELESS:          0
DTLB USEFUL LOAD PREFETCHES:          0 PREFETCH ISSUED TO LOWER LEVEL:          0  ACCURACY: -nan
DTLB TIMELY PREFETCHES:          0 LATE PREFETCHES: 0 DROPPED PREFETCHES: 0
DTLB PREFETCHES SAME FILL-ORIGIN LEVEL: 0 DIFFERENT FILL-ORIGIN LEVEL: 0
DTLB AVERAGE MISS LATENCY: 171.307 cycles
DTLB RQ	ACCESS:   20810855	FORWARD:          0	MERGED:      74100	TO_CACHE:   20736755

STLB TOTAL     ACCESS:     558618  HIT:     538914  MISS:      19704  HIT %:    96.4727  MISS %:    3.52728   MPKI: 0.09852
STLB LOAD TRANSLATION ACCESS:      19704  HIT:          0  MISS:      19704  HIT %:          0  MISS %:        100   MPKI: 0.09852
STLB TRANSLATION FROM L1D PREFETCHER ACCESS:     538914  HIT:     538914  MISS:          0  HIT %:        100  MISS %:          0   MPKI: 0
STLB PREFETCH  REQUESTED:          0  ISSUED:          0  USEFUL:          0  USELESS:          0
STLB USEFUL LOAD PREFETCHES:          0 PREFETCH ISSUED TO LOWER LEVEL:          0  ACCURACY: -nan
STLB TIMELY PREFETCHES:          0 LATE PREFETCHES: 0 DROPPED PREFETCHES: 0
STLB PREFETCHES SAME FILL-ORIGIN LEVEL: 0 DIFFERENT FILL-ORIGIN LEVEL: 0
STLB AVERAGE MISS LATENCY: 162.268 cycles
STLB RQ	ACCESS:     687322	FORWARD:          0	MERGED:     128667	TO_CACHE:     558655

STLB Hit, L1D data hit: 0
STLB Hit, L2C data hit: 0
STLB Hit, LLC data hit: 0
STLB Hit, LLC data miss: 0
STLB STLB hints to L2: 0
L1D TOTAL     ACCESS:   17438908  HIT:   16177803  MISS:    1261105  HIT %:    92.7684  MISS %:    7.23156   MPKI: 6.30552
L1D LOAD      ACCESS:   15410936  HIT:   15399884  MISS:      11052  HIT %:    99.9283  MISS %:  0.0717153   MPKI: 0.05526
L1D RFO       ACCESS:    1362001  HIT:     693872  MISS:     668129  HIT %:     50.945  MISS %:     49.055   MPKI: 3.34064
L1D PREFETCH  ACCESS:     665971  HIT:      84047  MISS:     581924  HIT %:    12.6202  MISS %:    87.3798   MPKI: 2.90962
L1D PREFETCH  REQUESTED:    1335232  ISSUED:    1335232  USEFUL:     581850  USELESS:        108
L1D USEFUL LOAD PREFETCHES:     581850 PREFETCH ISSUED TO LOWER LEVEL:     583369  ACCURACY: 99.7396
L1D TIMELY PREFETCHES:     581850 LATE PREFETCHES: 1404 DROPPED PREFETCHES: 0
L1D PREFETCHES SAME FILL-ORIGIN LEVEL: 583369 DIFFERENT FILL-ORIGIN LEVEL: 0
L1D AVERAGE MISS LATENCY: 307.1 cycles
L1D RQ	ACCESS:   37853436	FORWARD:          0	MERGED:   22388029	TO_CACHE:   15465407
L1D WQ	ACCESS:    5345448	FORWARD:          0	MERGED:          0	TO_CACHE:    5345448
L1D PQ	ACCESS:     667616	FORWARD:          0	MERGED:          0	TO_CACHE:     667616

L1D UNIQUE REGIONS ACCESSED: 0
L1D REGIONS CONFLICTS: 0
L1D Cross Page Prefetch Requests: 0
L1D Same Page Prefetch Requests: 694773
L1D ROI Sum of L1D PQ occupancy: 7407779
L1D PREFETCHES PUSHED FROM L2C: 0
L1I TOTAL     ACCESS:   33185883  HIT:   33185883  MISS:          0  HIT %:        100  MISS %:          0   MPKI: 0
L1I LOAD      ACCESS:   33185883  HIT:   33185883  MISS:          0  HIT %:        100  MISS %:          0   MPKI: 0
L1I PREFETCH  REQUESTED:          0  ISSUED:          0  USEFUL:          0  USELESS:          0
L1I USEFUL LOAD PREFETCHES:          0 PREFETCH ISSUED TO LOWER LEVEL:          0  ACCURACY: -nan
L1I TIMELY PREFETCHES:          0 LATE PREFETCHES: 0 DROPPED PREFETCHES: 0
L1I PREFETCHES SAME FILL-ORIGIN LEVEL: 0 DIFFERENT FILL-ORIGIN LEVEL: 0
L1I AVERAGE MISS LATENCY: -nan cycles
L1I RQ	ACCESS:   91522206	FORWARD:          0	MERGED:   58334120	TO_CACHE:   33188086

BTB TOTAL     ACCESS:   75609637  HIT:   75609636  MISS:          1  HIT %:        100  MISS %: 1.32258e-06   MPKI: 5e-06
BTB BRANCH_DIRECT_JUMP	ACCESS:          0  HIT:          0  MISS:          0
BTB BRANCH_INDIRECT	ACCESS:          0  HIT:          0  MISS:          0
BTB BRANCH_CONDITIONAL	ACCESS:   75609637  HIT:   75609636  MISS:          1
BTB BRANCH_DIRECT_CALL	ACCESS:          0  HIT:          0  MISS:          0
BTB BRANCH_INDIRECT_CALL	ACCESS:          0  HIT:          0  MISS:          0
BTB BRANCH_RETURN	ACCESS:          0  HIT:          0  MISS:          0
BTB BRANCH_OTHER ACCESS:          0  HIT:          0  MISS:          0

L2C TOTAL     ACCESS:    1948941  HIT:     655181  MISS:    1293760  HIT %:    33.6173  MISS %:    66.3827   MPKI: 6.4688
L2C LOAD      ACCESS:       9649  HIT:         15  MISS:       9634  HIT %:   0.155457  MISS %:    99.8445   MPKI: 0.04817
L2C DATA LOAD MPKI: 0.04817
L2C INSTRUCTION LOAD MPKI: 0
L2C RFO       ACCESS:     668130  HIT:          0  MISS:     668130  HIT %:          0  MISS %:        100   MPKI: 3.34065
L2C PREFETCH  ACCESS:     583328  HIT:         58  MISS:     583270  HIT %: 0.00994295  MISS %:    99.9901   MPKI: 2.91635
L2C DATA PREFETCH MPKI: 2.91635
L2C INSTRUCTION PREFETCH MPKI: 0
L2C WRITEBACK ACCESS:     668127  HIT:     637938  MISS:      30189  HIT %:    95.4815  MISS %:    4.51845   MPKI: 0.150945
L2C LOAD TRANSLATION ACCESS:      19707  HIT:      17170  MISS:       2537  HIT %:    87.1264  MISS %:    12.8736   MPKI: 0.012685
L2C PREFETCH  REQUESTED:          0  ISSUED:          0  USEFUL:         15  USELESS:     582947
L2C USEFUL LOAD PREFETCHES:         15 PREFETCH ISSUED TO LOWER LEVEL:     583311  ACCURACY: 0.00257153
L2C TIMELY PREFETCHES:         15 LATE PREFETCHES: 0 DROPPED PREFETCHES: 0
L2C PREFETCHES SAME FILL-ORIGIN LEVEL: 0 DIFFERENT FILL-ORIGIN LEVEL: 0
L2C AVERAGE MISS LATENCY: 288.043 cycles
L2C RQ	ACCESS:     697541	FORWARD:          0	MERGED:          0	TO_CACHE:     697541
L2C WQ	ACCESS:     668171	FORWARD:          0	MERGED:          0	TO_CACHE:     668171
L2C PQ	ACCESS:     583369	FORWARD:          0	MERGED:          0	TO_CACHE:     583369

L2C Instructions Evicting Data 0
L2C Translations Evicting Data 2539
L2C Data Evicting Data 1258637
L2C Instructions Evicting Instructions 0
L2C Translations Evicting Instructions 0
L2C Data Evicting Instructions 0
L2C Instructions Evicting Translations 0
L2C Translations Evicting Translations 0
L2C Data Evicting Translations 2487
L2C Dense regions hint from L2: 0
PSCL5 TOTAL     ACCESS:      19704  HIT:      19704  MISS:          0  HIT %:        100  MISS %:          0   MPKI: 0
PSCL5 LOAD TRANSLATION ACCESS:      19704  HIT:      19704  MISS:          0  HIT %:        100  MISS %:          0   MPKI: 0
PSCL5 PREFETCH  REQUESTED:          0  ISSUED:          0  USEFUL:          0  USELESS:          0
PSCL5 USEFUL LOAD PREFETCHES:          0 PREFETCH ISSUED TO LOWER LEVEL:          0  ACCURACY: -nan
PSCL5 TIMELY PREFETCHES:          0 LATE PREFETCHES: 0 DROPPED PREFETCHES: 0
PSCL5 PREFETCHES SAME FILL-ORIGIN LEVEL: 0 DIFFERENT FILL-ORIGIN LEVEL: 0

[...]
LLC LOAD      ACCESS:       9634  HIT:          6  MISS:       9628  HIT %:  0.0622794  MISS %:    99.9377   MPKI: 0.04814
LLC RFO       ACCESS:     668130  HIT:          0  MISS:     668130  HIT %:          0  MISS %:        100   MPKI: 3.34065
LLC PREFETCH  ACCESS:     583270  HIT:         28  MISS:     583242  HIT %: 0.00480052  MISS %:    99.9952   MPKI: 2.91621
LLC WRITEBACK ACCESS:     668431  HIT:     645669  MISS:      22762  HIT %:    96.5947  MISS %:    3.40529   MPKI: 0.11381
LLC LOAD TRANSLATION ACCESS:       2537  HIT:          5  MISS:       2532  HIT %:   0.197083  MISS %:    99.8029   MPKI: 0.01266
LLC PREFETCH  REQUESTED:          0  ISSUED:          0  USEFUL:         24  USELESS:    2319446
LLC USEFUL LOAD PREFETCHES:         24 PREFETCH ISSUED TO LOWER LEVEL:    2333758  ACCURACY: 0.00102838
LLC TIMELY PREFETCHES:         24 LATE PREFETCHES: 0 DROPPED PREFETCHES: 0
LLC PREFETCHES SAME FILL-ORIGIN LEVEL: 0 DIFFERENT FILL-ORIGIN LEVEL: 0
LLC AVERAGE MISS LATENCY: 1040.11 cycles
LLC RQ	ACCESS:    2720788	FORWARD:          0	MERGED:          0	TO_CACHE:    2720788
LLC WQ	ACCESS:    2674021	FORWARD:          0	MERGED:          0	TO_CACHE:    2674021
LLC PQ	ACCESS:    2333862	FORWARD:          0	MERGED:          0	TO_CACHE:    2333862

LLC Dense regions hint to LLC: 0

RAW hits: 0
Loads Generated: 37850923
Loads sent to L1D: 37850923
Stores Generated: 5345048
Stores sent to L1D: 5345045
Major fault: 0 Minor fault: 24882
Allocated PAGES: 99528

CPU 3 cumulative IPC: 1.10662 instructions: 200000001 cycles: 180730383
ITLB TOTAL     ACCESS:   33167464  HIT:   33167464  MISS:          0  HIT %:        100  MISS %:          0   MPKI: 0
ITLB LOAD TRANSLATION ACCESS:   33167464  HIT:   33167464  MISS:          0  HIT %:        100  MISS %:          0   MPKI: 0
ITLB PREFETCH  REQUESTED:          0  ISSUED:          0  USEFUL:          0  USELESS:          0
ITLB USEFUL LOAD PREFETCHES:          0 PREFETCH ISSUED TO LOWER LEVEL:          0  ACCURACY: -nan
ITLB TIMELY PREFETCHES:          0 LATE PREFETCHES: 0 DROPPED PREFETCHES: 0
ITLB PREFETCHES SAME FILL-ORIGIN LEVEL: 0 DIFFERENT FILL-ORIGIN LEVEL: 0
ITLB AVERAGE MISS LATENCY: -nan cycles
ITLB RQ	ACCESS:   33185919	FORWARD:          0	MERGED:      18455	TO_CACHE:   33167464

DTLB TOTAL     ACCESS:   20717242  HIT:   20697540  MISS:      19702  HIT %:    99.9049  MISS %:  0.0950995   MPKI: 0.09851
DTLB LOAD TRANSLATION ACCESS:   20717242  HIT:   20697540  MISS:      19702  HIT %:    99.9049  MISS %:  0.0950995   MPKI: 0.09851
DTLB PREFETCH  REQUESTED:          0  ISSUED:          0  USEFUL:          0  USELESS:          0
DTLB USEFUL LOAD PREFETCHES:          0 PREFETCH ISSUED TO LOWER LEVEL:          0  ACCURACY: -nan
DTLB TIMELY PREFETCHES:          0 LATE PREFETCHES: 0 DROPPED PREFETCHES: 0
DTLB PREFETCHES SAME FILL-ORIGIN LEVEL: 0 DIFFERENT FILL-ORIGIN LEVEL: 0
DTLB AVERAGE MISS LATENCY: 170.79 cycles
DTLB RQ	ACCESS:   20809422	FORWARD:          0	MERGED:      74065	TO_CACHE:   20735357

STLB TOTAL     ACCESS:     558920  HIT:     539218  MISS:      19702  HIT %:     96.475  MISS %:    3.52501   MPKI: 0.09851
STLB LOAD TRANSLATION ACCESS:      19702  HIT:          0  MISS:      19702  HIT %:          0  MISS %:        100   MPKI: 0.09851
STLB TRANSLATION FROM L1D PREFETCHER ACCESS:     539218  HIT:     539218  MISS:          0  HIT %:        100  MISS %:          0   MPKI: 0
STLB PREFETCH  REQUESTED:          0  ISSUED:          0  USEFUL:          0  USELESS:          0
STLB USEFUL LOAD PREFETCHES:          0 PREFETCH ISSUED TO LOWER LEVEL:          0  ACCURACY: -nan
STLB TIMELY PREFETCHES:          0 LATE PREFETCHES: 0 DROPPED PREFETCHES: 0
STLB PREFETCHES SAME FILL-ORIGIN LEVEL: 0 DIFFERENT FILL-ORIGIN LEVEL: 0
STLB AVERAGE MISS LATENCY: 161.747 cycles
STLB RQ	ACCESS:     686894	FORWARD:          0	MERGED:     127973	TO_CACHE:     558921

STLB Hit, L1D data hit: 0
STLB Hit, L2C data hit: 0
STLB Hit, LLC data hit: 0
STLB Hit, LLC data miss: 0
STLB STLB hints to L2: 0
L1D TOTAL     ACCESS:   17442433  HIT:   16181321  MISS:    1261112  HIT %:    92.7699  MISS %:    7.23014   MPKI: 6.30556
L1D LOAD      ACCESS:   15411038  HIT:   15400048  MISS:      10990  HIT %:    99.9287  MISS %:  0.0713125   MPKI: 0.05495
L1D RFO       ACCESS:    1365743  HIT:     697613  MISS:     668130  HIT %:    51.0794  MISS %:    48.9206   MPKI: 3.34065
L1D PREFETCH  ACCESS:     665652  HIT:      83660  MISS:     581992  HIT %:    12.5681  MISS %:    87.4319   MPKI: 2.90996
L1D PREFETCH  REQUESTED:    1334382  ISSUED:    1334382  USEFUL:     581872  USELESS:        109
L1D USEFUL LOAD PREFETCHES:     581872 PREFETCH ISSUED TO LOWER LEVEL:     583375  ACCURACY: 99.7424
L1D TIMELY PREFETCHES:     581872 LATE PREFETCHES: 1382 DROPPED PREFETCHES: 0
L1D PREFETCHES SAME FILL-ORIGIN LEVEL: 583375 DIFFERENT FILL-ORIGIN LEVEL: 0
L1D AVERAGE MISS LATENCY: 307.26 cycles
L1D RQ	ACCESS:   37850896	FORWARD:          0	MERGED:   22386520	TO_CACHE:   15464376
L1D WQ	ACCESS:    5345046	FORWARD:          0	MERGED:          0	TO_CACHE:    5345046
L1D PQ	ACCESS:     667191	FORWARD:          0	MERGED:          0	TO_CACHE:     667191

L1D UNIQUE REGIONS ACCESSED: 0
L1D REGIONS CONFLICTS: 0
L1D Cross Page Prefetch Requests: 0
L1D Same Page Prefetch Requests: 676471
L1D ROI Sum of L1D PQ occupancy: 7403251
L1D PREFETCHES PUSHED FROM L2C: 0
L1I TOTAL     ACCESS:   33185918  HIT:   33185918  MISS:          0  HIT %:        100  MISS %:          0   MPKI: 0
L1I LOAD      ACCESS:   33185918  HIT:   33185918  MISS:          0  HIT %:        100  MISS %:          0   MPKI: 0
L1I PREFETCH  REQUESTED:          0  ISSUED:          0  USEFUL:          0  USELESS:          0
L1I USEFUL LOAD PREFETCHES:          0 PREFETCH ISSUED TO LOWER LEVEL:          0  ACCURACY: -nan
L1I TIMELY PREFETCHES:          0 LATE PREFETCHES: 0 DROPPED PREFETCHES: 0
L1I PREFETCHES SAME FILL-ORIGIN LEVEL: 0 DIFFERENT FILL-ORIGIN LEVEL: 0
L1I AVERAGE MISS LATENCY: -nan cycles
L1I RQ	ACCESS:   91516790	FORWARD:          0	MERGED:   58330871	TO_CACHE:   33185919

BTB TOTAL     ACCESS:   75609436  HIT:   75609433  MISS:          3  HIT %:        100  MISS %: 3.96776e-06   MPKI: 1.5e-05
BTB BRANCH_DIRECT_JUMP	ACCESS:          0  HIT:          0  MISS:          0
BTB BRANCH_INDIRECT	ACCESS:          0  HIT:          0  MISS:          0
BTB BRANCH_CONDITIONAL	ACCESS:   75609436  HIT:   75609433  MISS:          3
BTB BRANCH_DIRECT_CALL	ACCESS:          0  HIT:          0  MISS:          0
BTB BRANCH_INDIRECT_CALL	ACCESS:          0  HIT:          0  MISS:          0
BTB BRANCH_RETURN	ACCESS:          0  HIT:          0  MISS:          0
BTB BRANCH_OTHER ACCESS:          0  HIT:          0  MISS:          0

L2C TOTAL     ACCESS:    1948950  HIT:     648318  MISS:    1300632  HIT %:     33.265  MISS %:     66.735   MPKI: 6.50316
L2C LOAD      ACCESS:       9608  HIT:         13  MISS:       9595  HIT %:   0.135304  MISS %:    99.8647   MPKI: 0.047975
L2C DATA LOAD MPKI: 0.047975
L2C INSTRUCTION LOAD MPKI: 0
L2C RFO       ACCESS:     668130  HIT:          0  MISS:     668130  HIT %:          0  MISS %:        100   MPKI: 3.34065
L2C PREFETCH  ACCESS:     583374  HIT:         62  MISS:     583312  HIT %:  0.0106278  MISS %:    99.9894   MPKI: 2.91656
L2C DATA PREFETCH MPKI: 2.91656
L2C INSTRUCTION PREFETCH MPKI: 0
L2C WRITEBACK ACCESS:     668135  HIT:     631073  MISS:      37062  HIT %:    94.4529  MISS %:    5.54708   MPKI: 0.18531
L2C LOAD TRANSLATION ACCESS:      19703  HIT:      17170  MISS:       2533  HIT %:    87.1441  MISS %:    12.8559   MPKI: 0.012665
L2C PREFETCH  REQUESTED:          0  ISSUED:          0  USEFUL:         13  USELESS:     579922
L2C USEFUL LOAD PREFETCHES:         13 PREFETCH ISSUED TO LOWER LEVEL:     583313  ACCURACY: 0.00222865
L2C TIMELY PREFETCHES:         13 LATE PREFETCHES: 0 DROPPED PREFETCHES: 0
L2C PREFETCHES SAME FILL-ORIGIN LEVEL: 0 DIFFERENT FILL-ORIGIN LEVEL: 0
L2C AVERAGE MISS LATENCY: 286.672 cycles
L2C RQ	ACCESS:     697443	FORWARD:          0	MERGED:          0	TO_CACHE:     697443
L2C WQ	ACCESS:     668135	FORWARD:          0	MERGED:          0	TO_CACHE:     668135
L2C PQ	ACCESS:     583375	FORWARD:          0	MERGED:          0	TO_CACHE:     583375

L2C Instructions Evicting Data 0
L2C Translations Evicting Data 2533
L2C Data Evicting Data 1258558
L2C Instructions Evicting Instructions 0
L2C Translations Evicting Instructions 0
L2C Data Evicting Instructions 0
L2C Instructions Evicting Translations 0
L2C Translations Evicting Translations 0
L2C Data Evicting Translations 2479
L2C Dense regions hint from L2: 0
PSCL5 TOTAL     ACCESS:      19703  HIT:      19703  MISS:          0  HIT %:        100  MISS %:          0   MPKI: 0
PSCL5 LOAD TRANSLATION ACCESS:      19703  HIT:      19703  MISS:          0  HIT %:        100  MISS %:          0   MPKI: 0
PSCL5 PREFETCH  REQUESTED:          0  ISSUED:          0  USEFUL:          0  USELESS:          0
PSCL5 USEFUL LOAD PREFETCHES:          0 PREFETCH ISSUED TO LOWER LEVEL:          0  ACCURACY: -nan
PSCL5 TIMELY PREFETCHES:          0 LATE PREFETCHES: 0 DROPPED PREFETCHES: 0
PSCL5 PREFETCHES SAME FILL-ORIGIN LEVEL: 0 DIFFERENT FILL-ORIGIN LEVEL: 0

PSCL4 TOTAL     ACCESS:      19703  HIT:      19703  MISS:          0  HIT %:        100  MISS %:          0   MPKI: 0
PSCL4 LOAD TRANSLATION ACCESS:      19703  HIT:      19703  MISS:          0  HIT %:        100  MISS %:          0   MPKI: 0
PSCL4 PREFETCH  REQUESTED:          0  ISSUED:          0  USEFUL:          0  USELESS:          0
PSCL4 USEFUL LOAD PREFETCHES:          0 PREFETCH ISSUED TO LOWER LEVEL:          0  ACCURACY: -nan
PSCL4 TIMELY PREFETCHES:          0 LATE PREFETCHES: 0 DROPPED PREFETCHES: 0
PSCL4 PREFETCHES SAME FILL-ORIGIN LEVEL: 0 DIFFERENT FILL-ORIGIN LEVEL: 0

PSCL3 TOTAL     ACCESS:      19703  HIT:      19703  MISS:          0  HIT %:        100  MISS %:          0   MPKI: 0
PSCL3 LOAD TRANSLATION ACCESS:      19703  HIT:      19703  MISS:          0  HIT %:        100  MISS %:          0   MPKI: 0
PSCL3 PREFETCH  REQUESTED:          0  ISSUED:          0  USEFUL:          0  USELESS:          0
PSCL3 USEFUL LOAD PREFETCHES:          0 PREFETCH ISSUED TO LOWER LEVEL:          0  ACCURACY: -nan
PSCL3 TIMELY PREFETCHES:          0 LATE PREFETCHES: 0 DROPPED PREFETCHES: 0
PSCL3 PREFETCHES SAME FILL-ORIGIN LEVEL: 0 DIFFERENT FILL-ORIGIN LEVEL: 0

PSCL2 TOTAL     ACCESS:      19702  HIT:      19663  MISS:         39  HIT %:    99.8021  MISS %:   0.197949   MPKI: 0.000195
PSCL2 LOAD TRANSLATION ACCESS:      19702  HIT:      19663  MISS:         39  HIT %:    99.8021  MISS %:   0.197949   MPKI: 0.000195
PSCL2 PREFETCH  REQUESTED:          0  ISSUED:          0  USEFUL:          0  USELESS:          0
PSCL2 USEFUL LOAD PREFETCHES:          0 PREFETCH ISSUED TO LOWER LEVEL:          0  ACCURACY: -nan
PSCL2 TIMELY PREFETCHES:          0 LATE PREFETCHES: 0 DROPPED PREFETCHES: 0
PSCL2 PREFETCHES SAME FILL-ORIGIN LEVEL: 0 DIFFERENT FILL-ORIGIN LEVEL: 0

LLC TOTAL     ACCESS:    1932287  HIT:     646330  MISS:    1285957  HIT %:     33.449  MISS %:     66.551   MPKI: 6.42978
LLC LOAD      ACCESS:       9595  HIT:          5  MISS:       9590  HIT %:  0.0521105  MISS %:    99.9479   MPKI: 0.04795
LLC RFO       ACCESS:     668130  HIT:          0  MISS:     668130  HIT %:          0  MISS %:        100   MPKI: 3.34065
LLC PREFETCH  ACCESS:     583312  HIT:         29  MISS:     583283  HIT %: 0.00497161  MISS %:     99.995   MPKI: 2.91641
LLC WRITEBACK ACCESS:     668717  HIT:     646290  MISS:      22427  HIT %:    96.6463  MISS %:    3.35374   MPKI: 0.112135
LLC LOAD TRANSLATION ACCESS:       2533  HIT:          6  MISS:       2527  HIT %:   0.236873  MISS %:    99.7631   MPKI: 0.012635
LLC PREFETCH  REQUESTED:          0  ISSUED:          0  USEFUL:         24  USELESS:    2319446
LLC USEFUL LOAD PREFETCHES:         24 PREFETCH ISSUED TO LOWER LEVEL:    2333758  ACCURACY: 0.00102838
LLC TIMELY PREFETCHES:         24 LATE PREFETCHES: 0 DROPPED PREFETCHES: 0
LLC PREFETCHES SAME FILL-ORIGIN LEVEL: 0 DIFFERENT FILL-ORIGIN LEVEL: 0
LLC AVERAGE MISS LATENCY: 1040.38 cycles
LLC RQ	ACCESS:    2720788	FORWARD:          0	MERGED:          0	TO_CACHE:    2720788
LLC WQ	ACCESS:    2674021	FORWARD:          0	MERGED:          0	TO_CACHE:    2674021
LLC PQ	ACCESS:    2333862	FORWARD:          0	MERGED:          0	TO_CACHE:    2333862

LLC Dense regions hint to LLC: 0

RAW hits: 0
Loads Generated: 37850897
Loads sent to L1D: 37850896
Stores Generated: 5345044
Stores sent to L1D: 5345046
Major fault: 0 Minor fault: 24882
Allocated PAGES: 99528

stream: 
stream:times selected: 888663
stream:pref_filled: 725120
stream:pref_useful: 724954
stream:pref_late: 1218
stream:misses: 38
stream:misses_by_poll: 0

CS: 
CS:times selected: 888655
CS:pref_filled: 2631
CS:pref_useful: 2631
CS:pref_late: 74
CS:misses: 66755
CS:misses_by_poll: 9

CPLX: 
CPLX:times selected: 7
CPLX:pref_filled: 1
CPLX:pref_useful: 1
CPLX:pref_late: 0
CPLX:misses: 2
CPLX:misses_by_poll: 0

NL_L1: 
NL:times selected: 0
NL:pref_filled: 0
NL:pref_useful: 0
NL:pref_late: 0
NL:misses: 0
NL:misses_by_poll: 0

total selections: 1777325
total_filled: 582437
total_useful: 582312
total_late: 1300
total_polluted: 9
total_misses_after_warmup: 61119
conflicts: 0
Degree Incremented Times: 482163
Degree Decremented Times: 0

L1 IP Table Write Accesses: 61874893
L1 IP Table Read Accesses: 61874893
L1 RST Write Accesses: 2964349
L1 RST Read Accesses: 5928698
L1 CSPT Write Accesses: 2964349
L1 CSPT Read Accesses: 2964358
L1 RR Filter Tag Write Accesses: 2671086
L1 RR Filter Tag Read Accesses: 506002166
L1 IP Table Tag Write Accesses: 61874893
L1 IP Table Tag Read Accesses: 61874893
L1 RST Tag Write Accesses: 0
L1 RST Tag Read Accesses: 26674880
L1 RR Filter Write Accesses: 0
L1 RR Filter Read Accesses: 25443860
test: 45929

stream: 
stream:times selected: 888666
stream:pref_filled: 647140
stream:pref_useful: 647026
stream:pref_late: 1227
stream:misses: 38
stream:misses_by_poll: 0

CS: 
CS:times selected: 888658
CS:pref_filled: 2457
CS:pref_useful: 2457
CS:pref_late: 86
CS:misses: 265150
CS:misses_by_poll: 11

CPLX: 
CPLX:times selected: 7
CPLX:pref_filled: 0
CPLX:pref_useful: 0
CPLX:pref_late: 0
CPLX:misses: 12
CPLX:misses_by_poll: 0

NL_L1: 
NL:times selected: 0
NL:pref_filled: 0
NL:pref_useful: 0
NL:pref_late: 0
NL:misses: 0
NL:misses_by_poll: 0

total selections: 1777331
total_filled: 582294
total_useful: 582205
total_late: 1319
total_polluted: 11
total_misses_after_warmup: 61968
conflicts: 0
Degree Incremented Times: 482163
Degree Decremented Times: 0

L1 IP Table Write Accesses: 61874893
L1 IP Table Read Accesses: 61874893
L1 RST Write Accesses: 2964349
L1 RST Read Accesses: 5928698
L1 CSPT Write Accesses: 2964349
L1 CSPT Read Accesses: 2964358
L1 RR Filter Tag Write Accesses: 2671086
L1 RR Filter Tag Read Accesses: 506002166
L1 IP Table Tag Write Accesses: 61874893
L1 IP Table Tag Read Accesses: 61874893
L1 RST Tag Write Accesses: 0
L1 RST Tag Read Accesses: 26674880
L1 RR Filter Write Accesses: 0
L1 RR Filter Read Accesses: 25443860
test: 45929

stream: 
stream:times selected: 888667
stream:pref_filled: 605764
stream:pref_useful: 605631
stream:pref_late: 1278
stream:misses: 38
stream:misses_by_poll: 0

CS: 
CS:times selected: 888659
CS:pref_filled: 2632
CS:pref_useful: 2632
CS:pref_late: 112
CS:misses: 372476
CS:misses_by_poll: 2

CPLX: 
CPLX:times selected: 7
CPLX:pref_filled: 0
CPLX:pref_useful: 0
CPLX:pref_late: 0
CPLX:misses: 12
CPLX:misses_by_poll: 0

NL_L1: 
NL:times selected: 0
NL:pref_filled: 0
NL:pref_useful: 0
NL:pref_late: 0
NL:misses: 0
NL:misses_by_poll: 0

total selections: 1777333
total_filled: 581965
total_useful: 581850
total_late: 1404
total_polluted: 2
total_misses_after_warmup: 64554
conflicts: 0
Degree Incremented Times: 482163
Degree Decremented Times: 0

L1 IP Table Write Accesses: 61874893
L1 IP Table Read Accesses: 61874893
L1 RST Write Accesses: 2964349
L1 RST Read Accesses: 5928698
L1 CSPT Write Accesses: 2964349
L1 CSPT Read Accesses: 2964358
L1 RR Filter Tag Write Accesses: 2671086
L1 RR Filter Tag Read Accesses: 506002166
L1 IP Table Tag Write Accesses: 61874893
L1 IP Table Tag Read Accesses: 61874893
L1 RST Tag Write Accesses: 0
L1 RST Tag Read Accesses: 26674880
L1 RR Filter Write Accesses: 0
L1 RR Filter Read Accesses: 25443860
test: 45929

stream: 
stream:times selected: 888554
stream:pref_filled: 588769
stream:pref_useful: 588649
stream:pref_late: 1266
stream:misses: 49
stream:misses_by_poll: 0

CS: 
CS:times selected: 888547
CS:pref_filled: 2501
CS:pref_useful: 2501
CS:pref_late: 104
CS:misses: 415776
CS:misses_by_poll: 13

CPLX: 
CPLX:times selected: 6
CPLX:pref_filled: 0
CPLX:pref_useful: 0
CPLX:pref_late: 0
CPLX:misses: 12
CPLX:misses_by_poll: 0

NL_L1: 
NL:times selected: 0
NL:pref_filled: 0
NL:pref_useful: 0
NL:pref_late: 0
NL:misses: 0
NL:misses_by_poll: 0

total selections: 1777107
total_filled: 581992
total_useful: 581872
total_late: 1382
total_polluted: 13
total_misses_after_warmup: 64327
conflicts: 0
Degree Incremented Times: 482163
Degree Decremented Times: 0

L1 IP Table Write Accesses: 61874893
L1 IP Table Read Accesses: 61874893
L1 RST Write Accesses: 2964349
L1 RST Read Accesses: 5928698
L1 CSPT Write Accesses: 2964349
L1 CSPT Read Accesses: 2964358
L1 RR Filter Tag Write Accesses: 2671086
L1 RR Filter Tag Read Accesses: 506002166
L1 IP Table Tag Write Accesses: 61874893
L1 IP Table Tag Read Accesses: 61874893
L1 RST Tag Write Accesses: 0
L1 RST Tag Read Accesses: 26674880
L1 RR Filter Write Accesses: 0
L1 RR Filter Read Accesses: 25443860
test: 45929

DRAM Statistics
 CHANNEL 0
 RQ ROW_BUFFER_HIT:    2447379  ROW_BUFFER_MISS:    2607120
 DBUS_CONGESTED:         13
 WQ ROW_BUFFER_HIT:     378873  ROW_BUFFER_MISS:    2296697  FULL:          0

 AVG_CONGESTED_CYCLE: 5
 All warmup complete: 5
Channel 0 Bank busy for read cycles: 0
Channel 0 Bank busy for write cycles: 0
Channel 0
Rank 0
0banks busy for read cycles: 112174
0banks busy for write cycles: 0
1banks busy for read cycles: 6703949
1banks busy for write cycles: 301300
2banks busy for read cycles: 14166781
2banks busy for write cycles: 301297
3banks busy for read cycles: 17873823
3banks busy for write cycles: 301293
4banks busy for read cycles: 19576074
4banks busy for write cycles: 301287
5banks busy for read cycles: 21450376
5banks busy for write cycles: 301500
6banks busy for read cycles: 19787886
6banks busy for write cycles: 344309
7banks busy for read cycles: 14103712
7banks busy for write cycles: 3915762
8banks busy for read cycles: 6922924
8banks busy for write cycles: 54265937

CPU 0 Branch Prediction Accuracy: 99.6395% MPKI: 1.36343 Average ROB Occupancy at Mispredict: 57.8109
Branch types
NOT_BRANCH: 124365852 62.1768%
BRANCH_DIRECT_JUMP: 0 0%
BRANCH_INDIRECT: 0 0%
BRANCH_CONDITIONAL: 75653842 37.8232%
BRANCH_DIRECT_CALL: 0 0%
BRANCH_INDIRECT_CALL: 0 0%
BRANCH_RETURN: 0 0%
BRANCH_OTHER: 0 0%


CPU 1 Branch Prediction Accuracy: 99.6395% MPKI: 1.3635 Average ROB Occupancy at Mispredict: 57.8301
Branch types
NOT_BRANCH: 124365072 62.1769%
BRANCH_DIRECT_JUMP: 0 0%
BRANCH_INDIRECT: 0 0%
BRANCH_CONDITIONAL: 75653366 37.8233%
BRANCH_DIRECT_CALL: 0 0%
BRANCH_INDIRECT_CALL: 0 0%
BRANCH_RETURN: 0 0%
BRANCH_OTHER: 0 0%


CPU 2 Branch Prediction Accuracy: 99.6395% MPKI: 1.36357 Average ROB Occupancy at Mispredict: 57.9043
Branch types
NOT_BRANCH: 124361957 62.1768%
BRANCH_DIRECT_JUMP: 0 0%
BRANCH_INDIRECT: 0 0%
BRANCH_CONDITIONAL: 75651511 37.8232%
BRANCH_DIRECT_CALL: 0 0%
BRANCH_INDIRECT_CALL: 0 0%
BRANCH_RETURN: 0 0%
BRANCH_OTHER: 0 0%


CPU 3 Branch Prediction Accuracy: 99.6395% MPKI: 1.3636 Average ROB Occupancy at Mispredict: 57.9504
Branch types
NOT_BRANCH: 124353373 62.1767%
BRANCH_DIRECT_JUMP: 0 0%
BRANCH_INDIRECT: 0 0%
BRANCH_CONDITIONAL: 75646346 37.8232%
BRANCH_DIRECT_CALL: 0 0%
BRANCH_INDIRECT_CALL: 0 0%
BRANCH_RETURN: 0 0%
BRANCH_OTHER: 0 0%

DRAM PAGES: 1048576
Allocated PAGES: 99528
