
*** ChampSim Multicore Out-of-Order Simulator ***

Warmup Instructions: 50000000
Simulation Instructions: 200000000
Number of CPUs: 4
LLC sets: 8192
LLC ways: 16
Off-chip DRAM Size: 4096 MB Channels: 1 Width: 64-bit Data Rate: 6400 MT/s
CPU 0 runs ./traces/gap/sssp-3.trace.gz
.gz
CPU 1 runs ./traces/gap/sssp-3.trace.gz
.gz
CPU 2 runs ./traces/gap/sssp-3.trace.gz
.gz
CPU 3 runs ./traces/gap/sssp-3.trace.gz
.gz
BTB has LRU replacement policy
ITLB has LRU replacement policy
DTLB has LRU replacement policy
STLB has LRU replacement policy
L1I has LRU replacement policy
IP Table Entries: 1024
CSPT Entries: 128
RR_ENTRIES: 32
RST_ENTRIES: 8
L1D has LRU replacement policy
Initialize SRRIP state for L2C
Initialize DRRIP state for LLC
BTB has LRU replacement policy
ITLB has LRU replacement policy
DTLB has LRU replacement policy
STLB has LRU replacement policy
L1I has LRU replacement policy
IP Table Entries: 1024
CSPT Entries: 128
RR_ENTRIES: 32
RST_ENTRIES: 8
L1D has LRU replacement policy
Initialize SRRIP state for L2C
Initialize DRRIP state for LLC
BTB has LRU replacement policy
ITLB has LRU replacement policy
DTLB has LRU replacement policy
STLB has LRU replacement policy
L1I has LRU replacement policy
IP Table Entries: 1024
CSPT Entries: 128
RR_ENTRIES: 32
RST_ENTRIES: 8
L1D has LRU replacement policy
Initialize SRRIP state for L2C
Initialize DRRIP state for LLC
BTB has LRU replacement policy
ITLB has LRU replacement policy
DTLB has LRU replacement policy
STLB has LRU replacement policy
L1I has LRU replacement policy
IP Table Entries: 1024
CSPT Entries: 128
RR_ENTRIES: 32
RST_ENTRIES: 8
L1D has LRU replacement policy
Initialize SRRIP state for L2C
Initialize DRRIP state for LLC
Heartbeat CPU 2 instructions: 10000002 cycles: 3096661 heartbeat IPC: 3.22929 cumulative IPC: 3.22929 (Simulation time: 0 hr 3 min 56 sec) 
Heartbeat CPU 1 instructions: 10000002 cycles: 3096743 heartbeat IPC: 3.2292 cumulative IPC: 3.2292 (Simulation time: 0 hr 3 min 56 sec) 
Heartbeat CPU 0 instructions: 10000002 cycles: 3096900 heartbeat IPC: 3.22904 cumulative IPC: 3.22904 (Simulation time: 0 hr 3 min 56 sec) 
Heartbeat CPU 3 instructions: 10000002 cycles: 3097031 heartbeat IPC: 3.2289 cumulative IPC: 3.2289 (Simulation time: 0 hr 3 min 56 sec) 
Heartbeat CPU 2 instructions: 20000001 cycles: 6171303 heartbeat IPC: 3.25241 cumulative IPC: 3.24081 (Simulation time: 0 hr 8 min 45 sec) 
Heartbeat CPU 1 instructions: 20000001 cycles: 6171573 heartbeat IPC: 3.25221 cumulative IPC: 3.24066 (Simulation time: 0 hr 8 min 45 sec) 
Heartbeat CPU 0 instructions: 20000001 cycles: 6171774 heartbeat IPC: 3.25217 cumulative IPC: 3.24056 (Simulation time: 0 hr 8 min 45 sec) 
Heartbeat CPU 3 instructions: 20000001 cycles: 6172101 heartbeat IPC: 3.25196 cumulative IPC: 3.24039 (Simulation time: 0 hr 8 min 45 sec) 
Heartbeat CPU 2 instructions: 30000002 cycles: 9266957 heartbeat IPC: 3.23034 cumulative IPC: 3.23731 (Simulation time: 0 hr 13 min 18 sec) 
Heartbeat CPU 1 instructions: 30000002 cycles: 9267032 heartbeat IPC: 3.23054 cumulative IPC: 3.23728 (Simulation time: 0 hr 13 min 18 sec) 
Heartbeat CPU 0 instructions: 30000002 cycles: 9267745 heartbeat IPC: 3.23 cumulative IPC: 3.23703 (Simulation time: 0 hr 13 min 18 sec) 
Heartbeat CPU 3 instructions: 30000002 cycles: 9269018 heartbeat IPC: 3.22902 cumulative IPC: 3.23659 (Simulation time: 0 hr 13 min 18 sec) 
Heartbeat CPU 2 instructions: 40000001 cycles: 12357646 heartbeat IPC: 3.23552 cumulative IPC: 3.23686 (Simulation time: 0 hr 17 min 33 sec) 
Heartbeat CPU 1 instructions: 40000001 cycles: 12357833 heartbeat IPC: 3.23541 cumulative IPC: 3.23681 (Simulation time: 0 hr 17 min 33 sec) 
Heartbeat CPU 0 instructions: 40000001 cycles: 12359309 heartbeat IPC: 3.23461 cumulative IPC: 3.23643 (Simulation time: 0 hr 17 min 33 sec) 
Heartbeat CPU 3 instructions: 40000001 cycles: 12361970 heartbeat IPC: 3.23316 cumulative IPC: 3.23573 (Simulation time: 0 hr 17 min 33 sec) 
Heartbeat CPU 2 instructions: 50000000 cycles: 15457291 heartbeat IPC: 3.22618 cumulative IPC: 3.23472 (Simulation time: 0 hr 22 min 11 sec) 
Heartbeat CPU 1 instructions: 50000000 cycles: 15457442 heartbeat IPC: 3.22621 cumulative IPC: 3.23469 (Simulation time: 0 hr 22 min 11 sec) 
Heartbeat CPU 0 instructions: 50000000 cycles: 15460847 heartbeat IPC: 3.22421 cumulative IPC: 3.23398 (Simulation time: 0 hr 22 min 11 sec) 
Heartbeat CPU 3 instructions: 50000000 cycles: 15464955 heartbeat IPC: 3.2227 cumulative IPC: 3.23312 (Simulation time: 0 hr 22 min 11 sec) 

Warmup complete CPU 0 instructions: 50011668 cycles: 15464956 (Simulation time: 0 hr 22 min 11 sec) 
Warmup complete CPU 1 instructions: 50021424 cycles: 15464956 (Simulation time: 0 hr 22 min 11 sec) 
Warmup complete CPU 2 instructions: 50021784 cycles: 15464956 (Simulation time: 0 hr 22 min 11 sec) 
Warmup complete CPU 3 instructions: 50000004 cycles: 15464956 (Simulation time: 0 hr 22 min 11 sec) 

Heartbeat CPU 1 instructions: 60000001 cycles: 61755216 heartbeat IPC: 0.215993 cumulative IPC: 0.215565 (Simulation time: 0 hr 26 min 54 sec) 
Heartbeat CPU 2 instructions: 60000001 cycles: 61866925 heartbeat IPC: 0.215473 cumulative IPC: 0.215039 (Simulation time: 0 hr 26 min 55 sec) 
Heartbeat CPU 3 instructions: 60000001 cycles: 61944488 heartbeat IPC: 0.215148 cumulative IPC: 0.215148 (Simulation time: 0 hr 26 min 56 sec) 
Heartbeat CPU 0 instructions: 60000001 cycles: 62078125 heartbeat IPC: 0.214513 cumulative IPC: 0.214281 (Simulation time: 0 hr 26 min 57 sec) 
Heartbeat CPU 1 instructions: 70000000 cycles: 106944328 heartbeat IPC: 0.221292 cumulative IPC: 0.218394 (Simulation time: 0 hr 31 min 41 sec) 
Heartbeat CPU 2 instructions: 70000000 cycles: 107004001 heartbeat IPC: 0.221547 cumulative IPC: 0.218248 (Simulation time: 0 hr 31 min 42 sec) 
Heartbeat CPU 3 instructions: 70000000 cycles: 107259166 heartbeat IPC: 0.220679 cumulative IPC: 0.217879 (Simulation time: 0 hr 31 min 44 sec) 
Heartbeat CPU 0 instructions: 70000000 cycles: 107388671 heartbeat IPC: 0.220699 cumulative IPC: 0.217445 (Simulation time: 0 hr 31 min 45 sec) 
Heartbeat CPU 2 instructions: 80000000 cycles: 150925582 heartbeat IPC: 0.227679 cumulative IPC: 0.221306 (Simulation time: 0 hr 36 min 36 sec) 
Heartbeat CPU 1 instructions: 80000000 cycles: 150974275 heartbeat IPC: 0.227118 cumulative IPC: 0.221229 (Simulation time: 0 hr 36 min 36 sec) 
Heartbeat CPU 3 instructions: 80000000 cycles: 151269694 heartbeat IPC: 0.227218 cumulative IPC: 0.220905 (Simulation time: 0 hr 36 min 38 sec) 
Heartbeat CPU 0 instructions: 80000000 cycles: 151406303 heartbeat IPC: 0.227182 cumulative IPC: 0.220598 (Simulation time: 0 hr 36 min 39 sec) 
Heartbeat CPU 2 instructions: 90000002 cycles: 194772911 heartbeat IPC: 0.228064 cumulative IPC: 0.222958 (Simulation time: 0 hr 41 min 20 sec) 
Heartbeat CPU 1 instructions: 90000002 cycles: 194920406 heartbeat IPC: 0.227551 cumulative IPC: 0.222777 (Simulation time: 0 hr 41 min 21 sec) 
Heartbeat CPU 3 instructions: 90000002 cycles: 195341614 heartbeat IPC: 0.226902 cumulative IPC: 0.222375 (Simulation time: 0 hr 41 min 24 sec) 
Heartbeat CPU 0 instructions: 90000002 cycles: 195456343 heartbeat IPC: 0.227015 cumulative IPC: 0.222168 (Simulation time: 0 hr 41 min 25 sec) 
Heartbeat CPU 2 instructions: 100000000 cycles: 237068373 heartbeat IPC: 0.236432 cumulative IPC: 0.22553 (Simulation time: 0 hr 46 min 23 sec) 
Heartbeat CPU 1 instructions: 100000000 cycles: 237424394 heartbeat IPC: 0.235272 cumulative IPC: 0.22517 (Simulation time: 0 hr 46 min 25 sec) 
Heartbeat CPU 3 instructions: 100000000 cycles: 237680820 heartbeat IPC: 0.236188 cumulative IPC: 0.225006 (Simulation time: 0 hr 46 min 27 sec) 
Heartbeat CPU 0 instructions: 100000000 cycles: 237814405 heartbeat IPC: 0.236083 cumulative IPC: 0.224819 (Simulation time: 0 hr 46 min 27 sec) 
Heartbeat CPU 2 instructions: 110000000 cycles: 279839603 heartbeat IPC: 0.233802 cumulative IPC: 0.226868 (Simulation time: 0 hr 51 min 49 sec) 
Heartbeat CPU 1 instructions: 110000000 cycles: 280216237 heartbeat IPC: 0.233689 cumulative IPC: 0.226547 (Simulation time: 0 hr 51 min 52 sec) 
Heartbeat CPU 3 instructions: 110000000 cycles: 280431541 heartbeat IPC: 0.233914 cumulative IPC: 0.226444 (Simulation time: 0 hr 51 min 53 sec) 
Heartbeat CPU 0 instructions: 110000000 cycles: 280564061 heartbeat IPC: 0.23392 cumulative IPC: 0.226286 (Simulation time: 0 hr 51 min 54 sec) 
Heartbeat CPU 2 instructions: 120000000 cycles: 320586298 heartbeat IPC: 0.245419 cumulative IPC: 0.229346 (Simulation time: 0 hr 57 min 2 sec) 
Heartbeat CPU 1 instructions: 120000000 cycles: 320950919 heartbeat IPC: 0.245491 cumulative IPC: 0.229073 (Simulation time: 0 hr 57 min 5 sec) 
Heartbeat CPU 3 instructions: 120000000 cycles: 321112591 heartbeat IPC: 0.245815 cumulative IPC: 0.229022 (Simulation time: 0 hr 57 min 6 sec) 
Heartbeat CPU 0 instructions: 120000000 cycles: 321204534 heartbeat IPC: 0.24606 cumulative IPC: 0.228915 (Simulation time: 0 hr 57 min 6 sec) 
Heartbeat CPU 2 instructions: 130000002 cycles: 361708804 heartbeat IPC: 0.243176 cumulative IPC: 0.230988 (Simulation time: 1 hr 2 min 0 sec) 
Heartbeat CPU 1 instructions: 130000002 cycles: 362110205 heartbeat IPC: 0.242959 cumulative IPC: 0.230722 (Simulation time: 1 hr 2 min 3 sec) 
Heartbeat CPU 3 instructions: 130000002 cycles: 362203417 heartbeat IPC: 0.243363 cumulative IPC: 0.230721 (Simulation time: 1 hr 2 min 4 sec) 
Heartbeat CPU 0 instructions: 130000002 cycles: 362294590 heartbeat IPC: 0.243368 cumulative IPC: 0.230627 (Simulation time: 1 hr 2 min 4 sec) 
Heartbeat CPU 2 instructions: 140000000 cycles: 402322918 heartbeat IPC: 0.24622 cumulative IPC: 0.232587 (Simulation time: 1 hr 7 min 42 sec) 
Heartbeat CPU 1 instructions: 140000000 cycles: 402599340 heartbeat IPC: 0.24698 cumulative IPC: 0.232422 (Simulation time: 1 hr 7 min 44 sec) 
Heartbeat CPU 3 instructions: 140000001 cycles: 402754502 heartbeat IPC: 0.246603 cumulative IPC: 0.232384 (Simulation time: 1 hr 7 min 46 sec) 
Heartbeat CPU 0 instructions: 140000000 cycles: 402773835 heartbeat IPC: 0.24704 cumulative IPC: 0.232343 (Simulation time: 1 hr 7 min 46 sec) 
Heartbeat CPU 2 instructions: 150000000 cycles: 442230320 heartbeat IPC: 0.25058 cumulative IPC: 0.23427 (Simulation time: 1 hr 12 min 48 sec) 
Heartbeat CPU 1 instructions: 150000000 cycles: 442578068 heartbeat IPC: 0.250133 cumulative IPC: 0.23408 (Simulation time: 1 hr 12 min 51 sec) 
Heartbeat CPU 0 instructions: 150000000 cycles: 442635201 heartbeat IPC: 0.250869 cumulative IPC: 0.234071 (Simulation time: 1 hr 12 min 51 sec) 
Heartbeat CPU 3 instructions: 150000000 cycles: 442755958 heartbeat IPC: 0.249991 cumulative IPC: 0.234033 (Simulation time: 1 hr 12 min 52 sec) 
Heartbeat CPU 2 instructions: 160000001 cycles: 481782583 heartbeat IPC: 0.25283 cumulative IPC: 0.235844 (Simulation time: 1 hr 18 min 25 sec) 
Heartbeat CPU 1 instructions: 160000001 cycles: 482119561 heartbeat IPC: 0.252899 cumulative IPC: 0.235674 (Simulation time: 1 hr 18 min 28 sec) 
Heartbeat CPU 0 instructions: 160000001 cycles: 482239894 heartbeat IPC: 0.252495 cumulative IPC: 0.235635 (Simulation time: 1 hr 18 min 29 sec) 
Heartbeat CPU 3 instructions: 160000001 cycles: 482404326 heartbeat IPC: 0.252217 cumulative IPC: 0.235577 (Simulation time: 1 hr 18 min 30 sec) 
Heartbeat CPU 2 instructions: 170000003 cycles: 521209755 heartbeat IPC: 0.253632 cumulative IPC: 0.237231 (Simulation time: 1 hr 24 min 29 sec) 
Heartbeat CPU 1 instructions: 170000003 cycles: 521660277 heartbeat IPC: 0.252904 cumulative IPC: 0.23702 (Simulation time: 1 hr 24 min 33 sec) 
Heartbeat CPU 0 instructions: 170000003 cycles: 521827517 heartbeat IPC: 0.252604 cumulative IPC: 0.236961 (Simulation time: 1 hr 24 min 34 sec) 
Heartbeat CPU 3 instructions: 170000003 cycles: 521988261 heartbeat IPC: 0.252628 cumulative IPC: 0.236909 (Simulation time: 1 hr 24 min 35 sec) 
Heartbeat CPU 2 instructions: 180000003 cycles: 560228690 heartbeat IPC: 0.256286 cumulative IPC: 0.238596 (Simulation time: 1 hr 29 min 45 sec) 
Heartbeat CPU 1 instructions: 180000003 cycles: 560544293 heartbeat IPC: 0.257175 cumulative IPC: 0.238458 (Simulation time: 1 hr 29 min 47 sec) 
Heartbeat CPU 0 instructions: 180000003 cycles: 560918259 heartbeat IPC: 0.255815 cumulative IPC: 0.238312 (Simulation time: 1 hr 29 min 50 sec) 
Heartbeat CPU 3 instructions: 180000002 cycles: 561061998 heartbeat IPC: 0.255926 cumulative IPC: 0.238271 (Simulation time: 1 hr 29 min 51 sec) 
Heartbeat CPU 2 instructions: 190000001 cycles: 598821209 heartbeat IPC: 0.259118 cumulative IPC: 0.239953 (Simulation time: 1 hr 35 min 9 sec) 
Heartbeat CPU 1 instructions: 190000001 cycles: 599203879 heartbeat IPC: 0.258668 cumulative IPC: 0.239797 (Simulation time: 1 hr 35 min 12 sec) 
Heartbeat CPU 0 instructions: 190000001 cycles: 599571288 heartbeat IPC: 0.258712 cumulative IPC: 0.239662 (Simulation time: 1 hr 35 min 15 sec) 
Heartbeat CPU 3 instructions: 190000001 cycles: 599726227 heartbeat IPC: 0.258637 cumulative IPC: 0.239619 (Simulation time: 1 hr 35 min 16 sec) 
Heartbeat CPU 2 instructions: 200000002 cycles: 637501022 heartbeat IPC: 0.258533 cumulative IPC: 0.241109 (Simulation time: 1 hr 40 min 39 sec) 
Heartbeat CPU 1 instructions: 200000002 cycles: 637799625 heartbeat IPC: 0.259096 cumulative IPC: 0.240993 (Simulation time: 1 hr 40 min 42 sec) 
Heartbeat CPU 0 instructions: 200000002 cycles: 638143064 heartbeat IPC: 0.259257 cumulative IPC: 0.240876 (Simulation time: 1 hr 40 min 45 sec) 
Heartbeat CPU 3 instructions: 200000002 cycles: 638271113 heartbeat IPC: 0.259438 cumulative IPC: 0.240845 (Simulation time: 1 hr 40 min 46 sec) 
Heartbeat CPU 2 instructions: 210000003 cycles: 676063883 heartbeat IPC: 0.259317 cumulative IPC: 0.242171 (Simulation time: 1 hr 46 min 33 sec) 
Heartbeat CPU 1 instructions: 210000003 cycles: 676261460 heartbeat IPC: 0.259998 cumulative IPC: 0.2421 (Simulation time: 1 hr 46 min 34 sec) 
Heartbeat CPU 0 instructions: 210000003 cycles: 676651411 heartbeat IPC: 0.259684 cumulative IPC: 0.241972 (Simulation time: 1 hr 46 min 38 sec) 
Heartbeat CPU 3 instructions: 210000003 cycles: 676899997 heartbeat IPC: 0.258874 cumulative IPC: 0.241898 (Simulation time: 1 hr 46 min 40 sec) 
Heartbeat CPU 2 instructions: 220000000 cycles: 714469634 heartbeat IPC: 0.260378 cumulative IPC: 0.243172 (Simulation time: 1 hr 52 min 19 sec) 
Heartbeat CPU 1 instructions: 220000000 cycles: 714713437 heartbeat IPC: 0.260065 cumulative IPC: 0.243088 (Simulation time: 1 hr 52 min 21 sec) 
Heartbeat CPU 0 instructions: 220000000 cycles: 715076822 heartbeat IPC: 0.260244 cumulative IPC: 0.242975 (Simulation time: 1 hr 52 min 23 sec) 
Heartbeat CPU 3 instructions: 220000000 cycles: 715329280 heartbeat IPC: 0.260218 cumulative IPC: 0.242904 (Simulation time: 1 hr 52 min 25 sec) 
Heartbeat CPU 2 instructions: 230000002 cycles: 752322377 heartbeat IPC: 0.264182 cumulative IPC: 0.244251 (Simulation time: 1 hr 57 min 0 sec) 
Heartbeat CPU 1 instructions: 230000002 cycles: 752604342 heartbeat IPC: 0.263916 cumulative IPC: 0.244158 (Simulation time: 1 hr 57 min 2 sec) 
Heartbeat CPU 0 instructions: 230000002 cycles: 752878102 heartbeat IPC: 0.264541 cumulative IPC: 0.244081 (Simulation time: 1 hr 57 min 4 sec) 
Heartbeat CPU 3 instructions: 230000002 cycles: 753275808 heartbeat IPC: 0.263529 cumulative IPC: 0.243965 (Simulation time: 1 hr 57 min 7 sec) 
Heartbeat CPU 2 instructions: 240000000 cycles: 790632802 heartbeat IPC: 0.261026 cumulative IPC: 0.24508 (Simulation time: 2 hr 1 min 57 sec) 
Heartbeat CPU 1 instructions: 240000000 cycles: 790927033 heartbeat IPC: 0.260942 cumulative IPC: 0.244988 (Simulation time: 2 hr 1 min 59 sec) 
Heartbeat CPU 0 instructions: 240000000 cycles: 791131785 heartbeat IPC: 0.261413 cumulative IPC: 0.244935 (Simulation time: 2 hr 2 min 1 sec) 
Heartbeat CPU 3 instructions: 240000000 cycles: 791679190 heartbeat IPC: 0.260394 cumulative IPC: 0.244778 (Simulation time: 2 hr 2 min 7 sec) 
Heartbeat CPU 2 instructions: 250000002 cycles: 828941424 heartbeat IPC: 0.261038 cumulative IPC: 0.245832 (Simulation time: 2 hr 7 min 22 sec) 
Finished CPU 2 instructions: 200000000 cycles: 813559924 cumulative IPC: 0.245833 (Simulation time: 2 hr 7 min 23 sec) 
Heartbeat CPU 1 instructions: 250000002 cycles: 829177375 heartbeat IPC: 0.261436 cumulative IPC: 0.245761 (Simulation time: 2 hr 7 min 24 sec) 
Finished CPU 1 instructions: 200000000 cycles: 813800691 cumulative IPC: 0.24576 (Simulation time: 2 hr 7 min 25 sec) 
Heartbeat CPU 0 instructions: 250000002 cycles: 829404473 heartbeat IPC: 0.261283 cumulative IPC: 0.245704 (Simulation time: 2 hr 7 min 26 sec) 
Finished CPU 0 instructions: 200000002 cycles: 813991828 cumulative IPC: 0.245703 (Simulation time: 2 hr 7 min 27 sec) 
Heartbeat CPU 3 instructions: 250000002 cycles: 829902043 heartbeat IPC: 0.261624 cumulative IPC: 0.245568 (Simulation time: 2 hr 7 min 31 sec) 
Finished CPU 3 instructions: 200000001 cycles: 814437088 cumulative IPC: 0.245568 (Simulation time: 2 hr 7 min 31 sec) 

ChampSim completed all CPUs

Total Simulation Statistics (not including warmup)

CPU 0 cumulative IPC: 0.245715 instructions: 200119555 cycles: 814437088
ITLB TOTAL     ACCESS:   24736655  HIT:   24736655  MISS:          0  HIT %:        100  MISS %:          0   MPKI: 0
ITLB LOAD      ACCESS:          0  HIT:          0  MISS:          0  HIT %:       -nan  MISS %:       -nan   MPKI: 0
ITLB RFO       ACCESS:          0  HIT:          0  MISS:          0  HIT %:       -nan  MISS %:       -nan   MPKI: 0
ITLB PREFETCH  ACCESS:          0  HIT:          0  MISS:          0  HIT %:       -nan  MISS %:       -nan   MPKI: 0
ITLB WRITEBACK ACCESS:          0  HIT:          0  MISS:          0  HIT %:       -nan  MISS %:       -nan   MPKI: 0
DTLB TOTAL     ACCESS:   41657168  HIT:   37108253  MISS:    4548915  HIT %:    89.0801  MISS %:    10.9199   MPKI: 22.731
DTLB LOAD      ACCESS:          0  HIT:          0  MISS:          0  HIT %:       -nan  MISS %:       -nan   MPKI: 0
DTLB RFO       ACCESS:          0  HIT:          0  MISS:          0  HIT %:       -nan  MISS %:       -nan   MPKI: 0
DTLB PREFETCH  ACCESS:          0  HIT:          0  MISS:          0  HIT %:       -nan  MISS %:       -nan   MPKI: 0
DTLB WRITEBACK ACCESS:          0  HIT:          0  MISS:          0  HIT %:       -nan  MISS %:       -nan   MPKI: 0
STLB TOTAL     ACCESS:   13232075  HIT:   13174215  MISS:      57860  HIT %:    99.5627  MISS %:   0.437271   MPKI: 0.289127
STLB LOAD      ACCESS:          0  HIT:          0  MISS:          0  HIT %:       -nan  MISS %:       -nan   MPKI: 0
STLB RFO       ACCESS:          0  HIT:          0  MISS:          0  HIT %:       -nan  MISS %:       -nan   MPKI: 0
STLB PREFETCH  ACCESS:          0  HIT:          0  MISS:          0  HIT %:       -nan  MISS %:       -nan   MPKI: 0
STLB WRITEBACK ACCESS:          0  HIT:          0  MISS:          0  HIT %:       -nan  MISS %:       -nan   MPKI: 0
L1D TOTAL     ACCESS:   62646145  HIT:   43013727  MISS:   19632418  HIT %:    68.6614  MISS %:    31.3386   MPKI: 98.1034
L1D LOAD      ACCESS:   48006667  HIT:   38817067  MISS:    9189600  HIT %:    80.8577  MISS %:    19.1423   MPKI: 45.9205
L1D RFO       ACCESS:    2033263  HIT:    1493935  MISS:     539328  HIT %:    73.4748  MISS %:    26.5252   MPKI: 2.69503
L1D PREFETCH  ACCESS:   12606215  HIT:    2702725  MISS:    9903490  HIT %:    21.4396  MISS %:    78.5604   MPKI: 49.4879
L1D WRITEBACK ACCESS:          0  HIT:          0  MISS:          0  HIT %:       -nan  MISS %:       -nan   MPKI: 0
L1I TOTAL     ACCESS:   25400447  HIT:   25400447  MISS:          0  HIT %:        100  MISS %:          0   MPKI: 0
L1I LOAD      ACCESS:   25400447  HIT:   25400447  MISS:          0  HIT %:        100  MISS %:          0   MPKI: 0
L1I RFO       ACCESS:          0  HIT:          0  MISS:          0  HIT %:       -nan  MISS %:       -nan   MPKI: 0
L1I PREFETCH  ACCESS:          0  HIT:          0  MISS:          0  HIT %:       -nan  MISS %:       -nan   MPKI: 0
L1I WRITEBACK ACCESS:          0  HIT:          0  MISS:          0  HIT %:       -nan  MISS %:       -nan   MPKI: 0
L2C TOTAL     ACCESS:   21166849  HIT:    4817189  MISS:   16349660  HIT %:    22.7582  MISS %:    77.2418   MPKI: 81.6995
L2C LOAD      ACCESS:    9011606  HIT:    1619681  MISS:    7391925  HIT %:    17.9733  MISS %:    82.0267   MPKI: 36.9375
L2C RFO       ACCESS:     539300  HIT:     338797  MISS:     200503  HIT %:    62.8216  MISS %:    37.1784   MPKI: 1.00192
L2C PREFETCH  ACCESS:   10081467  HIT:    1422990  MISS:    8658477  HIT %:    14.1149  MISS %:    85.8851   MPKI: 43.2665
L2C WRITEBACK ACCESS:    1464751  HIT:    1411520  MISS:      53231  HIT %:    96.3659  MISS %:    3.63413   MPKI: 0.265996
PSCL5 TOTAL     ACCESS:      57860  HIT:      57860  MISS:          0  HIT %:        100  MISS %:          0   MPKI: 0
PSCL5 LOAD      ACCESS:          0  HIT:          0  MISS:          0  HIT %:       -nan  MISS %:       -nan   MPKI: 0
PSCL5 RFO       ACCESS:          0  HIT:          0  MISS:          0  HIT %:       -nan  MISS %:       -nan   MPKI: 0
PSCL5 PREFETCH  ACCESS:          0  HIT:          0  MISS:          0  HIT %:       -nan  MISS %:       -nan   MPKI: 0
PSCL5 WRITEBACK ACCESS:          0  HIT:          0  MISS:          0  HIT %:       -nan  MISS %:       -nan   MPKI: 0
PSCL4 TOTAL     ACCESS:      57860  HIT:      57860  MISS:          0  HIT %:        100  MISS %:          0   MPKI: 0
PSCL4 LOAD      ACCESS:          0  HIT:          0  MISS:          0  HIT %:       -nan  MISS %:       -nan   MPKI: 0
PSCL4 RFO       ACCESS:          0  HIT:          0  MISS:          0  HIT %:       -nan  MISS %:       -nan   MPKI: 0
PSCL4 PREFETCH  ACCESS:          0  HIT:          0  MISS:          0  HIT %:       -nan  MISS %:       -nan   MPKI: 0
PSCL4 WRITEBACK ACCESS:          0  HIT:          0  MISS:          0  HIT %:       -nan  MISS %:       -nan   MPKI: 0
PSCL3 TOTAL     ACCESS:      57860  HIT:      57860  MISS:          0  HIT %:        100  MISS %:          0   MPKI: 0
PSCL3 LOAD      ACCESS:          0  HIT:          0  MISS:          0  HIT %:       -nan  MISS %:       -nan   MPKI: 0
PSCL3 RFO       ACCESS:          0  HIT:          0  MISS:          0  HIT %:       -nan  MISS %:       -nan   MPKI: 0
PSCL3 PREFETCH  ACCESS:          0  HIT:          0  MISS:          0  HIT %:       -nan  MISS %:       -nan   MPKI: 0
PSCL3 WRITEBACK ACCESS:          0  HIT:          0  MISS:          0  HIT %:       -nan  MISS %:       -nan   MPKI: 0
PSCL2 TOTAL     ACCESS:      57860  HIT:      45993  MISS:      11867  HIT %:    79.4901  MISS %:    20.5099   MPKI: 0.0592996
PSCL2 LOAD      ACCESS:          0  HIT:          0  MISS:          0  HIT %:       -nan  MISS %:       -nan   MPKI: 0
PSCL2 RFO       ACCESS:          0  HIT:          0  MISS:          0  HIT %:       -nan  MISS %:       -nan   MPKI: 0
PSCL2 PREFETCH  ACCESS:          0  HIT:          0  MISS:          0  HIT %:       -nan  MISS %:       -nan   MPKI: 0
PSCL2 WRITEBACK ACCESS:          0  HIT:          0  MISS:          0  HIT %:       -nan  MISS %:       -nan   MPKI: 0

stream: 
stream:times selected: 16676142
stream:pref_filled: 9989566
stream:pref_useful: 294294
stream:pref_late: 159200
stream:misses: 2318321
stream:misses_by_poll: 0

CS: 
CS:times selected: 3751923
CS:pref_filled: 1485786
CS:pref_useful: 1385967
CS:pref_late: 43132
CS:misses: 230542
CS:misses_by_poll: 1495

CPLX: 
CPLX:times selected: 12839076
CPLX:pref_filled: 431333
CPLX:pref_useful: 18561
CPLX:pref_late: 5874
CPLX:misses: 8505595
CPLX:misses_by_poll: 195

NL_L1: 
NL:times selected: 15344
NL:pref_filled: 8610
NL:pref_useful: 658
NL:pref_late: 90
NL:misses: 9352
NL:misses_by_poll: 0

total selections: 33282485
total_filled: 9903490
total_useful: 1313712
total_late: 214565
total_polluted: 1690
total_misses_after_warmup: 9368841
conflicts: 423
Degree Incremented Times: 949935
Degree Decremented Times: 2101330

L1 IP Table Write Accesses: 192777071
L1 IP Table Read Accesses: 192776648
L1 RST Write Accesses: 53824824
L1 RST Read Accesses: 107649648
L1 CSPT Write Accesses: 53824824
L1 CSPT Read Accesses: 94610787
L1 RR Filter Tag Write Accesses: 52704281
L1 RR Filter Tag Read Accesses: 2620231375
L1 IP Table Tag Write Accesses: 192780764
L1 IP Table Tag Read Accesses: 192780764
L1 RST Tag Write Accesses: 0
L1 RST Tag Read Accesses: 479228662
L1 RR Filter Write Accesses: 0
L1 RR Filter Read Accesses: 92043671
test: 20949743
LLC TOTAL     ACCESS:   17171370  HIT:    9527104  MISS:    7644266  HIT %:    55.4825  MISS %:    44.5175   MPKI: 38.1985
LLC LOAD      ACCESS:    7391923  HIT:    4437363  MISS:    2954560  HIT %:    60.0299  MISS %:    39.9701   MPKI: 14.764
LLC RFO       ACCESS:     200502  HIT:      83081  MISS:     117421  HIT %:    41.4365  MISS %:    58.5635   MPKI: 0.586754
LLC PREFETCH  ACCESS:    8658476  HIT:    4193038  MISS:    4465438  HIT %:     48.427  MISS %:     51.573   MPKI: 22.3139
LLC WRITEBACK ACCESS:     874945  HIT:     804953  MISS:      69992  HIT %:    92.0004  MISS %:    7.99959   MPKI: 0.349751

RAW hits: 77922
Loads Generated: 76853461
Loads sent to L1D: 76775539
Stores Generated: 2205331
Stores sent to L1D: 2205331

CPU 1 cumulative IPC: 0.245771 instructions: 200165367 cycles: 814437088
ITLB TOTAL     ACCESS:   24740111  HIT:   24740111  MISS:          0  HIT %:        100  MISS %:          0   MPKI: 0
ITLB LOAD      ACCESS:          0  HIT:          0  MISS:          0  HIT %:       -nan  MISS %:       -nan   MPKI: 0
ITLB RFO       ACCESS:          0  HIT:          0  MISS:          0  HIT %:       -nan  MISS %:       -nan   MPKI: 0
ITLB PREFETCH  ACCESS:          0  HIT:          0  MISS:          0  HIT %:       -nan  MISS %:       -nan   MPKI: 0
ITLB WRITEBACK ACCESS:          0  HIT:          0  MISS:          0  HIT %:       -nan  MISS %:       -nan   MPKI: 0
DTLB TOTAL     ACCESS:   41668223  HIT:   37117489  MISS:    4550734  HIT %:    89.0786  MISS %:    10.9214   MPKI: 22.7349
DTLB LOAD      ACCESS:          0  HIT:          0  MISS:          0  HIT %:       -nan  MISS %:       -nan   MPKI: 0
DTLB RFO       ACCESS:          0  HIT:          0  MISS:          0  HIT %:       -nan  MISS %:       -nan   MPKI: 0
DTLB PREFETCH  ACCESS:          0  HIT:          0  MISS:          0  HIT %:       -nan  MISS %:       -nan   MPKI: 0
DTLB WRITEBACK ACCESS:          0  HIT:          0  MISS:          0  HIT %:       -nan  MISS %:       -nan   MPKI: 0
STLB TOTAL     ACCESS:   13233047  HIT:   13175144  MISS:      57903  HIT %:    99.5624  MISS %:   0.437564   MPKI: 0.289276
STLB LOAD      ACCESS:          0  HIT:          0  MISS:          0  HIT %:       -nan  MISS %:       -nan   MPKI: 0
STLB RFO       ACCESS:          0  HIT:          0  MISS:          0  HIT %:       -nan  MISS %:       -nan   MPKI: 0
STLB PREFETCH  ACCESS:          0  HIT:          0  MISS:          0  HIT %:       -nan  MISS %:       -nan   MPKI: 0
STLB WRITEBACK ACCESS:          0  HIT:          0  MISS:          0  HIT %:       -nan  MISS %:       -nan   MPKI: 0
L1D TOTAL     ACCESS:   62653050  HIT:   43018642  MISS:   19634408  HIT %:    68.6617  MISS %:    31.3383   MPKI: 98.0909
L1D LOAD      ACCESS:   48016898  HIT:   38825001  MISS:    9191897  HIT %:     80.857  MISS %:     19.143   MPKI: 45.9215
L1D RFO       ACCESS:    2033269  HIT:    1493873  MISS:     539396  HIT %:    73.4715  MISS %:    26.5285   MPKI: 2.69475
L1D PREFETCH  ACCESS:   12602883  HIT:    2699768  MISS:    9903115  HIT %:    21.4218  MISS %:    78.5782   MPKI: 49.4747
L1D WRITEBACK ACCESS:          0  HIT:          0  MISS:          0  HIT %:       -nan  MISS %:       -nan   MPKI: 0
L1I TOTAL     ACCESS:   25403964  HIT:   25403964  MISS:          0  HIT %:        100  MISS %:          0   MPKI: 0
L1I LOAD      ACCESS:   25403964  HIT:   25403964  MISS:          0  HIT %:        100  MISS %:          0   MPKI: 0
L1I RFO       ACCESS:          0  HIT:          0  MISS:          0  HIT %:       -nan  MISS %:       -nan   MPKI: 0
L1I PREFETCH  ACCESS:          0  HIT:          0  MISS:          0  HIT %:       -nan  MISS %:       -nan   MPKI: 0
L1I WRITEBACK ACCESS:          0  HIT:          0  MISS:          0  HIT %:       -nan  MISS %:       -nan   MPKI: 0
L2C TOTAL     ACCESS:   21168978  HIT:    4823926  MISS:   16345052  HIT %:    22.7877  MISS %:    77.2123   MPKI: 81.6577
L2C LOAD      ACCESS:    9012948  HIT:    1623072  MISS:    7389876  HIT %:    18.0082  MISS %:    81.9918   MPKI: 36.9189
L2C RFO       ACCESS:     539357  HIT:     338234  MISS:     201123  HIT %:    62.7106  MISS %:    37.2894   MPKI: 1.00478
L2C PREFETCH  ACCESS:   10082057  HIT:    1423344  MISS:    8658713  HIT %:    14.1176  MISS %:    85.8824   MPKI: 43.2578
L2C WRITEBACK ACCESS:    1464841  HIT:    1414807  MISS:      50034  HIT %:    96.5843  MISS %:    3.41566   MPKI: 0.249963
PSCL5 TOTAL     ACCESS:      57903  HIT:      57903  MISS:          0  HIT %:        100  MISS %:          0   MPKI: 0
PSCL5 LOAD      ACCESS:          0  HIT:          0  MISS:          0  HIT %:       -nan  MISS %:       -nan   MPKI: 0
PSCL5 RFO       ACCESS:          0  HIT:          0  MISS:          0  HIT %:       -nan  MISS %:       -nan   MPKI: 0
PSCL5 PREFETCH  ACCESS:          0  HIT:          0  MISS:          0  HIT %:       -nan  MISS %:       -nan   MPKI: 0
PSCL5 WRITEBACK ACCESS:          0  HIT:          0  MISS:          0  HIT %:       -nan  MISS %:       -nan   MPKI: 0
PSCL4 TOTAL     ACCESS:      57903  HIT:      57903  MISS:          0  HIT %:        100  MISS %:          0   MPKI: 0
PSCL4 LOAD      ACCESS:          0  HIT:          0  MISS:          0  HIT %:       -nan  MISS %:       -nan   MPKI: 0
PSCL4 RFO       ACCESS:          0  HIT:          0  MISS:          0  HIT %:       -nan  MISS %:       -nan   MPKI: 0
PSCL4 PREFETCH  ACCESS:          0  HIT:          0  MISS:          0  HIT %:       -nan  MISS %:       -nan   MPKI: 0
PSCL4 WRITEBACK ACCESS:          0  HIT:          0  MISS:          0  HIT %:       -nan  MISS %:       -nan   MPKI: 0
PSCL3 TOTAL     ACCESS:      57903  HIT:      57903  MISS:          0  HIT %:        100  MISS %:          0   MPKI: 0
PSCL3 LOAD      ACCESS:          0  HIT:          0  MISS:          0  HIT %:       -nan  MISS %:       -nan   MPKI: 0
PSCL3 RFO       ACCESS:          0  HIT:          0  MISS:          0  HIT %:       -nan  MISS %:       -nan   MPKI: 0
PSCL3 PREFETCH  ACCESS:          0  HIT:          0  MISS:          0  HIT %:       -nan  MISS %:       -nan   MPKI: 0
PSCL3 WRITEBACK ACCESS:          0  HIT:          0  MISS:          0  HIT %:       -nan  MISS %:       -nan   MPKI: 0
PSCL2 TOTAL     ACCESS:      57903  HIT:      46029  MISS:      11874  HIT %:    79.4933  MISS %:    20.5067   MPKI: 0.059321
PSCL2 LOAD      ACCESS:          0  HIT:          0  MISS:          0  HIT %:       -nan  MISS %:       -nan   MPKI: 0
PSCL2 RFO       ACCESS:          0  HIT:          0  MISS:          0  HIT %:       -nan  MISS %:       -nan   MPKI: 0
PSCL2 PREFETCH  ACCESS:          0  HIT:          0  MISS:          0  HIT %:       -nan  MISS %:       -nan   MPKI: 0
PSCL2 WRITEBACK ACCESS:          0  HIT:          0  MISS:          0  HIT %:       -nan  MISS %:       -nan   MPKI: 0

stream: 
stream:times selected: 16678832
stream:pref_filled: 9928612
stream:pref_useful: 293740
stream:pref_late: 159880
stream:misses: 2320315
stream:misses_by_poll: 0

CS: 
CS:times selected: 3750663
CS:pref_filled: 1471664
CS:pref_useful: 1372661
CS:pref_late: 48151
CS:misses: 244936
CS:misses_by_poll: 1507

CPLX: 
CPLX:times selected: 12842983
CPLX:pref_filled: 425594
CPLX:pref_useful: 18225
CPLX:pref_late: 5921
CPLX:misses: 8511864
CPLX:misses_by_poll: 206

NL_L1: 
NL:times selected: 15477
NL:pref_filled: 8178
NL:pref_useful: 638
NL:pref_late: 80
NL:misses: 9396
NL:misses_by_poll: 0

total selections: 33287955
total_filled: 9903115
total_useful: 1313962
total_late: 220331
total_polluted: 1713
total_misses_after_warmup: 9372841
conflicts: 423
Degree Incremented Times: 949935
Degree Decremented Times: 2101330

L1 IP Table Write Accesses: 192777071
L1 IP Table Read Accesses: 192776648
L1 RST Write Accesses: 53824824
L1 RST Read Accesses: 107649648
L1 CSPT Write Accesses: 53824824
L1 CSPT Read Accesses: 94610787
L1 RR Filter Tag Write Accesses: 52704281
L1 RR Filter Tag Read Accesses: 2620231375
L1 IP Table Tag Write Accesses: 192780764
L1 IP Table Tag Read Accesses: 192780764
L1 RST Tag Write Accesses: 0
L1 RST Tag Read Accesses: 479228662
L1 RR Filter Write Accesses: 0
L1 RR Filter Read Accesses: 92043671
test: 20949743
LLC TOTAL     ACCESS:   17168346  HIT:    9523102  MISS:    7645244  HIT %:     55.469  MISS %:     44.531   MPKI: 38.1946
LLC LOAD      ACCESS:    7389876  HIT:    4436468  MISS:    2953408  HIT %:    60.0344  MISS %:    39.9656   MPKI: 14.7548
LLC RFO       ACCESS:     201123  HIT:      83748  MISS:     117375  HIT %:    41.6402  MISS %:    58.3598   MPKI: 0.58639
LLC PREFETCH  ACCESS:    8658710  HIT:    4191826  MISS:    4466884  HIT %:    48.4117  MISS %:    51.5883   MPKI: 22.316
LLC WRITEBACK ACCESS:     873331  HIT:     802366  MISS:      70965  HIT %:    91.8742  MISS %:    8.12579   MPKI: 0.354532

RAW hits: 78018
Loads Generated: 76871522
Loads sent to L1D: 76793504
Stores Generated: 2205511
Stores sent to L1D: 2205511

CPU 2 cumulative IPC: 0.245848 instructions: 200227803 cycles: 814437088
ITLB TOTAL     ACCESS:   24746697  HIT:   24746697  MISS:          0  HIT %:        100  MISS %:          0   MPKI: 0
ITLB LOAD      ACCESS:          0  HIT:          0  MISS:          0  HIT %:       -nan  MISS %:       -nan   MPKI: 0
ITLB RFO       ACCESS:          0  HIT:          0  MISS:          0  HIT %:       -nan  MISS %:       -nan   MPKI: 0
ITLB PREFETCH  ACCESS:          0  HIT:          0  MISS:          0  HIT %:       -nan  MISS %:       -nan   MPKI: 0
ITLB WRITEBACK ACCESS:          0  HIT:          0  MISS:          0  HIT %:       -nan  MISS %:       -nan   MPKI: 0
DTLB TOTAL     ACCESS:   41681661  HIT:   37128350  MISS:    4553311  HIT %:     89.076  MISS %:     10.924   MPKI: 22.7407
DTLB LOAD      ACCESS:          0  HIT:          0  MISS:          0  HIT %:       -nan  MISS %:       -nan   MPKI: 0
DTLB RFO       ACCESS:          0  HIT:          0  MISS:          0  HIT %:       -nan  MISS %:       -nan   MPKI: 0
DTLB PREFETCH  ACCESS:          0  HIT:          0  MISS:          0  HIT %:       -nan  MISS %:       -nan   MPKI: 0
DTLB WRITEBACK ACCESS:          0  HIT:          0  MISS:          0  HIT %:       -nan  MISS %:       -nan   MPKI: 0
STLB TOTAL     ACCESS:   13240639  HIT:   13182682  MISS:      57957  HIT %:    99.5623  MISS %:   0.437721   MPKI: 0.289455
STLB LOAD      ACCESS:          0  HIT:          0  MISS:          0  HIT %:       -nan  MISS %:       -nan   MPKI: 0
STLB RFO       ACCESS:          0  HIT:          0  MISS:          0  HIT %:       -nan  MISS %:       -nan   MPKI: 0
STLB PREFETCH  ACCESS:          0  HIT:          0  MISS:          0  HIT %:       -nan  MISS %:       -nan   MPKI: 0
STLB WRITEBACK ACCESS:          0  HIT:          0  MISS:          0  HIT %:       -nan  MISS %:       -nan   MPKI: 0
L1D TOTAL     ACCESS:   62673342  HIT:   43030798  MISS:   19642544  HIT %:    68.6589  MISS %:    31.3411   MPKI: 98.101
L1D LOAD      ACCESS:   48032199  HIT:   38837341  MISS:    9194858  HIT %:    80.8569  MISS %:    19.1431   MPKI: 45.922
L1D RFO       ACCESS:    2033733  HIT:    1494290  MISS:     539443  HIT %:    73.4752  MISS %:    26.5248   MPKI: 2.69415
L1D PREFETCH  ACCESS:   12607410  HIT:    2699167  MISS:    9908243  HIT %:    21.4094  MISS %:    78.5906   MPKI: 49.4849
L1D WRITEBACK ACCESS:          0  HIT:          0  MISS:          0  HIT %:       -nan  MISS %:       -nan   MPKI: 0
L1I TOTAL     ACCESS:   25410726  HIT:   25410726  MISS:          0  HIT %:        100  MISS %:          0   MPKI: 0
L1I LOAD      ACCESS:   25410726  HIT:   25410726  MISS:          0  HIT %:        100  MISS %:          0   MPKI: 0
L1I RFO       ACCESS:          0  HIT:          0  MISS:          0  HIT %:       -nan  MISS %:       -nan   MPKI: 0
L1I PREFETCH  ACCESS:          0  HIT:          0  MISS:          0  HIT %:       -nan  MISS %:       -nan   MPKI: 0
L1I WRITEBACK ACCESS:          0  HIT:          0  MISS:          0  HIT %:       -nan  MISS %:       -nan   MPKI: 0
L2C TOTAL     ACCESS:   21177484  HIT:    4841489  MISS:   16335995  HIT %:    22.8615  MISS %:    77.1385   MPKI: 81.587
L2C LOAD      ACCESS:    9015923  HIT:    1631337  MISS:    7384586  HIT %:     18.094  MISS %:     81.906   MPKI: 36.8809
L2C RFO       ACCESS:     539405  HIT:     338593  MISS:     200812  HIT %:    62.7716  MISS %:    37.2284   MPKI: 1.00292
L2C PREFETCH  ACCESS:   10087161  HIT:    1431476  MISS:    8655685  HIT %:    14.1911  MISS %:    85.8089   MPKI: 43.2292
L2C WRITEBACK ACCESS:    1465161  HIT:    1416675  MISS:      48486  HIT %:    96.6907  MISS %:    3.30926   MPKI: 0.242154
PSCL5 TOTAL     ACCESS:      57957  HIT:      57957  MISS:          0  HIT %:        100  MISS %:          0   MPKI: 0
PSCL5 LOAD      ACCESS:          0  HIT:          0  MISS:          0  HIT %:       -nan  MISS %:       -nan   MPKI: 0
PSCL5 RFO       ACCESS:          0  HIT:          0  MISS:          0  HIT %:       -nan  MISS %:       -nan   MPKI: 0
PSCL5 PREFETCH  ACCESS:          0  HIT:          0  MISS:          0  HIT %:       -nan  MISS %:       -nan   MPKI: 0
PSCL5 WRITEBACK ACCESS:          0  HIT:          0  MISS:          0  HIT %:       -nan  MISS %:       -nan   MPKI: 0
PSCL4 TOTAL     ACCESS:      57957  HIT:      57957  MISS:          0  HIT %:        100  MISS %:          0   MPKI: 0
PSCL4 LOAD      ACCESS:          0  HIT:          0  MISS:          0  HIT %:       -nan  MISS %:       -nan   MPKI: 0
PSCL4 RFO       ACCESS:          0  HIT:          0  MISS:          0  HIT %:       -nan  MISS %:       -nan   MPKI: 0
PSCL4 PREFETCH  ACCESS:          0  HIT:          0  MISS:          0  HIT %:       -nan  MISS %:       -nan   MPKI: 0
PSCL4 WRITEBACK ACCESS:          0  HIT:          0  MISS:          0  HIT %:       -nan  MISS %:       -nan   MPKI: 0
PSCL3 TOTAL     ACCESS:      57957  HIT:      57957  MISS:          0  HIT %:        100  MISS %:          0   MPKI: 0
PSCL3 LOAD      ACCESS:          0  HIT:          0  MISS:          0  HIT %:       -nan  MISS %:       -nan   MPKI: 0
PSCL3 RFO       ACCESS:          0  HIT:          0  MISS:          0  HIT %:       -nan  MISS %:       -nan   MPKI: 0
PSCL3 PREFETCH  ACCESS:          0  HIT:          0  MISS:          0  HIT %:       -nan  MISS %:       -nan   MPKI: 0
PSCL3 WRITEBACK ACCESS:          0  HIT:          0  MISS:          0  HIT %:       -nan  MISS %:       -nan   MPKI: 0
PSCL2 TOTAL     ACCESS:      57957  HIT:      46078  MISS:      11879  HIT %:    79.5038  MISS %:    20.4962   MPKI: 0.0593274
PSCL2 LOAD      ACCESS:          0  HIT:          0  MISS:          0  HIT %:       -nan  MISS %:       -nan   MPKI: 0
PSCL2 RFO       ACCESS:          0  HIT:          0  MISS:          0  HIT %:       -nan  MISS %:       -nan   MPKI: 0
PSCL2 PREFETCH  ACCESS:          0  HIT:          0  MISS:          0  HIT %:       -nan  MISS %:       -nan   MPKI: 0
PSCL2 WRITEBACK ACCESS:          0  HIT:          0  MISS:          0  HIT %:       -nan  MISS %:       -nan   MPKI: 0

stream: 
stream:times selected: 16679437
stream:pref_filled: 9957433
stream:pref_useful: 288607
stream:pref_late: 159867
stream:misses: 2319512
stream:misses_by_poll: 0

CS: 
CS:times selected: 3749603
CS:pref_filled: 1484282
CS:pref_useful: 1385026
CS:pref_late: 45182
CS:misses: 236546
CS:misses_by_poll: 1489

CPLX: 
CPLX:times selected: 12844529
CPLX:pref_filled: 427499
CPLX:pref_useful: 18390
CPLX:pref_late: 5974
CPLX:misses: 8513296
CPLX:misses_by_poll: 231

NL_L1: 
NL:times selected: 15650
NL:pref_filled: 8395
NL:pref_useful: 643
NL:pref_late: 87
NL:misses: 9463
NL:misses_by_poll: 0

total selections: 33289219
total_filled: 9908243
total_useful: 1314555
total_late: 217452
total_polluted: 1720
total_misses_after_warmup: 9375090
conflicts: 423
Degree Incremented Times: 949935
Degree Decremented Times: 2101330

L1 IP Table Write Accesses: 192777071
L1 IP Table Read Accesses: 192776648
L1 RST Write Accesses: 53824824
L1 RST Read Accesses: 107649648
L1 CSPT Write Accesses: 53824824
L1 CSPT Read Accesses: 94610787
L1 RR Filter Tag Write Accesses: 52704281
L1 RR Filter Tag Read Accesses: 2620231375
L1 IP Table Tag Write Accesses: 192780764
L1 IP Table Tag Read Accesses: 192780764
L1 RST Tag Write Accesses: 0
L1 RST Tag Read Accesses: 479228662
L1 RR Filter Write Accesses: 0
L1 RR Filter Read Accesses: 92043671
test: 20949743
LLC TOTAL     ACCESS:   17157429  HIT:    9514691  MISS:    7642738  HIT %:    55.4552  MISS %:    44.5448   MPKI: 38.1702
LLC LOAD      ACCESS:    7384585  HIT:    4430960  MISS:    2953625  HIT %:    60.0028  MISS %:    39.9972   MPKI: 14.7513
LLC RFO       ACCESS:     200812  HIT:      83333  MISS:     117479  HIT %:     41.498  MISS %:     58.502   MPKI: 0.586727
LLC PREFETCH  ACCESS:    8655681  HIT:    4189531  MISS:    4466150  HIT %:    48.4021  MISS %:    51.5979   MPKI: 22.3053
LLC WRITEBACK ACCESS:     869925  HIT:     801135  MISS:      68790  HIT %:    92.0924  MISS %:    7.90758   MPKI: 0.343559

RAW hits: 78249
Loads Generated: 76895934
Loads sent to L1D: 76817688
Stores Generated: 2205901
Stores sent to L1D: 2205901

CPU 3 cumulative IPC: 0.245568 instructions: 200000001 cycles: 814437088
ITLB TOTAL     ACCESS:   24720653  HIT:   24720653  MISS:          0  HIT %:        100  MISS %:          0   MPKI: 0
ITLB LOAD      ACCESS:          0  HIT:          0  MISS:          0  HIT %:       -nan  MISS %:       -nan   MPKI: 0
ITLB RFO       ACCESS:          0  HIT:          0  MISS:          0  HIT %:       -nan  MISS %:       -nan   MPKI: 0
ITLB PREFETCH  ACCESS:          0  HIT:          0  MISS:          0  HIT %:       -nan  MISS %:       -nan   MPKI: 0
ITLB WRITEBACK ACCESS:          0  HIT:          0  MISS:          0  HIT %:       -nan  MISS %:       -nan   MPKI: 0
DTLB TOTAL     ACCESS:   41639868  HIT:   37095744  MISS:    4544124  HIT %:    89.0871  MISS %:    10.9129   MPKI: 22.7206
DTLB LOAD      ACCESS:          0  HIT:          0  MISS:          0  HIT %:       -nan  MISS %:       -nan   MPKI: 0
DTLB RFO       ACCESS:          0  HIT:          0  MISS:          0  HIT %:       -nan  MISS %:       -nan   MPKI: 0
DTLB PREFETCH  ACCESS:          0  HIT:          0  MISS:          0  HIT %:       -nan  MISS %:       -nan   MPKI: 0
DTLB WRITEBACK ACCESS:          0  HIT:          0  MISS:          0  HIT %:       -nan  MISS %:       -nan   MPKI: 0
STLB TOTAL     ACCESS:   13222554  HIT:   13164760  MISS:      57794  HIT %:    99.5629  MISS %:   0.437087   MPKI: 0.28897
STLB LOAD      ACCESS:          0  HIT:          0  MISS:          0  HIT %:       -nan  MISS %:       -nan   MPKI: 0
STLB RFO       ACCESS:          0  HIT:          0  MISS:          0  HIT %:       -nan  MISS %:       -nan   MPKI: 0
STLB PREFETCH  ACCESS:          0  HIT:          0  MISS:          0  HIT %:       -nan  MISS %:       -nan   MPKI: 0
STLB WRITEBACK ACCESS:          0  HIT:          0  MISS:          0  HIT %:       -nan  MISS %:       -nan   MPKI: 0
L1D TOTAL     ACCESS:   62615047  HIT:   42993793  MISS:   19621254  HIT %:    68.6637  MISS %:    31.3363   MPKI: 98.1063
L1D LOAD      ACCESS:   47982745  HIT:   38799392  MISS:    9183353  HIT %:    80.8611  MISS %:    19.1389   MPKI: 45.9168
L1D RFO       ACCESS:    2032891  HIT:    1493662  MISS:     539229  HIT %:    73.4748  MISS %:    26.5252   MPKI: 2.69614
L1D PREFETCH  ACCESS:   12599411  HIT:    2700739  MISS:    9898672  HIT %:    21.4354  MISS %:    78.5646   MPKI: 49.4934
L1D WRITEBACK ACCESS:          0  HIT:          0  MISS:          0  HIT %:       -nan  MISS %:       -nan   MPKI: 0
L1I TOTAL     ACCESS:   25384280  HIT:   25384280  MISS:          0  HIT %:        100  MISS %:          0   MPKI: 0
L1I LOAD      ACCESS:   25384280  HIT:   25384280  MISS:          0  HIT %:        100  MISS %:          0   MPKI: 0
L1I RFO       ACCESS:          0  HIT:          0  MISS:          0  HIT %:       -nan  MISS %:       -nan   MPKI: 0
L1I PREFETCH  ACCESS:          0  HIT:          0  MISS:          0  HIT %:       -nan  MISS %:       -nan   MPKI: 0
L1I WRITEBACK ACCESS:          0  HIT:          0  MISS:          0  HIT %:       -nan  MISS %:       -nan   MPKI: 0
L2C TOTAL     ACCESS:   21155285  HIT:    4821901  MISS:   16333384  HIT %:    22.7929  MISS %:    77.2071   MPKI: 81.6669
L2C LOAD      ACCESS:    9004688  HIT:    1621362  MISS:    7383326  HIT %:    18.0058  MISS %:    81.9942   MPKI: 36.9166
L2C RFO       ACCESS:     539201  HIT:     338495  MISS:     200706  HIT %:    62.7771  MISS %:    37.2229   MPKI: 1.00353
L2C PREFETCH  ACCESS:   10077324  HIT:    1424513  MISS:    8652811  HIT %:    14.1358  MISS %:    85.8642   MPKI: 43.2641
L2C WRITEBACK ACCESS:    1464417  HIT:    1414610  MISS:      49807  HIT %:    96.5989  MISS %:    3.40115   MPKI: 0.249035
PSCL5 TOTAL     ACCESS:      57794  HIT:      57794  MISS:          0  HIT %:        100  MISS %:          0   MPKI: 0
PSCL5 LOAD      ACCESS:          0  HIT:          0  MISS:          0  HIT %:       -nan  MISS %:       -nan   MPKI: 0
PSCL5 RFO       ACCESS:          0  HIT:          0  MISS:          0  HIT %:       -nan  MISS %:       -nan   MPKI: 0
PSCL5 PREFETCH  ACCESS:          0  HIT:          0  MISS:          0  HIT %:       -nan  MISS %:       -nan   MPKI: 0
PSCL5 WRITEBACK ACCESS:          0  HIT:          0  MISS:          0  HIT %:       -nan  MISS %:       -nan   MPKI: 0
PSCL4 TOTAL     ACCESS:      57794  HIT:      57794  MISS:          0  HIT %:        100  MISS %:          0   MPKI: 0
PSCL4 LOAD      ACCESS:          0  HIT:          0  MISS:          0  HIT %:       -nan  MISS %:       -nan   MPKI: 0
PSCL4 RFO       ACCESS:          0  HIT:          0  MISS:          0  HIT %:       -nan  MISS %:       -nan   MPKI: 0
PSCL4 PREFETCH  ACCESS:          0  HIT:          0  MISS:          0  HIT %:       -nan  MISS %:       -nan   MPKI: 0
PSCL4 WRITEBACK ACCESS:          0  HIT:          0  MISS:          0  HIT %:       -nan  MISS %:       -nan   MPKI: 0
PSCL3 TOTAL     ACCESS:      57794  HIT:      57794  MISS:          0  HIT %:        100  MISS %:          0   MPKI: 0
PSCL3 LOAD      ACCESS:          0  HIT:          0  MISS:          0  HIT %:       -nan  MISS %:       -nan   MPKI: 0
PSCL3 RFO       ACCESS:          0  HIT:          0  MISS:          0  HIT %:       -nan  MISS %:       -nan   MPKI: 0
PSCL3 PREFETCH  ACCESS:          0  HIT:          0  MISS:          0  HIT %:       -nan  MISS %:       -nan   MPKI: 0
PSCL3 WRITEBACK ACCESS:          0  HIT:          0  MISS:          0  HIT %:       -nan  MISS %:       -nan   MPKI: 0
PSCL2 TOTAL     ACCESS:      57794  HIT:      45931  MISS:      11863  HIT %:    79.4736  MISS %:    20.5264   MPKI: 0.059315
PSCL2 LOAD      ACCESS:          0  HIT:          0  MISS:          0  HIT %:       -nan  MISS %:       -nan   MPKI: 0
PSCL2 RFO       ACCESS:          0  HIT:          0  MISS:          0  HIT %:       -nan  MISS %:       -nan   MPKI: 0
PSCL2 PREFETCH  ACCESS:          0  HIT:          0  MISS:          0  HIT %:       -nan  MISS %:       -nan   MPKI: 0
PSCL2 WRITEBACK ACCESS:          0  HIT:          0  MISS:          0  HIT %:       -nan  MISS %:       -nan   MPKI: 0

stream: 
stream:times selected: 16666848
stream:pref_filled: 9985747
stream:pref_useful: 295006
stream:pref_late: 160841
stream:misses: 2316407
stream:misses_by_poll: 0

CS: 
CS:times selected: 3749752
CS:pref_filled: 1489258
CS:pref_useful: 1389105
CS:pref_late: 43124
CS:misses: 225467
CS:misses_by_poll: 1411

CPLX: 
CPLX:times selected: 12832009
CPLX:pref_filled: 431861
CPLX:pref_useful: 18613
CPLX:pref_late: 5998
CPLX:misses: 8501241
CPLX:misses_by_poll: 218

NL_L1: 
NL:times selected: 15176
NL:pref_filled: 8557
NL:pref_useful: 653
NL:pref_late: 93
NL:misses: 9264
NL:misses_by_poll: 0

total selections: 33263785
total_filled: 9898672
total_useful: 1313454
total_late: 216443
total_polluted: 1629
total_misses_after_warmup: 9362968
conflicts: 423
Degree Incremented Times: 949935
Degree Decremented Times: 2101330

L1 IP Table Write Accesses: 192777071
L1 IP Table Read Accesses: 192776648
L1 RST Write Accesses: 53824824
L1 RST Read Accesses: 107649648
L1 CSPT Write Accesses: 53824824
L1 CSPT Read Accesses: 94610787
L1 RR Filter Tag Write Accesses: 52704281
L1 RR Filter Tag Read Accesses: 2620231375
L1 IP Table Tag Write Accesses: 192780764
L1 IP Table Tag Read Accesses: 192780764
L1 RST Tag Write Accesses: 0
L1 RST Tag Read Accesses: 479228662
L1 RR Filter Write Accesses: 0
L1 RR Filter Read Accesses: 92043671
test: 20949743
LLC TOTAL     ACCESS:   17155642  HIT:    9512071  MISS:    7643571  HIT %:    55.4457  MISS %:    44.5543   MPKI: 38.2179
LLC LOAD      ACCESS:    7383324  HIT:    4429616  MISS:    2953708  HIT %:    59.9949  MISS %:    40.0051   MPKI: 14.7685
LLC RFO       ACCESS:     200705  HIT:      83307  MISS:     117398  HIT %:    41.5072  MISS %:    58.4928   MPKI: 0.58699
LLC PREFETCH  ACCESS:    8652803  HIT:    4186736  MISS:    4466067  HIT %:    48.3859  MISS %:    51.6141   MPKI: 22.3303
LLC WRITEBACK ACCESS:     872076  HIT:     802086  MISS:      69990  HIT %:    91.9743  MISS %:    8.02568   MPKI: 0.34995

RAW hits: 77530
Loads Generated: 76806242
Loads sent to L1D: 76728711
Stores Generated: 2204913
Stores sent to L1D: 2204915

Region of Interest Statistics

CPU 0 cumulative IPC: 0.245703 instructions: 200000002 cycles: 813991828
ITLB TOTAL     ACCESS:   24721407  HIT:   24721407  MISS:          0  HIT %:        100  MISS %:          0   MPKI: 0
ITLB LOAD TRANSLATION ACCESS:   24721407  HIT:   24721407  MISS:          0  HIT %:        100  MISS %:          0   MPKI: 0
ITLB PREFETCH  REQUESTED:          0  ISSUED:          0  USEFUL:          0  USELESS:          0
ITLB USEFUL LOAD PREFETCHES:          0 PREFETCH ISSUED TO LOWER LEVEL:          0  ACCURACY: -nan
ITLB TIMELY PREFETCHES:          0 LATE PREFETCHES: 0 DROPPED PREFETCHES: 0
ITLB PREFETCHES SAME FILL-ORIGIN LEVEL: 0 DIFFERENT FILL-ORIGIN LEVEL: 0
ITLB AVERAGE MISS LATENCY: -nan cycles
ITLB RQ	ACCESS:   25400447	FORWARD:          0	MERGED:     663792	TO_CACHE:   24736655

DTLB TOTAL     ACCESS:   41632738  HIT:   37088365  MISS:    4544373  HIT %:    89.0846  MISS %:    10.9154   MPKI: 22.7219
DTLB LOAD TRANSLATION ACCESS:   41632738  HIT:   37088365  MISS:    4544373  HIT %:    89.0846  MISS %:    10.9154   MPKI: 22.7219
DTLB PREFETCH  REQUESTED:          0  ISSUED:          0  USEFUL:          0  USELESS:          0
DTLB USEFUL LOAD PREFETCHES:          0 PREFETCH ISSUED TO LOWER LEVEL:          0  ACCURACY: -nan
DTLB TIMELY PREFETCHES:          0 LATE PREFETCHES: 0 DROPPED PREFETCHES: 0
DTLB PREFETCHES SAME FILL-ORIGIN LEVEL: 0 DIFFERENT FILL-ORIGIN LEVEL: 0
DTLB AVERAGE MISS LATENCY: 13.3077 cycles
DTLB RQ	ACCESS:   50390042	FORWARD:          0	MERGED:    8491991	TO_CACHE:   41898051

STLB TOTAL     ACCESS:   13221629  HIT:   13163829  MISS:      57800  HIT %:    99.5628  MISS %:   0.437162   MPKI: 0.289
STLB LOAD TRANSLATION ACCESS:    4544373  HIT:    4486573  MISS:      57800  HIT %:    98.7281  MISS %:     1.2719   MPKI: 0.289
STLB TRANSLATION FROM L1D PREFETCHER ACCESS:    8677256  HIT:    8677256  MISS:          0  HIT %:        100  MISS %:          0   MPKI: 0
STLB PREFETCH  REQUESTED:          0  ISSUED:          0  USEFUL:          0  USELESS:          0
STLB USEFUL LOAD PREFETCHES:          0 PREFETCH ISSUED TO LOWER LEVEL:          0  ACCURACY: -nan
STLB TIMELY PREFETCHES:          0 LATE PREFETCHES: 0 DROPPED PREFETCHES: 0
STLB PREFETCHES SAME FILL-ORIGIN LEVEL: 0 DIFFERENT FILL-ORIGIN LEVEL: 0
STLB AVERAGE MISS LATENCY: 316.456 cycles
STLB RQ	ACCESS:   17725456	FORWARD:          0	MERGED:    4493381	TO_CACHE:   13232075

STLB Hit, L1D data hit: 0
STLB Hit, L2C data hit: 0
STLB Hit, LLC data hit: 0
STLB Hit, LLC data miss: 0
STLB STLB hints to L2: 0
L1D TOTAL     ACCESS:   62609439  HIT:   42989413  MISS:   19620026  HIT %:    68.6628  MISS %:    31.3372   MPKI: 98.1001
L1D LOAD      ACCESS:   47978444  HIT:   38794709  MISS:    9183735  HIT %:    80.8586  MISS %:    19.1414   MPKI: 45.9187
L1D RFO       ACCESS:    2032692  HIT:    1493518  MISS:     539174  HIT %:    73.4749  MISS %:    26.5251   MPKI: 2.69587
L1D PREFETCH  ACCESS:   12598303  HIT:    2701186  MISS:    9897117  HIT %:    21.4409  MISS %:    78.5591   MPKI: 49.4856
L1D PREFETCH  REQUESTED:   26353125  ISSUED:   26353125  USEFUL:    1313712  USELESS:    8589757
L1D USEFUL LOAD PREFETCHES:    1313712 PREFETCH ISSUED TO LOWER LEVEL:   10081477  ACCURACY: 13.0309
L1D TIMELY PREFETCHES:    1313712 LATE PREFETCHES: 177978 DROPPED PREFETCHES: 0
L1D PREFETCHES SAME FILL-ORIGIN LEVEL: 10081477 DIFFERENT FILL-ORIGIN LEVEL: 0
L1D AVERAGE MISS LATENCY: 175.284 cycles
L1D RQ	ACCESS:   76775539	FORWARD:          0	MERGED:   28589625	TO_CACHE:   48185395
L1D WQ	ACCESS:    2205331	FORWARD:        519	MERGED:        684	TO_CACHE:    2204647
L1D PQ	ACCESS:   13176584	FORWARD:          0	MERGED:         43	TO_CACHE:   13176541

L1D UNIQUE REGIONS ACCESSED: 0
L1D REGIONS CONFLICTS: 0
L1D Cross Page Prefetch Requests: 0
L1D Same Page Prefetch Requests: 16165734
L1D ROI Sum of L1D PQ occupancy: 149596768
L1D PREFETCHES PUSHED FROM L2C: 0
L1I TOTAL     ACCESS:   25385000  HIT:   25385000  MISS:          0  HIT %:        100  MISS %:          0   MPKI: 0
L1I LOAD      ACCESS:   25385000  HIT:   25385000  MISS:          0  HIT %:        100  MISS %:          0   MPKI: 0
L1I PREFETCH  REQUESTED:          0  ISSUED:          0  USEFUL:          0  USELESS:          0
L1I USEFUL LOAD PREFETCHES:          0 PREFETCH ISSUED TO LOWER LEVEL:          0  ACCURACY: -nan
L1I TIMELY PREFETCHES:          0 LATE PREFETCHES: 0 DROPPED PREFETCHES: 0
L1I PREFETCHES SAME FILL-ORIGIN LEVEL: 0 DIFFERENT FILL-ORIGIN LEVEL: 0
L1I AVERAGE MISS LATENCY: -nan cycles
L1I RQ	ACCESS:   39037362	FORWARD:          0	MERGED:   13636915	TO_CACHE:   25400447

BTB TOTAL     ACCESS:   29073766  HIT:   29073607  MISS:        159  HIT %:    99.9995  MISS %: 0.000546885   MPKI: 0.000795
BTB BRANCH_DIRECT_JUMP	ACCESS:    9228539  HIT:    9228496  MISS:         43
BTB BRANCH_INDIRECT	ACCESS:          0  HIT:          0  MISS:          0
BTB BRANCH_CONDITIONAL	ACCESS:   19842629  HIT:   19842541  MISS:         88
BTB BRANCH_DIRECT_CALL	ACCESS:       1299  HIT:       1288  MISS:         11
BTB BRANCH_INDIRECT_CALL	ACCESS:          0  HIT:          0  MISS:          0
BTB BRANCH_RETURN	ACCESS:       1299  HIT:       1282  MISS:         17
BTB BRANCH_OTHER ACCESS:          0  HIT:          0  MISS:          0

L2C TOTAL     ACCESS:   21153945  HIT:    4814033  MISS:   16339912  HIT %:    22.7571  MISS %:    77.2429   MPKI: 81.6996
L2C LOAD      ACCESS:    9005751  HIT:    1618271  MISS:    7387480  HIT %:    17.9693  MISS %:    82.0307   MPKI: 36.9374
L2C DATA LOAD MPKI: 36.9374
L2C INSTRUCTION LOAD MPKI: 0
L2C RFO       ACCESS:     539146  HIT:     338702  MISS:     200444  HIT %:    62.8219  MISS %:    37.1781   MPKI: 1.00222
L2C PREFETCH  ACCESS:   10075084  HIT:    1421803  MISS:    8653281  HIT %:    14.1121  MISS %:    85.8879   MPKI: 43.2664
L2C DATA PREFETCH MPKI: 43.2664
L2C INSTRUCTION PREFETCH MPKI: 0
L2C WRITEBACK ACCESS:    1464306  HIT:    1411081  MISS:      53225  HIT %:    96.3652  MISS %:    3.63483   MPKI: 0.266125
L2C LOAD TRANSLATION ACCESS:      69658  HIT:      24176  MISS:      45482  HIT %:    34.7067  MISS %:    65.2933   MPKI: 0.22741
L2C PREFETCH  REQUESTED:          0  ISSUED:          0  USEFUL:     240527  USELESS:    8417819
L2C USEFUL LOAD PREFETCHES:     240527 PREFETCH ISSUED TO LOWER LEVEL:    8658484  ACCURACY: 2.77793
L2C TIMELY PREFETCHES:     240527 LATE PREFETCHES: 0 DROPPED PREFETCHES: 0
L2C PREFETCHES SAME FILL-ORIGIN LEVEL: 0 DIFFERENT FILL-ORIGIN LEVEL: 0
L2C AVERAGE MISS LATENCY: 197.951 cycles
L2C RQ	ACCESS:    9620676	FORWARD:          0	MERGED:          0	TO_CACHE:    9620635
L2C WQ	ACCESS:    1464751	FORWARD:         44	MERGED:          0	TO_CACHE:    1464751
L2C PQ	ACCESS:   10081477	FORWARD:          0	MERGED:          0	TO_CACHE:   10081474

L2C Instructions Evicting Data 0
L2C Translations Evicting Data 45400
L2C Data Evicting Data 16205635
L2C Instructions Evicting Instructions 0
L2C Translations Evicting Instructions 0
L2C Data Evicting Instructions 0
L2C Instructions Evicting Translations 0
L2C Translations Evicting Translations 124
L2C Data Evicting Translations 45270
L2C Dense regions hint from L2: 0
PSCL5 TOTAL     ACCESS:      57800  HIT:      57800  MISS:          0  HIT %:        100  MISS %:          0   MPKI: 0
PSCL5 LOAD TRANSLATION ACCESS:      57800  HIT:      57800  MISS:          0  HIT %:        100  MISS %:          0   MPKI: 0
PSCL5 PREFETCH  REQUESTED:          0  ISSUED:          0  USEFUL:          0  USELESS:          0
PSCL5 USEFUL LOAD PREFETCHES:          0 PREFETCH ISSUED TO LOWER LEVEL:          0  ACCURACY: -nan
PSCL5 TIMELY PREFETCHES:          0 LATE PREFETCHES: 0 DROPPED PREFETCHES: 0
PSCL5 PREFETCHES SAME FILL-ORIGIN LEVEL: 0 DIFFERENT FILL-ORIGIN LEVEL: 0

PSCL4 TOTAL     ACCESS:      57800  HIT:      57800  MISS:          0  HIT %:        100  MISS %:          0   MPKI: 0
PSCL4 LOAD TRANSLATION ACCESS:      57800  HIT:      57800  MISS:          0  HIT %:        100  MISS %:          0   MPKI: 0
PSCL4 PREFETCH  REQUESTED:          0  ISSUED:          0  USEFUL:          0  USELESS:          0
PSCL4 USEFUL LOAD PREFETCHES:          0 PREFETCH ISSUED TO LOWER LEVEL:          0  ACCURACY: -nan
PSCL4 TIMELY PREFETCHES:          0 LATE PREFETCHES: 0 DROPPED PREFETCHES: 0
PSCL4 PREFETCHES SAME FILL-ORIGIN LEVEL: 0 DIFFERENT FILL-ORIGIN LEVEL: 0

PSCL3 TOTAL     ACCESS:      57800  HIT:      57800  MISS:          0  HIT %:        100  MISS %:          0   MPKI: 0
PSCL3 LOAD TRANSLATION ACCESS:      57800  HIT:      57800  MISS:          0  HIT %:        100  MISS %:          0   MPKI: 0
PSCL3 PREFETCH  REQUESTED:          0  ISSUED:          0  USEFUL:          0  USELESS:          0
PSCL3 USEFUL LOAD PREFETCHES:          0 PREFETCH ISSUED TO LOWER LEVEL:          0  ACCURACY: -nan
PSCL3 TIMELY PREFETCHES:          0 LATE PREFETCHES: 0 DROPPED PREFETCHES: 0
PSCL3 PREFETCHES SAME FILL-ORIGIN LEVEL: 0 DIFFERENT FILL-ORIGIN LEVEL: 0

PSCL2 TOTAL     ACCESS:      57800  HIT:      45940  MISS:      11860  HIT %:     79.481  MISS %:     20.519   MPKI: 0.0593
PSCL2 LOAD TRANSLATION ACCESS:      57800  HIT:      45940  MISS:      11860  HIT %:     79.481  MISS %:     20.519   MPKI: 0.0593
PSCL2 PREFETCH  REQUESTED:          0  ISSUED:          0  USEFUL:          0  USELESS:          0
PSCL2 USEFUL LOAD PREFETCHES:          0 PREFETCH ISSUED TO LOWER LEVEL:          0  ACCURACY: -nan
PSCL2 TIMELY PREFETCHES:          0 LATE PREFETCHES: 0 DROPPED PREFETCHES: 0
PSCL2 PREFETCHES SAME FILL-ORIGIN LEVEL: 0 DIFFERENT FILL-ORIGIN LEVEL: 0

LLC TOTAL     ACCESS:   17161361  HIT:    9521362  MISS:    7639999  HIT %:    55.4814  MISS %:    44.5186   MPKI: 38.2
LLC LOAD      ACCESS:    7387478  HIT:    4434555  MISS:    2952923  HIT %:     60.028  MISS %:     39.972   MPKI: 14.7646
LLC RFO       ACCESS:     200443  HIT:      83043  MISS:     117400  HIT %:    41.4297  MISS %:    58.5703   MPKI: 0.587
LLC PREFETCH  ACCESS:    8653280  HIT:    4190389  MISS:    4462891  HIT %:    48.4254  MISS %:    51.5746   MPKI: 22.3145
LLC WRITEBACK ACCESS:     874678  HIT:     804709  MISS:      69969  HIT %:    92.0006  MISS %:     7.9994   MPKI: 0.349845
LLC LOAD TRANSLATION ACCESS:      45482  HIT:       8666  MISS:      36816  HIT %:    19.0537  MISS %:    80.9463   MPKI: 0.18408
LLC PREFETCH  REQUESTED:          0  ISSUED:          0  USEFUL:    1729683  USELESS:   16137477
LLC USEFUL LOAD PREFETCHES:    1729683 PREFETCH ISSUED TO LOWER LEVEL:   17864548  ACCURACY: 9.68221
LLC TIMELY PREFETCHES:    1729683 LATE PREFETCHES: 0 DROPPED PREFETCHES: 0
LLC PREFETCHES SAME FILL-ORIGIN LEVEL: 0 DIFFERENT FILL-ORIGIN LEVEL: 0
LLC AVERAGE MISS LATENCY: 1436.97 cycles
LLC RQ	ACCESS:   30536854	FORWARD:          0	MERGED:          0	TO_CACHE:   30536846
LLC WQ	ACCESS:    3490277	FORWARD:         25	MERGED:          0	TO_CACHE:    3490277
LLC PQ	ACCESS:   34625697	FORWARD:          0	MERGED:          0	TO_CACHE:   34625680

LLC Dense regions hint to LLC: 0

RAW hits: 77786
Loads Generated: 76806494
Loads sent to L1D: 76728703
Stores Generated: 2204760
Stores sent to L1D: 2204760
Major fault: 0 Minor fault: 36573
Allocated PAGES: 146306

CPU 1 cumulative IPC: 0.24576 instructions: 200000000 cycles: 813800691
ITLB TOTAL     ACCESS:   24719121  HIT:   24719121  MISS:          0  HIT %:        100  MISS %:          0   MPKI: 0
ITLB LOAD TRANSLATION ACCESS:   24719121  HIT:   24719121  MISS:          0  HIT %:        100  MISS %:          0   MPKI: 0
ITLB PREFETCH  REQUESTED:          0  ISSUED:          0  USEFUL:          0  USELESS:          0
ITLB USEFUL LOAD PREFETCHES:          0 PREFETCH ISSUED TO LOWER LEVEL:          0  ACCURACY: -nan
ITLB TIMELY PREFETCHES:          0 LATE PREFETCHES: 0 DROPPED PREFETCHES: 0
ITLB PREFETCHES SAME FILL-ORIGIN LEVEL: 0 DIFFERENT FILL-ORIGIN LEVEL: 0
ITLB AVERAGE MISS LATENCY: -nan cycles
ITLB RQ	ACCESS:   25403963	FORWARD:          0	MERGED:     663853	TO_CACHE:   24740110

DTLB TOTAL     ACCESS:   41634437  HIT:   37089929  MISS:    4544508  HIT %:    89.0847  MISS %:    10.9153   MPKI: 22.7225
DTLB LOAD TRANSLATION ACCESS:   41634437  HIT:   37089929  MISS:    4544508  HIT %:    89.0847  MISS %:    10.9153   MPKI: 22.7225
DTLB PREFETCH  REQUESTED:          0  ISSUED:          0  USEFUL:          0  USELESS:          0
DTLB USEFUL LOAD PREFETCHES:          0 PREFETCH ISSUED TO LOWER LEVEL:          0  ACCURACY: -nan
DTLB TIMELY PREFETCHES:          0 LATE PREFETCHES: 0 DROPPED PREFETCHES: 0
DTLB PREFETCHES SAME FILL-ORIGIN LEVEL: 0 DIFFERENT FILL-ORIGIN LEVEL: 0
DTLB AVERAGE MISS LATENCY: 13.266 cycles
DTLB RQ	ACCESS:   50401716	FORWARD:          0	MERGED:    8492742	TO_CACHE:   41908974

STLB TOTAL     ACCESS:   13218655  HIT:   13160853  MISS:      57802  HIT %:    99.5627  MISS %:   0.437276   MPKI: 0.28901
STLB LOAD TRANSLATION ACCESS:    4544508  HIT:    4486706  MISS:      57802  HIT %:    98.7281  MISS %:    1.27191   MPKI: 0.28901
STLB TRANSLATION FROM L1D PREFETCHER ACCESS:    8674147  HIT:    8674147  MISS:          0  HIT %:        100  MISS %:          0   MPKI: 0
STLB PREFETCH  REQUESTED:          0  ISSUED:          0  USEFUL:          0  USELESS:          0
STLB USEFUL LOAD PREFETCHES:          0 PREFETCH ISSUED TO LOWER LEVEL:          0  ACCURACY: -nan
STLB TIMELY PREFETCHES:          0 LATE PREFETCHES: 0 DROPPED PREFETCHES: 0
STLB PREFETCHES SAME FILL-ORIGIN LEVEL: 0 DIFFERENT FILL-ORIGIN LEVEL: 0
STLB AVERAGE MISS LATENCY: 312.897 cycles
STLB RQ	ACCESS:   17724247	FORWARD:          0	MERGED:    4491200	TO_CACHE:   13233047

STLB Hit, L1D data hit: 0
STLB Hit, L2C data hit: 0
STLB Hit, LLC data hit: 0
STLB Hit, LLC data miss: 0
STLB STLB hints to L2: 0
L1D TOTAL     ACCESS:   62602240  HIT:   42984955  MISS:   19617285  HIT %:    68.6636  MISS %:    31.3364   MPKI: 98.0864
L1D LOAD      ACCESS:   47977908  HIT:   38794098  MISS:    9183810  HIT %:    80.8583  MISS %:    19.1417   MPKI: 45.919
L1D RFO       ACCESS:    2032419  HIT:    1493243  MISS:     539176  HIT %:    73.4712  MISS %:    26.5288   MPKI: 2.69588
L1D PREFETCH  ACCESS:   12591913  HIT:    2697614  MISS:    9894299  HIT %:    21.4234  MISS %:    78.5766   MPKI: 49.4715
L1D PREFETCH  REQUESTED:   26347087  ISSUED:   26347087  USEFUL:    1313962  USELESS:    8589152
L1D USEFUL LOAD PREFETCHES:    1313962 PREFETCH ISSUED TO LOWER LEVEL:   10082071  ACCURACY: 13.0327
L1D TIMELY PREFETCHES:    1313962 LATE PREFETCHES: 178942 DROPPED PREFETCHES: 0
L1D PREFETCHES SAME FILL-ORIGIN LEVEL: 10082071 DIFFERENT FILL-ORIGIN LEVEL: 0
L1D AVERAGE MISS LATENCY: 175.244 cycles
L1D RQ	ACCESS:   76793504	FORWARD:          0	MERGED:   28596094	TO_CACHE:   48196890
L1D WQ	ACCESS:    2205511	FORWARD:        520	MERGED:        685	TO_CACHE:    2204826
L1D PQ	ACCESS:   13173574	FORWARD:          0	MERGED:         61	TO_CACHE:   13173513

L1D UNIQUE REGIONS ACCESSED: 0
L1D REGIONS CONFLICTS: 0
L1D Cross Page Prefetch Requests: 0
L1D Same Page Prefetch Requests: 16012524
L1D ROI Sum of L1D PQ occupancy: 149516627
L1D PREFETCHES PUSHED FROM L2C: 0
L1I TOTAL     ACCESS:   25382679  HIT:   25382679  MISS:          0  HIT %:        100  MISS %:          0   MPKI: 0
L1I LOAD      ACCESS:   25382679  HIT:   25382679  MISS:          0  HIT %:        100  MISS %:          0   MPKI: 0
L1I PREFETCH  REQUESTED:          0  ISSUED:          0  USEFUL:          0  USELESS:          0
L1I USEFUL LOAD PREFETCHES:          0 PREFETCH ISSUED TO LOWER LEVEL:          0  ACCURACY: -nan
L1I TIMELY PREFETCHES:          0 LATE PREFETCHES: 0 DROPPED PREFETCHES: 0
L1I PREFETCHES SAME FILL-ORIGIN LEVEL: 0 DIFFERENT FILL-ORIGIN LEVEL: 0
L1I AVERAGE MISS LATENCY: -nan cycles
L1I RQ	ACCESS:   39046023	FORWARD:          0	MERGED:   13642060	TO_CACHE:   25403963

BTB TOTAL     ACCESS:   29073867  HIT:   29073708  MISS:        159  HIT %:    99.9995  MISS %: 0.000546883   MPKI: 0.000795
BTB BRANCH_DIRECT_JUMP	ACCESS:    9228580  HIT:    9228537  MISS:         43
BTB BRANCH_INDIRECT	ACCESS:          0  HIT:          0  MISS:          0
BTB BRANCH_CONDITIONAL	ACCESS:   19842689  HIT:   19842601  MISS:         88
BTB BRANCH_DIRECT_CALL	ACCESS:       1299  HIT:       1288  MISS:         11
BTB BRANCH_INDIRECT_CALL	ACCESS:          0  HIT:          0  MISS:          0
BTB BRANCH_RETURN	ACCESS:       1299  HIT:       1282  MISS:         17
BTB BRANCH_OTHER ACCESS:          0  HIT:          0  MISS:          0

L2C TOTAL     ACCESS:   21151103  HIT:    4819547  MISS:   16331556  HIT %:    22.7863  MISS %:    77.2137   MPKI: 81.6578
L2C LOAD      ACCESS:    9004882  HIT:    1621135  MISS:    7383747  HIT %:    18.0028  MISS %:    81.9972   MPKI: 36.9187
L2C DATA LOAD MPKI: 36.9187
L2C INSTRUCTION LOAD MPKI: 0
L2C RFO       ACCESS:     539137  HIT:     338097  MISS:     201040  HIT %:    62.7108  MISS %:    37.2892   MPKI: 1.0052
L2C PREFETCH  ACCESS:   10073219  HIT:    1421700  MISS:    8651519  HIT %:    14.1137  MISS %:    85.8863   MPKI: 43.2576
L2C DATA PREFETCH MPKI: 43.2576
L2C INSTRUCTION PREFETCH MPKI: 0
L2C WRITEBACK ACCESS:    1464202  HIT:    1414183  MISS:      50019  HIT %:    96.5839  MISS %:    3.41613   MPKI: 0.250095
L2C LOAD TRANSLATION ACCESS:      69663  HIT:      24432  MISS:      45231  HIT %:    35.0717  MISS %:    64.9283   MPKI: 0.226155
L2C PREFETCH  REQUESTED:          0  ISSUED:          0  USEFUL:     240842  USELESS:    8417823
L2C USEFUL LOAD PREFETCHES:     240842 PREFETCH ISSUED TO LOWER LEVEL:    8658716  ACCURACY: 2.7815
L2C TIMELY PREFETCHES:     240842 LATE PREFETCHES: 0 DROPPED PREFETCHES: 0
L2C PREFETCHES SAME FILL-ORIGIN LEVEL: 0 DIFFERENT FILL-ORIGIN LEVEL: 0
L2C AVERAGE MISS LATENCY: 197.978 cycles
L2C RQ	ACCESS:    9622119	FORWARD:          0	MERGED:          0	TO_CACHE:    9622081
L2C WQ	ACCESS:    1464841	FORWARD:         47	MERGED:          0	TO_CACHE:    1464841
L2C PQ	ACCESS:   10082071	FORWARD:          0	MERGED:          0	TO_CACHE:   10082062

L2C Instructions Evicting Data 0
L2C Translations Evicting Data 45202
L2C Data Evicting Data 16204664
L2C Instructions Evicting Instructions 0
L2C Translations Evicting Instructions 0
L2C Data Evicting Instructions 0
L2C Instructions Evicting Translations 0
L2C Translations Evicting Translations 104
L2C Data Evicting Translations 45048
L2C Dense regions hint from L2: 0
PSCL5 TOTAL     ACCESS:      57802  HIT:      57802  MISS:          0  HIT %:        100  MISS %:          0   MPKI: 0
PSCL5 LOAD TRANSLATION ACCESS:      57802  HIT:      57802  MISS:          0  HIT %:        100  MISS %:          0   MPKI: 0
PSCL5 PREFETCH  REQUESTED:          0  ISSUED:          0  USEFUL:          0  USELESS:          0
PSCL5 USEFUL LOAD PREFETCHES:          0 PREFETCH ISSUED TO LOWER LEVEL:          0  ACCURACY: -nan
PSCL5 TIMELY PREFETCHES:          0 LATE PREFETCHES: 0 DROPPED PREFETCHES: 0
PSCL5 PREFETCHES SAME FILL-ORIGIN LEVEL: 0 DIFFERENT FILL-ORIGIN LEVEL: 0

PSCL4 TOTAL     ACCESS:      57802  HIT:      57802  MISS:          0  HIT %:        100  MISS %:          0   MPKI: 0
PSCL4 LOAD TRANSLATION ACCESS:      57802  HIT:      57802  MISS:          0  HIT %:        100  MISS %:          0   MPKI: 0
PSCL4 PREFETCH  REQUESTED:          0  ISSUED:          0  USEFUL:          0  USELESS:          0
PSCL4 USEFUL LOAD PREFETCHES:          0 PREFETCH ISSUED TO LOWER LEVEL:          0  ACCURACY: -nan
PSCL4 TIMELY PREFETCHES:          0 LATE PREFETCHES: 0 DROPPED PREFETCHES: 0
PSCL4 PREFETCHES SAME FILL-ORIGIN LEVEL: 0 DIFFERENT FILL-ORIGIN LEVEL: 0

PSCL3 TOTAL     ACCESS:      57802  HIT:      57802  MISS:          0  HIT %:        100  MISS %:          0   MPKI: 0
PSCL3 LOAD TRANSLATION ACCESS:      57802  HIT:      57802  MISS:          0  HIT %:        100  MISS %:          0   MPKI: 0
PSCL3 PREFETCH  REQUESTED:          0  ISSUED:          0  USEFUL:          0  USELESS:          0
PSCL3 USEFUL LOAD PREFETCHES:          0 PREFETCH ISSUED TO LOWER LEVEL:          0  ACCURACY: -nan
PSCL3 TIMELY PREFETCHES:          0 LATE PREFETCHES: 0 DROPPED PREFETCHES: 0
PSCL3 PREFETCHES SAME FILL-ORIGIN LEVEL: 0 DIFFERENT FILL-ORIGIN LEVEL: 0

PSCL2 TOTAL     ACCESS:      57802  HIT:      45939  MISS:      11863  HIT %:    79.4765  MISS %:    20.5235   MPKI: 0.059315
PSCL2 LOAD TRANSLATION ACCESS:      57802  HIT:      45939  MISS:      11863  HIT %:    79.4765  MISS %:    20.5235   MPKI: 0.059315
PSCL2 PREFETCH  REQUESTED:          0  ISSUED:          0  USEFUL:          0  USELESS:          0
PSCL2 USEFUL LOAD PREFETCHES:          0 PREFETCH ISSUED TO LOWER LEVEL:          0  ACCURACY: -nan
PSCL2 TIMELY PREFETCHES:          0 LATE PREFETCHES: 0 DROPPED PREFETCHES: 0
PSCL2 PREFETCHES SAME FILL-ORIGIN LEVEL: 0 DIFFERENT FILL-ORIGIN LEVEL: 0

LLC TOTAL     ACCESS:   17154489  HIT:    9515140  MISS:    7639349  HIT %:    55.4673  MISS %:    44.5327   MPKI: 38.1967
LLC LOAD      ACCESS:    7383746  HIT:    4432620  MISS:    2951126  HIT %:    60.0321  MISS %:    39.9679   MPKI: 14.7556
LLC RFO       ACCESS:     201040  HIT:      83696  MISS:     117344  HIT %:    41.6315  MISS %:    58.3685   MPKI: 0.58672
LLC PREFETCH  ACCESS:    8651515  HIT:    4188119  MISS:    4463396  HIT %:    48.4091  MISS %:    51.5909   MPKI: 22.317
LLC WRITEBACK ACCESS:     872957  HIT:     802018  MISS:      70939  HIT %:    91.8737  MISS %:    8.12629   MPKI: 0.354695
LLC LOAD TRANSLATION ACCESS:      45231  HIT:       8687  MISS:      36544  HIT %:    19.2059  MISS %:    80.7941   MPKI: 0.18272
LLC PREFETCH  REQUESTED:          0  ISSUED:          0  USEFUL:    1729683  USELESS:   16137477
LLC USEFUL LOAD PREFETCHES:    1729683 PREFETCH ISSUED TO LOWER LEVEL:   17864548  ACCURACY: 9.68221
LLC TIMELY PREFETCHES:    1729683 LATE PREFETCHES: 0 DROPPED PREFETCHES: 0
LLC PREFETCHES SAME FILL-ORIGIN LEVEL: 0 DIFFERENT FILL-ORIGIN LEVEL: 0
LLC AVERAGE MISS LATENCY: 1437.09 cycles
LLC RQ	ACCESS:   30536854	FORWARD:          0	MERGED:          0	TO_CACHE:   30536846
LLC WQ	ACCESS:    3490277	FORWARD:         25	MERGED:          0	TO_CACHE:    3490277
LLC PQ	ACCESS:   34625697	FORWARD:          0	MERGED:          0	TO_CACHE:   34625680

LLC Dense regions hint to LLC: 0

RAW hits: 77784
Loads Generated: 76806691
Loads sent to L1D: 76728905
Stores Generated: 2204661
Stores sent to L1D: 2204661
Major fault: 0 Minor fault: 36583
Allocated PAGES: 146306

CPU 2 cumulative IPC: 0.245833 instructions: 200000000 cycles: 813559924
ITLB TOTAL     ACCESS:   24717850  HIT:   24717850  MISS:          0  HIT %:        100  MISS %:          0   MPKI: 0
ITLB LOAD TRANSLATION ACCESS:   24717850  HIT:   24717850  MISS:          0  HIT %:        100  MISS %:          0   MPKI: 0
ITLB PREFETCH  REQUESTED:          0  ISSUED:          0  USEFUL:          0  USELESS:          0
ITLB USEFUL LOAD PREFETCHES:          0 PREFETCH ISSUED TO LOWER LEVEL:          0  ACCURACY: -nan
ITLB TIMELY PREFETCHES:          0 LATE PREFETCHES: 0 DROPPED PREFETCHES: 0
ITLB PREFETCHES SAME FILL-ORIGIN LEVEL: 0 DIFFERENT FILL-ORIGIN LEVEL: 0
ITLB AVERAGE MISS LATENCY: -nan cycles
ITLB RQ	ACCESS:   25410726	FORWARD:          0	MERGED:     664029	TO_CACHE:   24746697

DTLB TOTAL     ACCESS:   41634742  HIT:   37090227  MISS:    4544515  HIT %:    89.0848  MISS %:    10.9152   MPKI: 22.7226
DTLB LOAD TRANSLATION ACCESS:   41634742  HIT:   37090227  MISS:    4544515  HIT %:    89.0848  MISS %:    10.9152   MPKI: 22.7226
DTLB PREFETCH  REQUESTED:          0  ISSUED:          0  USEFUL:          0  USELESS:          0
DTLB USEFUL LOAD PREFETCHES:          0 PREFETCH ISSUED TO LOWER LEVEL:          0  ACCURACY: -nan
DTLB TIMELY PREFETCHES:          0 LATE PREFETCHES: 0 DROPPED PREFETCHES: 0
DTLB PREFETCHES SAME FILL-ORIGIN LEVEL: 0 DIFFERENT FILL-ORIGIN LEVEL: 0
DTLB AVERAGE MISS LATENCY: 13.3018 cycles
DTLB RQ	ACCESS:   50416678	FORWARD:          0	MERGED:    8494264	TO_CACHE:   41922414

STLB TOTAL     ACCESS:   13220486  HIT:   13162686  MISS:      57800  HIT %:    99.5628  MISS %:     0.4372   MPKI: 0.289
STLB LOAD TRANSLATION ACCESS:    4544515  HIT:    4486715  MISS:      57800  HIT %:    98.7281  MISS %:    1.27186   MPKI: 0.289
STLB TRANSLATION FROM L1D PREFETCHER ACCESS:    8675971  HIT:    8675971  MISS:          0  HIT %:        100  MISS %:          0   MPKI: 0
STLB PREFETCH  REQUESTED:          0  ISSUED:          0  USEFUL:          0  USELESS:          0
STLB USEFUL LOAD PREFETCHES:          0 PREFETCH ISSUED TO LOWER LEVEL:          0  ACCURACY: -nan
STLB TIMELY PREFETCHES:          0 LATE PREFETCHES: 0 DROPPED PREFETCHES: 0
STLB PREFETCHES SAME FILL-ORIGIN LEVEL: 0 DIFFERENT FILL-ORIGIN LEVEL: 0
STLB AVERAGE MISS LATENCY: 315.287 cycles
STLB RQ	ACCESS:   17731431	FORWARD:          0	MERGED:    4490793	TO_CACHE:   13240638

STLB Hit, L1D data hit: 0
STLB Hit, L2C data hit: 0
STLB Hit, LLC data hit: 0
STLB Hit, LLC data miss: 0
STLB STLB hints to L2: 0
L1D TOTAL     ACCESS:   62602882  HIT:   42984020  MISS:   19618862  HIT %:    68.6614  MISS %:    31.3386   MPKI: 98.0943
L1D LOAD      ACCESS:   47978283  HIT:   38794542  MISS:    9183741  HIT %:    80.8585  MISS %:    19.1415   MPKI: 45.9187
L1D RFO       ACCESS:    2032482  HIT:    1493361  MISS:     539121  HIT %:    73.4747  MISS %:    26.5253   MPKI: 2.69561
L1D PREFETCH  ACCESS:   12592117  HIT:    2696117  MISS:    9896000  HIT %:    21.4111  MISS %:    78.5889   MPKI: 49.48
L1D PREFETCH  REQUESTED:   26356280  ISSUED:   26356280  USEFUL:    1314555  USELESS:    8593683
L1D USEFUL LOAD PREFETCHES:    1314555 PREFETCH ISSUED TO LOWER LEVEL:   10087167  ACCURACY: 13.032
L1D TIMELY PREFETCHES:    1314555 LATE PREFETCHES: 178919 DROPPED PREFETCHES: 0
L1D PREFETCHES SAME FILL-ORIGIN LEVEL: 10087167 DIFFERENT FILL-ORIGIN LEVEL: 0
L1D AVERAGE MISS LATENCY: 175.238 cycles
L1D RQ	ACCESS:   76817688	FORWARD:          0	MERGED:   28605697	TO_CACHE:   48211462
L1D WQ	ACCESS:    2205901	FORWARD:        529	MERGED:        685	TO_CACHE:    2205216
L1D PQ	ACCESS:   13178160	FORWARD:          0	MERGED:         40	TO_CACHE:   13178120

L1D UNIQUE REGIONS ACCESSED: 0
L1D REGIONS CONFLICTS: 0
L1D Cross Page Prefetch Requests: 0
L1D Same Page Prefetch Requests: 16093659
L1D ROI Sum of L1D PQ occupancy: 149553794
L1D PREFETCHES PUSHED FROM L2C: 0
L1I TOTAL     ACCESS:   25381443  HIT:   25381443  MISS:          0  HIT %:        100  MISS %:          0   MPKI: 0
L1I LOAD      ACCESS:   25381443  HIT:   25381443  MISS:          0  HIT %:        100  MISS %:          0   MPKI: 0
L1I PREFETCH  REQUESTED:          0  ISSUED:          0  USEFUL:          0  USELESS:          0
L1I USEFUL LOAD PREFETCHES:          0 PREFETCH ISSUED TO LOWER LEVEL:          0  ACCURACY: -nan
L1I TIMELY PREFETCHES:          0 LATE PREFETCHES: 0 DROPPED PREFETCHES: 0
L1I PREFETCHES SAME FILL-ORIGIN LEVEL: 0 DIFFERENT FILL-ORIGIN LEVEL: 0
L1I AVERAGE MISS LATENCY: -nan cycles
L1I RQ	ACCESS:   39057680	FORWARD:          0	MERGED:   13646954	TO_CACHE:   25410726

BTB TOTAL     ACCESS:   29073827  HIT:   29073668  MISS:        159  HIT %:    99.9995  MISS %: 0.000546884   MPKI: 0.000795
BTB BRANCH_DIRECT_JUMP	ACCESS:    9228567  HIT:    9228524  MISS:         43
BTB BRANCH_INDIRECT	ACCESS:          0  HIT:          0  MISS:          0
BTB BRANCH_CONDITIONAL	ACCESS:   19842662  HIT:   19842574  MISS:         88
BTB BRANCH_DIRECT_CALL	ACCESS:       1299  HIT:       1288  MISS:         11
BTB BRANCH_INDIRECT_CALL	ACCESS:          0  HIT:          0  MISS:          0
BTB BRANCH_RETURN	ACCESS:       1299  HIT:       1282  MISS:         17
BTB BRANCH_OTHER ACCESS:          0  HIT:          0  MISS:          0

L2C TOTAL     ACCESS:   21152720  HIT:    4835231  MISS:   16317489  HIT %:    22.8587  MISS %:    77.1413   MPKI: 81.5874
L2C LOAD      ACCESS:    9004826  HIT:    1628616  MISS:    7376210  HIT %:     18.086  MISS %:     81.914   MPKI: 36.8811
L2C DATA LOAD MPKI: 36.8811
L2C INSTRUCTION LOAD MPKI: 0
L2C RFO       ACCESS:     539083  HIT:     338397  MISS:     200686  HIT %:    62.7727  MISS %:    37.2273   MPKI: 1.00343
L2C PREFETCH  ACCESS:   10074898  HIT:    1429085  MISS:    8645813  HIT %:    14.1846  MISS %:    85.8154   MPKI: 43.2291
L2C DATA PREFETCH MPKI: 43.2291
L2C INSTRUCTION PREFETCH MPKI: 0
L2C WRITEBACK ACCESS:    1464252  HIT:    1415782  MISS:      48470  HIT %:    96.6898  MISS %:    3.31022   MPKI: 0.24235
L2C LOAD TRANSLATION ACCESS:      69661  HIT:      23351  MISS:      46310  HIT %:    33.5209  MISS %:    66.4791   MPKI: 0.23155
L2C PREFETCH  REQUESTED:          0  ISSUED:          0  USEFUL:     240693  USELESS:    8414939
L2C USEFUL LOAD PREFETCHES:     240693 PREFETCH ISSUED TO LOWER LEVEL:    8655686  ACCURACY: 2.78075
L2C TIMELY PREFETCHES:     240693 LATE PREFETCHES: 0 DROPPED PREFETCHES: 0
L2C PREFETCHES SAME FILL-ORIGIN LEVEL: 0 DIFFERENT FILL-ORIGIN LEVEL: 0
L2C AVERAGE MISS LATENCY: 198.156 cycles
L2C RQ	ACCESS:    9625211	FORWARD:          0	MERGED:          0	TO_CACHE:    9625162
L2C WQ	ACCESS:    1465161	FORWARD:         55	MERGED:          0	TO_CACHE:    1465161
L2C PQ	ACCESS:   10087167	FORWARD:          0	MERGED:          0	TO_CACHE:   10087161

L2C Instructions Evicting Data 0
L2C Translations Evicting Data 46341
L2C Data Evicting Data 16194898
L2C Instructions Evicting Instructions 0
L2C Translations Evicting Instructions 0
L2C Data Evicting Instructions 0
L2C Instructions Evicting Translations 0
L2C Translations Evicting Translations 85
L2C Data Evicting Translations 46185
L2C Dense regions hint from L2: 0
PSCL5 TOTAL     ACCESS:      57800  HIT:      57800  MISS:          0  HIT %:        100  MISS %:          0   MPKI: 0
PSCL5 LOAD TRANSLATION ACCESS:      57800  HIT:      57800  MISS:          0  HIT %:        100  MISS %:          0   MPKI: 0
PSCL5 PREFETCH  REQUESTED:          0  ISSUED:          0  USEFUL:          0  USELESS:          0
PSCL5 USEFUL LOAD PREFETCHES:          0 PREFETCH ISSUED TO LOWER LEVEL:          0  ACCURACY: -nan
PSCL5 TIMELY PREFETCHES:          0 LATE PREFETCHES: 0 DROPPED PREFETCHES: 0
PSCL5 PREFETCHES SAME FILL-ORIGIN LEVEL: 0 DIFFERENT FILL-ORIGIN LEVEL: 0

PSCL4 TOTAL     ACCESS:      57800  HIT:      57800  MISS:          0  HIT %:        100  MISS %:          0   MPKI: 0
PSCL4 LOAD TRANSLATION ACCESS:      57800  HIT:      57800  MISS:          0  HIT %:        100  MISS %:          0   MPKI: 0
PSCL4 PREFETCH  REQUESTED:          0  ISSUED:          0  USEFUL:          0  USELESS:          0
[...]
LLC PREFETCH  REQUESTED:          0  ISSUED:          0  USEFUL:    1729683  USELESS:   16137477
LLC USEFUL LOAD PREFETCHES:    1729683 PREFETCH ISSUED TO LOWER LEVEL:   17864548  ACCURACY: 9.68221
LLC TIMELY PREFETCHES:    1729683 LATE PREFETCHES: 0 DROPPED PREFETCHES: 0
LLC PREFETCHES SAME FILL-ORIGIN LEVEL: 0 DIFFERENT FILL-ORIGIN LEVEL: 0
LLC AVERAGE MISS LATENCY: 1438.01 cycles
LLC RQ	ACCESS:   30536854	FORWARD:          0	MERGED:          0	TO_CACHE:   30536846
LLC WQ	ACCESS:    3490277	FORWARD:         25	MERGED:          0	TO_CACHE:    3490277
LLC PQ	ACCESS:   34625697	FORWARD:          0	MERGED:          0	TO_CACHE:   34625680

LLC Dense regions hint to LLC: 0

RAW hits: 77859
Loads Generated: 76806659
Loads sent to L1D: 76728796
Stores Generated: 2204652
Stores sent to L1D: 2204650
Major fault: 0 Minor fault: 36600
Allocated PAGES: 146306

CPU 3 cumulative IPC: 0.245568 instructions: 200000001 cycles: 814437088
ITLB TOTAL     ACCESS:   24720653  HIT:   24720653  MISS:          0  HIT %:        100  MISS %:          0   MPKI: 0
ITLB LOAD TRANSLATION ACCESS:   24720653  HIT:   24720653  MISS:          0  HIT %:        100  MISS %:          0   MPKI: 0
ITLB PREFETCH  REQUESTED:          0  ISSUED:          0  USEFUL:          0  USELESS:          0
ITLB USEFUL LOAD PREFETCHES:          0 PREFETCH ISSUED TO LOWER LEVEL:          0  ACCURACY: -nan
ITLB TIMELY PREFETCHES:          0 LATE PREFETCHES: 0 DROPPED PREFETCHES: 0
ITLB PREFETCHES SAME FILL-ORIGIN LEVEL: 0 DIFFERENT FILL-ORIGIN LEVEL: 0
ITLB AVERAGE MISS LATENCY: -nan cycles
ITLB RQ	ACCESS:   25384279	FORWARD:          0	MERGED:     663627	TO_CACHE:   24720652

DTLB TOTAL     ACCESS:   41639868  HIT:   37095744  MISS:    4544124  HIT %:    89.0871  MISS %:    10.9129   MPKI: 22.7206
DTLB LOAD TRANSLATION ACCESS:   41639868  HIT:   37095744  MISS:    4544124  HIT %:    89.0871  MISS %:    10.9129   MPKI: 22.7206
DTLB PREFETCH  REQUESTED:          0  ISSUED:          0  USEFUL:          0  USELESS:          0
DTLB USEFUL LOAD PREFETCHES:          0 PREFETCH ISSUED TO LOWER LEVEL:          0  ACCURACY: -nan
DTLB TIMELY PREFETCHES:          0 LATE PREFETCHES: 0 DROPPED PREFETCHES: 0
DTLB PREFETCHES SAME FILL-ORIGIN LEVEL: 0 DIFFERENT FILL-ORIGIN LEVEL: 0
DTLB AVERAGE MISS LATENCY: 13.249 cycles
DTLB RQ	ACCESS:   50366588	FORWARD:          0	MERGED:    8486004	TO_CACHE:   41880584

STLB TOTAL     ACCESS:   13222554  HIT:   13164760  MISS:      57794  HIT %:    99.5629  MISS %:   0.437087   MPKI: 0.28897
STLB LOAD TRANSLATION ACCESS:    4544124  HIT:    4486330  MISS:      57794  HIT %:    98.7282  MISS %:    1.27184   MPKI: 0.28897
STLB TRANSLATION FROM L1D PREFETCHER ACCESS:    8678430  HIT:    8678430  MISS:          0  HIT %:        100  MISS %:          0   MPKI: 0
STLB PREFETCH  REQUESTED:          0  ISSUED:          0  USEFUL:          0  USELESS:          0
STLB USEFUL LOAD PREFETCHES:          0 PREFETCH ISSUED TO LOWER LEVEL:          0  ACCURACY: -nan
STLB TIMELY PREFETCHES:          0 LATE PREFETCHES: 0 DROPPED PREFETCHES: 0
STLB PREFETCHES SAME FILL-ORIGIN LEVEL: 0 DIFFERENT FILL-ORIGIN LEVEL: 0
STLB AVERAGE MISS LATENCY: 312.597 cycles
STLB RQ	ACCESS:   17714053	FORWARD:          0	MERGED:    4491499	TO_CACHE:   13222554

STLB Hit, L1D data hit: 0
STLB Hit, L2C data hit: 0
STLB Hit, LLC data hit: 0
STLB Hit, LLC data miss: 0
STLB STLB hints to L2: 0
L1D TOTAL     ACCESS:   62615047  HIT:   42993793  MISS:   19621254  HIT %:    68.6637  MISS %:    31.3363   MPKI: 98.1063
L1D LOAD      ACCESS:   47982745  HIT:   38799392  MISS:    9183353  HIT %:    80.8611  MISS %:    19.1389   MPKI: 45.9168
L1D RFO       ACCESS:    2032891  HIT:    1493662  MISS:     539229  HIT %:    73.4748  MISS %:    26.5252   MPKI: 2.69614
L1D PREFETCH  ACCESS:   12599411  HIT:    2700739  MISS:    9898672  HIT %:    21.4354  MISS %:    78.5646   MPKI: 49.4934
L1D PREFETCH  REQUESTED:   26339896  ISSUED:   26339896  USEFUL:    1313454  USELESS:    8585203
L1D USEFUL LOAD PREFETCHES:    1313454 PREFETCH ISSUED TO LOWER LEVEL:   10077332  ACCURACY: 13.0337
L1D TIMELY PREFETCHES:    1313454 LATE PREFETCHES: 178656 DROPPED PREFETCHES: 0
L1D PREFETCHES SAME FILL-ORIGIN LEVEL: 10077332 DIFFERENT FILL-ORIGIN LEVEL: 0
L1D AVERAGE MISS LATENCY: 175.339 cycles
L1D RQ	ACCESS:   76728711	FORWARD:          0	MERGED:   28565784	TO_CACHE:   48162358
L1D WQ	ACCESS:    2204915	FORWARD:        569	MERGED:        685	TO_CACHE:    2204230
L1D PQ	ACCESS:   13169967	FORWARD:          0	MERGED:         38	TO_CACHE:   13169929

L1D UNIQUE REGIONS ACCESSED: 0
L1D REGIONS CONFLICTS: 0
L1D Cross Page Prefetch Requests: 0
L1D Same Page Prefetch Requests: 16197399
L1D ROI Sum of L1D PQ occupancy: 149561307
L1D PREFETCHES PUSHED FROM L2C: 0
L1I TOTAL     ACCESS:   25384280  HIT:   25384280  MISS:          0  HIT %:        100  MISS %:          0   MPKI: 0
L1I LOAD      ACCESS:   25384280  HIT:   25384280  MISS:          0  HIT %:        100  MISS %:          0   MPKI: 0
L1I PREFETCH  REQUESTED:          0  ISSUED:          0  USEFUL:          0  USELESS:          0
L1I USEFUL LOAD PREFETCHES:          0 PREFETCH ISSUED TO LOWER LEVEL:          0  ACCURACY: -nan
L1I TIMELY PREFETCHES:          0 LATE PREFETCHES: 0 DROPPED PREFETCHES: 0
L1I PREFETCHES SAME FILL-ORIGIN LEVEL: 0 DIFFERENT FILL-ORIGIN LEVEL: 0
L1I AVERAGE MISS LATENCY: -nan cycles
L1I RQ	ACCESS:   39013147	FORWARD:          0	MERGED:   13628868	TO_CACHE:   25384279

BTB TOTAL     ACCESS:   29073119  HIT:   29072956  MISS:        163  HIT %:    99.9994  MISS %: 0.000560655   MPKI: 0.000815
BTB BRANCH_DIRECT_JUMP	ACCESS:    9228477  HIT:    9228433  MISS:         44
BTB BRANCH_INDIRECT	ACCESS:          0  HIT:          0  MISS:          0
BTB BRANCH_CONDITIONAL	ACCESS:   19842044  HIT:   19841953  MISS:         91
BTB BRANCH_DIRECT_CALL	ACCESS:       1299  HIT:       1288  MISS:         11
BTB BRANCH_INDIRECT_CALL	ACCESS:          0  HIT:          0  MISS:          0
BTB BRANCH_RETURN	ACCESS:       1299  HIT:       1282  MISS:         17
BTB BRANCH_OTHER ACCESS:          0  HIT:          0  MISS:          0

L2C TOTAL     ACCESS:   21155285  HIT:    4821901  MISS:   16333384  HIT %:    22.7929  MISS %:    77.2071   MPKI: 81.6669
L2C LOAD      ACCESS:    9004688  HIT:    1621362  MISS:    7383326  HIT %:    18.0058  MISS %:    81.9942   MPKI: 36.9166
L2C DATA LOAD MPKI: 36.9166
L2C INSTRUCTION LOAD MPKI: 0
L2C RFO       ACCESS:     539201  HIT:     338495  MISS:     200706  HIT %:    62.7771  MISS %:    37.2229   MPKI: 1.00353
L2C PREFETCH  ACCESS:   10077324  HIT:    1424513  MISS:    8652811  HIT %:    14.1358  MISS %:    85.8642   MPKI: 43.2641
L2C DATA PREFETCH MPKI: 43.2641
L2C INSTRUCTION PREFETCH MPKI: 0
L2C WRITEBACK ACCESS:    1464417  HIT:    1414610  MISS:      49807  HIT %:    96.5989  MISS %:    3.40115   MPKI: 0.249035
L2C LOAD TRANSLATION ACCESS:      69655  HIT:      22921  MISS:      46734  HIT %:    32.9065  MISS %:    67.0935   MPKI: 0.23367
L2C PREFETCH  REQUESTED:          0  ISSUED:          0  USEFUL:     240647  USELESS:    8412110
L2C USEFUL LOAD PREFETCHES:     240647 PREFETCH ISSUED TO LOWER LEVEL:    8652811  ACCURACY: 2.78114
L2C TIMELY PREFETCHES:     240647 LATE PREFETCHES: 0 DROPPED PREFETCHES: 0
L2C PREFETCHES SAME FILL-ORIGIN LEVEL: 0 DIFFERENT FILL-ORIGIN LEVEL: 0
L2C AVERAGE MISS LATENCY: 198.141 cycles
L2C RQ	ACCESS:    9613577	FORWARD:          0	MERGED:          0	TO_CACHE:    9613545
L2C WQ	ACCESS:    1464417	FORWARD:         40	MERGED:          0	TO_CACHE:    1464417
L2C PQ	ACCESS:   10077332	FORWARD:          0	MERGED:          0	TO_CACHE:   10077324

L2C Instructions Evicting Data 0
L2C Translations Evicting Data 46472
L2C Data Evicting Data 16190516
L2C Instructions Evicting Instructions 0
L2C Translations Evicting Instructions 0
L2C Data Evicting Instructions 0
L2C Instructions Evicting Translations 0
L2C Translations Evicting Translations 262
L2C Data Evicting Translations 46327
L2C Dense regions hint from L2: 0
PSCL5 TOTAL     ACCESS:      57794  HIT:      57794  MISS:          0  HIT %:        100  MISS %:          0   MPKI: 0
PSCL5 LOAD TRANSLATION ACCESS:      57794  HIT:      57794  MISS:          0  HIT %:        100  MISS %:          0   MPKI: 0
PSCL5 PREFETCH  REQUESTED:          0  ISSUED:          0  USEFUL:          0  USELESS:          0
PSCL5 USEFUL LOAD PREFETCHES:          0 PREFETCH ISSUED TO LOWER LEVEL:          0  ACCURACY: -nan
PSCL5 TIMELY PREFETCHES:          0 LATE PREFETCHES: 0 DROPPED PREFETCHES: 0
PSCL5 PREFETCHES SAME FILL-ORIGIN LEVEL: 0 DIFFERENT FILL-ORIGIN LEVEL: 0

PSCL4 TOTAL     ACCESS:      57794  HIT:      57794  MISS:          0  HIT %:        100  MISS %:          0   MPKI: 0
PSCL4 LOAD TRANSLATION ACCESS:      57794  HIT:      57794  MISS:          0  HIT %:        100  MISS %:          0   MPKI: 0
PSCL4 PREFETCH  REQUESTED:          0  ISSUED:          0  USEFUL:          0  USELESS:          0
PSCL4 USEFUL LOAD PREFETCHES:          0 PREFETCH ISSUED TO LOWER LEVEL:          0  ACCURACY: -nan
PSCL4 TIMELY PREFETCHES:          0 LATE PREFETCHES: 0 DROPPED PREFETCHES: 0
PSCL4 PREFETCHES SAME FILL-ORIGIN LEVEL: 0 DIFFERENT FILL-ORIGIN LEVEL: 0

PSCL3 TOTAL     ACCESS:      57794  HIT:      57794  MISS:          0  HIT %:        100  MISS %:          0   MPKI: 0
PSCL3 LOAD TRANSLATION ACCESS:      57794  HIT:      57794  MISS:          0  HIT %:        100  MISS %:          0   MPKI: 0
PSCL3 PREFETCH  REQUESTED:          0  ISSUED:          0  USEFUL:          0  USELESS:          0
PSCL3 USEFUL LOAD PREFETCHES:          0 PREFETCH ISSUED TO LOWER LEVEL:          0  ACCURACY: -nan
PSCL3 TIMELY PREFETCHES:          0 LATE PREFETCHES: 0 DROPPED PREFETCHES: 0
PSCL3 PREFETCHES SAME FILL-ORIGIN LEVEL: 0 DIFFERENT FILL-ORIGIN LEVEL: 0

PSCL2 TOTAL     ACCESS:      57794  HIT:      45931  MISS:      11863  HIT %:    79.4736  MISS %:    20.5264   MPKI: 0.059315
PSCL2 LOAD TRANSLATION ACCESS:      57794  HIT:      45931  MISS:      11863  HIT %:    79.4736  MISS %:    20.5264   MPKI: 0.059315
PSCL2 PREFETCH  REQUESTED:          0  ISSUED:          0  USEFUL:          0  USELESS:          0
PSCL2 USEFUL LOAD PREFETCHES:          0 PREFETCH ISSUED TO LOWER LEVEL:          0  ACCURACY: -nan
PSCL2 TIMELY PREFETCHES:          0 LATE PREFETCHES: 0 DROPPED PREFETCHES: 0
PSCL2 PREFETCHES SAME FILL-ORIGIN LEVEL: 0 DIFFERENT FILL-ORIGIN LEVEL: 0

LLC TOTAL     ACCESS:   17155642  HIT:    9512071  MISS:    7643571  HIT %:    55.4457  MISS %:    44.5543   MPKI: 38.2179
LLC LOAD      ACCESS:    7383324  HIT:    4429616  MISS:    2953708  HIT %:    59.9949  MISS %:    40.0051   MPKI: 14.7685
LLC RFO       ACCESS:     200705  HIT:      83307  MISS:     117398  HIT %:    41.5072  MISS %:    58.4928   MPKI: 0.58699
LLC PREFETCH  ACCESS:    8652803  HIT:    4186736  MISS:    4466067  HIT %:    48.3859  MISS %:    51.6141   MPKI: 22.3303
LLC WRITEBACK ACCESS:     872076  HIT:     802086  MISS:      69990  HIT %:    91.9743  MISS %:    8.02568   MPKI: 0.34995
LLC LOAD TRANSLATION ACCESS:      46734  HIT:      10326  MISS:      36408  HIT %:    22.0953  MISS %:    77.9047   MPKI: 0.18204
LLC PREFETCH  REQUESTED:          0  ISSUED:          0  USEFUL:    1729683  USELESS:   16137477
LLC USEFUL LOAD PREFETCHES:    1729683 PREFETCH ISSUED TO LOWER LEVEL:   17864548  ACCURACY: 9.68221
LLC TIMELY PREFETCHES:    1729683 LATE PREFETCHES: 0 DROPPED PREFETCHES: 0
LLC PREFETCHES SAME FILL-ORIGIN LEVEL: 0 DIFFERENT FILL-ORIGIN LEVEL: 0
LLC AVERAGE MISS LATENCY: 1436.3 cycles
LLC RQ	ACCESS:   30536854	FORWARD:          0	MERGED:          0	TO_CACHE:   30536846
LLC WQ	ACCESS:    3490277	FORWARD:         25	MERGED:          0	TO_CACHE:    3490277
LLC PQ	ACCESS:   34625697	FORWARD:          0	MERGED:          0	TO_CACHE:   34625680

LLC Dense regions hint to LLC: 0

RAW hits: 77530
Loads Generated: 76806242
Loads sent to L1D: 76728711
Stores Generated: 2204913
Stores sent to L1D: 2204915
Major fault: 0 Minor fault: 36550
Allocated PAGES: 146306

stream: 
stream:times selected: 16676142
stream:pref_filled: 9989566
stream:pref_useful: 294294
stream:pref_late: 159200
stream:misses: 2318321
stream:misses_by_poll: 0

CS: 
CS:times selected: 3751923
CS:pref_filled: 1485786
CS:pref_useful: 1385967
CS:pref_late: 43132
CS:misses: 230542
CS:misses_by_poll: 1495

CPLX: 
CPLX:times selected: 12839076
CPLX:pref_filled: 431333
CPLX:pref_useful: 18561
CPLX:pref_late: 5874
CPLX:misses: 8505595
CPLX:misses_by_poll: 195

NL_L1: 
NL:times selected: 15344
NL:pref_filled: 8610
NL:pref_useful: 658
NL:pref_late: 90
NL:misses: 9352
NL:misses_by_poll: 0

total selections: 33282485
total_filled: 9903490
total_useful: 1313712
total_late: 214565
total_polluted: 1690
total_misses_after_warmup: 9368841
conflicts: 423
Degree Incremented Times: 949935
Degree Decremented Times: 2101330

L1 IP Table Write Accesses: 192777071
L1 IP Table Read Accesses: 192776648
L1 RST Write Accesses: 53824824
L1 RST Read Accesses: 107649648
L1 CSPT Write Accesses: 53824824
L1 CSPT Read Accesses: 94610787
L1 RR Filter Tag Write Accesses: 52704281
L1 RR Filter Tag Read Accesses: 2620231375
L1 IP Table Tag Write Accesses: 192780764
L1 IP Table Tag Read Accesses: 192780764
L1 RST Tag Write Accesses: 0
L1 RST Tag Read Accesses: 479228662
L1 RR Filter Write Accesses: 0
L1 RR Filter Read Accesses: 92043671
test: 20949743

stream: 
stream:times selected: 16678832
stream:pref_filled: 9928612
stream:pref_useful: 293740
stream:pref_late: 159880
stream:misses: 2320315
stream:misses_by_poll: 0

CS: 
CS:times selected: 3750663
CS:pref_filled: 1471664
CS:pref_useful: 1372661
CS:pref_late: 48151
CS:misses: 244936
CS:misses_by_poll: 1507

CPLX: 
CPLX:times selected: 12842983
CPLX:pref_filled: 425594
CPLX:pref_useful: 18225
CPLX:pref_late: 5921
CPLX:misses: 8511864
CPLX:misses_by_poll: 206

NL_L1: 
NL:times selected: 15477
NL:pref_filled: 8178
NL:pref_useful: 638
NL:pref_late: 80
NL:misses: 9396
NL:misses_by_poll: 0

total selections: 33287955
total_filled: 9903115
total_useful: 1313962
total_late: 220331
total_polluted: 1713
total_misses_after_warmup: 9372841
conflicts: 423
Degree Incremented Times: 949935
Degree Decremented Times: 2101330

L1 IP Table Write Accesses: 192777071
L1 IP Table Read Accesses: 192776648
L1 RST Write Accesses: 53824824
L1 RST Read Accesses: 107649648
L1 CSPT Write Accesses: 53824824
L1 CSPT Read Accesses: 94610787
L1 RR Filter Tag Write Accesses: 52704281
L1 RR Filter Tag Read Accesses: 2620231375
L1 IP Table Tag Write Accesses: 192780764
L1 IP Table Tag Read Accesses: 192780764
L1 RST Tag Write Accesses: 0
L1 RST Tag Read Accesses: 479228662
L1 RR Filter Write Accesses: 0
L1 RR Filter Read Accesses: 92043671
test: 20949743

stream: 
stream:times selected: 16679437
stream:pref_filled: 9957433
stream:pref_useful: 288607
stream:pref_late: 159867
stream:misses: 2319512
stream:misses_by_poll: 0

CS: 
CS:times selected: 3749603
CS:pref_filled: 1484282
CS:pref_useful: 1385026
CS:pref_late: 45182
CS:misses: 236546
CS:misses_by_poll: 1489

CPLX: 
CPLX:times selected: 12844529
CPLX:pref_filled: 427499
CPLX:pref_useful: 18390
CPLX:pref_late: 5974
CPLX:misses: 8513296
CPLX:misses_by_poll: 231

NL_L1: 
NL:times selected: 15650
NL:pref_filled: 8395
NL:pref_useful: 643
NL:pref_late: 87
NL:misses: 9463
NL:misses_by_poll: 0

total selections: 33289219
total_filled: 9908243
total_useful: 1314555
total_late: 217452
total_polluted: 1720
total_misses_after_warmup: 9375090
conflicts: 423
Degree Incremented Times: 949935
Degree Decremented Times: 2101330

L1 IP Table Write Accesses: 192777071
L1 IP Table Read Accesses: 192776648
L1 RST Write Accesses: 53824824
L1 RST Read Accesses: 107649648
L1 CSPT Write Accesses: 53824824
L1 CSPT Read Accesses: 94610787
L1 RR Filter Tag Write Accesses: 52704281
L1 RR Filter Tag Read Accesses: 2620231375
L1 IP Table Tag Write Accesses: 192780764
L1 IP Table Tag Read Accesses: 192780764
L1 RST Tag Write Accesses: 0
L1 RST Tag Read Accesses: 479228662
L1 RR Filter Write Accesses: 0
L1 RR Filter Read Accesses: 92043671
test: 20949743

stream: 
stream:times selected: 16666848
stream:pref_filled: 9985747
stream:pref_useful: 295006
stream:pref_late: 160841
stream:misses: 2316407
stream:misses_by_poll: 0

CS: 
CS:times selected: 3749752
CS:pref_filled: 1489258
CS:pref_useful: 1389105
CS:pref_late: 43124
CS:misses: 225467
CS:misses_by_poll: 1411

CPLX: 
CPLX:times selected: 12832009
CPLX:pref_filled: 431861
CPLX:pref_useful: 18613
CPLX:pref_late: 5998
CPLX:misses: 8501241
CPLX:misses_by_poll: 218

NL_L1: 
NL:times selected: 15176
NL:pref_filled: 8557
NL:pref_useful: 653
NL:pref_late: 93
NL:misses: 9264
NL:misses_by_poll: 0

total selections: 33263785
total_filled: 9898672
total_useful: 1313454
total_late: 216443
total_polluted: 1629
total_misses_after_warmup: 9362968
conflicts: 423
Degree Incremented Times: 949935
Degree Decremented Times: 2101330

L1 IP Table Write Accesses: 192777071
L1 IP Table Read Accesses: 192776648
L1 RST Write Accesses: 53824824
L1 RST Read Accesses: 107649648
L1 CSPT Write Accesses: 53824824
L1 CSPT Read Accesses: 94610787
L1 RR Filter Tag Write Accesses: 52704281
L1 RR Filter Tag Read Accesses: 2620231375
L1 IP Table Tag Write Accesses: 192780764
L1 IP Table Tag Read Accesses: 192780764
L1 RST Tag Write Accesses: 0
L1 RST Tag Read Accesses: 479228662
L1 RR Filter Write Accesses: 0
L1 RR Filter Read Accesses: 92043671
test: 20949743

DRAM Statistics
 CHANNEL 0
 RQ ROW_BUFFER_HIT:    4902165  ROW_BUFFER_MISS:   25380939
 DBUS_CONGESTED:          7
 WQ ROW_BUFFER_HIT:     112966  ROW_BUFFER_MISS:    2769770  FULL:          0

 AVG_CONGESTED_CYCLE: 5
 All warmup complete: 5
Channel 0 Bank busy for read cycles: 0
Channel 0 Bank busy for write cycles: 0
Channel 0
Rank 0
0banks busy for read cycles: 23720
0banks busy for write cycles: 0
1banks busy for read cycles: 3763284
1banks busy for write cycles: 319989
2banks busy for read cycles: 18118180
2banks busy for write cycles: 319946
3banks busy for read cycles: 47460859
3banks busy for write cycles: 319918
4banks busy for read cycles: 90773621
4banks busy for write cycles: 320632
5banks busy for read cycles: 138629935
5banks busy for write cycles: 398765
6banks busy for read cycles: 169965326
6banks busy for write cycles: 2489589
7banks busy for read cycles: 159331503
7banks busy for write cycles: 20404866
8banks busy for read cycles: 99225877
8banks busy for write cycles: 62571079

CPU 0 Branch Prediction Accuracy: 97.7933% MPKI: 3.28258 Average ROB Occupancy at Mispredict: 175.961
Branch types
NOT_BRANCH: 170349197 85.1237%
BRANCH_DIRECT_JUMP: 9234273 4.61438%
BRANCH_INDIRECT: 0 0%
BRANCH_CONDITIONAL: 20533552 10.2606%
BRANCH_DIRECT_CALL: 1299 0.000649112%
BRANCH_INDIRECT_CALL: 0 0%
BRANCH_RETURN: 1299 0.000649112%
BRANCH_OTHER: 0 0%


CPU 1 Branch Prediction Accuracy: 97.7936% MPKI: 3.28199 Average ROB Occupancy at Mispredict: 175.981
Branch types
NOT_BRANCH: 170388130 85.1237%
BRANCH_DIRECT_JUMP: 9236477 4.61442%
BRANCH_INDIRECT: 0 0%
BRANCH_CONDITIONAL: 20538183 10.2606%
BRANCH_DIRECT_CALL: 1299 0.000648963%
BRANCH_INDIRECT_CALL: 0 0%
BRANCH_RETURN: 1299 0.000648963%
BRANCH_OTHER: 0 0%


CPU 2 Branch Prediction Accuracy: 97.7938% MPKI: 3.28165 Average ROB Occupancy at Mispredict: 175.971
Branch types
NOT_BRANCH: 170441369 85.1237%
BRANCH_DIRECT_JUMP: 9239431 4.61446%
BRANCH_INDIRECT: 0 0%
BRANCH_CONDITIONAL: 20544556 10.2606%
BRANCH_DIRECT_CALL: 1299 0.000648761%
BRANCH_INDIRECT_CALL: 0 0%
BRANCH_RETURN: 1299 0.000648761%
BRANCH_OTHER: 0 0%


CPU 3 Branch Prediction Accuracy: 97.7925% MPKI: 3.28398 Average ROB Occupancy at Mispredict: 175.945
Branch types
NOT_BRANCH: 170247453 85.1237%
BRANCH_DIRECT_JUMP: 9228477 4.61424%
BRANCH_INDIRECT: 0 0%
BRANCH_CONDITIONAL: 20521466 10.2607%
BRANCH_DIRECT_CALL: 1299 0.0006495%
BRANCH_INDIRECT_CALL: 0 0%
BRANCH_RETURN: 1299 0.0006495%
BRANCH_OTHER: 0 0%

DRAM PAGES: 1048576
Allocated PAGES: 146306
