
*** ChampSim Multicore Out-of-Order Simulator ***

Warmup Instructions: 50000000
Simulation Instructions: 200000000
Number of CPUs: 4
LLC sets: 8192
LLC ways: 16
Off-chip DRAM Size: 4096 MB Channels: 1 Width: 64-bit Data Rate: 6400 MT/s
CPU 0 runs ./traces/ligra/ligra_PageRank.com-lj.ungraph.gcc_6.3.0_O3.drop_60750M.length_250M.champsimtrace.xz
.xz
CPU 1 runs ./traces/ligra/ligra_BFS.com-lj.ungraph.gcc_6.3.0_O3.drop_11500M.length_250M.champsimtrace.xz
.xz
CPU 2 runs ./traces/ligra/ligra_BFS-Bitvector.com-lj.ungraph.gcc_6.3.0_O3.drop_9750M.length_250M.champsimtrace.xz
.xz
CPU 3 runs ./traces/ligra/ligra_BC.com-lj.ungraph.gcc_6.3.0_O3.drop_15500M.length_250M.champsimtrace.xz
.xz
BTB has LRU replacement policy
ITLB has LRU replacement policy
DTLB has LRU replacement policy
STLB has LRU replacement policy
L1I has LRU replacement policy
IP Table Entries: 1024
CSPT Entries: 128
RR_ENTRIES: 32
RST_ENTRIES: 8
L1D has LRU replacement policy
Initialize SRRIP state for L2C
Initialize DRRIP state for LLC
BTB has LRU replacement policy
ITLB has LRU replacement policy
DTLB has LRU replacement policy
STLB has LRU replacement policy
L1I has LRU replacement policy
IP Table Entries: 1024
CSPT Entries: 128
RR_ENTRIES: 32
RST_ENTRIES: 8
L1D has LRU replacement policy
Initialize SRRIP state for L2C
Initialize DRRIP state for LLC
BTB has LRU replacement policy
ITLB has LRU replacement policy
DTLB has LRU replacement policy
STLB has LRU replacement policy
L1I has LRU replacement policy
IP Table Entries: 1024
CSPT Entries: 128
RR_ENTRIES: 32
RST_ENTRIES: 8
L1D has LRU replacement policy
Initialize SRRIP state for L2C
Initialize DRRIP state for LLC
BTB has LRU replacement policy
ITLB has LRU replacement policy
DTLB has LRU replacement policy
STLB has LRU replacement policy
L1I has LRU replacement policy
IP Table Entries: 1024
CSPT Entries: 128
RR_ENTRIES: 32
RST_ENTRIES: 8
L1D has LRU replacement policy
Initialize SRRIP state for L2C
Initialize DRRIP state for LLC
Heartbeat CPU 3 instructions: 10000003 cycles: 2667124 heartbeat IPC: 3.74936 cumulative IPC: 3.74936 (Simulation time: 0 hr 3 min 18 sec) 
Heartbeat CPU 2 instructions: 10000000 cycles: 2920500 heartbeat IPC: 3.42407 cumulative IPC: 3.42407 (Simulation time: 0 hr 3 min 37 sec) 
Heartbeat CPU 1 instructions: 10000000 cycles: 2931542 heartbeat IPC: 3.41117 cumulative IPC: 3.41117 (Simulation time: 0 hr 3 min 38 sec) 
Heartbeat CPU 0 instructions: 10000001 cycles: 3204688 heartbeat IPC: 3.12043 cumulative IPC: 3.12043 (Simulation time: 0 hr 3 min 58 sec) 
Heartbeat CPU 3 instructions: 20000001 cycles: 5333787 heartbeat IPC: 3.75 cumulative IPC: 3.74968 (Simulation time: 0 hr 6 min 31 sec) 
Heartbeat CPU 2 instructions: 20000002 cycles: 5841403 heartbeat IPC: 3.4236 cumulative IPC: 3.42384 (Simulation time: 0 hr 7 min 11 sec) 
Heartbeat CPU 1 instructions: 20000000 cycles: 5860993 heartbeat IPC: 3.41361 cumulative IPC: 3.41239 (Simulation time: 0 hr 7 min 13 sec) 
Heartbeat CPU 0 instructions: 20000002 cycles: 6411618 heartbeat IPC: 3.11825 cumulative IPC: 3.11934 (Simulation time: 0 hr 7 min 52 sec) 
Heartbeat CPU 3 instructions: 30000003 cycles: 8000454 heartbeat IPC: 3.75 cumulative IPC: 3.74979 (Simulation time: 0 hr 9 min 54 sec) 
Heartbeat CPU 2 instructions: 30000001 cycles: 8763656 heartbeat IPC: 3.42202 cumulative IPC: 3.42323 (Simulation time: 0 hr 10 min 46 sec) 
Heartbeat CPU 1 instructions: 30000000 cycles: 8791866 heartbeat IPC: 3.41195 cumulative IPC: 3.41224 (Simulation time: 0 hr 10 min 48 sec) 
Heartbeat CPU 0 instructions: 30000000 cycles: 9602883 heartbeat IPC: 3.13355 cumulative IPC: 3.12406 (Simulation time: 0 hr 11 min 39 sec) 
Heartbeat CPU 3 instructions: 40000003 cycles: 10667120 heartbeat IPC: 3.75 cumulative IPC: 3.74984 (Simulation time: 0 hr 12 min 53 sec) 
Heartbeat CPU 2 instructions: 40000001 cycles: 11685088 heartbeat IPC: 3.42298 cumulative IPC: 3.42317 (Simulation time: 0 hr 14 min 1 sec) 
Heartbeat CPU 1 instructions: 40000000 cycles: 11722973 heartbeat IPC: 3.41168 cumulative IPC: 3.4121 (Simulation time: 0 hr 14 min 3 sec) 
Heartbeat CPU 0 instructions: 40000000 cycles: 12785429 heartbeat IPC: 3.14214 cumulative IPC: 3.12856 (Simulation time: 0 hr 15 min 17 sec) 
Heartbeat CPU 3 instructions: 50000001 cycles: 13333786 heartbeat IPC: 3.75 cumulative IPC: 3.74987 (Simulation time: 0 hr 15 min 54 sec) 
Heartbeat CPU 2 instructions: 50000002 cycles: 14605510 heartbeat IPC: 3.42416 cumulative IPC: 3.42337 (Simulation time: 0 hr 17 min 13 sec) 
Heartbeat CPU 1 instructions: 50000000 cycles: 14651864 heartbeat IPC: 3.41426 cumulative IPC: 3.41254 (Simulation time: 0 hr 17 min 16 sec) 
Heartbeat CPU 0 instructions: 50000000 cycles: 15954443 heartbeat IPC: 3.15556 cumulative IPC: 3.13392 (Simulation time: 0 hr 18 min 15 sec) 

Warmup complete CPU 0 instructions: 50000004 cycles: 15954444 (Simulation time: 0 hr 18 min 15 sec) 
Warmup complete CPU 1 instructions: 53450995 cycles: 15954443 (Simulation time: 0 hr 18 min 15 sec) 
Warmup complete CPU 2 instructions: 53549288 cycles: 15954443 (Simulation time: 0 hr 18 min 15 sec) 
Warmup complete CPU 3 instructions: 59827850 cycles: 15954443 (Simulation time: 0 hr 18 min 15 sec) 

Heartbeat CPU 3 instructions: 60000001 cycles: 16099656 heartbeat IPC: 3.6155 cumulative IPC: 1.18551 (Simulation time: 0 hr 18 min 17 sec) 
Heartbeat CPU 2 instructions: 60000003 cycles: 23782984 heartbeat IPC: 1.08962 cumulative IPC: 0.824 (Simulation time: 0 hr 20 min 33 sec) 
Heartbeat CPU 1 instructions: 60000002 cycles: 23902821 heartbeat IPC: 1.08097 cumulative IPC: 0.823943 (Simulation time: 0 hr 20 min 36 sec) 
Heartbeat CPU 3 instructions: 70000003 cycles: 33195285 heartbeat IPC: 0.584945 cumulative IPC: 0.590003 (Simulation time: 0 hr 23 min 3 sec) 
Heartbeat CPU 2 instructions: 70000003 cycles: 35843175 heartbeat IPC: 0.829174 cumulative IPC: 0.827137 (Simulation time: 0 hr 23 min 48 sec) 
Heartbeat CPU 1 instructions: 70000000 cycles: 35865012 heartbeat IPC: 0.835967 cumulative IPC: 0.831167 (Simulation time: 0 hr 23 min 48 sec) 
Heartbeat CPU 3 instructions: 80000001 cycles: 43446550 heartbeat IPC: 0.975489 cumulative IPC: 0.733743 (Simulation time: 0 hr 25 min 50 sec) 
Heartbeat CPU 2 instructions: 80000001 cycles: 47555714 heartbeat IPC: 0.853786 cumulative IPC: 0.837014 (Simulation time: 0 hr 27 min 0 sec) 
Heartbeat CPU 1 instructions: 80000001 cycles: 47847545 heartbeat IPC: 0.834548 cumulative IPC: 0.832437 (Simulation time: 0 hr 27 min 6 sec) 
Heartbeat CPU 3 instructions: 90000000 cycles: 53842593 heartbeat IPC: 0.961904 cumulative IPC: 0.796348 (Simulation time: 0 hr 28 min 43 sec) 
Heartbeat CPU 2 instructions: 90000001 cycles: 59670550 heartbeat IPC: 0.825434 cumulative IPC: 0.833805 (Simulation time: 0 hr 30 min 13 sec) 
Heartbeat CPU 1 instructions: 90000001 cycles: 59825454 heartbeat IPC: 0.83487 cumulative IPC: 0.833102 (Simulation time: 0 hr 30 min 15 sec) 
Heartbeat CPU 3 instructions: 100000000 cycles: 64095586 heartbeat IPC: 0.975325 cumulative IPC: 0.834466 (Simulation time: 0 hr 31 min 26 sec) 
Heartbeat CPU 1 instructions: 100000001 cycles: 71834947 heartbeat IPC: 0.832675 cumulative IPC: 0.83301 (Simulation time: 0 hr 33 min 32 sec) 
Heartbeat CPU 2 instructions: 100000003 cycles: 71853378 heartbeat IPC: 0.820828 cumulative IPC: 0.830977 (Simulation time: 0 hr 33 min 32 sec) 
Heartbeat CPU 3 instructions: 110000000 cycles: 74273457 heartbeat IPC: 0.982524 cumulative IPC: 0.860305 (Simulation time: 0 hr 34 min 11 sec) 
Heartbeat CPU 1 instructions: 110000000 cycles: 83871744 heartbeat IPC: 0.830786 cumulative IPC: 0.832616 (Simulation time: 0 hr 36 min 48 sec) 
Heartbeat CPU 2 instructions: 110000000 cycles: 84044050 heartbeat IPC: 0.820299 cumulative IPC: 0.829065 (Simulation time: 0 hr 36 min 50 sec) 
Heartbeat CPU 3 instructions: 120000001 cycles: 84548262 heartbeat IPC: 0.973255 cumulative IPC: 0.877224 (Simulation time: 0 hr 36 min 58 sec) 
Heartbeat CPU 3 instructions: 130000003 cycles: 94876602 heartbeat IPC: 0.96821 cumulative IPC: 0.889131 (Simulation time: 0 hr 39 min 36 sec) 
Heartbeat CPU 1 instructions: 120000000 cycles: 95724642 heartbeat IPC: 0.843676 cumulative IPC: 0.834259 (Simulation time: 0 hr 39 min 50 sec) 
Heartbeat CPU 2 instructions: 120000000 cycles: 96330838 heartbeat IPC: 0.813882 cumulative IPC: 0.826744 (Simulation time: 0 hr 40 min 1 sec) 
Heartbeat CPU 3 instructions: 140000000 cycles: 105243288 heartbeat IPC: 0.964628 cumulative IPC: 0.897897 (Simulation time: 0 hr 42 min 25 sec) 
Heartbeat CPU 1 instructions: 130000001 cycles: 107426153 heartbeat IPC: 0.854591 cumulative IPC: 0.83686 (Simulation time: 0 hr 43 min 0 sec) 
Heartbeat CPU 2 instructions: 130000003 cycles: 108477085 heartbeat IPC: 0.8233 cumulative IPC: 0.826292 (Simulation time: 0 hr 43 min 13 sec) 
Heartbeat CPU 0 instructions: 60000000 cycles: 114574576 heartbeat IPC: 0.101399 cumulative IPC: 0.101399 (Simulation time: 0 hr 44 min 49 sec) 
Heartbeat CPU 3 instructions: 150000000 cycles: 116153649 heartbeat IPC: 0.91656 cumulative IPC: 0.899929 (Simulation time: 0 hr 45 min 13 sec) 
Heartbeat CPU 1 instructions: 140000000 cycles: 119485096 heartbeat IPC: 0.82926 cumulative IPC: 0.835975 (Simulation time: 0 hr 46 min 7 sec) 
Heartbeat CPU 2 instructions: 140000000 cycles: 120662088 heartbeat IPC: 0.820681 cumulative IPC: 0.825639 (Simulation time: 0 hr 46 min 28 sec) 
Heartbeat CPU 3 instructions: 160000000 cycles: 125497544 heartbeat IPC: 1.07022 cumulative IPC: 0.914454 (Simulation time: 0 hr 47 min 54 sec) 
Heartbeat CPU 1 instructions: 150000000 cycles: 131696081 heartbeat IPC: 0.818935 cumulative IPC: 0.834177 (Simulation time: 0 hr 49 min 39 sec) 
Heartbeat CPU 2 instructions: 150000000 cycles: 132914290 heartbeat IPC: 0.81618 cumulative IPC: 0.824648 (Simulation time: 0 hr 49 min 57 sec) 
Heartbeat CPU 0 instructions: 70000003 cycles: 134432041 heartbeat IPC: 0.503589 cumulative IPC: 0.168808 (Simulation time: 0 hr 50 min 20 sec) 
Heartbeat CPU 3 instructions: 170000000 cycles: 135984470 heartbeat IPC: 0.953568 cumulative IPC: 0.917872 (Simulation time: 0 hr 50 min 43 sec) 
Heartbeat CPU 1 instructions: 160000002 cycles: 143809309 heartbeat IPC: 0.825544 cumulative IPC: 0.833359 (Simulation time: 0 hr 52 min 55 sec) 
Heartbeat CPU 2 instructions: 160000001 cycles: 145048415 heartbeat IPC: 0.824122 cumulative IPC: 0.824599 (Simulation time: 0 hr 53 min 14 sec) 
Heartbeat CPU 3 instructions: 180000000 cycles: 145844791 heartbeat IPC: 1.01417 cumulative IPC: 0.925182 (Simulation time: 0 hr 53 min 28 sec) 
Heartbeat CPU 0 instructions: 80000003 cycles: 153840498 heartbeat IPC: 0.515239 cumulative IPC: 0.217571 (Simulation time: 0 hr 55 min 45 sec) 
Heartbeat CPU 3 instructions: 190000003 cycles: 155713713 heartbeat IPC: 1.01328 cumulative IPC: 0.931403 (Simulation time: 0 hr 56 min 19 sec) 
Heartbeat CPU 1 instructions: 170000001 cycles: 155891876 heartbeat IPC: 0.827639 cumulative IPC: 0.832865 (Simulation time: 0 hr 56 min 22 sec) 
Heartbeat CPU 2 instructions: 170000002 cycles: 157241417 heartbeat IPC: 0.820143 cumulative IPC: 0.824214 (Simulation time: 0 hr 56 min 46 sec) 
Heartbeat CPU 3 instructions: 200000001 cycles: 165646113 heartbeat IPC: 1.00681 cumulative IPC: 0.936406 (Simulation time: 0 hr 59 min 15 sec) 
Heartbeat CPU 1 instructions: 180000000 cycles: 168095103 heartbeat IPC: 0.819455 cumulative IPC: 0.831789 (Simulation time: 0 hr 59 min 58 sec) 
Heartbeat CPU 2 instructions: 180000003 cycles: 169500084 heartbeat IPC: 0.815749 cumulative IPC: 0.823538 (Simulation time: 1 hr 0 min 23 sec) 
Heartbeat CPU 0 instructions: 90000001 cycles: 173231746 heartbeat IPC: 0.515696 cumulative IPC: 0.254328 (Simulation time: 1 hr 1 min 28 sec) 
Heartbeat CPU 3 instructions: 210000001 cycles: 175530126 heartbeat IPC: 1.01173 cumulative IPC: 0.941072 (Simulation time: 1 hr 2 min 6 sec) 
Heartbeat CPU 1 instructions: 190000000 cycles: 180249473 heartbeat IPC: 0.822749 cumulative IPC: 0.831121 (Simulation time: 1 hr 3 min 26 sec) 
Heartbeat CPU 2 instructions: 190000001 cycles: 181632603 heartbeat IPC: 0.824231 cumulative IPC: 0.823589 (Simulation time: 1 hr 3 min 51 sec) 
Heartbeat CPU 3 instructions: 220000000 cycles: 185689490 heartbeat IPC: 0.984313 cumulative IPC: 0.94366 (Simulation time: 1 hr 4 min 53 sec) 
Heartbeat CPU 1 instructions: 200000001 cycles: 192345117 heartbeat IPC: 0.826744 cumulative IPC: 0.830821 (Simulation time: 1 hr 6 min 48 sec) 
Heartbeat CPU 2 instructions: 200000001 cycles: 193832018 heartbeat IPC: 0.819711 cumulative IPC: 0.823323 (Simulation time: 1 hr 7 min 12 sec) 
Heartbeat CPU 0 instructions: 100000001 cycles: 195332017 heartbeat IPC: 0.452483 cumulative IPC: 0.278742 (Simulation time: 1 hr 7 min 39 sec) 
Heartbeat CPU 3 instructions: 230000002 cycles: 196001427 heartbeat IPC: 0.96975 cumulative IPC: 0.945154 (Simulation time: 1 hr 7 min 50 sec) 
Heartbeat CPU 1 instructions: 210000003 cycles: 204344343 heartbeat IPC: 0.833387 cumulative IPC: 0.830984 (Simulation time: 1 hr 10 min 10 sec) 
Heartbeat CPU 2 instructions: 210000003 cycles: 205924550 heartbeat IPC: 0.826957 cumulative IPC: 0.823554 (Simulation time: 1 hr 10 min 35 sec) 
Heartbeat CPU 3 instructions: 240000000 cycles: 206460030 heartbeat IPC: 0.95615 cumulative IPC: 0.945758 (Simulation time: 1 hr 10 min 44 sec) 
Heartbeat CPU 1 instructions: 220000000 cycles: 216296231 heartbeat IPC: 0.836688 cumulative IPC: 0.831324 (Simulation time: 1 hr 13 min 17 sec) 
Heartbeat CPU 2 instructions: 220000000 cycles: 218078196 heartbeat IPC: 0.822798 cumulative IPC: 0.823509 (Simulation time: 1 hr 13 min 46 sec) 
*** Reached end of trace for Core: 3 Repeating trace: ./traces/ligra/ligra_BC.com-lj.ungraph.gcc_6.3.0_O3.drop_15500M.length_250M.champsimtrace.xz
Heartbeat CPU 3 instructions: 250000003 cycles: 218222156 heartbeat IPC: 0.850187 cumulative IPC: 0.9402 (Simulation time: 1 hr 13 min 48 sec) 
Heartbeat CPU 1 instructions: 230000003 cycles: 228345736 heartbeat IPC: 0.82991 cumulative IPC: 0.831244 (Simulation time: 1 hr 17 min 7 sec) 
Heartbeat CPU 2 instructions: 230000000 cycles: 230366082 heartbeat IPC: 0.81381 cumulative IPC: 0.822953 (Simulation time: 1 hr 17 min 44 sec) 
Finished CPU 3 instructions: 200000002 cycles: 216332957 cumulative IPC: 0.924501 (Simulation time: 1 hr 18 min 21 sec) 
Heartbeat CPU 3 instructions: 260000001 cycles: 232533184 heartbeat IPC: 0.698762 cumulative IPC: 0.924247 (Simulation time: 1 hr 18 min 26 sec) 
Heartbeat CPU 1 instructions: 240000001 cycles: 240263030 heartbeat IPC: 0.839117 cumulative IPC: 0.831662 (Simulation time: 1 hr 20 min 50 sec) 
Heartbeat CPU 2 instructions: 240000000 cycles: 242630558 heartbeat IPC: 0.815363 cumulative IPC: 0.822542 (Simulation time: 1 hr 21 min 29 sec) 
Heartbeat CPU 3 instructions: 270000000 cycles: 247164319 heartbeat IPC: 0.683474 cumulative IPC: 0.90901 (Simulation time: 1 hr 22 min 56 sec) 
Heartbeat CPU 0 instructions: 110000000 cycles: 248232288 heartbeat IPC: 0.189035 cumulative IPC: 0.258311 (Simulation time: 1 hr 23 min 14 sec) 
*** Reached end of trace for Core: 1 Repeating trace: ./traces/ligra/ligra_BFS.com-lj.ungraph.gcc_6.3.0_O3.drop_11500M.length_250M.champsimtrace.xz
Heartbeat CPU 1 instructions: 250000001 cycles: 252106175 heartbeat IPC: 0.84437 cumulative IPC: 0.8323 (Simulation time: 1 hr 24 min 22 sec) 
*** Reached end of trace for Core: 2 Repeating trace: ./traces/ligra/ligra_BFS-Bitvector.com-lj.ungraph.gcc_6.3.0_O3.drop_9750M.length_250M.champsimtrace.xz
Heartbeat CPU 2 instructions: 250000000 cycles: 254740112 heartbeat IPC: 0.825794 cumulative IPC: 0.822707 (Simulation time: 1 hr 25 min 4 sec) 
Finished CPU 1 instructions: 200000003 cycles: 240273099 cumulative IPC: 0.832386 (Simulation time: 1 hr 25 min 31 sec) 
Finished CPU 2 instructions: 200000002 cycles: 243259861 cumulative IPC: 0.822166 (Simulation time: 1 hr 26 min 25 sec) 
Heartbeat CPU 3 instructions: 280000002 cycles: 261830274 heartbeat IPC: 0.681851 cumulative IPC: 0.895461 (Simulation time: 1 hr 27 min 9 sec) 
Heartbeat CPU 1 instructions: 260000002 cycles: 264166689 heartbeat IPC: 0.829152 cumulative IPC: 0.832147 (Simulation time: 1 hr 27 min 53 sec) 
Heartbeat CPU 2 instructions: 260000003 cycles: 267305233 heartbeat IPC: 0.795854 cumulative IPC: 0.821365 (Simulation time: 1 hr 28 min 49 sec) 
Heartbeat CPU 1 instructions: 270000001 cycles: 276385881 heartbeat IPC: 0.818385 cumulative IPC: 0.831501 (Simulation time: 1 hr 31 min 41 sec) 
Heartbeat CPU 3 instructions: 290000003 cycles: 276490159 heartbeat IPC: 0.682134 cumulative IPC: 0.883457 (Simulation time: 1 hr 31 min 43 sec) 
Heartbeat CPU 2 instructions: 270000003 cycles: 279684530 heartbeat IPC: 0.8078 cumulative IPC: 0.820728 (Simulation time: 1 hr 32 min 45 sec) 
Heartbeat CPU 1 instructions: 280000001 cycles: 288450016 heartbeat IPC: 0.828903 cumulative IPC: 0.831386 (Simulation time: 1 hr 35 min 35 sec) 
Heartbeat CPU 3 instructions: 300000003 cycles: 291178674 heartbeat IPC: 0.680804 cumulative IPC: 0.872642 (Simulation time: 1 hr 36 min 27 sec) 
Heartbeat CPU 2 instructions: 280000002 cycles: 291966556 heartbeat IPC: 0.814198 cumulative IPC: 0.820438 (Simulation time: 1 hr 36 min 42 sec) 
Heartbeat CPU 1 instructions: 290000001 cycles: 300434129 heartbeat IPC: 0.834438 cumulative IPC: 0.831515 (Simulation time: 1 hr 39 min 22 sec) 
Heartbeat CPU 2 instructions: 290000001 cycles: 304256242 heartbeat IPC: 0.81369 cumulative IPC: 0.82015 (Simulation time: 1 hr 40 min 29 sec) 
Heartbeat CPU 3 instructions: 310000003 cycles: 305932728 heartbeat IPC: 0.67778 cumulative IPC: 0.862727 (Simulation time: 1 hr 41 min 2 sec) 
Heartbeat CPU 1 instructions: 300000003 cycles: 312378789 heartbeat IPC: 0.837194 cumulative IPC: 0.831743 (Simulation time: 1 hr 42 min 57 sec) 
Heartbeat CPU 2 instructions: 300000001 cycles: 316446144 heartbeat IPC: 0.820351 cumulative IPC: 0.820158 (Simulation time: 1 hr 43 min 54 sec) 
Heartbeat CPU 1 instructions: 310000000 cycles: 324513125 heartbeat IPC: 0.824107 cumulative IPC: 0.831443 (Simulation time: 1 hr 45 min 52 sec) 
Heartbeat CPU 3 instructions: 320000001 cycles: 325328041 heartbeat IPC: 0.515588 cumulative IPC: 0.840964 (Simulation time: 1 hr 46 min 6 sec) 
Heartbeat CPU 2 instructions: 310000000 cycles: 328611960 heartbeat IPC: 0.821975 cumulative IPC: 0.820229 (Simulation time: 1 hr 46 min 52 sec) 
Heartbeat CPU 0 instructions: 120000002 cycles: 334509085 heartbeat IPC: 0.115906 cumulative IPC: 0.219743 (Simulation time: 1 hr 48 min 15 sec) 
Heartbeat CPU 1 instructions: 320000001 cycles: 336479082 heartbeat IPC: 0.835704 cumulative IPC: 0.831602 (Simulation time: 1 hr 48 min 47 sec) 
Heartbeat CPU 3 instructions: 330000000 cycles: 336574011 heartbeat IPC: 0.889207 cumulative IPC: 0.842656 (Simulation time: 1 hr 48 min 49 sec) 
Heartbeat CPU 2 instructions: 320000000 cycles: 340655086 heartbeat IPC: 0.830349 cumulative IPC: 0.820604 (Simulation time: 1 hr 49 min 57 sec) 
Heartbeat CPU 3 instructions: 340000000 cycles: 347912709 heartbeat IPC: 0.881935 cumulative IPC: 0.843998 (Simulation time: 1 hr 51 min 55 sec) 
Heartbeat CPU 1 instructions: 330000000 cycles: 348477595 heartbeat IPC: 0.833437 cumulative IPC: 0.831668 (Simulation time: 1 hr 52 min 4 sec) 
Heartbeat CPU 2 instructions: 330000000 cycles: 352377680 heartbeat IPC: 0.853054 cumulative IPC: 0.821735 (Simulation time: 1 hr 53 min 12 sec) 
Heartbeat CPU 3 instructions: 350000002 cycles: 357222663 heartbeat IPC: 1.07412 cumulative IPC: 0.850276 (Simulation time: 1 hr 54 min 19 sec) 
Heartbeat CPU 1 instructions: 340000002 cycles: 360443498 heartbeat IPC: 0.835708 cumulative IPC: 0.831809 (Simulation time: 1 hr 55 min 16 sec) 
Heartbeat CPU 2 instructions: 340000002 cycles: 364459587 heartbeat IPC: 0.827684 cumulative IPC: 0.821941 (Simulation time: 1 hr 56 min 25 sec) 
Heartbeat CPU 3 instructions: 360000003 cycles: 365457954 heartbeat IPC: 1.21429 cumulative IPC: 0.858853 (Simulation time: 1 hr 56 min 43 sec) 
Heartbeat CPU 1 instructions: 350000000 cycles: 372439396 heartbeat IPC: 0.833618 cumulative IPC: 0.83187 (Simulation time: 1 hr 58 min 33 sec) 
Heartbeat CPU 3 instructions: 370000000 cycles: 373776878 heartbeat IPC: 1.20208 cumulative IPC: 0.866833 (Simulation time: 1 hr 58 min 57 sec) 
Heartbeat CPU 2 instructions: 350000000 cycles: 376599663 heartbeat IPC: 0.823718 cumulative IPC: 0.822001 (Simulation time: 1 hr 59 min 44 sec) 
Heartbeat CPU 3 instructions: 380000002 cycles: 382125887 heartbeat IPC: 1.19775 cumulative IPC: 0.874378 (Simulation time: 2 hr 1 min 20 sec) 
Heartbeat CPU 1 instructions: 360000001 cycles: 384457169 heartbeat IPC: 0.832101 cumulative IPC: 0.831877 (Simulation time: 2 hr 2 min 0 sec) 
Heartbeat CPU 2 instructions: 360000001 cycles: 388761723 heartbeat IPC: 0.822229 cumulative IPC: 0.822008 (Simulation time: 2 hr 3 min 15 sec) 
Heartbeat CPU 3 instructions: 390000000 cycles: 390688619 heartbeat IPC: 1.16785 cumulative IPC: 0.881084 (Simulation time: 2 hr 3 min 48 sec) 
Heartbeat CPU 1 instructions: 370000003 cycles: 396298461 heartbeat IPC: 0.844503 cumulative IPC: 0.83227 (Simulation time: 2 hr 5 min 20 sec) 
Heartbeat CPU 3 instructions: 400000003 cycles: 399680796 heartbeat IPC: 1.11208 cumulative IPC: 0.886497 (Simulation time: 2 hr 6 min 13 sec) 
Heartbeat CPU 2 instructions: 370000001 cycles: 401016716 heartbeat IPC: 0.815994 cumulative IPC: 0.821817 (Simulation time: 2 hr 6 min 32 sec) 
Heartbeat CPU 0 instructions: 130000000 cycles: 402238252 heartbeat IPC: 0.147647 cumulative IPC: 0.207102 (Simulation time: 2 hr 6 min 53 sec) 
Heartbeat CPU 1 instructions: 380000000 cycles: 407974908 heartbeat IPC: 0.856425 cumulative IPC: 0.83299 (Simulation time: 2 hr 8 min 38 sec) 
Heartbeat CPU 3 instructions: 410000001 cycles: 408213620 heartbeat IPC: 1.17194 cumulative IPC: 0.892706 (Simulation time: 2 hr 8 min 42 sec) 
Heartbeat CPU 2 instructions: 380000000 cycles: 413122092 heartbeat IPC: 0.826079 cumulative IPC: 0.821947 (Simulation time: 2 hr 9 min 50 sec) 
Heartbeat CPU 3 instructions: 420000002 cycles: 417390413 heartbeat IPC: 1.08971 cumulative IPC: 0.897209 (Simulation time: 2 hr 10 min 51 sec) 
Heartbeat CPU 1 instructions: 390000001 cycles: 420023979 heartbeat IPC: 0.82994 cumulative IPC: 0.832899 (Simulation time: 2 hr 11 min 34 sec) 
Heartbeat CPU 2 instructions: 390000001 cycles: 425293226 heartbeat IPC: 0.821616 cumulative IPC: 0.821937 (Simulation time: 2 hr 13 min 3 sec) 
Heartbeat CPU 3 instructions: 430000003 cycles: 425787242 heartbeat IPC: 1.19093 cumulative IPC: 0.903227 (Simulation time: 2 hr 13 min 10 sec) 
Heartbeat CPU 1 instructions: 400000001 cycles: 432233330 heartbeat IPC: 0.819044 cumulative IPC: 0.832492 (Simulation time: 2 hr 15 min 1 sec) 
Heartbeat CPU 3 instructions: 440000000 cycles: 434339495 heartbeat IPC: 1.16928 cumulative IPC: 0.908666 (Simulation time: 2 hr 15 min 36 sec) 
Heartbeat CPU 2 instructions: 400000001 cycles: 437544899 heartbeat IPC: 0.816215 cumulative IPC: 0.821771 (Simulation time: 2 hr 16 min 34 sec) 
Heartbeat CPU 3 instructions: 450000002 cycles: 442883477 heartbeat IPC: 1.17041 cumulative IPC: 0.913904 (Simulation time: 2 hr 18 min 6 sec) 
Heartbeat CPU 1 instructions: 410000003 cycles: 444326098 heartbeat IPC: 0.826941 cumulative IPC: 0.832336 (Simulation time: 2 hr 18 min 31 sec) 
Heartbeat CPU 2 instructions: 410000002 cycles: 449654500 heartbeat IPC: 0.825791 cumulative IPC: 0.821883 (Simulation time: 2 hr 20 min 3 sec) 
Heartbeat CPU 3 instructions: 460000003 cycles: 451415843 heartbeat IPC: 1.17201 cumulative IPC: 0.918961 (Simulation time: 2 hr 20 min 35 sec) 
Heartbeat CPU 1 instructions: 420000002 cycles: 456396376 heartbeat IPC: 0.828481 cumulative IPC: 0.83223 (Simulation time: 2 hr 21 min 45 sec) 
Heartbeat CPU 3 instructions: 470000003 cycles: 460024839 heartbeat IPC: 1.16158 cumulative IPC: 0.923665 (Simulation time: 2 hr 22 min 47 sec) 
Heartbeat CPU 2 instructions: 420000000 cycles: 461825612 heartbeat IPC: 0.821617 cumulative IPC: 0.821876 (Simulation time: 2 hr 23 min 18 sec) 
Heartbeat CPU 1 instructions: 430000001 cycles: 468582693 heartbeat IPC: 0.820592 cumulative IPC: 0.831917 (Simulation time: 2 hr 25 min 9 sec) 
Heartbeat CPU 0 instructions: 140000000 cycles: 468588360 heartbeat IPC: 0.150716 cumulative IPC: 0.198836 (Simulation time: 2 hr 25 min 10 sec) 
Heartbeat CPU 3 instructions: 480000000 cycles: 469079217 heartbeat IPC: 1.10444 cumulative IPC: 0.927277 (Simulation time: 2 hr 25 min 19 sec) 
Heartbeat CPU 2 instructions: 430000000 cycles: 474124476 heartbeat IPC: 0.813083 cumulative IPC: 0.82164 (Simulation time: 2 hr 27 min 0 sec) 
Heartbeat CPU 1 instructions: 440000000 cycles: 480844579 heartbeat IPC: 0.815535 cumulative IPC: 0.831485 (Simulation time: 2 hr 29 min 20 sec) 
Heartbeat CPU 0 instructions: 150000000 cycles: 482147364 heartbeat IPC: 0.737517 cumulative IPC: 0.214503 (Simulation time: 2 hr 29 min 45 sec) 
Heartbeat CPU 2 instructions: 440000000 cycles: 486366372 heartbeat IPC: 0.816867 cumulative IPC: 0.821516 (Simulation time: 2 hr 31 min 14 sec) 
Heartbeat CPU 3 instructions: 490000002 cycles: 486747658 heartbeat IPC: 0.565981 cumulative IPC: 0.913718 (Simulation time: 2 hr 31 min 22 sec) 
Heartbeat CPU 1 instructions: 450000000 cycles: 493041505 heartbeat IPC: 0.819879 cumulative IPC: 0.831188 (Simulation time: 2 hr 33 min 31 sec) 
Heartbeat CPU 0 instructions: 160000001 cycles: 496381185 heartbeat IPC: 0.702552 cumulative IPC: 0.228963 (Simulation time: 2 hr 34 min 43 sec) 
Heartbeat CPU 2 instructions: 450000002 cycles: 498673387 heartbeat IPC: 0.812545 cumulative IPC: 0.821287 (Simulation time: 2 hr 35 min 29 sec) 
*** Reached end of trace for Core: 3 Repeating trace: ./traces/ligra/ligra_BC.com-lj.ungraph.gcc_6.3.0_O3.drop_15500M.length_250M.champsimtrace.xz
Heartbeat CPU 3 instructions: 500000001 cycles: 504979082 heartbeat IPC: 0.548503 cumulative IPC: 0.900102 (Simulation time: 2 hr 37 min 41 sec) 
Heartbeat CPU 1 instructions: 460000000 cycles: 505158864 heartbeat IPC: 0.825262 cumulative IPC: 0.831041 (Simulation time: 2 hr 37 min 45 sec) 
Heartbeat CPU 2 instructions: 460000000 cycles: 510862643 heartbeat IPC: 0.820394 cumulative IPC: 0.821265 (Simulation time: 2 hr 39 min 50 sec) 
Heartbeat CPU 0 instructions: 170000001 cycles: 511302214 heartbeat IPC: 0.670195 cumulative IPC: 0.242254 (Simulation time: 2 hr 39 min 59 sec) 
Heartbeat CPU 1 instructions: 470000000 cycles: 517164680 heartbeat IPC: 0.83293 cumulative IPC: 0.831086 (Simulation time: 2 hr 42 min 0 sec) 
Heartbeat CPU 3 instructions: 510000002 cycles: 519471384 heartbeat IPC: 0.690022 cumulative IPC: 0.894056 (Simulation time: 2 hr 42 min 51 sec) 
Heartbeat CPU 2 instructions: 470000001 cycles: 523059210 heartbeat IPC: 0.819903 cumulative IPC: 0.821232 (Simulation time: 2 hr 44 min 7 sec) 
Heartbeat CPU 0 instructions: 180000001 cycles: 529044559 heartbeat IPC: 0.563623 cumulative IPC: 0.253367 (Simulation time: 2 hr 46 min 22 sec) 
Heartbeat CPU 1 instructions: 480000001 cycles: 529193647 heartbeat IPC: 0.831327 cumulative IPC: 0.831092 (Simulation time: 2 hr 46 min 26 sec) 
Heartbeat CPU 3 instructions: 520000001 cycles: 532139794 heartbeat IPC: 0.789365 cumulative IPC: 0.891486 (Simulation time: 2 hr 47 min 31 sec) 
Heartbeat CPU 2 instructions: 480000001 cycles: 535314936 heartbeat IPC: 0.815945 cumulative IPC: 0.821107 (Simulation time: 2 hr 48 min 49 sec) 
Heartbeat CPU 1 instructions: 490000000 cycles: 541063565 heartbeat IPC: 0.842466 cumulative IPC: 0.831349 (Simulation time: 2 hr 51 min 12 sec) 
Heartbeat CPU 0 instructions: 190000003 cycles: 544075808 heartbeat IPC: 0.665281 cumulative IPC: 0.265091 (Simulation time: 2 hr 52 min 22 sec) 
Heartbeat CPU 3 instructions: 530000002 cycles: 544223502 heartbeat IPC: 0.827561 cumulative IPC: 0.890024 (Simulation time: 2 hr 52 min 25 sec) 
Heartbeat CPU 2 instructions: 490000001 cycles: 547535078 heartbeat IPC: 0.818321 cumulative IPC: 0.821043 (Simulation time: 2 hr 53 min 42 sec) 
*** Reached end of trace for Core: 1 Repeating trace: ./traces/ligra/ligra_BFS.com-lj.ungraph.gcc_6.3.0_O3.drop_11500M.length_250M.champsimtrace.xz
Heartbeat CPU 1 instructions: 500000002 cycles: 552855785 heartbeat IPC: 0.848017 cumulative IPC: 0.831715 (Simulation time: 2 hr 55 min 26 sec) 
Heartbeat CPU 3 instructions: 540000002 cycles: 556581870 heartbeat IPC: 0.809168 cumulative IPC: 0.888176 (Simulation time: 2 hr 56 min 49 sec) 
*** Reached end of trace for Core: 2 Repeating trace: ./traces/ligra/ligra_BFS-Bitvector.com-lj.ungraph.gcc_6.3.0_O3.drop_9750M.length_250M.champsimtrace.xz
Heartbeat CPU 2 instructions: 500000000 cycles: 559605673 heartbeat IPC: 0.82846 cumulative IPC: 0.821208 (Simulation time: 2 hr 58 min 0 sec) 
Heartbeat CPU 0 instructions: 200000001 cycles: 560672054 heartbeat IPC: 0.602546 cumulative IPC: 0.275372 (Simulation time: 2 hr 58 min 23 sec) 
Heartbeat CPU 1 instructions: 510000003 cycles: 564878222 heartbeat IPC: 0.831778 cumulative IPC: 0.831717 (Simulation time: 2 hr 59 min 55 sec) 
Heartbeat CPU 3 instructions: 550000000 cycles: 569311652 heartbeat IPC: 0.785559 cumulative IPC: 0.885815 (Simulation time: 3 hr 1 min 29 sec) 
Heartbeat CPU 2 instructions: 510000000 cycles: 572119089 heartbeat IPC: 0.799142 cumulative IPC: 0.820711 (Simulation time: 3 hr 2 min 20 sec) 
Heartbeat CPU 1 instructions: 520000002 cycles: 577061692 heartbeat IPC: 0.820784 cumulative IPC: 0.831479 (Simulation time: 3 hr 3 min 51 sec) 
Heartbeat CPU 0 instructions: 210000002 cycles: 579742621 heartbeat IPC: 0.524368 cumulative IPC: 0.283795 (Simulation time: 3 hr 4 min 41 sec) 
Heartbeat CPU 3 instructions: 560000003 cycles: 581955796 heartbeat IPC: 0.79088 cumulative IPC: 0.883694 (Simulation time: 3 hr 5 min 24 sec) 
Heartbeat CPU 2 instructions: 520000000 cycles: 584449369 heartbeat IPC: 0.811012 cumulative IPC: 0.820501 (Simulation time: 3 hr 6 min 20 sec) 
Heartbeat CPU 1 instructions: 530000002 cycles: 589079662 heartbeat IPC: 0.832087 cumulative IPC: 0.831492 (Simulation time: 3 hr 8 min 9 sec) 
Heartbeat CPU 0 instructions: 220000000 cycles: 596214667 heartbeat IPC: 0.607089 cumulative IPC: 0.292972 (Simulation time: 3 hr 10 min 40 sec) 
Heartbeat CPU 2 instructions: 530000003 cycles: 596696800 heartbeat IPC: 0.816498 cumulative IPC: 0.820417 (Simulation time: 3 hr 10 min 50 sec) 
Heartbeat CPU 3 instructions: 570000003 cycles: 598188683 heartbeat IPC: 0.616033 cumulative IPC: 0.876232 (Simulation time: 3 hr 11 min 21 sec) 
Heartbeat CPU 1 instructions: 540000002 cycles: 600988084 heartbeat IPC: 0.839742 cumulative IPC: 0.83166 (Simulation time: 3 hr 12 min 16 sec) 
Heartbeat CPU 3 instructions: 580000003 cycles: 606936075 heartbeat IPC: 1.1432 cumulative IPC: 0.880183 (Simulation time: 3 hr 14 min 33 sec) 
Heartbeat CPU 2 instructions: 540000000 cycles: 608899100 heartbeat IPC: 0.819517 cumulative IPC: 0.820398 (Simulation time: 3 hr 15 min 16 sec) 
Heartbeat CPU 0 instructions: 230000001 cycles: 609193622 heartbeat IPC: 0.770478 cumulative IPC: 0.303419 (Simulation time: 3 hr 15 min 22 sec) 
Heartbeat CPU 1 instructions: 550000000 cycles: 612837485 heartbeat IPC: 0.843924 cumulative IPC: 0.831903 (Simulation time: 3 hr 16 min 38 sec) 
Heartbeat CPU 3 instructions: 590000003 cycles: 615521033 heartbeat IPC: 1.16483 cumulative IPC: 0.884259 (Simulation time: 3 hr 17 min 39 sec) 
Heartbeat CPU 2 instructions: 550000000 cycles: 620992711 heartbeat IPC: 0.826883 cumulative IPC: 0.820528 (Simulation time: 3 hr 19 min 28 sec) 
Heartbeat CPU 0 instructions: 240000003 cycles: 621621810 heartbeat IPC: 0.804623 cumulative IPC: 0.313704 (Simulation time: 3 hr 19 min 40 sec) 
Heartbeat CPU 3 instructions: 600000000 cycles: 624112807 heartbeat IPC: 1.1639 cumulative IPC: 0.88821 (Simulation time: 3 hr 20 min 33 sec) 
Heartbeat CPU 1 instructions: 560000001 cycles: 624877563 heartbeat IPC: 0.830559 cumulative IPC: 0.831877 (Simulation time: 3 hr 20 min 52 sec) 
Heartbeat CPU 3 instructions: 610000002 cycles: 632886515 heartbeat IPC: 1.13977 cumulative IPC: 0.891787 (Simulation time: 3 hr 23 min 32 sec) 
Heartbeat CPU 2 instructions: 560000001 cycles: 633096693 heartbeat IPC: 0.826174 cumulative IPC: 0.820639 (Simulation time: 3 hr 23 min 36 sec) 
Heartbeat CPU 1 instructions: 570000000 cycles: 636787952 heartbeat IPC: 0.839603 cumulative IPC: 0.832025 (Simulation time: 3 hr 24 min 53 sec) 
*** Reached end of trace for Core: 0 Repeating trace: ./traces/ligra/ligra_PageRank.com-lj.ungraph.gcc_6.3.0_O3.drop_60750M.length_250M.champsimtrace.xz
Heartbeat CPU 0 instructions: 250000002 cycles: 637254590 heartbeat IPC: 0.639681 cumulative IPC: 0.321906 (Simulation time: 3 hr 25 min 3 sec) 
Finished CPU 0 instructions: 200000000 cycles: 621301148 cumulative IPC: 0.321905 (Simulation time: 3 hr 25 min 3 sec) 

ChampSim completed all CPUs

Total Simulation Statistics (not including warmup)

CPU 0 cumulative IPC: 0.321905 instructions: 200000000 cycles: 621301148
ITLB TOTAL     ACCESS:   31209038  HIT:   31209029  MISS:          9  HIT %:        100  MISS %: 2.88378e-05   MPKI: 4.5e-05
ITLB LOAD      ACCESS:          0  HIT:          0  MISS:          0  HIT %:       -nan  MISS %:       -nan   MPKI: 0
ITLB RFO       ACCESS:          0  HIT:          0  MISS:          0  HIT %:       -nan  MISS %:       -nan   MPKI: 0
ITLB PREFETCH  ACCESS:          0  HIT:          0  MISS:          0  HIT %:       -nan  MISS %:       -nan   MPKI: 0
ITLB WRITEBACK ACCESS:          0  HIT:          0  MISS:          0  HIT %:       -nan  MISS %:       -nan   MPKI: 0
DTLB TOTAL     ACCESS:   42521442  HIT:   37731221  MISS:    4790221  HIT %:    88.7346  MISS %:    11.2654   MPKI: 23.9511
DTLB LOAD      ACCESS:          0  HIT:          0  MISS:          0  HIT %:       -nan  MISS %:       -nan   MPKI: 0
DTLB RFO       ACCESS:          0  HIT:          0  MISS:          0  HIT %:       -nan  MISS %:       -nan   MPKI: 0
DTLB PREFETCH  ACCESS:          0  HIT:          0  MISS:          0  HIT %:       -nan  MISS %:       -nan   MPKI: 0
DTLB WRITEBACK ACCESS:          0  HIT:          0  MISS:          0  HIT %:       -nan  MISS %:       -nan   MPKI: 0
STLB TOTAL     ACCESS:   15157363  HIT:   14781315  MISS:     376048  HIT %:     97.519  MISS %:    2.48096   MPKI: 1.88024
STLB LOAD      ACCESS:          0  HIT:          0  MISS:          0  HIT %:       -nan  MISS %:       -nan   MPKI: 0
STLB RFO       ACCESS:          0  HIT:          0  MISS:          0  HIT %:       -nan  MISS %:       -nan   MPKI: 0
STLB PREFETCH  ACCESS:          0  HIT:          0  MISS:          0  HIT %:       -nan  MISS %:       -nan   MPKI: 0
STLB WRITEBACK ACCESS:          0  HIT:          0  MISS:          0  HIT %:       -nan  MISS %:       -nan   MPKI: 0
L1D TOTAL     ACCESS:   55359696  HIT:   36943075  MISS:   18416621  HIT %:    66.7328  MISS %:    33.2672   MPKI: 92.0831
L1D LOAD      ACCESS:   31225951  HIT:   22302685  MISS:    8923266  HIT %:    71.4236  MISS %:    28.5764   MPKI: 44.6163
L1D RFO       ACCESS:   10624693  HIT:   10119612  MISS:     505081  HIT %:    95.2462  MISS %:    4.75384   MPKI: 2.52541
L1D PREFETCH  ACCESS:   13509052  HIT:    4520778  MISS:    8988274  HIT %:    33.4648  MISS %:    66.5352   MPKI: 44.9414
L1D WRITEBACK ACCESS:          0  HIT:          0  MISS:          0  HIT %:       -nan  MISS %:       -nan   MPKI: 0
L1I TOTAL     ACCESS:   34269371  HIT:   34269275  MISS:         96  HIT %:    99.9997  MISS %: 0.000280134   MPKI: 0.00048
L1I LOAD      ACCESS:   34269371  HIT:   34269275  MISS:         96  HIT %:    99.9997  MISS %: 0.000280134   MPKI: 0.00048
L1I RFO       ACCESS:          0  HIT:          0  MISS:          0  HIT %:       -nan  MISS %:       -nan   MPKI: 0
L1I PREFETCH  ACCESS:          0  HIT:          0  MISS:          0  HIT %:       -nan  MISS %:       -nan   MPKI: 0
L1I WRITEBACK ACCESS:          0  HIT:          0  MISS:          0  HIT %:       -nan  MISS %:       -nan   MPKI: 0
L2C TOTAL     ACCESS:   20442068  HIT:   11511493  MISS:    8930575  HIT %:    56.3128  MISS %:    43.6872   MPKI: 44.6529
L2C LOAD      ACCESS:    7866620  HIT:    5030190  MISS:    2836430  HIT %:    63.9435  MISS %:    36.0565   MPKI: 14.1822
L2C RFO       ACCESS:     505081  HIT:          0  MISS:     505081  HIT %:          0  MISS %:        100   MPKI: 2.52541
L2C PREFETCH  ACCESS:   10045015  HIT:    4776101  MISS:    5268914  HIT %:     47.547  MISS %:     52.453   MPKI: 26.3446
L2C WRITEBACK ACCESS:    1559468  HIT:    1393946  MISS:     165522  HIT %:     89.386  MISS %:     10.614   MPKI: 0.82761
PSCL5 TOTAL     ACCESS:     376048  HIT:     376048  MISS:          0  HIT %:        100  MISS %:          0   MPKI: 0
PSCL5 LOAD      ACCESS:          0  HIT:          0  MISS:          0  HIT %:       -nan  MISS %:       -nan   MPKI: 0
PSCL5 RFO       ACCESS:          0  HIT:          0  MISS:          0  HIT %:       -nan  MISS %:       -nan   MPKI: 0
PSCL5 PREFETCH  ACCESS:          0  HIT:          0  MISS:          0  HIT %:       -nan  MISS %:       -nan   MPKI: 0
PSCL5 WRITEBACK ACCESS:          0  HIT:          0  MISS:          0  HIT %:       -nan  MISS %:       -nan   MPKI: 0
PSCL4 TOTAL     ACCESS:     376048  HIT:     376048  MISS:          0  HIT %:        100  MISS %:          0   MPKI: 0
PSCL4 LOAD      ACCESS:          0  HIT:          0  MISS:          0  HIT %:       -nan  MISS %:       -nan   MPKI: 0
PSCL4 RFO       ACCESS:          0  HIT:          0  MISS:          0  HIT %:       -nan  MISS %:       -nan   MPKI: 0
PSCL4 PREFETCH  ACCESS:          0  HIT:          0  MISS:          0  HIT %:       -nan  MISS %:       -nan   MPKI: 0
PSCL4 WRITEBACK ACCESS:          0  HIT:          0  MISS:          0  HIT %:       -nan  MISS %:       -nan   MPKI: 0
PSCL3 TOTAL     ACCESS:     376048  HIT:     376048  MISS:          0  HIT %:        100  MISS %:          0   MPKI: 0
PSCL3 LOAD      ACCESS:          0  HIT:          0  MISS:          0  HIT %:       -nan  MISS %:       -nan   MPKI: 0
PSCL3 RFO       ACCESS:          0  HIT:          0  MISS:          0  HIT %:       -nan  MISS %:       -nan   MPKI: 0
PSCL3 PREFETCH  ACCESS:          0  HIT:          0  MISS:          0  HIT %:       -nan  MISS %:       -nan   MPKI: 0
PSCL3 WRITEBACK ACCESS:          0  HIT:          0  MISS:          0  HIT %:       -nan  MISS %:       -nan   MPKI: 0
PSCL2 TOTAL     ACCESS:     376048  HIT:     286180  MISS:      89868  HIT %:     76.102  MISS %:     23.898   MPKI: 0.44934
PSCL2 LOAD      ACCESS:          0  HIT:          0  MISS:          0  HIT %:       -nan  MISS %:       -nan   MPKI: 0
PSCL2 RFO       ACCESS:          0  HIT:          0  MISS:          0  HIT %:       -nan  MISS %:       -nan   MPKI: 0
PSCL2 PREFETCH  ACCESS:          0  HIT:          0  MISS:          0  HIT %:       -nan  MISS %:       -nan   MPKI: 0
PSCL2 WRITEBACK ACCESS:          0  HIT:          0  MISS:          0  HIT %:       -nan  MISS %:       -nan   MPKI: 0

stream: 
stream:times selected: 20220729
stream:pref_filled: 9409870
stream:pref_useful: 593953
stream:pref_late: 64604
stream:misses: 2253273
stream:misses_by_poll: 0

CS: 
CS:times selected: 4184994
CS:pref_filled: 2122906
CS:pref_useful: 2013150
CS:pref_late: 992140
CS:misses: 2244244
CS:misses_by_poll: 4456

CPLX: 
CPLX:times selected: 15905525
CPLX:pref_filled: 294549
CPLX:pref_useful: 21889
CPLX:pref_late: 1794
CPLX:misses: 7993160
CPLX:misses_by_poll: 86

NL_L1: 
NL:times selected: 92976
NL:pref_filled: 57155
NL:pref_useful: 3896
NL:pref_late: 369
NL:misses: 56544
NL:misses_by_poll: 3

total selections: 40404224
total_filled: 8988274
total_useful: 2060759
total_late: 1066935
total_polluted: 4545
total_misses_after_warmup: 10149953
conflicts: 214
Degree Incremented Times: 1753157
Degree Decremented Times: 434290

L1 IP Table Write Accesses: 163002405
L1 IP Table Read Accesses: 163002191
L1 RST Write Accesses: 23309567
L1 RST Read Accesses: 46619134
L1 CSPT Write Accesses: 23309567
L1 CSPT Read Accesses: 35780729
L1 RR Filter Tag Write Accesses: 29050792
L1 RR Filter Tag Read Accesses: 2245189267
L1 IP Table Tag Write Accesses: 163002436
L1 IP Table Tag Read Accesses: 163002436
L1 RST Tag Write Accesses: 0
L1 RST Tag Read Accesses: 208903448
L1 RR Filter Write Accesses: 0
L1 RR Filter Read Accesses: 89332360
test: 8608668
LLC TOTAL     ACCESS:   10324777  HIT:    6170692  MISS:    4154085  HIT %:    59.7659  MISS %:    40.2341   MPKI: 20.7704
LLC LOAD      ACCESS:    2836430  HIT:    2266399  MISS:     570031  HIT %:    79.9032  MISS %:    20.0968   MPKI: 2.85015
LLC RFO       ACCESS:     505081  HIT:          0  MISS:     505081  HIT %:          0  MISS %:        100   MPKI: 2.52541
LLC PREFETCH  ACCESS:    5268914  HIT:    2247461  MISS:    3021453  HIT %:    42.6551  MISS %:    57.3449   MPKI: 15.1073
LLC WRITEBACK ACCESS:    1559724  HIT:    1515246  MISS:      44478  HIT %:    97.1483  MISS %:    2.85166   MPKI: 0.22239

RAW hits: 3582490
Loads Generated: 60303816
Loads sent to L1D: 56721319
Stores Generated: 14728604
Stores sent to L1D: 14728606

CPU 1 cumulative IPC: 0.832043 instructions: 516949287 cycles: 621301149
ITLB TOTAL     ACCESS:   92808256  HIT:   92808256  MISS:          0  HIT %:        100  MISS %:          0   MPKI: 0
ITLB LOAD      ACCESS:          0  HIT:          0  MISS:          0  HIT %:       -nan  MISS %:       -nan   MPKI: 0
ITLB RFO       ACCESS:          0  HIT:          0  MISS:          0  HIT %:       -nan  MISS %:       -nan   MPKI: 0
ITLB PREFETCH  ACCESS:          0  HIT:          0  MISS:          0  HIT %:       -nan  MISS %:       -nan   MPKI: 0
ITLB WRITEBACK ACCESS:          0  HIT:          0  MISS:          0  HIT %:       -nan  MISS %:       -nan   MPKI: 0
DTLB TOTAL     ACCESS:   67689240  HIT:   67678746  MISS:      10494  HIT %:    99.9845  MISS %:  0.0155032   MPKI: 0.0202999
DTLB LOAD      ACCESS:          0  HIT:          0  MISS:          0  HIT %:       -nan  MISS %:       -nan   MPKI: 0
DTLB RFO       ACCESS:          0  HIT:          0  MISS:          0  HIT %:       -nan  MISS %:       -nan   MPKI: 0
DTLB PREFETCH  ACCESS:          0  HIT:          0  MISS:          0  HIT %:       -nan  MISS %:       -nan   MPKI: 0
DTLB WRITEBACK ACCESS:          0  HIT:          0  MISS:          0  HIT %:       -nan  MISS %:       -nan   MPKI: 0
STLB TOTAL     ACCESS:     559292  HIT:     548798  MISS:      10494  HIT %:    98.1237  MISS %:     1.8763   MPKI: 0.0202999
STLB LOAD      ACCESS:          0  HIT:          0  MISS:          0  HIT %:       -nan  MISS %:       -nan   MPKI: 0
STLB RFO       ACCESS:          0  HIT:          0  MISS:          0  HIT %:       -nan  MISS %:       -nan   MPKI: 0
STLB PREFETCH  ACCESS:          0  HIT:          0  MISS:          0  HIT %:       -nan  MISS %:       -nan   MPKI: 0
STLB WRITEBACK ACCESS:          0  HIT:          0  MISS:          0  HIT %:       -nan  MISS %:       -nan   MPKI: 0
L1D TOTAL     ACCESS:   78926138  HIT:   78254842  MISS:     671296  HIT %:    99.1495  MISS %:   0.850537   MPKI: 1.29857
L1D LOAD      ACCESS:   49913607  HIT:   49905133  MISS:       8474  HIT %:     99.983  MISS %:  0.0169773   MPKI: 0.0163923
L1D RFO       ACCESS:   26006492  HIT:   25869065  MISS:     137427  HIT %:    99.4716  MISS %:   0.528433   MPKI: 0.265842
L1D PREFETCH  ACCESS:    3006039  HIT:    2480644  MISS:     525395  HIT %:     82.522  MISS %:     17.478   MPKI: 1.01634
L1D WRITEBACK ACCESS:          0  HIT:          0  MISS:          0  HIT %:       -nan  MISS %:       -nan   MPKI: 0
L1I TOTAL     ACCESS:   99270198  HIT:   99270198  MISS:          0  HIT %:        100  MISS %:          0   MPKI: 0
L1I LOAD      ACCESS:   99270198  HIT:   99270198  MISS:          0  HIT %:        100  MISS %:          0   MPKI: 0
L1I RFO       ACCESS:          0  HIT:          0  MISS:          0  HIT %:       -nan  MISS %:       -nan   MPKI: 0
L1I PREFETCH  ACCESS:          0  HIT:          0  MISS:          0  HIT %:       -nan  MISS %:       -nan   MPKI: 0
L1I WRITEBACK ACCESS:          0  HIT:          0  MISS:          0  HIT %:       -nan  MISS %:       -nan   MPKI: 0
L2C TOTAL     ACCESS:     819205  HIT:     134248  MISS:     684957  HIT %:    16.3876  MISS %:    83.6124   MPKI: 1.325
L2C LOAD      ACCESS:       8400  HIT:          0  MISS:       8400  HIT %:          0  MISS %:        100   MPKI: 0.0162492
L2C RFO       ACCESS:     137427  HIT:          0  MISS:     137427  HIT %:          0  MISS %:        100   MPKI: 0.265842
L2C PREFETCH  ACCESS:     525469  HIT:          0  MISS:     525469  HIT %:          0  MISS %:        100   MPKI: 1.01648
L2C WRITEBACK ACCESS:     137415  HIT:     125154  MISS:      12261  HIT %:    91.0774  MISS %:    8.92261   MPKI: 0.023718
PSCL5 TOTAL     ACCESS:      10494  HIT:      10494  MISS:          0  HIT %:        100  MISS %:          0   MPKI: 0
PSCL5 LOAD      ACCESS:          0  HIT:          0  MISS:          0  HIT %:       -nan  MISS %:       -nan   MPKI: 0
PSCL5 RFO       ACCESS:          0  HIT:          0  MISS:          0  HIT %:       -nan  MISS %:       -nan   MPKI: 0
PSCL5 PREFETCH  ACCESS:          0  HIT:          0  MISS:          0  HIT %:       -nan  MISS %:       -nan   MPKI: 0
PSCL5 WRITEBACK ACCESS:          0  HIT:          0  MISS:          0  HIT %:       -nan  MISS %:       -nan   MPKI: 0
PSCL4 TOTAL     ACCESS:      10494  HIT:      10494  MISS:          0  HIT %:        100  MISS %:          0   MPKI: 0
PSCL4 LOAD      ACCESS:          0  HIT:          0  MISS:          0  HIT %:       -nan  MISS %:       -nan   MPKI: 0
PSCL4 RFO       ACCESS:          0  HIT:          0  MISS:          0  HIT %:       -nan  MISS %:       -nan   MPKI: 0
PSCL4 PREFETCH  ACCESS:          0  HIT:          0  MISS:          0  HIT %:       -nan  MISS %:       -nan   MPKI: 0
PSCL4 WRITEBACK ACCESS:          0  HIT:          0  MISS:          0  HIT %:       -nan  MISS %:       -nan   MPKI: 0
PSCL3 TOTAL     ACCESS:      10494  HIT:      10494  MISS:          0  HIT %:        100  MISS %:          0   MPKI: 0
PSCL3 LOAD      ACCESS:          0  HIT:          0  MISS:          0  HIT %:       -nan  MISS %:       -nan   MPKI: 0
PSCL3 RFO       ACCESS:          0  HIT:          0  MISS:          0  HIT %:       -nan  MISS %:       -nan   MPKI: 0
PSCL3 PREFETCH  ACCESS:          0  HIT:          0  MISS:          0  HIT %:       -nan  MISS %:       -nan   MPKI: 0
PSCL3 WRITEBACK ACCESS:          0  HIT:          0  MISS:          0  HIT %:       -nan  MISS %:       -nan   MPKI: 0
PSCL2 TOTAL     ACCESS:      10494  HIT:      10486  MISS:          8  HIT %:    99.9238  MISS %:   0.076234   MPKI: 1.54754e-05
PSCL2 LOAD      ACCESS:          0  HIT:          0  MISS:          0  HIT %:       -nan  MISS %:       -nan   MPKI: 0
PSCL2 RFO       ACCESS:          0  HIT:          0  MISS:          0  HIT %:       -nan  MISS %:       -nan   MPKI: 0
PSCL2 PREFETCH  ACCESS:          0  HIT:          0  MISS:          0  HIT %:       -nan  MISS %:       -nan   MPKI: 0
PSCL2 WRITEBACK ACCESS:          0  HIT:          0  MISS:          0  HIT %:       -nan  MISS %:       -nan   MPKI: 0

stream: 
stream:times selected: 1161235
stream:pref_filled: 577443
stream:pref_useful: 577408
stream:pref_late: 67
stream:misses: 1
stream:misses_by_poll: 0

CS: 
CS:times selected: 1161220
CS:pref_filled: 2250
CS:pref_useful: 2250
CS:pref_late: 7
CS:misses: 14725
CS:misses_by_poll: 2

CPLX: 
CPLX:times selected: 2
CPLX:pref_filled: 0
CPLX:pref_useful: 0
CPLX:pref_late: 0
CPLX:misses: 0
CPLX:misses_by_poll: 0

NL_L1: 
NL:times selected: 4
NL:pref_filled: 2
NL:pref_useful: 2
NL:pref_late: 0
NL:misses: 1
NL:misses_by_poll: 0

total selections: 2322461
total_filled: 525395
total_useful: 525372
total_late: 74
total_polluted: 2
total_misses_after_warmup: 13797
conflicts: 214
Degree Incremented Times: 1753157
Degree Decremented Times: 434290

L1 IP Table Write Accesses: 163002405
L1 IP Table Read Accesses: 163002191
L1 RST Write Accesses: 23309567
L1 RST Read Accesses: 46619134
L1 CSPT Write Accesses: 23309567
L1 CSPT Read Accesses: 35780729
L1 RR Filter Tag Write Accesses: 29050792
L1 RR Filter Tag Read Accesses: 2245189267
L1 IP Table Tag Write Accesses: 163002436
L1 IP Table Tag Read Accesses: 163002436
L1 RST Tag Write Accesses: 0
L1 RST Tag Read Accesses: 208903448
L1 RR Filter Write Accesses: 0
L1 RR Filter Read Accesses: 89332360
test: 8608668
LLC TOTAL     ACCESS:     810156  HIT:      46370  MISS:     763786  HIT %:    5.72359  MISS %:    94.2764   MPKI: 1.47749
LLC LOAD      ACCESS:       8400  HIT:          0  MISS:       8400  HIT %:          0  MISS %:        100   MPKI: 0.0162492
LLC RFO       ACCESS:     137427  HIT:          0  MISS:     137427  HIT %:          0  MISS %:        100   MPKI: 0.265842
LLC PREFETCH  ACCESS:     525469  HIT:          0  MISS:     525469  HIT %:          0  MISS %:        100   MPKI: 1.01648
LLC WRITEBACK ACCESS:     137460  HIT:      46296  MISS:      91164  HIT %:    33.6796  MISS %:    66.3204   MPKI: 0.17635

RAW hits: 6899858
Loads Generated: 72729451
Loads sent to L1D: 65829589
Stores Generated: 26385513
Stores sent to L1D: 26385515

CPU 2 cumulative IPC: 0.820666 instructions: 509880979 cycles: 621301149
ITLB TOTAL     ACCESS:   91108416  HIT:   91108416  MISS:          0  HIT %:        100  MISS %:          0   MPKI: 0
ITLB LOAD      ACCESS:          0  HIT:          0  MISS:          0  HIT %:       -nan  MISS %:       -nan   MPKI: 0
ITLB RFO       ACCESS:          0  HIT:          0  MISS:          0  HIT %:       -nan  MISS %:       -nan   MPKI: 0
ITLB PREFETCH  ACCESS:          0  HIT:          0  MISS:          0  HIT %:       -nan  MISS %:       -nan   MPKI: 0
ITLB WRITEBACK ACCESS:          0  HIT:          0  MISS:          0  HIT %:       -nan  MISS %:       -nan   MPKI: 0
DTLB TOTAL     ACCESS:   67553707  HIT:   67543255  MISS:      10452  HIT %:    99.9845  MISS %:  0.0154721   MPKI: 0.0204989
DTLB LOAD      ACCESS:          0  HIT:          0  MISS:          0  HIT %:       -nan  MISS %:       -nan   MPKI: 0
DTLB RFO       ACCESS:          0  HIT:          0  MISS:          0  HIT %:       -nan  MISS %:       -nan   MPKI: 0
DTLB PREFETCH  ACCESS:          0  HIT:          0  MISS:          0  HIT %:       -nan  MISS %:       -nan   MPKI: 0
DTLB WRITEBACK ACCESS:          0  HIT:          0  MISS:          0  HIT %:       -nan  MISS %:       -nan   MPKI: 0
STLB TOTAL     ACCESS:     554433  HIT:     543981  MISS:      10452  HIT %:    98.1148  MISS %:    1.88517   MPKI: 0.0204989
STLB LOAD      ACCESS:          0  HIT:          0  MISS:          0  HIT %:       -nan  MISS %:       -nan   MPKI: 0
STLB RFO       ACCESS:          0  HIT:          0  MISS:          0  HIT %:       -nan  MISS %:       -nan   MPKI: 0
STLB PREFETCH  ACCESS:          0  HIT:          0  MISS:          0  HIT %:       -nan  MISS %:       -nan   MPKI: 0
STLB WRITEBACK ACCESS:          0  HIT:          0  MISS:          0  HIT %:       -nan  MISS %:       -nan   MPKI: 0
L1D TOTAL     ACCESS:   78835895  HIT:   78167248  MISS:     668647  HIT %:    99.1518  MISS %:    0.84815   MPKI: 1.31138
L1D LOAD      ACCESS:   49628718  HIT:   49620276  MISS:       8442  HIT %:     99.983  MISS %:  0.0170103   MPKI: 0.0165568
L1D RFO       ACCESS:   26221859  HIT:   26083276  MISS:     138583  HIT %:    99.4715  MISS %:   0.528502   MPKI: 0.271795
L1D PREFETCH  ACCESS:    2985318  HIT:    2463696  MISS:     521622  HIT %:    82.5271  MISS %:    17.4729   MPKI: 1.02303
L1D WRITEBACK ACCESS:          0  HIT:          0  MISS:          0  HIT %:       -nan  MISS %:       -nan   MPKI: 0
L1I TOTAL     ACCESS:   97676311  HIT:   97676311  MISS:          0  HIT %:        100  MISS %:          0   MPKI: 0
L1I LOAD      ACCESS:   97676311  HIT:   97676311  MISS:          0  HIT %:        100  MISS %:          0   MPKI: 0
L1I RFO       ACCESS:          0  HIT:          0  MISS:          0  HIT %:       -nan  MISS %:       -nan   MPKI: 0
L1I PREFETCH  ACCESS:          0  HIT:          0  MISS:          0  HIT %:       -nan  MISS %:       -nan   MPKI: 0
L1I WRITEBACK ACCESS:          0  HIT:          0  MISS:          0  HIT %:       -nan  MISS %:       -nan   MPKI: 0
L2C TOTAL     ACCESS:     817675  HIT:     133937  MISS:     683738  HIT %:    16.3802  MISS %:    83.6198   MPKI: 1.34098
L2C LOAD      ACCESS:       8359  HIT:          0  MISS:       8359  HIT %:          0  MISS %:        100   MPKI: 0.016394
L2C RFO       ACCESS:     138583  HIT:          0  MISS:     138583  HIT %:          0  MISS %:        100   MPKI: 0.271795
L2C PREFETCH  ACCESS:     521705  HIT:          0  MISS:     521705  HIT %:          0  MISS %:        100   MPKI: 1.02319
L2C WRITEBACK ACCESS:     138576  HIT:     124885  MISS:      13691  HIT %:    90.1202  MISS %:    9.87978   MPKI: 0.0268514
PSCL5 TOTAL     ACCESS:      10452  HIT:      10452  MISS:          0  HIT %:        100  MISS %:          0   MPKI: 0
PSCL5 LOAD      ACCESS:          0  HIT:          0  MISS:          0  HIT %:       -nan  MISS %:       -nan   MPKI: 0
PSCL5 RFO       ACCESS:          0  HIT:          0  MISS:          0  HIT %:       -nan  MISS %:       -nan   MPKI: 0
PSCL5 PREFETCH  ACCESS:          0  HIT:          0  MISS:          0  HIT %:       -nan  MISS %:       -nan   MPKI: 0
PSCL5 WRITEBACK ACCESS:          0  HIT:          0  MISS:          0  HIT %:       -nan  MISS %:       -nan   MPKI: 0
PSCL4 TOTAL     ACCESS:      10452  HIT:      10452  MISS:          0  HIT %:        100  MISS %:          0   MPKI: 0
PSCL4 LOAD      ACCESS:          0  HIT:          0  MISS:          0  HIT %:       -nan  MISS %:       -nan   MPKI: 0
PSCL4 RFO       ACCESS:          0  HIT:          0  MISS:          0  HIT %:       -nan  MISS %:       -nan   MPKI: 0
PSCL4 PREFETCH  ACCESS:          0  HIT:          0  MISS:          0  HIT %:       -nan  MISS %:       -nan   MPKI: 0
PSCL4 WRITEBACK ACCESS:          0  HIT:          0  MISS:          0  HIT %:       -nan  MISS %:       -nan   MPKI: 0
PSCL3 TOTAL     ACCESS:      10452  HIT:      10452  MISS:          0  HIT %:        100  MISS %:          0   MPKI: 0
PSCL3 LOAD      ACCESS:          0  HIT:          0  MISS:          0  HIT %:       -nan  MISS %:       -nan   MPKI: 0
PSCL3 RFO       ACCESS:          0  HIT:          0  MISS:          0  HIT %:       -nan  MISS %:       -nan   MPKI: 0
PSCL3 PREFETCH  ACCESS:          0  HIT:          0  MISS:          0  HIT %:       -nan  MISS %:       -nan   MPKI: 0
PSCL3 WRITEBACK ACCESS:          0  HIT:          0  MISS:          0  HIT %:       -nan  MISS %:       -nan   MPKI: 0
PSCL2 TOTAL     ACCESS:      10452  HIT:      10444  MISS:          8  HIT %:    99.9235  MISS %:  0.0765404   MPKI: 1.56899e-05
PSCL2 LOAD      ACCESS:          0  HIT:          0  MISS:          0  HIT %:       -nan  MISS %:       -nan   MPKI: 0
PSCL2 RFO       ACCESS:          0  HIT:          0  MISS:          0  HIT %:       -nan  MISS %:       -nan   MPKI: 0
PSCL2 PREFETCH  ACCESS:          0  HIT:          0  MISS:          0  HIT %:       -nan  MISS %:       -nan   MPKI: 0
PSCL2 WRITEBACK ACCESS:          0  HIT:          0  MISS:          0  HIT %:       -nan  MISS %:       -nan   MPKI: 0

stream: 
stream:times selected: 1145310
stream:pref_filled: 574265
stream:pref_useful: 574217
stream:pref_late: 74
stream:misses: 0
stream:misses_by_poll: 0

CS: 
CS:times selected: 1145299
CS:pref_filled: 2154
CS:pref_useful: 2154
CS:pref_late: 8
CS:misses: 14477
CS:misses_by_poll: 3

CPLX: 
CPLX:times selected: 6
CPLX:pref_filled: 0
CPLX:pref_useful: 0
CPLX:pref_late: 0
CPLX:misses: 0
CPLX:misses_by_poll: 0

NL_L1: 
NL:times selected: 0
NL:pref_filled: 0
NL:pref_useful: 0
NL:pref_late: 0
NL:misses: 0
NL:misses_by_poll: 0

total selections: 2290615
total_filled: 521622
total_useful: 521586
total_late: 83
total_polluted: 3
total_misses_after_warmup: 13547
conflicts: 214
Degree Incremented Times: 1753157
Degree Decremented Times: 434290

L1 IP Table Write Accesses: 163002405
L1 IP Table Read Accesses: 163002191
L1 RST Write Accesses: 23309567
L1 RST Read Accesses: 46619134
L1 CSPT Write Accesses: 23309567
L1 CSPT Read Accesses: 35780729
L1 RR Filter Tag Write Accesses: 29050792
L1 RR Filter Tag Read Accesses: 2245189267
L1 IP Table Tag Write Accesses: 163002436
L1 IP Table Tag Read Accesses: 163002436
L1 RST Tag Write Accesses: 0
L1 RST Tag Read Accesses: 208903448
L1 RR Filter Write Accesses: 0
L1 RR Filter Read Accesses: 89332360
test: 8608668
LLC TOTAL     ACCESS:     808550  HIT:      44761  MISS:     763789  HIT %:    5.53596  MISS %:     94.464   MPKI: 1.49798
LLC LOAD      ACCESS:       8359  HIT:          0  MISS:       8359  HIT %:          0  MISS %:        100   MPKI: 0.016394
LLC RFO       ACCESS:     138583  HIT:          0  MISS:     138583  HIT %:          0  MISS %:        100   MPKI: 0.271795
LLC PREFETCH  ACCESS:     521705  HIT:          0  MISS:     521705  HIT %:          0  MISS %:        100   MPKI: 1.02319
LLC WRITEBACK ACCESS:     138503  HIT:      44681  MISS:      93822  HIT %:      32.26  MISS %:      67.74   MPKI: 0.184008

RAW hits: 7010982
Loads Generated: 72277870
Loads sent to L1D: 65266884
Stores Generated: 26607684
Stores sent to L1D: 26607684

CPU 3 cumulative IPC: 0.893516 instructions: 555142455 cycles: 621301149
ITLB TOTAL     ACCESS:   76306705  HIT:   76306705  MISS:          0  HIT %:        100  MISS %:          0   MPKI: 0
ITLB LOAD      ACCESS:          0  HIT:          0  MISS:          0  HIT %:       -nan  MISS %:       -nan   MPKI: 0
ITLB RFO       ACCESS:          0  HIT:          0  MISS:          0  HIT %:       -nan  MISS %:       -nan   MPKI: 0
ITLB PREFETCH  ACCESS:          0  HIT:          0  MISS:          0  HIT %:       -nan  MISS %:       -nan   MPKI: 0
ITLB WRITEBACK ACCESS:          0  HIT:          0  MISS:          0  HIT %:       -nan  MISS %:       -nan   MPKI: 0
DTLB TOTAL     ACCESS:   79231458  HIT:   79024239  MISS:     207219  HIT %:    99.7385  MISS %:   0.261536   MPKI: 0.373272
DTLB LOAD      ACCESS:          0  HIT:          0  MISS:          0  HIT %:       -nan  MISS %:       -nan   MPKI: 0
DTLB RFO       ACCESS:          0  HIT:          0  MISS:          0  HIT %:       -nan  MISS %:       -nan   MPKI: 0
DTLB PREFETCH  ACCESS:          0  HIT:          0  MISS:          0  HIT %:       -nan  MISS %:       -nan   MPKI: 0
DTLB WRITEBACK ACCESS:          0  HIT:          0  MISS:          0  HIT %:       -nan  MISS %:       -nan   MPKI: 0
STLB TOTAL     ACCESS:    3751101  HIT:    3543882  MISS:     207219  HIT %:    94.4758  MISS %:    5.52422   MPKI: 0.373272
STLB LOAD      ACCESS:          0  HIT:          0  MISS:          0  HIT %:       -nan  MISS %:       -nan   MPKI: 0
STLB RFO       ACCESS:          0  HIT:          0  MISS:          0  HIT %:       -nan  MISS %:       -nan   MPKI: 0
STLB PREFETCH  ACCESS:          0  HIT:          0  MISS:          0  HIT %:       -nan  MISS %:       -nan   MPKI: 0
STLB WRITEBACK ACCESS:          0  HIT:          0  MISS:          0  HIT %:       -nan  MISS %:       -nan   MPKI: 0
L1D TOTAL     ACCESS:   39634238  HIT:   26372841  MISS:   13261397  HIT %:    66.5406  MISS %:    33.4594   MPKI: 23.8883
L1D LOAD      ACCESS:   23864603  HIT:   23240291  MISS:     624312  HIT %:    97.3839  MISS %:    2.61606   MPKI: 1.1246
L1D RFO       ACCESS:   10125985  HIT:     709574  MISS:    9416411  HIT %:    7.00746  MISS %:    92.9925   MPKI: 16.9622
L1D PREFETCH  ACCESS:    5643650  HIT:    2422976  MISS:    3220674  HIT %:    42.9328  MISS %:    57.0672   MPKI: 5.80153
L1D WRITEBACK ACCESS:          0  HIT:          0  MISS:          0  HIT %:       -nan  MISS %:       -nan   MPKI: 0
L1I TOTAL     ACCESS:  120266700  HIT:  120266691  MISS:          9  HIT %:        100  MISS %: 7.48337e-06   MPKI: 1.62121e-05
L1I LOAD      ACCESS:  120266700  HIT:  120266691  MISS:          9  HIT %:        100  MISS %: 7.48337e-06   MPKI: 1.62121e-05
L1I RFO       ACCESS:          0  HIT:          0  MISS:          0  HIT %:       -nan  MISS %:       -nan   MPKI: 0
L1I PREFETCH  ACCESS:          0  HIT:          0  MISS:          0  HIT %:       -nan  MISS %:       -nan   MPKI: 0
L1I WRITEBACK ACCESS:          0  HIT:          0  MISS:          0  HIT %:       -nan  MISS %:       -nan   MPKI: 0
L2C TOTAL     ACCESS:   22885653  HIT:    9369129  MISS:   13516524  HIT %:    40.9389  MISS %:    59.0611   MPKI: 24.3478
L2C LOAD      ACCESS:      71592  HIT:        906  MISS:      70686  HIT %:     1.2655  MISS %:    98.7345   MPKI: 0.127329
L2C RFO       ACCESS:    9416411  HIT:          0  MISS:    9416411  HIT %:          0  MISS %:        100   MPKI: 16.9622
L2C PREFETCH  ACCESS:    3773403  HIT:       4045  MISS:    3769358  HIT %:   0.107198  MISS %:    99.8928   MPKI: 6.78989
L2C WRITEBACK ACCESS:    9416691  HIT:    9183914  MISS:     232777  HIT %:     97.528  MISS %:    2.47196   MPKI: 0.41931
PSCL5 TOTAL     ACCESS:     207219  HIT:     207219  MISS:          0  HIT %:        100  MISS %:          0   MPKI: 0
PSCL5 LOAD      ACCESS:          0  HIT:          0  MISS:          0  HIT %:       -nan  MISS %:       -nan   MPKI: 0
PSCL5 RFO       ACCESS:          0  HIT:          0  MISS:          0  HIT %:       -nan  MISS %:       -nan   MPKI: 0
PSCL5 PREFETCH  ACCESS:          0  HIT:          0  MISS:          0  HIT %:       -nan  MISS %:       -nan   MPKI: 0
PSCL5 WRITEBACK ACCESS:          0  HIT:          0  MISS:          0  HIT %:       -nan  MISS %:       -nan   MPKI: 0
PSCL4 TOTAL     ACCESS:     207219  HIT:     207219  MISS:          0  HIT %:        100  MISS %:          0   MPKI: 0
PSCL4 LOAD      ACCESS:          0  HIT:          0  MISS:          0  HIT %:       -nan  MISS %:       -nan   MPKI: 0
PSCL4 RFO       ACCESS:          0  HIT:          0  MISS:          0  HIT %:       -nan  MISS %:       -nan   MPKI: 0
PSCL4 PREFETCH  ACCESS:          0  HIT:          0  MISS:          0  HIT %:       -nan  MISS %:       -nan   MPKI: 0
PSCL4 WRITEBACK ACCESS:          0  HIT:          0  MISS:          0  HIT %:       -nan  MISS %:       -nan   MPKI: 0
PSCL3 TOTAL     ACCESS:     207219  HIT:     207219  MISS:          0  HIT %:        100  MISS %:          0   MPKI: 0
PSCL3 LOAD      ACCESS:          0  HIT:          0  MISS:          0  HIT %:       -nan  MISS %:       -nan   MPKI: 0
PSCL3 RFO       ACCESS:          0  HIT:          0  MISS:          0  HIT %:       -nan  MISS %:       -nan   MPKI: 0
PSCL3 PREFETCH  ACCESS:          0  HIT:          0  MISS:          0  HIT %:       -nan  MISS %:       -nan   MPKI: 0
PSCL3 WRITEBACK ACCESS:          0  HIT:          0  MISS:          0  HIT %:       -nan  MISS %:       -nan   MPKI: 0
PSCL2 TOTAL     ACCESS:     207219  HIT:     206760  MISS:        459  HIT %:    99.7785  MISS %:   0.221505   MPKI: 0.000826815
PSCL2 LOAD      ACCESS:          0  HIT:          0  MISS:          0  HIT %:       -nan  MISS %:       -nan   MPKI: 0
PSCL2 RFO       ACCESS:          0  HIT:          0  MISS:          0  HIT %:       -nan  MISS %:       -nan   MPKI: 0
PSCL2 PREFETCH  ACCESS:          0  HIT:          0  MISS:          0  HIT %:       -nan  MISS %:       -nan   MPKI: 0
PSCL2 WRITEBACK ACCESS:          0  HIT:          0  MISS:          0  HIT %:       -nan  MISS %:       -nan   MPKI: 0

stream: 
stream:times selected: 5647526
stream:pref_filled: 3335804
stream:pref_useful: 3330611
stream:pref_late: 545265
stream:misses: 173
stream:misses_by_poll: 0

CS: 
CS:times selected: 5606295
CS:pref_filled: 108468
CS:pref_useful: 108213
CS:pref_late: 4010
CS:misses: 2743692
CS:misses_by_poll: 905

CPLX: 
CPLX:times selected: 41157
CPLX:pref_filled: 21698
CPLX:pref_useful: 21629
CPLX:pref_late: 245
CPLX:misses: 116
CPLX:misses_by_poll: 12

NL_L1: 
NL:times selected: 10
NL:pref_filled: 2
NL:pref_useful: 2
NL:pref_late: 0
NL:misses: 0
NL:misses_by_poll: 0

total selections: 11294988
total_filled: 3220674
total_useful: 3215169
total_late: 552729
total_polluted: 917
total_misses_after_warmup: 2737131
conflicts: 214
Degree Incremented Times: 1753157
Degree Decremented Times: 434290

L1 IP Table Write Accesses: 163002405
L1 IP Table Read Accesses: 163002191
L1 RST Write Accesses: 23309567
L1 RST Read Accesses: 46619134
L1 CSPT Write Accesses: 23309567
L1 CSPT Read Accesses: 35780729
L1 RR Filter Tag Write Accesses: 29050792
L1 RR Filter Tag Read Accesses: 2245189267
L1 IP Table Tag Write Accesses: 163002436
L1 IP Table Tag Read Accesses: 163002436
L1 RST Tag Write Accesses: 0
L1 RST Tag Read Accesses: 208903448
L1 RR Filter Write Accesses: 0
L1 RR Filter Read Accesses: 89332360
test: 8608668
LLC TOTAL     ACCESS:   22701637  HIT:    9380218  MISS:   13321419  HIT %:    41.3196  MISS %:    58.6804   MPKI: 23.9964
LLC LOAD      ACCESS:      70686  HIT:        123  MISS:      70563  HIT %:   0.174009  MISS %:     99.826   MPKI: 0.127108
LLC RFO       ACCESS:    9416411  HIT:          0  MISS:    9416411  HIT %:          0  MISS %:        100   MPKI: 16.9622
LLC PREFETCH  ACCESS:    3769358  HIT:        411  MISS:    3768947  HIT %:  0.0109037  MISS %:    99.9891   MPKI: 6.78915
LLC WRITEBACK ACCESS:    9417890  HIT:    9378534  MISS:      39356  HIT %:    99.5821  MISS %:   0.417886   MPKI: 0.0708935

RAW hits: 482
Loads Generated: 64646714
Loads sent to L1D: 64646232
Stores Generated: 109094485
Stores sent to L1D: 109094467

Region of Interest Statistics

CPU 0 cumulative IPC: 0.321905 instructions: 200000000 cycles: 621301148
ITLB TOTAL     ACCESS:   31209038  HIT:   31209029  MISS:          9  HIT %:        100  MISS %: 2.88378e-05   MPKI: 4.5e-05
ITLB LOAD TRANSLATION ACCESS:   31209038  HIT:   31209029  MISS:          9  HIT %:        100  MISS %: 2.88378e-05   MPKI: 4.5e-05
ITLB PREFETCH  REQUESTED:          0  ISSUED:          0  USEFUL:          0  USELESS:          0
ITLB USEFUL LOAD PREFETCHES:          0 PREFETCH ISSUED TO LOWER LEVEL:          0  ACCURACY: -nan
ITLB TIMELY PREFETCHES:          0 LATE PREFETCHES: 0 DROPPED PREFETCHES: 0
ITLB PREFETCHES SAME FILL-ORIGIN LEVEL: 0 DIFFERENT FILL-ORIGIN LEVEL: 0
ITLB AVERAGE MISS LATENCY: 893.111 cycles
ITLB RQ	ACCESS:   34269381	FORWARD:          0	MERGED:    3060342	TO_CACHE:   31209039

DTLB TOTAL     ACCESS:   42521442  HIT:   37731221  MISS:    4790221  HIT %:    88.7346  MISS %:    11.2654   MPKI: 23.9511
DTLB LOAD TRANSLATION ACCESS:   42521442  HIT:   37731221  MISS:    4790221  HIT %:    88.7346  MISS %:    11.2654   MPKI: 23.9511
DTLB PREFETCH  REQUESTED:          0  ISSUED:          0  USEFUL:          0  USELESS:          0
DTLB USEFUL LOAD PREFETCHES:          0 PREFETCH ISSUED TO LOWER LEVEL:          0  ACCURACY: -nan
DTLB TIMELY PREFETCHES:          0 LATE PREFETCHES: 0 DROPPED PREFETCHES: 0
DTLB PREFETCHES SAME FILL-ORIGIN LEVEL: 0 DIFFERENT FILL-ORIGIN LEVEL: 0
DTLB AVERAGE MISS LATENCY: 19.8651 cycles
DTLB RQ	ACCESS:   46609309	FORWARD:          0	MERGED:    3496752	TO_CACHE:   43112557

STLB TOTAL     ACCESS:   15157363  HIT:   14781315  MISS:     376048  HIT %:     97.519  MISS %:    2.48096   MPKI: 1.88024
STLB LOAD TRANSLATION ACCESS:    4790230  HIT:    4414183  MISS:     376047  HIT %:    92.1497  MISS %:    7.85029   MPKI: 1.88024
STLB TRANSLATION FROM L1D PREFETCHER ACCESS:   10367133  HIT:   10367132  MISS:          1  HIT %:        100  MISS %: 9.64587e-06   MPKI: 5e-06
STLB PREFETCH  REQUESTED:          0  ISSUED:          0  USEFUL:          1  USELESS:          0
STLB USEFUL LOAD PREFETCHES:          1 PREFETCH ISSUED TO LOWER LEVEL:          0  ACCURACY: inf
STLB TIMELY PREFETCHES:          1 LATE PREFETCHES: 0 DROPPED PREFETCHES: 0
STLB PREFETCHES SAME FILL-ORIGIN LEVEL: 0 DIFFERENT FILL-ORIGIN LEVEL: 0
STLB AVERAGE MISS LATENCY: 132.121 cycles
STLB RQ	ACCESS:   20062246	FORWARD:          0	MERGED:    4904880	TO_CACHE:   15157366

STLB Hit, L1D data hit: 0
STLB Hit, L2C data hit: 0
STLB Hit, LLC data hit: 0
STLB Hit, LLC data miss: 0
STLB STLB hints to L2: 0
L1D TOTAL     ACCESS:   55359696  HIT:   36943075  MISS:   18416621  HIT %:    66.7328  MISS %:    33.2672   MPKI: 92.0831
L1D LOAD      ACCESS:   31225951  HIT:   22302685  MISS:    8923266  HIT %:    71.4236  MISS %:    28.5764   MPKI: 44.6163
L1D RFO       ACCESS:   10624693  HIT:   10119612  MISS:     505081  HIT %:    95.2462  MISS %:    4.75384   MPKI: 2.52541
L1D PREFETCH  ACCESS:   13509052  HIT:    4520778  MISS:    8988274  HIT %:    33.4648  MISS %:    66.5352   MPKI: 44.9414
L1D PREFETCH  REQUESTED:   30555293  ISSUED:   30544031  USEFUL:    2060759  USELESS:    6927502
L1D USEFUL LOAD PREFETCHES:    2060759 PREFETCH ISSUED TO LOWER LEVEL:   10045016  ACCURACY: 20.5152
L1D TIMELY PREFETCHES:    2060759 LATE PREFETCHES: 1056741 DROPPED PREFETCHES: 0
L1D PREFETCHES SAME FILL-ORIGIN LEVEL: 10045016 DIFFERENT FILL-ORIGIN LEVEL: 0
L1D AVERAGE MISS LATENCY: 148.439 cycles
L1D RQ	ACCESS:   56721319	FORWARD:          0	MERGED:   24257414	TO_CACHE:   32452649
L1D WQ	ACCESS:   14728606	FORWARD:      11263	MERGED:     571946	TO_CACHE:   14156660
L1D PQ	ACCESS:   15272020	FORWARD:          0	MERGED:          2	TO_CACHE:   15272011

L1D UNIQUE REGIONS ACCESSED: 0
L1D REGIONS CONFLICTS: 0
L1D Cross Page Prefetch Requests: 0
L1D Same Page Prefetch Requests: 20029206
L1D ROI Sum of L1D PQ occupancy: 242141309
L1D PREFETCHES PUSHED FROM L2C: 0
L1I TOTAL     ACCESS:   34269371  HIT:   34269275  MISS:         96  HIT %:    99.9997  MISS %: 0.000280134   MPKI: 0.00048
L1I LOAD      ACCESS:   34269371  HIT:   34269275  MISS:         96  HIT %:    99.9997  MISS %: 0.000280134   MPKI: 0.00048
L1I PREFETCH  REQUESTED:          0  ISSUED:          0  USEFUL:          0  USELESS:          0
L1I USEFUL LOAD PREFETCHES:          0 PREFETCH ISSUED TO LOWER LEVEL:          0  ACCURACY: -nan
L1I TIMELY PREFETCHES:          0 LATE PREFETCHES: 0 DROPPED PREFETCHES: 0
L1I PREFETCHES SAME FILL-ORIGIN LEVEL: 0 DIFFERENT FILL-ORIGIN LEVEL: 0
L1I AVERAGE MISS LATENCY: 593.948 cycles
L1I RQ	ACCESS:   53240636	FORWARD:          0	MERGED:   18971255	TO_CACHE:   34269381

BTB TOTAL     ACCESS:   19855026  HIT:   19854905  MISS:        121  HIT %:    99.9994  MISS %: 0.000609417   MPKI: 0.000605
BTB BRANCH_DIRECT_JUMP	ACCESS:         47  HIT:         25  MISS:         22
BTB BRANCH_INDIRECT	ACCESS:          0  HIT:          0  MISS:          0
BTB BRANCH_CONDITIONAL	ACCESS:   19854953  HIT:   19854873  MISS:         80
BTB BRANCH_DIRECT_CALL	ACCESS:         13  HIT:          4  MISS:          9
BTB BRANCH_INDIRECT_CALL	ACCESS:          0  HIT:          0  MISS:          0
BTB BRANCH_RETURN	ACCESS:         13  HIT:          3  MISS:         10
BTB BRANCH_OTHER ACCESS:          0  HIT:          0  MISS:          0

L2C TOTAL     ACCESS:   20442068  HIT:   11511493  MISS:    8930575  HIT %:    56.3128  MISS %:    43.6872   MPKI: 44.6529
L2C LOAD      ACCESS:    7866620  HIT:    5030190  MISS:    2836430  HIT %:    63.9435  MISS %:    36.0565   MPKI: 14.1822
L2C DATA LOAD MPKI: 14.1817
L2C INSTRUCTION LOAD MPKI: 0.00048
L2C RFO       ACCESS:     505081  HIT:          0  MISS:     505081  HIT %:          0  MISS %:        100   MPKI: 2.52541
L2C PREFETCH  ACCESS:   10045015  HIT:    4776101  MISS:    5268914  HIT %:     47.547  MISS %:     52.453   MPKI: 26.3446
L2C DATA PREFETCH MPKI: 26.3446
L2C INSTRUCTION PREFETCH MPKI: 0
L2C WRITEBACK ACCESS:    1559468  HIT:    1393946  MISS:     165522  HIT %:     89.386  MISS %:     10.614   MPKI: 0.82761
L2C LOAD TRANSLATION ACCESS:     465882  HIT:     311254  MISS:     154628  HIT %:    66.8096  MISS %:    33.1904   MPKI: 0.77314
L2C TRANSLATION FROM L1D PREFETCHER ACCESS:          2  HIT:          2  MISS:          0  HIT %:        100  MISS %:          0   MPKI: 0
L2C PREFETCH  REQUESTED:          0  ISSUED:          0  USEFUL:     445149  USELESS:    4824508
L2C USEFUL LOAD PREFETCHES:     445149 PREFETCH ISSUED TO LOWER LEVEL:    5268917  ACCURACY: 8.44859
L2C TIMELY PREFETCHES:     445149 LATE PREFETCHES: 0 DROPPED PREFETCHES: 0
L2C PREFETCHES SAME FILL-ORIGIN LEVEL: 0 DIFFERENT FILL-ORIGIN LEVEL: 0
L2C AVERAGE MISS LATENCY: 396.39 cycles
L2C RQ	ACCESS:    8837584	FORWARD:          0	MERGED:          0	TO_CACHE:    8837584
L2C WQ	ACCESS:    1559468	FORWARD:          0	MERGED:          0	TO_CACHE:    1559468
L2C PQ	ACCESS:   10045016	FORWARD:          0	MERGED:          0	TO_CACHE:   10045016

L2C Instructions Evicting Data 96
L2C Translations Evicting Data 138190
L2C Data Evicting Data 8471144
L2C Instructions Evicting Instructions 0
L2C Translations Evicting Instructions 0
L2C Data Evicting Instructions 90
L2C Instructions Evicting Translations 0
L2C Translations Evicting Translations 16438
L2C Data Evicting Translations 139095
L2C Dense regions hint from L2: 0
PSCL5 TOTAL     ACCESS:     376048  HIT:     376048  MISS:          0  HIT %:        100  MISS %:          0   MPKI: 0
PSCL5 LOAD TRANSLATION ACCESS:     376047  HIT:     376047  MISS:          0  HIT %:        100  MISS %:          0   MPKI: 0
PSCL5 TRANSLATION FROM L1D PREFETCHER ACCESS:          1  HIT:          1  MISS:          0  HIT %:        100  MISS %:          0   MPKI: 0
PSCL5 PREFETCH  REQUESTED:          0  ISSUED:          0  USEFUL:          0  USELESS:          0
PSCL5 USEFUL LOAD PREFETCHES:          0 PREFETCH ISSUED TO LOWER LEVEL:          0  ACCURACY: -nan
PSCL5 TIMELY PREFETCHES:          0 LATE PREFETCHES: 0 DROPPED PREFETCHES: 0
PSCL5 PREFETCHES SAME FILL-ORIGIN LEVEL: 0 DIFFERENT FILL-ORIGIN LEVEL: 0

PSCL4 TOTAL     ACCESS:     376048  HIT:     376048  MISS:          0  HIT %:        100  MISS %:          0   MPKI: 0
PSCL4 LOAD TRANSLATION ACCESS:     376047  HIT:     376047  MISS:          0  HIT %:        100  MISS %:          0   MPKI: 0
PSCL4 TRANSLATION FROM L1D PREFETCHER ACCESS:          1  HIT:          1  MISS:          0  HIT %:        100  MISS %:          0   MPKI: 0
PSCL4 PREFETCH  REQUESTED:          0  ISSUED:          0  USEFUL:          0  USELESS:          0
PSCL4 USEFUL LOAD PREFETCHES:          0 PREFETCH ISSUED TO LOWER LEVEL:          0  ACCURACY: -nan
PSCL4 TIMELY PREFETCHES:          0 LATE PREFETCHES: 0 DROPPED PREFETCHES: 0
PSCL4 PREFETCHES SAME FILL-ORIGIN LEVEL: 0 DIFFERENT FILL-ORIGIN LEVEL: 0

PSCL3 TOTAL     ACCESS:     376048  HIT:     376048  MISS:          0  HIT %:        100  MISS %:          0   MPKI: 0
PSCL3 LOAD TRANSLATION ACCESS:     376047  HIT:     376047  MISS:          0  HIT %:        100  MISS %:          0   MPKI: 0
PSCL3 TRANSLATION FROM L1D PREFETCHER ACCESS:          1  HIT:          1  MISS:          0  HIT %:        100  MISS %:          0   MPKI: 0
PSCL3 PREFETCH  REQUESTED:          0  ISSUED:          0  USEFUL:          0  USELESS:          0
PSCL3 USEFUL LOAD PREFETCHES:          0 PREFETCH ISSUED TO LOWER LEVEL:          0  ACCURACY: -nan
PSCL3 TIMELY PREFETCHES:          0 LATE PREFETCHES: 0 DROPPED PREFETCHES: 0
PSCL3 PREFETCHES SAME FILL-ORIGIN LEVEL: 0 DIFFERENT FILL-ORIGIN LEVEL: 0

PSCL2 TOTAL     ACCESS:     376048  HIT:     286180  MISS:      89868  HIT %:     76.102  MISS %:     23.898   MPKI: 0.44934
PSCL2 LOAD TRANSLATION ACCESS:     376048  HIT:     286180  MISS:      89868  HIT %:     76.102  MISS %:     23.898   MPKI: 0.44934
PSCL2 PREFETCH  REQUESTED:          0  ISSUED:          0  USEFUL:          0  USELESS:          0
PSCL2 USEFUL LOAD PREFETCHES:          0 PREFETCH ISSUED TO LOWER LEVEL:          0  ACCURACY: -nan
PSCL2 TIMELY PREFETCHES:          0 LATE PREFETCHES: 0 DROPPED PREFETCHES: 0
PSCL2 PREFETCHES SAME FILL-ORIGIN LEVEL: 0 DIFFERENT FILL-ORIGIN LEVEL: 0

LLC TOTAL     ACCESS:   10324777  HIT:    6170692  MISS:    4154085  HIT %:    59.7659  MISS %:    40.2341   MPKI: 20.7704
LLC LOAD      ACCESS:    2836430  HIT:    2266399  MISS:     570031  HIT %:    79.9032  MISS %:    20.0968   MPKI: 2.85015
LLC RFO       ACCESS:     505081  HIT:          0  MISS:     505081  HIT %:          0  MISS %:        100   MPKI: 2.52541
LLC PREFETCH  ACCESS:    5268914  HIT:    2247461  MISS:    3021453  HIT %:    42.6551  MISS %:    57.3449   MPKI: 15.1073
LLC WRITEBACK ACCESS:    1559724  HIT:    1515246  MISS:      44478  HIT %:    97.1483  MISS %:    2.85166   MPKI: 0.22239
LLC LOAD TRANSLATION ACCESS:     154628  HIT:     141586  MISS:      13042  HIT %:    91.5656  MISS %:    8.43444   MPKI: 0.06521
LLC PREFETCH  REQUESTED:          0  ISSUED:          0  USEFUL:      77865  USELESS:    7772533
LLC USEFUL LOAD PREFETCHES:      77865 PREFETCH ISSUED TO LOWER LEVEL:    7837581  ACCURACY: 0.993483
LLC TIMELY PREFETCHES:      77865 LATE PREFETCHES: 0 DROPPED PREFETCHES: 0
LLC PREFETCHES SAME FILL-ORIGIN LEVEL: 0 DIFFERENT FILL-ORIGIN LEVEL: 0
LLC AVERAGE MISS LATENCY: 2831.15 cycles
LLC RQ	ACCESS:   13306105	FORWARD:          0	MERGED:          0	TO_CACHE:   13306105
LLC WQ	ACCESS:   11253582	FORWARD:          0	MERGED:          0	TO_CACHE:   11253582
LLC PQ	ACCESS:   10085453	FORWARD:          0	MERGED:          0	TO_CACHE:   10085453

LLC Dense regions hint to LLC: 0

RAW hits: 3582490
Loads Generated: 60303816
Loads sent to L1D: 56721319
Stores Generated: 14728604
Stores sent to L1D: 14728606
Major fault: 0 Minor fault: 47114
Allocated PAGES: 147015

CPU 1 cumulative IPC: 0.832386 instructions: 200000003 cycles: 240273099
ITLB TOTAL     ACCESS:   35905677  HIT:   35905677  MISS:          0  HIT %:        100  MISS %:          0   MPKI: 0
ITLB LOAD TRANSLATION ACCESS:   35905677  HIT:   35905677  MISS:          0  HIT %:        100  MISS %:          0   MPKI: 0
ITLB PREFETCH  REQUESTED:          0  ISSUED:          0  USEFUL:          0  USELESS:          0
ITLB USEFUL LOAD PREFETCHES:          0 PREFETCH ISSUED TO LOWER LEVEL:          0  ACCURACY: -nan
ITLB TIMELY PREFETCHES:          0 LATE PREFETCHES: 0 DROPPED PREFETCHES: 0
ITLB PREFETCHES SAME FILL-ORIGIN LEVEL: 0 DIFFERENT FILL-ORIGIN LEVEL: 0
ITLB AVERAGE MISS LATENCY: -nan cycles
ITLB RQ	ACCESS:   99270200	FORWARD:          0	MERGED:    6461944	TO_CACHE:   92808256

DTLB TOTAL     ACCESS:   26202999  HIT:   26198937  MISS:       4062  HIT %:    99.9845  MISS %:   0.015502   MPKI: 0.02031
DTLB LOAD TRANSLATION ACCESS:   26202999  HIT:   26198937  MISS:       4062  HIT %:    99.9845  MISS %:   0.015502   MPKI: 0.02031
DTLB PREFETCH  REQUESTED:          0  ISSUED:          0  USEFUL:          0  USELESS:          0
DTLB USEFUL LOAD PREFETCHES:          0 PREFETCH ISSUED TO LOWER LEVEL:          0  ACCURACY: -nan
DTLB TIMELY PREFETCHES:          0 LATE PREFETCHES: 0 DROPPED PREFETCHES: 0
DTLB PREFETCHES SAME FILL-ORIGIN LEVEL: 0 DIFFERENT FILL-ORIGIN LEVEL: 0
DTLB AVERAGE MISS LATENCY: 455.112 cycles
DTLB RQ	ACCESS:   76304377	FORWARD:          0	MERGED:    8614391	TO_CACHE:   67689986

STLB TOTAL     ACCESS:     209028  HIT:     204966  MISS:       4062  HIT %:    98.0567  MISS %:    1.94328   MPKI: 0.02031
STLB LOAD TRANSLATION ACCESS:       4062  HIT:          0  MISS:       4062  HIT %:          0  MISS %:        100   MPKI: 0.02031
STLB TRANSLATION FROM L1D PREFETCHER ACCESS:     204966  HIT:     204966  MISS:          0  HIT %:        100  MISS %:          0   MPKI: 0
STLB PREFETCH  REQUESTED:          0  ISSUED:          0  USEFUL:          0  USELESS:          0
STLB USEFUL LOAD PREFETCHES:          0 PREFETCH ISSUED TO LOWER LEVEL:          0  ACCURACY: -nan
STLB TIMELY PREFETCHES:          0 LATE PREFETCHES: 0 DROPPED PREFETCHES: 0
STLB PREFETCHES SAME FILL-ORIGIN LEVEL: 0 DIFFERENT FILL-ORIGIN LEVEL: 0
STLB AVERAGE MISS LATENCY: 431.861 cycles
STLB RQ	ACCESS:    3054306	FORWARD:          0	MERGED:    2495014	TO_CACHE:     559292

STLB Hit, L1D data hit: 0
STLB Hit, L2C data hit: 0
STLB Hit, LLC data hit: 0
STLB Hit, LLC data miss: 0
STLB STLB hints to L2: 0
L1D TOTAL     ACCESS:   30540649  HIT:   30280887  MISS:     259762  HIT %:    99.1495  MISS %:   0.850545   MPKI: 1.29881
L1D LOAD      ACCESS:   19323243  HIT:   19319990  MISS:       3253  HIT %:    99.9832  MISS %:  0.0168346   MPKI: 0.016265
L1D RFO       ACCESS:   10078660  HIT:   10025474  MISS:      53186  HIT %:    99.4723  MISS %:   0.527709   MPKI: 0.26593
[...]
LLC WRITEBACK ACCESS:      54305  HIT:      17255  MISS:      37050  HIT %:    31.7742  MISS %:    68.2258   MPKI: 0.18525
LLC LOAD TRANSLATION ACCESS:        548  HIT:         25  MISS:        523  HIT %:    4.56204  MISS %:     95.438   MPKI: 0.002615
LLC PREFETCH  REQUESTED:          0  ISSUED:          0  USEFUL:      77865  USELESS:    7772533
LLC USEFUL LOAD PREFETCHES:      77865 PREFETCH ISSUED TO LOWER LEVEL:    7837581  ACCURACY: 0.993483
LLC TIMELY PREFETCHES:      77865 LATE PREFETCHES: 0 DROPPED PREFETCHES: 0
LLC PREFETCHES SAME FILL-ORIGIN LEVEL: 0 DIFFERENT FILL-ORIGIN LEVEL: 0
LLC AVERAGE MISS LATENCY: 39217.9 cycles
LLC RQ	ACCESS:   13306105	FORWARD:          0	MERGED:          0	TO_CACHE:   13306105
LLC WQ	ACCESS:   11253582	FORWARD:          0	MERGED:          0	TO_CACHE:   11253582
LLC PQ	ACCESS:   10085453	FORWARD:          0	MERGED:          0	TO_CACHE:   10085453

LLC Dense regions hint to LLC: 0

RAW hits: 2765600
Loads Generated: 28353131
Loads sent to L1D: 25587531
Stores Generated: 10440528
Stores sent to L1D: 10440528
Major fault: 0 Minor fault: 5162
Allocated PAGES: 147015

CPU 3 cumulative IPC: 0.924501 instructions: 200000002 cycles: 216332957
ITLB TOTAL     ACCESS:   24690605  HIT:   24690605  MISS:          0  HIT %:        100  MISS %:          0   MPKI: 0
ITLB LOAD TRANSLATION ACCESS:   24690605  HIT:   24690605  MISS:          0  HIT %:        100  MISS %:          0   MPKI: 0
ITLB PREFETCH  REQUESTED:          0  ISSUED:          0  USEFUL:          0  USELESS:          0
ITLB USEFUL LOAD PREFETCHES:          0 PREFETCH ISSUED TO LOWER LEVEL:          0  ACCURACY: -nan
ITLB TIMELY PREFETCHES:          0 LATE PREFETCHES: 0 DROPPED PREFETCHES: 0
ITLB PREFETCHES SAME FILL-ORIGIN LEVEL: 0 DIFFERENT FILL-ORIGIN LEVEL: 0
ITLB AVERAGE MISS LATENCY: -nan cycles
ITLB RQ	ACCESS:  120266700	FORWARD:          0	MERGED:   43959996	TO_CACHE:   76306704

DTLB TOTAL     ACCESS:   30274077  HIT:   30203533  MISS:      70544  HIT %:     99.767  MISS %:   0.233018   MPKI: 0.35272
DTLB LOAD TRANSLATION ACCESS:   30274077  HIT:   30203533  MISS:      70544  HIT %:     99.767  MISS %:   0.233018   MPKI: 0.35272
DTLB PREFETCH  REQUESTED:          0  ISSUED:          0  USEFUL:          0  USELESS:          0
DTLB USEFUL LOAD PREFETCHES:          0 PREFETCH ISSUED TO LOWER LEVEL:          0  ACCURACY: -nan
DTLB TIMELY PREFETCHES:          0 LATE PREFETCHES: 0 DROPPED PREFETCHES: 0
DTLB PREFETCHES SAME FILL-ORIGIN LEVEL: 0 DIFFERENT FILL-ORIGIN LEVEL: 0
DTLB AVERAGE MISS LATENCY: 452.025 cycles
DTLB RQ	ACCESS:  135070506	FORWARD:          0	MERGED:   54618644	TO_CACHE:   80451862

STLB TOTAL     ACCESS:    1466282  HIT:    1395738  MISS:      70544  HIT %:    95.1889  MISS %:    4.81108   MPKI: 0.35272
STLB LOAD TRANSLATION ACCESS:      70544  HIT:          0  MISS:      70544  HIT %:          0  MISS %:        100   MPKI: 0.35272
STLB TRANSLATION FROM L1D PREFETCHER ACCESS:    1395738  HIT:    1395738  MISS:          0  HIT %:        100  MISS %:          0   MPKI: 0
STLB PREFETCH  REQUESTED:          0  ISSUED:          0  USEFUL:          0  USELESS:          0
STLB USEFUL LOAD PREFETCHES:          0 PREFETCH ISSUED TO LOWER LEVEL:          0  ACCURACY: -nan
STLB TIMELY PREFETCHES:          0 LATE PREFETCHES: 0 DROPPED PREFETCHES: 0
STLB PREFETCHES SAME FILL-ORIGIN LEVEL: 0 DIFFERENT FILL-ORIGIN LEVEL: 0
STLB AVERAGE MISS LATENCY: 425.574 cycles
STLB RQ	ACCESS:    6926217	FORWARD:          0	MERGED:    3175116	TO_CACHE:    3751101

STLB Hit, L1D data hit: 0
STLB Hit, L2C data hit: 0
STLB Hit, LLC data hit: 0
STLB Hit, LLC data miss: 0
STLB STLB hints to L2: 0
L1D TOTAL     ACCESS:   14321714  HIT:    9807320  MISS:    4514394  HIT %:    68.4787  MISS %:    31.5213   MPKI: 22.572
L1D LOAD      ACCESS:    8849082  HIT:    8580949  MISS:     268133  HIT %:    96.9699  MISS %:    3.03007   MPKI: 1.34066
L1D RFO       ACCESS:    3315707  HIT:     330411  MISS:    2985296  HIT %:    9.96502  MISS %:     90.035   MPKI: 14.9265
L1D PREFETCH  ACCESS:    2156925  HIT:     895960  MISS:    1260965  HIT %:    41.5388  MISS %:    58.4612   MPKI: 6.30482
L1D PREFETCH  REQUESTED:   13451060  ISSUED:   13450002  USEFUL:    3215169  USELESS:       5496
L1D USEFUL LOAD PREFETCHES:    3215169 PREFETCH ISSUED TO LOWER LEVEL:    3773407  ACCURACY: 85.206
L1D TIMELY PREFETCHES:    3215169 LATE PREFETCHES: 552729 DROPPED PREFETCHES: 0
L1D PREFETCHES SAME FILL-ORIGIN LEVEL: 3773407 DIFFERENT FILL-ORIGIN LEVEL: 0
L1D AVERAGE MISS LATENCY: 1636.18 cycles
L1D RQ	ACCESS:   64646232	FORWARD:          0	MERGED:   38670175	TO_CACHE:   25976039
L1D WQ	ACCESS:  109094467	FORWARD:         18	MERGED:          0	TO_CACHE:  109094467
L1D PQ	ACCESS:    6731004	FORWARD:          0	MERGED:      12006	TO_CACHE:    6718998

L1D UNIQUE REGIONS ACCESSED: 0
L1D REGIONS CONFLICTS: 0
L1D Cross Page Prefetch Requests: 0
L1D Same Page Prefetch Requests: 7581278
L1D ROI Sum of L1D PQ occupancy: 379812563
L1D PREFETCHES PUSHED FROM L2C: 0
L1I TOTAL     ACCESS:   43951629  HIT:   43951620  MISS:          9  HIT %:        100  MISS %: 2.04771e-05   MPKI: 4.5e-05
L1I LOAD      ACCESS:   43951629  HIT:   43951620  MISS:          9  HIT %:        100  MISS %: 2.04771e-05   MPKI: 4.5e-05
L1I PREFETCH  REQUESTED:          0  ISSUED:          0  USEFUL:          0  USELESS:          0
L1I USEFUL LOAD PREFETCHES:          0 PREFETCH ISSUED TO LOWER LEVEL:          0  ACCURACY: -nan
L1I TIMELY PREFETCHES:          0 LATE PREFETCHES: 0 DROPPED PREFETCHES: 0
L1I PREFETCHES SAME FILL-ORIGIN LEVEL: 0 DIFFERENT FILL-ORIGIN LEVEL: 0
L1I AVERAGE MISS LATENCY: 647.333 cycles
L1I RQ	ACCESS:  126607448	FORWARD:          0	MERGED:    6340748	TO_CACHE:  120266700

BTB TOTAL     ACCESS:   23259342  HIT:   23259277  MISS:         65  HIT %:    99.9997  MISS %: 0.000279458   MPKI: 0.000325
BTB BRANCH_DIRECT_JUMP	ACCESS:        507  HIT:        492  MISS:         15
BTB BRANCH_INDIRECT	ACCESS:          0  HIT:          0  MISS:          0
BTB BRANCH_CONDITIONAL	ACCESS:   23258728  HIT:   23258688  MISS:         40
BTB BRANCH_DIRECT_CALL	ACCESS:         53  HIT:         48  MISS:          5
BTB BRANCH_INDIRECT_CALL	ACCESS:          0  HIT:          0  MISS:          0
BTB BRANCH_RETURN	ACCESS:         54  HIT:         49  MISS:          5
BTB BRANCH_OTHER ACCESS:          0  HIT:          0  MISS:          0

L2C TOTAL     ACCESS:    7570320  HIT:    3023965  MISS:    4546355  HIT %:     39.945  MISS %:     60.055   MPKI: 22.7318
L2C LOAD      ACCESS:      28081  HIT:        324  MISS:      27757  HIT %:    1.15381  MISS %:    98.8462   MPKI: 0.138785
L2C DATA LOAD MPKI: 0.13874
L2C INSTRUCTION LOAD MPKI: 4.5e-05
L2C RFO       ACCESS:    2985296  HIT:          0  MISS:    2985296  HIT %:          0  MISS %:        100   MPKI: 14.9265
L2C PREFETCH  ACCESS:    1501026  HIT:       1449  MISS:    1499577  HIT %:   0.096534  MISS %:    99.9035   MPKI: 7.49788
L2C DATA PREFETCH MPKI: 7.49788
L2C INSTRUCTION PREFETCH MPKI: 0
L2C WRITEBACK ACCESS:    2985335  HIT:    2960952  MISS:      24383  HIT %:    99.1832  MISS %:   0.816759   MPKI: 0.121915
L2C LOAD TRANSLATION ACCESS:      70582  HIT:      61240  MISS:       9342  HIT %:    86.7643  MISS %:    13.2357   MPKI: 0.04671
L2C PREFETCH  REQUESTED:          0  ISSUED:          0  USEFUL:        889  USELESS:    3767115
L2C USEFUL LOAD PREFETCHES:        889 PREFETCH ISSUED TO LOWER LEVEL:    3769361  ACCURACY: 0.0235849
L2C TIMELY PREFETCHES:        889 LATE PREFETCHES: 0 DROPPED PREFETCHES: 0
L2C PREFETCHES SAME FILL-ORIGIN LEVEL: 0 DIFFERENT FILL-ORIGIN LEVEL: 0
L2C AVERAGE MISS LATENCY: 1705.8 cycles
L2C RQ	ACCESS:    9695566	FORWARD:          0	MERGED:          0	TO_CACHE:    9695566
L2C WQ	ACCESS:    9416697	FORWARD:          0	MERGED:          0	TO_CACHE:    9416697
L2C PQ	ACCESS:    3773407	FORWARD:          0	MERGED:          0	TO_CACHE:    3773407

L2C Instructions Evicting Data 9
L2C Translations Evicting Data 27271
L2C Data Evicting Data 13229667
L2C Instructions Evicting Instructions 0
L2C Translations Evicting Instructions 0
L2C Data Evicting Instructions 9
L2C Instructions Evicting Translations 0
L2C Translations Evicting Translations 21
L2C Data Evicting Translations 26770
L2C Dense regions hint from L2: 0
PSCL5 TOTAL     ACCESS:      70544  HIT:      70544  MISS:          0  HIT %:        100  MISS %:          0   MPKI: 0
PSCL5 LOAD TRANSLATION ACCESS:      70544  HIT:      70544  MISS:          0  HIT %:        100  MISS %:          0   MPKI: 0
PSCL5 PREFETCH  REQUESTED:          0  ISSUED:          0  USEFUL:          0  USELESS:          0
PSCL5 USEFUL LOAD PREFETCHES:          0 PREFETCH ISSUED TO LOWER LEVEL:          0  ACCURACY: -nan
PSCL5 TIMELY PREFETCHES:          0 LATE PREFETCHES: 0 DROPPED PREFETCHES: 0
PSCL5 PREFETCHES SAME FILL-ORIGIN LEVEL: 0 DIFFERENT FILL-ORIGIN LEVEL: 0

PSCL4 TOTAL     ACCESS:      70544  HIT:      70544  MISS:          0  HIT %:        100  MISS %:          0   MPKI: 0
PSCL4 LOAD TRANSLATION ACCESS:      70544  HIT:      70544  MISS:          0  HIT %:        100  MISS %:          0   MPKI: 0
PSCL4 PREFETCH  REQUESTED:          0  ISSUED:          0  USEFUL:          0  USELESS:          0
PSCL4 USEFUL LOAD PREFETCHES:          0 PREFETCH ISSUED TO LOWER LEVEL:          0  ACCURACY: -nan
PSCL4 TIMELY PREFETCHES:          0 LATE PREFETCHES: 0 DROPPED PREFETCHES: 0
PSCL4 PREFETCHES SAME FILL-ORIGIN LEVEL: 0 DIFFERENT FILL-ORIGIN LEVEL: 0

PSCL3 TOTAL     ACCESS:      70544  HIT:      70544  MISS:          0  HIT %:        100  MISS %:          0   MPKI: 0
PSCL3 LOAD TRANSLATION ACCESS:      70544  HIT:      70544  MISS:          0  HIT %:        100  MISS %:          0   MPKI: 0
PSCL3 PREFETCH  REQUESTED:          0  ISSUED:          0  USEFUL:          0  USELESS:          0
PSCL3 USEFUL LOAD PREFETCHES:          0 PREFETCH ISSUED TO LOWER LEVEL:          0  ACCURACY: -nan
PSCL3 TIMELY PREFETCHES:          0 LATE PREFETCHES: 0 DROPPED PREFETCHES: 0
PSCL3 PREFETCHES SAME FILL-ORIGIN LEVEL: 0 DIFFERENT FILL-ORIGIN LEVEL: 0

PSCL2 TOTAL     ACCESS:      70544  HIT:      70384  MISS:        160  HIT %:    99.7732  MISS %:   0.226809   MPKI: 0.0008
PSCL2 LOAD TRANSLATION ACCESS:      70544  HIT:      70384  MISS:        160  HIT %:    99.7732  MISS %:   0.226809   MPKI: 0.0008
PSCL2 PREFETCH  REQUESTED:          0  ISSUED:          0  USEFUL:          0  USELESS:          0
PSCL2 USEFUL LOAD PREFETCHES:          0 PREFETCH ISSUED TO LOWER LEVEL:          0  ACCURACY: -nan
PSCL2 TIMELY PREFETCHES:          0 LATE PREFETCHES: 0 DROPPED PREFETCHES: 0
PSCL2 PREFETCHES SAME FILL-ORIGIN LEVEL: 0 DIFFERENT FILL-ORIGIN LEVEL: 0

LLC TOTAL     ACCESS:    7507115  HIT:    2975026  MISS:    4532089  HIT %:    39.6294  MISS %:    60.3706   MPKI: 22.6604
LLC LOAD      ACCESS:      27757  HIT:         27  MISS:      27730  HIT %:  0.0972728  MISS %:    99.9027   MPKI: 0.13865
LLC RFO       ACCESS:    2985296  HIT:          0  MISS:    2985296  HIT %:          0  MISS %:        100   MPKI: 14.9265
LLC PREFETCH  ACCESS:    1499577  HIT:        102  MISS:    1499475  HIT %: 0.00680192  MISS %:    99.9932   MPKI: 7.49737
LLC WRITEBACK ACCESS:    2985143  HIT:    2974468  MISS:      10675  HIT %:    99.6424  MISS %:   0.357604   MPKI: 0.053375
LLC LOAD TRANSLATION ACCESS:       9342  HIT:        429  MISS:       8913  HIT %:    4.59216  MISS %:    95.4078   MPKI: 0.044565
LLC PREFETCH  REQUESTED:          0  ISSUED:          0  USEFUL:      77865  USELESS:    7772533
LLC USEFUL LOAD PREFETCHES:      77865 PREFETCH ISSUED TO LOWER LEVEL:    7837581  ACCURACY: 0.993483
LLC TIMELY PREFETCHES:      77865 LATE PREFETCHES: 0 DROPPED PREFETCHES: 0
LLC PREFETCHES SAME FILL-ORIGIN LEVEL: 0 DIFFERENT FILL-ORIGIN LEVEL: 0
LLC AVERAGE MISS LATENCY: 2595.01 cycles
LLC RQ	ACCESS:   13306105	FORWARD:          0	MERGED:          0	TO_CACHE:   13306105
LLC WQ	ACCESS:   11253582	FORWARD:          0	MERGED:          0	TO_CACHE:   11253582
LLC PQ	ACCESS:   10085453	FORWARD:          0	MERGED:          0	TO_CACHE:   10085453

LLC Dense regions hint to LLC: 0

RAW hits: 222
Loads Generated: 22813289
Loads sent to L1D: 22813063
Stores Generated: 41925614
Stores sent to L1D: 41925610
Major fault: 0 Minor fault: 89627
Allocated PAGES: 147015

stream: 
stream:times selected: 20220729
stream:pref_filled: 9409870
stream:pref_useful: 593953
stream:pref_late: 64604
stream:misses: 2253273
stream:misses_by_poll: 0

CS: 
CS:times selected: 4184994
CS:pref_filled: 2122906
CS:pref_useful: 2013150
CS:pref_late: 992140
CS:misses: 2244244
CS:misses_by_poll: 4456

CPLX: 
CPLX:times selected: 15905525
CPLX:pref_filled: 294549
CPLX:pref_useful: 21889
CPLX:pref_late: 1794
CPLX:misses: 7993160
CPLX:misses_by_poll: 86

NL_L1: 
NL:times selected: 92976
NL:pref_filled: 57155
NL:pref_useful: 3896
NL:pref_late: 369
NL:misses: 56544
NL:misses_by_poll: 3

total selections: 40404224
total_filled: 8988274
total_useful: 2060759
total_late: 1066935
total_polluted: 4545
total_misses_after_warmup: 10149953
conflicts: 214
Degree Incremented Times: 1753157
Degree Decremented Times: 434290

L1 IP Table Write Accesses: 163002405
L1 IP Table Read Accesses: 163002191
L1 RST Write Accesses: 23309567
L1 RST Read Accesses: 46619134
L1 CSPT Write Accesses: 23309567
L1 CSPT Read Accesses: 35780729
L1 RR Filter Tag Write Accesses: 29050792
L1 RR Filter Tag Read Accesses: 2245189267
L1 IP Table Tag Write Accesses: 163002436
L1 IP Table Tag Read Accesses: 163002436
L1 RST Tag Write Accesses: 0
L1 RST Tag Read Accesses: 208903448
L1 RR Filter Write Accesses: 0
L1 RR Filter Read Accesses: 89332360
test: 8608668

stream: 
stream:times selected: 1161235
stream:pref_filled: 577443
stream:pref_useful: 577408
stream:pref_late: 67
stream:misses: 1
stream:misses_by_poll: 0

CS: 
CS:times selected: 1161220
CS:pref_filled: 2250
CS:pref_useful: 2250
CS:pref_late: 7
CS:misses: 14725
CS:misses_by_poll: 2

CPLX: 
CPLX:times selected: 2
CPLX:pref_filled: 0
CPLX:pref_useful: 0
CPLX:pref_late: 0
CPLX:misses: 0
CPLX:misses_by_poll: 0

NL_L1: 
NL:times selected: 4
NL:pref_filled: 2
NL:pref_useful: 2
NL:pref_late: 0
NL:misses: 1
NL:misses_by_poll: 0

total selections: 2322461
total_filled: 525395
total_useful: 525372
total_late: 74
total_polluted: 2
total_misses_after_warmup: 13797
conflicts: 214
Degree Incremented Times: 1753157
Degree Decremented Times: 434290

L1 IP Table Write Accesses: 163002405
L1 IP Table Read Accesses: 163002191
L1 RST Write Accesses: 23309567
L1 RST Read Accesses: 46619134
L1 CSPT Write Accesses: 23309567
L1 CSPT Read Accesses: 35780729
L1 RR Filter Tag Write Accesses: 29050792
L1 RR Filter Tag Read Accesses: 2245189267
L1 IP Table Tag Write Accesses: 163002436
L1 IP Table Tag Read Accesses: 163002436
L1 RST Tag Write Accesses: 0
L1 RST Tag Read Accesses: 208903448
L1 RR Filter Write Accesses: 0
L1 RR Filter Read Accesses: 89332360
test: 8608668

stream: 
stream:times selected: 1145310
stream:pref_filled: 574265
stream:pref_useful: 574217
stream:pref_late: 74
stream:misses: 0
stream:misses_by_poll: 0

CS: 
CS:times selected: 1145299
CS:pref_filled: 2154
CS:pref_useful: 2154
CS:pref_late: 8
CS:misses: 14477
CS:misses_by_poll: 3

CPLX: 
CPLX:times selected: 6
CPLX:pref_filled: 0
CPLX:pref_useful: 0
CPLX:pref_late: 0
CPLX:misses: 0
CPLX:misses_by_poll: 0

NL_L1: 
NL:times selected: 0
NL:pref_filled: 0
NL:pref_useful: 0
NL:pref_late: 0
NL:misses: 0
NL:misses_by_poll: 0

total selections: 2290615
total_filled: 521622
total_useful: 521586
total_late: 83
total_polluted: 3
total_misses_after_warmup: 13547
conflicts: 214
Degree Incremented Times: 1753157
Degree Decremented Times: 434290

L1 IP Table Write Accesses: 163002405
L1 IP Table Read Accesses: 163002191
L1 RST Write Accesses: 23309567
L1 RST Read Accesses: 46619134
L1 CSPT Write Accesses: 23309567
L1 CSPT Read Accesses: 35780729
L1 RR Filter Tag Write Accesses: 29050792
L1 RR Filter Tag Read Accesses: 2245189267
L1 IP Table Tag Write Accesses: 163002436
L1 IP Table Tag Read Accesses: 163002436
L1 RST Tag Write Accesses: 0
L1 RST Tag Read Accesses: 208903448
L1 RR Filter Write Accesses: 0
L1 RR Filter Read Accesses: 89332360
test: 8608668

stream: 
stream:times selected: 5647526
stream:pref_filled: 3335804
stream:pref_useful: 3330611
stream:pref_late: 545265
stream:misses: 173
stream:misses_by_poll: 0

CS: 
CS:times selected: 5606295
CS:pref_filled: 108468
CS:pref_useful: 108213
CS:pref_late: 4010
CS:misses: 2743692
CS:misses_by_poll: 905

CPLX: 
CPLX:times selected: 41157
CPLX:pref_filled: 21698
CPLX:pref_useful: 21629
CPLX:pref_late: 245
CPLX:misses: 116
CPLX:misses_by_poll: 12

NL_L1: 
NL:times selected: 10
NL:pref_filled: 2
NL:pref_useful: 2
NL:pref_late: 0
NL:misses: 0
NL:misses_by_poll: 0

total selections: 11294988
total_filled: 3220674
total_useful: 3215169
total_late: 552729
total_polluted: 917
total_misses_after_warmup: 2737131
conflicts: 214
Degree Incremented Times: 1753157
Degree Decremented Times: 434290

L1 IP Table Write Accesses: 163002405
L1 IP Table Read Accesses: 163002191
L1 RST Write Accesses: 23309567
L1 RST Read Accesses: 46619134
L1 CSPT Write Accesses: 23309567
L1 CSPT Read Accesses: 35780729
L1 RR Filter Tag Write Accesses: 29050792
L1 RR Filter Tag Read Accesses: 2245189267
L1 IP Table Tag Write Accesses: 163002436
L1 IP Table Tag Read Accesses: 163002436
L1 RST Tag Write Accesses: 0
L1 RST Tag Read Accesses: 208903448
L1 RR Filter Write Accesses: 0
L1 RR Filter Read Accesses: 89332360
test: 8608668

DRAM Statistics
 CHANNEL 0
 RQ ROW_BUFFER_HIT:    6464678  ROW_BUFFER_MISS:   12269581
 DBUS_CONGESTED:          0
 WQ ROW_BUFFER_HIT:    1960600  ROW_BUFFER_MISS:    9277258  FULL:        346

 AVG_CONGESTED_CYCLE: -
 All warmup complete: 5
Channel 0 Bank busy for read cycles: 0
Channel 0 Bank busy for write cycles: 0
Channel 0
Rank 0
0banks busy for read cycles: 15128
0banks busy for write cycles: 0
1banks busy for read cycles: 2909734
1banks busy for write cycles: 1117755
2banks busy for read cycles: 6128075
2banks busy for write cycles: 1117751
3banks busy for read cycles: 10895009
3banks busy for write cycles: 1117751
4banks busy for read cycles: 18362014
4banks busy for write cycles: 1117820
5banks busy for read cycles: 29259156
5banks busy for write cycles: 1122106
6banks busy for read cycles: 44553897
6banks busy for write cycles: 1404461
7banks busy for read cycles: 74699547
7banks busy for write cycles: 17198988
8banks busy for read cycles: 182025314
8banks busy for write cycles: 228256643

CPU 0 Branch Prediction Accuracy: 99.1562% MPKI: 1.37399 Average ROB Occupancy at Mispredict: 166.39
Branch types
NOT_BRANCH: 167434479 83.7172%
BRANCH_DIRECT_JUMP: 47 2.35e-05%
BRANCH_INDIRECT: 0 0%
BRANCH_CONDITIONAL: 32565207 16.2826%
BRANCH_DIRECT_CALL: 13 6.5e-06%
BRANCH_INDIRECT_CALL: 0 0%
BRANCH_RETURN: 13 6.5e-06%
BRANCH_OTHER: 0 0%


CPU 1 Branch Prediction Accuracy: 97.5874% MPKI: 7.25461 Average ROB Occupancy at Mispredict: 79.0476
Branch types
NOT_BRANCH: 360465291 69.7293%
BRANCH_DIRECT_JUMP: 20973189 4.05711%
BRANCH_INDIRECT: 0 0%
BRANCH_CONDITIONAL: 131113552 25.3629%
BRANCH_DIRECT_CALL: 2198793 0.42534%
BRANCH_INDIRECT_CALL: 0 0%
BRANCH_RETURN: 2198794 0.42534%
BRANCH_OTHER: 0 0%


CPU 2 Branch Prediction Accuracy: 97.5503% MPKI: 7.3456 Average ROB Occupancy at Mispredict: 78.7525
Branch types
NOT_BRANCH: 355927757 69.806%
BRANCH_DIRECT_JUMP: 20617788 4.04365%
BRANCH_INDIRECT: 0 0%
BRANCH_CONDITIONAL: 128900843 25.2806%
BRANCH_DIRECT_CALL: 2217308 0.434868%
BRANCH_INDIRECT_CALL: 0 0%
BRANCH_RETURN: 2217308 0.434868%
BRANCH_OTHER: 0 0%


CPU 3 Branch Prediction Accuracy: 98.2055% MPKI: 2.11503 Average ROB Occupancy at Mispredict: 79.109
Branch types
NOT_BRANCH: 488554484 88.0052%
BRANCH_DIRECT_JUMP: 1034 0.000186258%
BRANCH_INDIRECT: 0 0%
BRANCH_CONDITIONAL: 66586839 11.9945%
BRANCH_DIRECT_CALL: 110 1.98147e-05%
BRANCH_INDIRECT_CALL: 0 0%
BRANCH_RETURN: 112 2.0175e-05%
BRANCH_OTHER: 0 0%

DRAM PAGES: 1048576
Allocated PAGES: 147015
