
*** ChampSim Multicore Out-of-Order Simulator ***

Warmup Instructions: 50000000
Simulation Instructions: 200000000
Number of CPUs: 4
LLC sets: 8192
LLC ways: 16
Off-chip DRAM Size: 4096 MB Channels: 1 Width: 64-bit Data Rate: 6400 MT/s
CPU 0 runs ./traces/ligra/ligra_PageRankDelta.com-lj.ungraph.gcc_6.3.0_O3.drop_24000M.length_250M.champsimtrace.xz
.xz
CPU 1 runs ./traces/ligra/ligra_PageRankDelta.com-lj.ungraph.gcc_6.3.0_O3.drop_24000M.length_250M.champsimtrace.xz
.xz
CPU 2 runs ./traces/ligra/ligra_PageRankDelta.com-lj.ungraph.gcc_6.3.0_O3.drop_24000M.length_250M.champsimtrace.xz
.xz
CPU 3 runs ./traces/ligra/ligra_PageRankDelta.com-lj.ungraph.gcc_6.3.0_O3.drop_24000M.length_250M.champsimtrace.xz
.xz
BTB has LRU replacement policy
ITLB has LRU replacement policy
DTLB has LRU replacement policy
STLB has LRU replacement policy
L1I has LRU replacement policy
IP Table Entries: 1024
CSPT Entries: 128
RR_ENTRIES: 32
RST_ENTRIES: 8
L1D has LRU replacement policy
Initialize SRRIP state for L2C
Initialize DRRIP state for LLC
BTB has LRU replacement policy
ITLB has LRU replacement policy
DTLB has LRU replacement policy
STLB has LRU replacement policy
L1I has LRU replacement policy
IP Table Entries: 1024
CSPT Entries: 128
RR_ENTRIES: 32
RST_ENTRIES: 8
L1D has LRU replacement policy
Initialize SRRIP state for L2C
Initialize DRRIP state for LLC
BTB has LRU replacement policy
ITLB has LRU replacement policy
DTLB has LRU replacement policy
STLB has LRU replacement policy
L1I has LRU replacement policy
IP Table Entries: 1024
CSPT Entries: 128
RR_ENTRIES: 32
RST_ENTRIES: 8
L1D has LRU replacement policy
Initialize SRRIP state for L2C
Initialize DRRIP state for LLC
BTB has LRU replacement policy
ITLB has LRU replacement policy
DTLB has LRU replacement policy
STLB has LRU replacement policy
L1I has LRU replacement policy
IP Table Entries: 1024
CSPT Entries: 128
RR_ENTRIES: 32
RST_ENTRIES: 8
L1D has LRU replacement policy
Initialize SRRIP state for L2C
Initialize DRRIP state for LLC
Heartbeat CPU 0 instructions: 10000000 cycles: 3332962 heartbeat IPC: 3.00033 cumulative IPC: 3.00033 (Simulation time: 0 hr 1 min 39 sec) 
Heartbeat CPU 1 instructions: 10000000 cycles: 3332971 heartbeat IPC: 3.00033 cumulative IPC: 3.00033 (Simulation time: 0 hr 1 min 39 sec) 
Heartbeat CPU 2 instructions: 10000000 cycles: 3332975 heartbeat IPC: 3.00032 cumulative IPC: 3.00032 (Simulation time: 0 hr 1 min 39 sec) 
Heartbeat CPU 3 instructions: 10000000 cycles: 3332980 heartbeat IPC: 3.00032 cumulative IPC: 3.00032 (Simulation time: 0 hr 1 min 39 sec) 
Heartbeat CPU 0 instructions: 20000000 cycles: 6665482 heartbeat IPC: 3.00073 cumulative IPC: 3.00053 (Simulation time: 0 hr 3 min 15 sec) 
Heartbeat CPU 1 instructions: 20000000 cycles: 6665491 heartbeat IPC: 3.00073 cumulative IPC: 3.00053 (Simulation time: 0 hr 3 min 15 sec) 
Heartbeat CPU 2 instructions: 20000000 cycles: 6665495 heartbeat IPC: 3.00073 cumulative IPC: 3.00053 (Simulation time: 0 hr 3 min 15 sec) 
Heartbeat CPU 3 instructions: 20000000 cycles: 6665500 heartbeat IPC: 3.00073 cumulative IPC: 3.00052 (Simulation time: 0 hr 3 min 15 sec) 
Heartbeat CPU 0 instructions: 30000001 cycles: 9998088 heartbeat IPC: 3.00065 cumulative IPC: 3.00057 (Simulation time: 0 hr 4 min 56 sec) 
Heartbeat CPU 1 instructions: 30000001 cycles: 9998115 heartbeat IPC: 3.00064 cumulative IPC: 3.00057 (Simulation time: 0 hr 4 min 56 sec) 
Heartbeat CPU 2 instructions: 30000001 cycles: 9998117 heartbeat IPC: 3.00064 cumulative IPC: 3.00057 (Simulation time: 0 hr 4 min 56 sec) 
Heartbeat CPU 3 instructions: 30000001 cycles: 9998124 heartbeat IPC: 3.00064 cumulative IPC: 3.00056 (Simulation time: 0 hr 4 min 56 sec) 
Heartbeat CPU 0 instructions: 40000000 cycles: 13330773 heartbeat IPC: 3.00058 cumulative IPC: 3.00058 (Simulation time: 0 hr 6 min 32 sec) 
Heartbeat CPU 1 instructions: 40000000 cycles: 13330800 heartbeat IPC: 3.00058 cumulative IPC: 3.00057 (Simulation time: 0 hr 6 min 32 sec) 
Heartbeat CPU 2 instructions: 40000000 cycles: 13330802 heartbeat IPC: 3.00058 cumulative IPC: 3.00057 (Simulation time: 0 hr 6 min 32 sec) 
Heartbeat CPU 3 instructions: 40000000 cycles: 13330809 heartbeat IPC: 3.00058 cumulative IPC: 3.00057 (Simulation time: 0 hr 6 min 32 sec) 
Heartbeat CPU 0 instructions: 50000001 cycles: 16663451 heartbeat IPC: 3.00059 cumulative IPC: 3.00058 (Simulation time: 0 hr 8 min 9 sec) 
Heartbeat CPU 1 instructions: 50000001 cycles: 16663478 heartbeat IPC: 3.00059 cumulative IPC: 3.00057 (Simulation time: 0 hr 8 min 9 sec) 
Heartbeat CPU 2 instructions: 50000001 cycles: 16663480 heartbeat IPC: 3.00059 cumulative IPC: 3.00057 (Simulation time: 0 hr 8 min 9 sec) 
Heartbeat CPU 3 instructions: 50000001 cycles: 16663487 heartbeat IPC: 3.00059 cumulative IPC: 3.00057 (Simulation time: 0 hr 8 min 9 sec) 

Warmup complete CPU 0 instructions: 50000097 cycles: 16663487 (Simulation time: 0 hr 8 min 9 sec) 
Warmup complete CPU 1 instructions: 50000025 cycles: 16663487 (Simulation time: 0 hr 8 min 9 sec) 
Warmup complete CPU 2 instructions: 50000019 cycles: 16663487 (Simulation time: 0 hr 8 min 9 sec) 
Warmup complete CPU 3 instructions: 50000001 cycles: 16663487 (Simulation time: 0 hr 8 min 9 sec) 

Heartbeat CPU 0 instructions: 60000002 cycles: 42079203 heartbeat IPC: 0.393457 cumulative IPC: 0.393454 (Simulation time: 0 hr 12 min 33 sec) 
Heartbeat CPU 2 instructions: 60000001 cycles: 42186646 heartbeat IPC: 0.391801 cumulative IPC: 0.3918 (Simulation time: 0 hr 12 min 34 sec) 
Heartbeat CPU 3 instructions: 60000003 cycles: 42231935 heartbeat IPC: 0.391107 cumulative IPC: 0.391107 (Simulation time: 0 hr 12 min 34 sec) 
Heartbeat CPU 1 instructions: 60000003 cycles: 42250335 heartbeat IPC: 0.390826 cumulative IPC: 0.390825 (Simulation time: 0 hr 12 min 34 sec) 
Heartbeat CPU 0 instructions: 70000003 cycles: 95730165 heartbeat IPC: 0.18639 cumulative IPC: 0.25295 (Simulation time: 0 hr 20 min 47 sec) 
Heartbeat CPU 1 instructions: 70000001 cycles: 95926096 heartbeat IPC: 0.186304 cumulative IPC: 0.252325 (Simulation time: 0 hr 20 min 49 sec) 
Heartbeat CPU 3 instructions: 70000003 cycles: 96113750 heartbeat IPC: 0.185591 cumulative IPC: 0.25173 (Simulation time: 0 hr 20 min 50 sec) 
Heartbeat CPU 2 instructions: 70000002 cycles: 96158945 heartbeat IPC: 0.18528 cumulative IPC: 0.251586 (Simulation time: 0 hr 20 min 51 sec) 
Heartbeat CPU 0 instructions: 80000001 cycles: 149226897 heartbeat IPC: 0.186927 cumulative IPC: 0.226306 (Simulation time: 0 hr 27 min 55 sec) 
Heartbeat CPU 1 instructions: 80000000 cycles: 149301833 heartbeat IPC: 0.187351 cumulative IPC: 0.226179 (Simulation time: 0 hr 27 min 56 sec) 
Heartbeat CPU 2 instructions: 80000001 cycles: 149530530 heartbeat IPC: 0.187366 cumulative IPC: 0.225789 (Simulation time: 0 hr 27 min 58 sec) 
Heartbeat CPU 3 instructions: 80000000 cycles: 149563231 heartbeat IPC: 0.187092 cumulative IPC: 0.225734 (Simulation time: 0 hr 27 min 58 sec) 
Heartbeat CPU 0 instructions: 90000003 cycles: 202888917 heartbeat IPC: 0.186352 cumulative IPC: 0.214793 (Simulation time: 0 hr 36 min 4 sec) 
Heartbeat CPU 1 instructions: 90000000 cycles: 202911552 heartbeat IPC: 0.186533 cumulative IPC: 0.214767 (Simulation time: 0 hr 36 min 4 sec) 
Heartbeat CPU 2 instructions: 90000000 cycles: 203016531 heartbeat IPC: 0.186965 cumulative IPC: 0.214646 (Simulation time: 0 hr 36 min 5 sec) 
Heartbeat CPU 3 instructions: 90000000 cycles: 203252904 heartbeat IPC: 0.186256 cumulative IPC: 0.214374 (Simulation time: 0 hr 36 min 8 sec) 
Heartbeat CPU 0 instructions: 100000000 cycles: 256433879 heartbeat IPC: 0.186759 cumulative IPC: 0.208532 (Simulation time: 0 hr 44 min 16 sec) 
Heartbeat CPU 1 instructions: 100000003 cycles: 256533811 heartbeat IPC: 0.18649 cumulative IPC: 0.208446 (Simulation time: 0 hr 44 min 17 sec) 
Heartbeat CPU 2 instructions: 100000003 cycles: 256587849 heartbeat IPC: 0.186667 cumulative IPC: 0.208399 (Simulation time: 0 hr 44 min 17 sec) 
Heartbeat CPU 3 instructions: 100000003 cycles: 256737554 heartbeat IPC: 0.18697 cumulative IPC: 0.208269 (Simulation time: 0 hr 44 min 18 sec) 
Heartbeat CPU 0 instructions: 110000000 cycles: 310273532 heartbeat IPC: 0.185737 cumulative IPC: 0.204352 (Simulation time: 0 hr 51 min 6 sec) 
Heartbeat CPU 1 instructions: 110000000 cycles: 310325927 heartbeat IPC: 0.185901 cumulative IPC: 0.204316 (Simulation time: 0 hr 51 min 6 sec) 
Heartbeat CPU 2 instructions: 110000000 cycles: 310421070 heartbeat IPC: 0.185759 cumulative IPC: 0.20425 (Simulation time: 0 hr 51 min 7 sec) 
Heartbeat CPU 3 instructions: 110000000 cycles: 310689355 heartbeat IPC: 0.185351 cumulative IPC: 0.204064 (Simulation time: 0 hr 51 min 9 sec) 
Heartbeat CPU 1 instructions: 120000000 cycles: 362900355 heartbeat IPC: 0.190207 cumulative IPC: 0.202174 (Simulation time: 0 hr 58 min 47 sec) 
Heartbeat CPU 0 instructions: 120000000 cycles: 362909618 heartbeat IPC: 0.189984 cumulative IPC: 0.202168 (Simulation time: 0 hr 58 min 47 sec) 
Heartbeat CPU 2 instructions: 120000000 cycles: 362940918 heartbeat IPC: 0.190404 cumulative IPC: 0.20215 (Simulation time: 0 hr 58 min 47 sec) 
Heartbeat CPU 3 instructions: 120000000 cycles: 363015329 heartbeat IPC: 0.19111 cumulative IPC: 0.202107 (Simulation time: 0 hr 58 min 48 sec) 
Heartbeat CPU 1 instructions: 130000002 cycles: 411054641 heartbeat IPC: 0.207666 cumulative IPC: 0.202844 (Simulation time: 1 hr 5 min 42 sec) 
Heartbeat CPU 3 instructions: 130000002 cycles: 411125214 heartbeat IPC: 0.207858 cumulative IPC: 0.202808 (Simulation time: 1 hr 5 min 43 sec) 
Heartbeat CPU 2 instructions: 130000002 cycles: 411164631 heartbeat IPC: 0.207367 cumulative IPC: 0.202788 (Simulation time: 1 hr 5 min 43 sec) 
Heartbeat CPU 0 instructions: 130000002 cycles: 411253325 heartbeat IPC: 0.206852 cumulative IPC: 0.202742 (Simulation time: 1 hr 5 min 44 sec) 
Heartbeat CPU 1 instructions: 140000000 cycles: 486923392 heartbeat IPC: 0.131807 cumulative IPC: 0.191383 (Simulation time: 1 hr 16 min 16 sec) 
Heartbeat CPU 0 instructions: 140000000 cycles: 487081724 heartbeat IPC: 0.131877 cumulative IPC: 0.191319 (Simulation time: 1 hr 16 min 18 sec) 
Heartbeat CPU 3 instructions: 140000000 cycles: 487265874 heartbeat IPC: 0.131336 cumulative IPC: 0.191244 (Simulation time: 1 hr 16 min 19 sec) 
Heartbeat CPU 2 instructions: 140000000 cycles: 487585932 heartbeat IPC: 0.130854 cumulative IPC: 0.191114 (Simulation time: 1 hr 16 min 22 sec) 
Heartbeat CPU 0 instructions: 150000001 cycles: 537352696 heartbeat IPC: 0.198922 cumulative IPC: 0.192053 (Simulation time: 1 hr 24 min 27 sec) 
Heartbeat CPU 1 instructions: 150000001 cycles: 538484373 heartbeat IPC: 0.193945 cumulative IPC: 0.191637 (Simulation time: 1 hr 24 min 47 sec) 
Heartbeat CPU 3 instructions: 150000001 cycles: 538576830 heartbeat IPC: 0.19489 cumulative IPC: 0.191603 (Simulation time: 1 hr 24 min 48 sec) 
Heartbeat CPU 2 instructions: 150000001 cycles: 538791775 heartbeat IPC: 0.19529 cumulative IPC: 0.191524 (Simulation time: 1 hr 24 min 53 sec) 
Heartbeat CPU 0 instructions: 160000002 cycles: 550859952 heartbeat IPC: 0.740343 cumulative IPC: 0.205917 (Simulation time: 1 hr 29 min 9 sec) 
Heartbeat CPU 1 instructions: 160000002 cycles: 551827699 heartbeat IPC: 0.749438 cumulative IPC: 0.205544 (Simulation time: 1 hr 29 min 38 sec) 
Heartbeat CPU 3 instructions: 160000002 cycles: 552040678 heartbeat IPC: 0.74273 cumulative IPC: 0.205463 (Simulation time: 1 hr 29 min 43 sec) 
Heartbeat CPU 2 instructions: 160000002 cycles: 552204378 heartbeat IPC: 0.745568 cumulative IPC: 0.2054 (Simulation time: 1 hr 29 min 48 sec) 
Heartbeat CPU 0 instructions: 170000002 cycles: 562922558 heartbeat IPC: 0.829008 cumulative IPC: 0.219676 (Simulation time: 1 hr 34 min 18 sec) 
Heartbeat CPU 1 instructions: 170000002 cycles: 564090457 heartbeat IPC: 0.815477 cumulative IPC: 0.219207 (Simulation time: 1 hr 34 min 41 sec) 
Heartbeat CPU 3 instructions: 170000002 cycles: 564419737 heartbeat IPC: 0.807816 cumulative IPC: 0.219076 (Simulation time: 1 hr 34 min 48 sec) 
Heartbeat CPU 2 instructions: 170000002 cycles: 564624023 heartbeat IPC: 0.805176 cumulative IPC: 0.218994 (Simulation time: 1 hr 34 min 52 sec) 
Heartbeat CPU 0 instructions: 180000000 cycles: 577191851 heartbeat IPC: 0.700805 cumulative IPC: 0.231924 (Simulation time: 1 hr 39 min 2 sec) 
Heartbeat CPU 1 instructions: 180000000 cycles: 578501424 heartbeat IPC: 0.693916 cumulative IPC: 0.231383 (Simulation time: 1 hr 39 min 25 sec) 
Heartbeat CPU 3 instructions: 180000000 cycles: 578916699 heartbeat IPC: 0.6898 cumulative IPC: 0.231213 (Simulation time: 1 hr 39 min 33 sec) 
Heartbeat CPU 2 instructions: 180000000 cycles: 579135386 heartbeat IPC: 0.689115 cumulative IPC: 0.231123 (Simulation time: 1 hr 39 min 37 sec) 
Heartbeat CPU 0 instructions: 190000000 cycles: 589878413 heartbeat IPC: 0.788236 cumulative IPC: 0.244236 (Simulation time: 1 hr 43 min 38 sec) 
Heartbeat CPU 1 instructions: 190000000 cycles: 591436481 heartbeat IPC: 0.773093 cumulative IPC: 0.243574 (Simulation time: 1 hr 44 min 11 sec) 
Heartbeat CPU 3 instructions: 190000000 cycles: 591998686 heartbeat IPC: 0.76441 cumulative IPC: 0.243336 (Simulation time: 1 hr 44 min 23 sec) 
Heartbeat CPU 2 instructions: 190000001 cycles: 592245084 heartbeat IPC: 0.762794 cumulative IPC: 0.243232 (Simulation time: 1 hr 44 min 28 sec) 
Heartbeat CPU 0 instructions: 200000000 cycles: 622753783 heartbeat IPC: 0.304179 cumulative IPC: 0.247488 (Simulation time: 1 hr 50 min 10 sec) 
Heartbeat CPU 1 instructions: 200000000 cycles: 624764232 heartbeat IPC: 0.30005 cumulative IPC: 0.24667 (Simulation time: 1 hr 50 min 38 sec) 
Heartbeat CPU 3 instructions: 200000000 cycles: 625779914 heartbeat IPC: 0.296022 cumulative IPC: 0.246258 (Simulation time: 1 hr 50 min 53 sec) 
Heartbeat CPU 2 instructions: 200000000 cycles: 626034941 heartbeat IPC: 0.295947 cumulative IPC: 0.246155 (Simulation time: 1 hr 50 min 56 sec) 
Heartbeat CPU 0 instructions: 210000002 cycles: 657951563 heartbeat IPC: 0.284109 cumulative IPC: 0.249498 (Simulation time: 1 hr 56 min 43 sec) 
Heartbeat CPU 1 instructions: 210000002 cycles: 660340587 heartbeat IPC: 0.281086 cumulative IPC: 0.248572 (Simulation time: 1 hr 57 min 12 sec) 
Heartbeat CPU 3 instructions: 210000002 cycles: 661633242 heartbeat IPC: 0.278914 cumulative IPC: 0.248074 (Simulation time: 1 hr 57 min 29 sec) 
Heartbeat CPU 2 instructions: 210000000 cycles: 661735890 heartbeat IPC: 0.280105 cumulative IPC: 0.248034 (Simulation time: 1 hr 57 min 30 sec) 
Heartbeat CPU 0 instructions: 220000000 cycles: 684525488 heartbeat IPC: 0.376309 cumulative IPC: 0.254543 (Simulation time: 2 hr 2 min 31 sec) 
Heartbeat CPU 1 instructions: 220000000 cycles: 687331535 heartbeat IPC: 0.370495 cumulative IPC: 0.253479 (Simulation time: 2 hr 3 min 13 sec) 
Heartbeat CPU 2 instructions: 220000000 cycles: 688747140 heartbeat IPC: 0.370216 cumulative IPC: 0.252945 (Simulation time: 2 hr 3 min 34 sec) 
Heartbeat CPU 3 instructions: 220000000 cycles: 688938463 heartbeat IPC: 0.36623 cumulative IPC: 0.252873 (Simulation time: 2 hr 3 min 36 sec) 
Heartbeat CPU 0 instructions: 230000000 cycles: 715002356 heartbeat IPC: 0.328118 cumulative IPC: 0.257754 (Simulation time: 2 hr 8 min 16 sec) 
Heartbeat CPU 1 instructions: 230000000 cycles: 718562286 heartbeat IPC: 0.320197 cumulative IPC: 0.256447 (Simulation time: 2 hr 8 min 54 sec) 
Heartbeat CPU 2 instructions: 230000000 cycles: 720017443 heartbeat IPC: 0.319792 cumulative IPC: 0.255917 (Simulation time: 2 hr 9 min 15 sec) 
Heartbeat CPU 3 instructions: 230000000 cycles: 720280023 heartbeat IPC: 0.319065 cumulative IPC: 0.255821 (Simulation time: 2 hr 9 min 19 sec) 
Heartbeat CPU 0 instructions: 240000002 cycles: 739201135 heartbeat IPC: 0.413244 cumulative IPC: 0.262962 (Simulation time: 2 hr 13 min 23 sec) 
Heartbeat CPU 1 instructions: 240000002 cycles: 743266539 heartbeat IPC: 0.404789 cumulative IPC: 0.261491 (Simulation time: 2 hr 14 min 16 sec) 
Heartbeat CPU 2 instructions: 240000002 cycles: 744755005 heartbeat IPC: 0.404244 cumulative IPC: 0.260956 (Simulation time: 2 hr 14 min 35 sec) 
Heartbeat CPU 3 instructions: 240000002 cycles: 745187053 heartbeat IPC: 0.401493 cumulative IPC: 0.260801 (Simulation time: 2 hr 14 min 41 sec) 
*** Reached end of trace for Core: 0 Repeating trace: ./traces/ligra/ligra_PageRankDelta.com-lj.ungraph.gcc_6.3.0_O3.drop_24000M.length_250M.champsimtrace.xz
Heartbeat CPU 0 instructions: 250000002 cycles: 763465816 heartbeat IPC: 0.412122 cumulative IPC: 0.267808 (Simulation time: 2 hr 18 min 37 sec) 
Finished CPU 0 instructions: 200000000 cycles: 746804248 cumulative IPC: 0.267808 (Simulation time: 2 hr 18 min 37 sec) 
*** Reached end of trace for Core: 1 Repeating trace: ./traces/ligra/ligra_PageRankDelta.com-lj.ungraph.gcc_6.3.0_O3.drop_24000M.length_250M.champsimtrace.xz
Heartbeat CPU 1 instructions: 250000002 cycles: 769974227 heartbeat IPC: 0.374424 cumulative IPC: 0.265495 (Simulation time: 2 hr 19 min 56 sec) 
Finished CPU 1 instructions: 200000002 cycles: 753311743 cumulative IPC: 0.265494 (Simulation time: 2 hr 19 min 56 sec) 
*** Reached end of trace for Core: 2 Repeating trace: ./traces/ligra/ligra_PageRankDelta.com-lj.ungraph.gcc_6.3.0_O3.drop_24000M.length_250M.champsimtrace.xz
Heartbeat CPU 2 instructions: 250000002 cycles: 772802491 heartbeat IPC: 0.356538 cumulative IPC: 0.264502 (Simulation time: 2 hr 20 min 37 sec) 
Finished CPU 2 instructions: 200000001 cycles: 756140431 cumulative IPC: 0.264501 (Simulation time: 2 hr 20 min 37 sec) 
*** Reached end of trace for Core: 3 Repeating trace: ./traces/ligra/ligra_PageRankDelta.com-lj.ungraph.gcc_6.3.0_O3.drop_24000M.length_250M.champsimtrace.xz
Heartbeat CPU 3 instructions: 250000002 cycles: 773955486 heartbeat IPC: 0.347603 cumulative IPC: 0.264099 (Simulation time: 2 hr 20 min 53 sec) 
Finished CPU 3 instructions: 200000001 cycles: 757291999 cumulative IPC: 0.264099 (Simulation time: 2 hr 20 min 53 sec) 

ChampSim completed all CPUs

Total Simulation Statistics (not including warmup)

CPU 0 cumulative IPC: 0.276476 instructions: 209372713 cycles: 757291999
ITLB TOTAL     ACCESS:   30023208  HIT:   30023205  MISS:          3  HIT %:        100  MISS %: 9.99227e-06   MPKI: 1.43285e-05
ITLB LOAD      ACCESS:          0  HIT:          0  MISS:          0  HIT %:       -nan  MISS %:       -nan   MPKI: 0
ITLB RFO       ACCESS:          0  HIT:          0  MISS:          0  HIT %:       -nan  MISS %:       -nan   MPKI: 0
ITLB PREFETCH  ACCESS:          0  HIT:          0  MISS:          0  HIT %:       -nan  MISS %:       -nan   MPKI: 0
ITLB WRITEBACK ACCESS:          0  HIT:          0  MISS:          0  HIT %:       -nan  MISS %:       -nan   MPKI: 0
DTLB TOTAL     ACCESS:   53049799  HIT:   50591082  MISS:    2458717  HIT %:    95.3653  MISS %:    4.63473   MPKI: 11.7433
DTLB LOAD      ACCESS:          0  HIT:          0  MISS:          0  HIT %:       -nan  MISS %:       -nan   MPKI: 0
DTLB RFO       ACCESS:          0  HIT:          0  MISS:          0  HIT %:       -nan  MISS %:       -nan   MPKI: 0
DTLB PREFETCH  ACCESS:          0  HIT:          0  MISS:          0  HIT %:       -nan  MISS %:       -nan   MPKI: 0
DTLB WRITEBACK ACCESS:          0  HIT:          0  MISS:          0  HIT %:       -nan  MISS %:       -nan   MPKI: 0
STLB TOTAL     ACCESS:    9163321  HIT:    8837769  MISS:     325552  HIT %:    96.4472  MISS %:    3.55277   MPKI: 1.55489
STLB LOAD      ACCESS:          0  HIT:          0  MISS:          0  HIT %:       -nan  MISS %:       -nan   MPKI: 0
STLB RFO       ACCESS:          0  HIT:          0  MISS:          0  HIT %:       -nan  MISS %:       -nan   MPKI: 0
STLB PREFETCH  ACCESS:          0  HIT:          0  MISS:          0  HIT %:       -nan  MISS %:       -nan   MPKI: 0
STLB WRITEBACK ACCESS:          0  HIT:          0  MISS:          0  HIT %:       -nan  MISS %:       -nan   MPKI: 0
L1D TOTAL     ACCESS:   66370488  HIT:   52706158  MISS:   13664330  HIT %:     79.412  MISS %:     20.588   MPKI: 65.2632
L1D LOAD      ACCESS:   35768439  HIT:   31557441  MISS:    4210998  HIT %:    88.2271  MISS %:    11.7729   MPKI: 20.1124
L1D RFO       ACCESS:   17498934  HIT:   15863713  MISS:    1635221  HIT %:    90.6553  MISS %:    9.34469   MPKI: 7.8101
L1D PREFETCH  ACCESS:   13103115  HIT:    5285004  MISS:    7818111  HIT %:     40.334  MISS %:     59.666   MPKI: 37.3406
L1D WRITEBACK ACCESS:          0  HIT:          0  MISS:          0  HIT %:       -nan  MISS %:       -nan   MPKI: 0
L1I TOTAL     ACCESS:   38022694  HIT:   38022655  MISS:         39  HIT %:    99.9999  MISS %: 0.00010257   MPKI: 0.000186271
L1I LOAD      ACCESS:   38022694  HIT:   38022655  MISS:         39  HIT %:    99.9999  MISS %: 0.00010257   MPKI: 0.000186271
L1I RFO       ACCESS:          0  HIT:          0  MISS:          0  HIT %:       -nan  MISS %:       -nan   MPKI: 0
L1I PREFETCH  ACCESS:          0  HIT:          0  MISS:          0  HIT %:       -nan  MISS %:       -nan   MPKI: 0
L1I WRITEBACK ACCESS:          0  HIT:          0  MISS:          0  HIT %:       -nan  MISS %:       -nan   MPKI: 0
L2C TOTAL     ACCESS:   19274301  HIT:    8989509  MISS:   10284792  HIT %:    46.6399  MISS %:    53.3601   MPKI: 49.1219
L2C LOAD      ACCESS:    3442899  HIT:    1443427  MISS:    1999472  HIT %:    41.9248  MISS %:    58.0752   MPKI: 9.54982
L2C RFO       ACCESS:    1635221  HIT:         14  MISS:    1635207  HIT %: 0.000856153  MISS %:    99.9991   MPKI: 7.81003
L2C PREFETCH  ACCESS:    8585888  HIT:    2340373  MISS:    6245515  HIT %:    27.2584  MISS %:    72.7416   MPKI: 29.8297
L2C WRITEBACK ACCESS:    5284689  HIT:    5031319  MISS:     253370  HIT %:    95.2056  MISS %:    4.79442   MPKI: 1.21014
PSCL5 TOTAL     ACCESS:     325552  HIT:     325552  MISS:          0  HIT %:        100  MISS %:          0   MPKI: 0
PSCL5 LOAD      ACCESS:          0  HIT:          0  MISS:          0  HIT %:       -nan  MISS %:       -nan   MPKI: 0
PSCL5 RFO       ACCESS:          0  HIT:          0  MISS:          0  HIT %:       -nan  MISS %:       -nan   MPKI: 0
PSCL5 PREFETCH  ACCESS:          0  HIT:          0  MISS:          0  HIT %:       -nan  MISS %:       -nan   MPKI: 0
PSCL5 WRITEBACK ACCESS:          0  HIT:          0  MISS:          0  HIT %:       -nan  MISS %:       -nan   MPKI: 0
PSCL4 TOTAL     ACCESS:     325552  HIT:     325552  MISS:          0  HIT %:        100  MISS %:          0   MPKI: 0
PSCL4 LOAD      ACCESS:          0  HIT:          0  MISS:          0  HIT %:       -nan  MISS %:       -nan   MPKI: 0
PSCL4 RFO       ACCESS:          0  HIT:          0  MISS:          0  HIT %:       -nan  MISS %:       -nan   MPKI: 0
PSCL4 PREFETCH  ACCESS:          0  HIT:          0  MISS:          0  HIT %:       -nan  MISS %:       -nan   MPKI: 0
PSCL4 WRITEBACK ACCESS:          0  HIT:          0  MISS:          0  HIT %:       -nan  MISS %:       -nan   MPKI: 0
PSCL3 TOTAL     ACCESS:     325552  HIT:     325552  MISS:          0  HIT %:        100  MISS %:          0   MPKI: 0
PSCL3 LOAD      ACCESS:          0  HIT:          0  MISS:          0  HIT %:       -nan  MISS %:       -nan   MPKI: 0
PSCL3 RFO       ACCESS:          0  HIT:          0  MISS:          0  HIT %:       -nan  MISS %:       -nan   MPKI: 0
PSCL3 PREFETCH  ACCESS:          0  HIT:          0  MISS:          0  HIT %:       -nan  MISS %:       -nan   MPKI: 0
PSCL3 WRITEBACK ACCESS:          0  HIT:          0  MISS:          0  HIT %:       -nan  MISS %:       -nan   MPKI: 0
PSCL2 TOTAL     ACCESS:     325552  HIT:     325372  MISS:        180  HIT %:    99.9447  MISS %:  0.0552907   MPKI: 0.000859711
PSCL2 LOAD      ACCESS:          0  HIT:          0  MISS:          0  HIT %:       -nan  MISS %:       -nan   MPKI: 0
PSCL2 RFO       ACCESS:          0  HIT:          0  MISS:          0  HIT %:       -nan  MISS %:       -nan   MPKI: 0
PSCL2 PREFETCH  ACCESS:          0  HIT:          0  MISS:          0  HIT %:       -nan  MISS %:       -nan   MPKI: 0
PSCL2 WRITEBACK ACCESS:          0  HIT:          0  MISS:          0  HIT %:       -nan  MISS %:       -nan   MPKI: 0

stream: 
stream:times selected: 11951627
stream:pref_filled: 6011244
stream:pref_useful: 1406149
stream:pref_late: 705511
stream:misses: 772383
stream:misses_by_poll: 0

CS: 
CS:times selected: 3159631
CS:pref_filled: 455711
CS:pref_useful: 355552
CS:pref_late: 20690
CS:misses: 1125765
CS:misses_by_poll: 942

CPLX: 
CPLX:times selected: 8722069
CPLX:pref_filled: 1433563
CPLX:pref_useful: 120235
CPLX:pref_late: 35103
CPLX:misses: 2981353
CPLX:misses_by_poll: 6643

NL_L1: 
NL:times selected: 48362
NL:pref_filled: 34223
NL:pref_useful: 1407
NL:pref_late: 342
NL:misses: 27438
NL:misses_by_poll: 1

total selections: 23881689
total_filled: 7818111
total_useful: 1767320
total_late: 767942
total_polluted: 7586
total_misses_after_warmup: 4907740
conflicts: 494
Degree Incremented Times: 538282
Degree Decremented Times: 1253606

L1 IP Table Write Accesses: 144273626
L1 IP Table Read Accesses: 144273132
L1 RST Write Accesses: 47245017
L1 RST Read Accesses: 94490034
L1 CSPT Write Accesses: 47245017
L1 CSPT Read Accesses: 91941528
L1 RR Filter Tag Write Accesses: 62512074
L1 RR Filter Tag Read Accesses: 4436161922
L1 IP Table Tag Write Accesses: 144273802
L1 IP Table Tag Read Accesses: 144273802
L1 RST Tag Write Accesses: 0
L1 RST Tag Read Accesses: 425304396
L1 RR Filter Write Accesses: 0
L1 RR Filter Read Accesses: 172313581
test: 18687237
LLC TOTAL     ACCESS:   14031535  HIT:    7481678  MISS:    6549857  HIT %:    53.3205  MISS %:    46.6795   MPKI: 31.2832
LLC LOAD      ACCESS:    1999412  HIT:    1224493  MISS:     774919  HIT %:    61.2427  MISS %:    38.7573   MPKI: 3.70115
LLC RFO       ACCESS:    1635207  HIT:        207  MISS:    1635000  HIT %:  0.0126589  MISS %:    99.9873   MPKI: 7.80904
LLC PREFETCH  ACCESS:    6245448  HIT:    2227598  MISS:    4017850  HIT %:    35.6675  MISS %:    64.3325   MPKI: 19.1899
LLC WRITEBACK ACCESS:    4000240  HIT:    3905421  MISS:      94819  HIT %:    97.6297  MISS %:    2.37033   MPKI: 0.452872

RAW hits: 19035716
Loads Generated: 84431111
Loads sent to L1D: 65395394
Stores Generated: 33257787
Stores sent to L1D: 33257787

CPU 1 cumulative IPC: 0.268888 instructions: 203626890 cycles: 757291999
ITLB TOTAL     ACCESS:   29084079  HIT:   29084076  MISS:          3  HIT %:        100  MISS %: 1.03149e-05   MPKI: 1.47328e-05
ITLB LOAD      ACCESS:          0  HIT:          0  MISS:          0  HIT %:       -nan  MISS %:       -nan   MPKI: 0
ITLB RFO       ACCESS:          0  HIT:          0  MISS:          0  HIT %:       -nan  MISS %:       -nan   MPKI: 0
ITLB PREFETCH  ACCESS:          0  HIT:          0  MISS:          0  HIT %:       -nan  MISS %:       -nan   MPKI: 0
ITLB WRITEBACK ACCESS:          0  HIT:          0  MISS:          0  HIT %:       -nan  MISS %:       -nan   MPKI: 0
DTLB TOTAL     ACCESS:   52649620  HIT:   50191176  MISS:    2458444  HIT %:    95.3306  MISS %:    4.66944   MPKI: 12.0733
DTLB LOAD      ACCESS:          0  HIT:          0  MISS:          0  HIT %:       -nan  MISS %:       -nan   MPKI: 0
DTLB RFO       ACCESS:          0  HIT:          0  MISS:          0  HIT %:       -nan  MISS %:       -nan   MPKI: 0
DTLB PREFETCH  ACCESS:          0  HIT:          0  MISS:          0  HIT %:       -nan  MISS %:       -nan   MPKI: 0
DTLB WRITEBACK ACCESS:          0  HIT:          0  MISS:          0  HIT %:       -nan  MISS %:       -nan   MPKI: 0
STLB TOTAL     ACCESS:    9156202  HIT:    8830929  MISS:     325273  HIT %:    96.4475  MISS %:    3.55249   MPKI: 1.5974
STLB LOAD      ACCESS:          0  HIT:          0  MISS:          0  HIT %:       -nan  MISS %:       -nan   MPKI: 0
STLB RFO       ACCESS:          0  HIT:          0  MISS:          0  HIT %:       -nan  MISS %:       -nan   MPKI: 0
STLB PREFETCH  ACCESS:          0  HIT:          0  MISS:          0  HIT %:       -nan  MISS %:       -nan   MPKI: 0
STLB WRITEBACK ACCESS:          0  HIT:          0  MISS:          0  HIT %:       -nan  MISS %:       -nan   MPKI: 0
L1D TOTAL     ACCESS:   65748602  HIT:   52246673  MISS:   13501929  HIT %:    79.4643  MISS %:    20.5357   MPKI: 66.3072
L1D LOAD      ACCESS:   35391754  HIT:   31184502  MISS:    4207252  HIT %:    88.1123  MISS %:    11.8877   MPKI: 20.6616
L1D RFO       ACCESS:   17505176  HIT:   15869990  MISS:    1635186  HIT %:    90.6588  MISS %:    9.34116   MPKI: 8.0303
L1D PREFETCH  ACCESS:   12851672  HIT:    5192181  MISS:    7659491  HIT %:    40.4008  MISS %:    59.5992   MPKI: 37.6153
L1D WRITEBACK ACCESS:          0  HIT:          0  MISS:          0  HIT %:       -nan  MISS %:       -nan   MPKI: 0
L1I TOTAL     ACCESS:   37082756  HIT:   37082717  MISS:         39  HIT %:    99.9999  MISS %: 0.00010517   MPKI: 0.000191527
L1I LOAD      ACCESS:   37082756  HIT:   37082717  MISS:         39  HIT %:    99.9999  MISS %: 0.00010517   MPKI: 0.000191527
L1I RFO       ACCESS:          0  HIT:          0  MISS:          0  HIT %:       -nan  MISS %:       -nan   MPKI: 0
L1I PREFETCH  ACCESS:          0  HIT:          0  MISS:          0  HIT %:       -nan  MISS %:       -nan   MPKI: 0
L1I WRITEBACK ACCESS:          0  HIT:          0  MISS:          0  HIT %:       -nan  MISS %:       -nan   MPKI: 0
L2C TOTAL     ACCESS:   19110163  HIT:    8964568  MISS:   10145595  HIT %:      46.91  MISS %:      53.09   MPKI: 49.8244
L2C LOAD      ACCESS:    3442842  HIT:    1443702  MISS:    1999140  HIT %:    41.9334  MISS %:    58.0666   MPKI: 9.81766
L2C RFO       ACCESS:    1635186  HIT:         21  MISS:    1635165  HIT %: 0.00128426  MISS %:    99.9987   MPKI: 8.0302
L2C PREFETCH  ACCESS:    8423603  HIT:    2304355  MISS:    6119248  HIT %:    27.3559  MISS %:    72.6441   MPKI: 30.0513
L2C WRITEBACK ACCESS:    5283207  HIT:    5038697  MISS:     244510  HIT %:    95.3719  MISS %:    4.62806   MPKI: 1.20077
PSCL5 TOTAL     ACCESS:     325273  HIT:     325273  MISS:          0  HIT %:        100  MISS %:          0   MPKI: 0
PSCL5 LOAD      ACCESS:          0  HIT:          0  MISS:          0  HIT %:       -nan  MISS %:       -nan   MPKI: 0
PSCL5 RFO       ACCESS:          0  HIT:          0  MISS:          0  HIT %:       -nan  MISS %:       -nan   MPKI: 0
PSCL5 PREFETCH  ACCESS:          0  HIT:          0  MISS:          0  HIT %:       -nan  MISS %:       -nan   MPKI: 0
PSCL5 WRITEBACK ACCESS:          0  HIT:          0  MISS:          0  HIT %:       -nan  MISS %:       -nan   MPKI: 0
PSCL4 TOTAL     ACCESS:     325273  HIT:     325273  MISS:          0  HIT %:        100  MISS %:          0   MPKI: 0
PSCL4 LOAD      ACCESS:          0  HIT:          0  MISS:          0  HIT %:       -nan  MISS %:       -nan   MPKI: 0
PSCL4 RFO       ACCESS:          0  HIT:          0  MISS:          0  HIT %:       -nan  MISS %:       -nan   MPKI: 0
PSCL4 PREFETCH  ACCESS:          0  HIT:          0  MISS:          0  HIT %:       -nan  MISS %:       -nan   MPKI: 0
PSCL4 WRITEBACK ACCESS:          0  HIT:          0  MISS:          0  HIT %:       -nan  MISS %:       -nan   MPKI: 0
PSCL3 TOTAL     ACCESS:     325273  HIT:     325273  MISS:          0  HIT %:        100  MISS %:          0   MPKI: 0
PSCL3 LOAD      ACCESS:          0  HIT:          0  MISS:          0  HIT %:       -nan  MISS %:       -nan   MPKI: 0
PSCL3 RFO       ACCESS:          0  HIT:          0  MISS:          0  HIT %:       -nan  MISS %:       -nan   MPKI: 0
PSCL3 PREFETCH  ACCESS:          0  HIT:          0  MISS:          0  HIT %:       -nan  MISS %:       -nan   MPKI: 0
PSCL3 WRITEBACK ACCESS:          0  HIT:          0  MISS:          0  HIT %:       -nan  MISS %:       -nan   MPKI: 0
PSCL2 TOTAL     ACCESS:     325273  HIT:     325093  MISS:        180  HIT %:    99.9447  MISS %:  0.0553381   MPKI: 0.00088397
PSCL2 LOAD      ACCESS:          0  HIT:          0  MISS:          0  HIT %:       -nan  MISS %:       -nan   MPKI: 0
PSCL2 RFO       ACCESS:          0  HIT:          0  MISS:          0  HIT %:       -nan  MISS %:       -nan   MPKI: 0
PSCL2 PREFETCH  ACCESS:          0  HIT:          0  MISS:          0  HIT %:       -nan  MISS %:       -nan   MPKI: 0
PSCL2 WRITEBACK ACCESS:          0  HIT:          0  MISS:          0  HIT %:       -nan  MISS %:       -nan   MPKI: 0

stream: 
stream:times selected: 11928811
stream:pref_filled: 5740267
stream:pref_useful: 1284587
stream:pref_late: 706392
stream:misses: 771867
stream:misses_by_poll: 0

CS: 
CS:times selected: 3138085
CS:pref_filled: 446277
CS:pref_useful: 345135
CS:pref_late: 16464
CS:misses: 1300708
CS:misses_by_poll: 914

CPLX: 
CPLX:times selected: 8720854
CPLX:pref_filled: 1438747
CPLX:pref_useful: 120455
CPLX:pref_late: 35033
CPLX:misses: 2981985
CPLX:misses_by_poll: 6670

NL_L1: 
NL:times selected: 48362
NL:pref_filled: 34201
NL:pref_useful: 1400
NL:pref_late: 358
NL:misses: 27342
NL:misses_by_poll: 5

total selections: 23836112
total_filled: 7659491
total_useful: 1751577
total_late: 764268
total_polluted: 7589
total_misses_after_warmup: 4875025
conflicts: 494
Degree Incremented Times: 538282
Degree Decremented Times: 1253606

L1 IP Table Write Accesses: 144273626
L1 IP Table Read Accesses: 144273132
L1 RST Write Accesses: 47245017
L1 RST Read Accesses: 94490034
L1 CSPT Write Accesses: 47245017
L1 CSPT Read Accesses: 91941528
L1 RR Filter Tag Write Accesses: 62512074
L1 RR Filter Tag Read Accesses: 4436161922
L1 IP Table Tag Write Accesses: 144273802
L1 IP Table Tag Read Accesses: 144273802
L1 RST Tag Write Accesses: 0
L1 RST Tag Read Accesses: 425304396
L1 RR Filter Write Accesses: 0
L1 RR Filter Read Accesses: 172313581
test: 18687237
LLC TOTAL     ACCESS:   13898399  HIT:    7379319  MISS:    6519080  HIT %:    53.0947  MISS %:    46.9053   MPKI: 32.0148
LLC LOAD      ACCESS:    1999099  HIT:    1208425  MISS:     790674  HIT %:    60.4485  MISS %:    39.5515   MPKI: 3.88295
LLC RFO       ACCESS:    1635165  HIT:        230  MISS:    1634935  HIT %:  0.0140659  MISS %:    99.9859   MPKI: 8.02907
LLC PREFETCH  ACCESS:    6119188  HIT:    2149804  MISS:    3969384  HIT %:    35.1322  MISS %:    64.8678   MPKI: 19.4934
LLC WRITEBACK ACCESS:    3997415  HIT:    3901753  MISS:      95662  HIT %:    97.6069  MISS %:     2.3931   MPKI: 0.469791

RAW hits: 19035715
Loads Generated: 83282669
Loads sent to L1D: 64246951
Stores Generated: 33257515
Stores sent to L1D: 33257515

CPU 2 cumulative IPC: 0.265577 instructions: 201119156 cycles: 757291999
ITLB TOTAL     ACCESS:   28665150  HIT:   28665147  MISS:          3  HIT %:        100  MISS %: 1.04657e-05   MPKI: 1.49165e-05
ITLB LOAD      ACCESS:          0  HIT:          0  MISS:          0  HIT %:       -nan  MISS %:       -nan   MPKI: 0
ITLB RFO       ACCESS:          0  HIT:          0  MISS:          0  HIT %:       -nan  MISS %:       -nan   MPKI: 0
ITLB PREFETCH  ACCESS:          0  HIT:          0  MISS:          0  HIT %:       -nan  MISS %:       -nan   MPKI: 0
ITLB WRITEBACK ACCESS:          0  HIT:          0  MISS:          0  HIT %:       -nan  MISS %:       -nan   MPKI: 0
DTLB TOTAL     ACCESS:   52340619  HIT:   49882605  MISS:    2458014  HIT %:    95.3038  MISS %:    4.69619   MPKI: 12.2217
DTLB LOAD      ACCESS:          0  HIT:          0  MISS:          0  HIT %:       -nan  MISS %:       -nan   MPKI: 0
DTLB RFO       ACCESS:          0  HIT:          0  MISS:          0  HIT %:       -nan  MISS %:       -nan   MPKI: 0
DTLB PREFETCH  ACCESS:          0  HIT:          0  MISS:          0  HIT %:       -nan  MISS %:       -nan   MPKI: 0
DTLB WRITEBACK ACCESS:          0  HIT:          0  MISS:          0  HIT %:       -nan  MISS %:       -nan   MPKI: 0
STLB TOTAL     ACCESS:    9148200  HIT:    8823340  MISS:     324860  HIT %:    96.4489  MISS %:    3.55108   MPKI: 1.61526
STLB LOAD      ACCESS:          0  HIT:          0  MISS:          0  HIT %:       -nan  MISS %:       -nan   MPKI: 0
STLB RFO       ACCESS:          0  HIT:          0  MISS:          0  HIT %:       -nan  MISS %:       -nan   MPKI: 0
STLB PREFETCH  ACCESS:          0  HIT:          0  MISS:          0  HIT %:       -nan  MISS %:       -nan   MPKI: 0
STLB WRITEBACK ACCESS:          0  HIT:          0  MISS:          0  HIT %:       -nan  MISS %:       -nan   MPKI: 0
L1D TOTAL     ACCESS:   65582759  HIT:   52110359  MISS:   13472400  HIT %:    79.4574  MISS %:    20.5426   MPKI: 66.9872
L1D LOAD      ACCESS:   35248542  HIT:   31043085  MISS:    4205457  HIT %:    88.0691  MISS %:    11.9309   MPKI: 20.9103
L1D RFO       ACCESS:   17482989  HIT:   15868951  MISS:    1614038  HIT %:     90.768  MISS %:    9.23205   MPKI: 8.02528
L1D PREFETCH  ACCESS:   12851228  HIT:    5198323  MISS:    7652905  HIT %:      40.45  MISS %:      59.55   MPKI: 38.0516
L1D WRITEBACK ACCESS:          0  HIT:          0  MISS:          0  HIT %:       -nan  MISS %:       -nan   MPKI: 0
L1I TOTAL     ACCESS:   36664073  HIT:   36664034  MISS:         39  HIT %:    99.9999  MISS %: 0.000106371   MPKI: 0.000193915
L1I LOAD      ACCESS:   36664073  HIT:   36664034  MISS:         39  HIT %:    99.9999  MISS %: 0.000106371   MPKI: 0.000193915
L1I RFO       ACCESS:          0  HIT:          0  MISS:          0  HIT %:       -nan  MISS %:       -nan   MPKI: 0
L1I PREFETCH  ACCESS:          0  HIT:          0  MISS:          0  HIT %:       -nan  MISS %:       -nan   MPKI: 0
L1I WRITEBACK ACCESS:          0  HIT:          0  MISS:          0  HIT %:       -nan  MISS %:       -nan   MPKI: 0
L2C TOTAL     ACCESS:   19058383  HIT:    8933672  MISS:   10124711  HIT %:    46.8753  MISS %:    53.1247   MPKI: 50.3419
L2C LOAD      ACCESS:    3442875  HIT:    1438043  MISS:    2004832  HIT %:    41.7687  MISS %:    58.2313   MPKI: 9.96838
L2C RFO       ACCESS:    1614038  HIT:         17  MISS:    1614021  HIT %: 0.00105326  MISS %:    99.9989   MPKI: 8.0252
L2C PREFETCH  ACCESS:    8415188  HIT:    2297050  MISS:    6118138  HIT %:    27.2965  MISS %:    72.7035   MPKI: 30.4205
L2C WRITEBACK ACCESS:    5261380  HIT:    5020878  MISS:     240502  HIT %:    95.4289  MISS %:    4.57108   MPKI: 1.19582
PSCL5 TOTAL     ACCESS:     324860  HIT:     324860  MISS:          0  HIT %:        100  MISS %:          0   MPKI: 0
PSCL5 LOAD      ACCESS:          0  HIT:          0  MISS:          0  HIT %:       -nan  MISS %:       -nan   MPKI: 0
PSCL5 RFO       ACCESS:          0  HIT:          0  MISS:          0  HIT %:       -nan  MISS %:       -nan   MPKI: 0
PSCL5 PREFETCH  ACCESS:          0  HIT:          0  MISS:          0  HIT %:       -nan  MISS %:       -nan   MPKI: 0
PSCL5 WRITEBACK ACCESS:          0  HIT:          0  MISS:          0  HIT %:       -nan  MISS %:       -nan   MPKI: 0
PSCL4 TOTAL     ACCESS:     324860  HIT:     324860  MISS:          0  HIT %:        100  MISS %:          0   MPKI: 0
PSCL4 LOAD      ACCESS:          0  HIT:          0  MISS:          0  HIT %:       -nan  MISS %:       -nan   MPKI: 0
PSCL4 RFO       ACCESS:          0  HIT:          0  MISS:          0  HIT %:       -nan  MISS %:       -nan   MPKI: 0
PSCL4 PREFETCH  ACCESS:          0  HIT:          0  MISS:          0  HIT %:       -nan  MISS %:       -nan   MPKI: 0
PSCL4 WRITEBACK ACCESS:          0  HIT:          0  MISS:          0  HIT %:       -nan  MISS %:       -nan   MPKI: 0
PSCL3 TOTAL     ACCESS:     324860  HIT:     324860  MISS:          0  HIT %:        100  MISS %:          0   MPKI: 0
PSCL3 LOAD      ACCESS:          0  HIT:          0  MISS:          0  HIT %:       -nan  MISS %:       -nan   MPKI: 0
PSCL3 RFO       ACCESS:          0  HIT:          0  MISS:          0  HIT %:       -nan  MISS %:       -nan   MPKI: 0
PSCL3 PREFETCH  ACCESS:          0  HIT:          0  MISS:          0  HIT %:       -nan  MISS %:       -nan   MPKI: 0
PSCL3 WRITEBACK ACCESS:          0  HIT:          0  MISS:          0  HIT %:       -nan  MISS %:       -nan   MPKI: 0
PSCL2 TOTAL     ACCESS:     324860  HIT:     324690  MISS:        170  HIT %:    99.9477  MISS %:  0.0523302   MPKI: 0.00084527
PSCL2 LOAD      ACCESS:          0  HIT:          0  MISS:          0  HIT %:       -nan  MISS %:       -nan   MPKI: 0
PSCL2 RFO       ACCESS:          0  HIT:          0  MISS:          0  HIT %:       -nan  MISS %:       -nan   MPKI: 0
PSCL2 PREFETCH  ACCESS:          0  HIT:          0  MISS:          0  HIT %:       -nan  MISS %:       -nan   MPKI: 0
PSCL2 WRITEBACK ACCESS:          0  HIT:          0  MISS:          0  HIT %:       -nan  MISS %:       -nan   MPKI: 0

stream: 
stream:times selected: 11920054
stream:pref_filled: 5737859
stream:pref_useful: 1283868
stream:pref_late: 705795
stream:misses: 772063
stream:misses_by_poll: 0

CS: 
CS:times selected: 3130374
CS:pref_filled: 442474
CS:pref_useful: 341027
CS:pref_late: 15169
CS:misses: 1289032
CS:misses_by_poll: 846

CPLX: 
CPLX:times selected: 8719778
CPLX:pref_filled: 1438372
CPLX:pref_useful: 120230
CPLX:pref_late: 35092
CPLX:misses: 2980979
CPLX:misses_by_poll: 6613

NL_L1: 
NL:times selected: 48351
NL:pref_filled: 34200
NL:pref_useful: 1429
NL:pref_late: 330
NL:misses: 27439
NL:misses_by_poll: 8

total selections: 23818557
total_filled: 7652905
total_useful: 1746554
total_late: 762420
total_polluted: 7467
total_misses_after_warmup: 4862505
conflicts: 494
Degree Incremented Times: 538282
Degree Decremented Times: 1253606

L1 IP Table Write Accesses: 144273626
L1 IP Table Read Accesses: 144273132
L1 RST Write Accesses: 47245017
L1 RST Read Accesses: 94490034
L1 CSPT Write Accesses: 47245017
L1 CSPT Read Accesses: 91941528
L1 RR Filter Tag Write Accesses: 62512074
L1 RR Filter Tag Read Accesses: 4436161922
L1 IP Table Tag Write Accesses: 144273802
L1 IP Table Tag Read Accesses: 144273802
L1 RST Tag Write Accesses: 0
L1 RST Tag Read Accesses: 425304396
L1 RR Filter Write Accesses: 0
L1 RR Filter Read Accesses: 172313581
test: 18687237
LLC TOTAL     ACCESS:   13863427  HIT:    7353295  MISS:    6510132  HIT %:     53.041  MISS %:     46.959   MPKI: 32.3695
LLC LOAD      ACCESS:    2004779  HIT:    1208491  MISS:     796288  HIT %:    60.2805  MISS %:    39.7195   MPKI: 3.95928
LLC RFO       ACCESS:    1614021  HIT:        118  MISS:    1613903  HIT %: 0.00731093  MISS %:    99.9927   MPKI: 8.02461
LLC PREFETCH  ACCESS:    6118079  HIT:    2144736  MISS:    3973343  HIT %:    35.0557  MISS %:    64.9443   MPKI: 19.7562
LLC WRITEBACK ACCESS:    3979330  HIT:    3882135  MISS:      97195  HIT %:    97.5575  MISS %:     2.4425   MPKI: 0.483271

RAW hits: 19035702
Loads Generated: 82848838
Loads sent to L1D: 63813136
Stores Generated: 33088382
Stores sent to L1D: 33088370

CPU 3 cumulative IPC: 0.264099 instructions: 200000001 cycles: 757291999
ITLB TOTAL     ACCESS:   28475323  HIT:   28475320  MISS:          3  HIT %:        100  MISS %: 1.05354e-05   MPKI: 1.5e-05
ITLB LOAD      ACCESS:          0  HIT:          0  MISS:          0  HIT %:       -nan  MISS %:       -nan   MPKI: 0
ITLB RFO       ACCESS:          0  HIT:          0  MISS:          0  HIT %:       -nan  MISS %:       -nan   MPKI: 0
ITLB PREFETCH  ACCESS:          0  HIT:          0  MISS:          0  HIT %:       -nan  MISS %:       -nan   MPKI: 0
ITLB WRITEBACK ACCESS:          0  HIT:          0  MISS:          0  HIT %:       -nan  MISS %:       -nan   MPKI: 0
DTLB TOTAL     ACCESS:   52120571  HIT:   49662888  MISS:    2457683  HIT %:    95.2846  MISS %:    4.71538   MPKI: 12.2884
DTLB LOAD      ACCESS:          0  HIT:          0  MISS:          0  HIT %:       -nan  MISS %:       -nan   MPKI: 0
DTLB RFO       ACCESS:          0  HIT:          0  MISS:          0  HIT %:       -nan  MISS %:       -nan   MPKI: 0
DTLB PREFETCH  ACCESS:          0  HIT:          0  MISS:          0  HIT %:       -nan  MISS %:       -nan   MPKI: 0
DTLB WRITEBACK ACCESS:          0  HIT:          0  MISS:          0  HIT %:       -nan  MISS %:       -nan   MPKI: 0
STLB TOTAL     ACCESS:    9147946  HIT:    8823423  MISS:     324523  HIT %:    96.4525  MISS %:     3.5475   MPKI: 1.62261
STLB LOAD      ACCESS:          0  HIT:          0  MISS:          0  HIT %:       -nan  MISS %:       -nan   MPKI: 0
STLB RFO       ACCESS:          0  HIT:          0  MISS:          0  HIT %:       -nan  MISS %:       -nan   MPKI: 0
STLB PREFETCH  ACCESS:          0  HIT:          0  MISS:          0  HIT %:       -nan  MISS %:       -nan   MPKI: 0
STLB WRITEBACK ACCESS:          0  HIT:          0  MISS:          0  HIT %:       -nan  MISS %:       -nan   MPKI: 0
L1D TOTAL     ACCESS:   65494630  HIT:   52045411  MISS:   13449219  HIT %:    79.4652  MISS %:    20.5348   MPKI: 67.2461
L1D LOAD      ACCESS:   35188852  HIT:   30983772  MISS:    4205080  HIT %:      88.05  MISS %:      11.95   MPKI: 21.0254
L1D RFO       ACCESS:   17457240  HIT:   15863175  MISS:    1594065  HIT %:    90.8687  MISS %:    9.13125   MPKI: 7.97032
L1D PREFETCH  ACCESS:   12848538  HIT:    5198464  MISS:    7650074  HIT %:    40.4596  MISS %:    59.5404   MPKI: 38.2504
L1D WRITEBACK ACCESS:          0  HIT:          0  MISS:          0  HIT %:       -nan  MISS %:       -nan   MPKI: 0
L1I TOTAL     ACCESS:   36473745  HIT:   36473706  MISS:         39  HIT %:    99.9999  MISS %: 0.000106926   MPKI: 0.000195
L1I LOAD      ACCESS:   36473745  HIT:   36473706  MISS:         39  HIT %:    99.9999  MISS %: 0.000106926   MPKI: 0.000195
L1I RFO       ACCESS:          0  HIT:          0  MISS:          0  HIT %:       -nan  MISS %:       -nan   MPKI: 0
L1I PREFETCH  ACCESS:          0  HIT:          0  MISS:          0  HIT %:       -nan  MISS %:       -nan   MPKI: 0
L1I WRITEBACK ACCESS:          0  HIT:          0  MISS:          0  HIT %:       -nan  MISS %:       -nan   MPKI: 0
L2C TOTAL     ACCESS:   19015271  HIT:    8941674  MISS:   10073597  HIT %:    47.0236  MISS %:    52.9764   MPKI: 50.368
L2C LOAD      ACCESS:    3442354  HIT:    1446356  MISS:    1995998  HIT %:    42.0165  MISS %:    57.9835   MPKI: 9.97999
L2C RFO       ACCESS:    1594065  HIT:          2  MISS:    1594063  HIT %: 0.000125465  MISS %:    99.9999   MPKI: 7.97031
L2C PREFETCH  ACCESS:    8412494  HIT:    2306665  MISS:    6105829  HIT %:    27.4195  MISS %:    72.5805   MPKI: 30.5291
L2C WRITEBACK ACCESS:    5241794  HIT:    5014011  MISS:     227783  HIT %:    95.6545  MISS %:    4.34552   MPKI: 1.13891
PSCL5 TOTAL     ACCESS:     324523  HIT:     324523  MISS:          0  HIT %:        100  MISS %:          0   MPKI: 0
PSCL5 LOAD      ACCESS:          0  HIT:          0  MISS:          0  HIT %:       -nan  MISS %:       -nan   MPKI: 0
PSCL5 RFO       ACCESS:          0  HIT:          0  MISS:          0  HIT %:       -nan  MISS %:       -nan   MPKI: 0
PSCL5 PREFETCH  ACCESS:          0  HIT:          0  MISS:          0  HIT %:       -nan  MISS %:       -nan   MPKI: 0
PSCL5 WRITEBACK ACCESS:          0  HIT:          0  MISS:          0  HIT %:       -nan  MISS %:       -nan   MPKI: 0
PSCL4 TOTAL     ACCESS:     324523  HIT:     324523  MISS:          0  HIT %:        100  MISS %:          0   MPKI: 0
PSCL4 LOAD      ACCESS:          0  HIT:          0  MISS:          0  HIT %:       -nan  MISS %:       -nan   MPKI: 0
PSCL4 RFO       ACCESS:          0  HIT:          0  MISS:          0  HIT %:       -nan  MISS %:       -nan   MPKI: 0
PSCL4 PREFETCH  ACCESS:          0  HIT:          0  MISS:          0  HIT %:       -nan  MISS %:       -nan   MPKI: 0
PSCL4 WRITEBACK ACCESS:          0  HIT:          0  MISS:          0  HIT %:       -nan  MISS %:       -nan   MPKI: 0
PSCL3 TOTAL     ACCESS:     324523  HIT:     324523  MISS:          0  HIT %:        100  MISS %:          0   MPKI: 0
PSCL3 LOAD      ACCESS:          0  HIT:          0  MISS:          0  HIT %:       -nan  MISS %:       -nan   MPKI: 0
PSCL3 RFO       ACCESS:          0  HIT:          0  MISS:          0  HIT %:       -nan  MISS %:       -nan   MPKI: 0
PSCL3 PREFETCH  ACCESS:          0  HIT:          0  MISS:          0  HIT %:       -nan  MISS %:       -nan   MPKI: 0
PSCL3 WRITEBACK ACCESS:          0  HIT:          0  MISS:          0  HIT %:       -nan  MISS %:       -nan   MPKI: 0
PSCL2 TOTAL     ACCESS:     324523  HIT:     324354  MISS:        169  HIT %:    99.9479  MISS %:  0.0520764   MPKI: 0.000845
PSCL2 LOAD      ACCESS:          0  HIT:          0  MISS:          0  HIT %:       -nan  MISS %:       -nan   MPKI: 0
PSCL2 RFO       ACCESS:          0  HIT:          0  MISS:          0  HIT %:       -nan  MISS %:       -nan   MPKI: 0
PSCL2 PREFETCH  ACCESS:          0  HIT:          0  MISS:          0  HIT %:       -nan  MISS %:       -nan   MPKI: 0
PSCL2 WRITEBACK ACCESS:          0  HIT:          0  MISS:          0  HIT %:       -nan  MISS %:       -nan   MPKI: 0

stream: 
stream:times selected: 11916522
stream:pref_filled: 5735955
stream:pref_useful: 1283255
stream:pref_late: 706197
stream:misses: 772275
stream:misses_by_poll: 0

CS: 
CS:times selected: 3124457
CS:pref_filled: 440060
CS:pref_useful: 338844
CS:pref_late: 14562
CS:misses: 1285485
CS:misses_by_poll: 896

CPLX: 
CPLX:times selected: 8722182
CPLX:pref_filled: 1439919
CPLX:pref_useful: 120926
CPLX:pref_late: 35380
CPLX:misses: 2982039
CPLX:misses_by_poll: 6727

NL_L1: 
NL:times selected: 48267
NL:pref_filled: 34140
NL:pref_useful: 1420
NL:pref_late: 345
NL:misses: 27355
NL:misses_by_poll: 2

total selections: 23811428
total_filled: 7650074
total_useful: 1744445
total_late: 762582
total_polluted: 7625
total_misses_after_warmup: 4859686
conflicts: 494
Degree Incremented Times: 538282
Degree Decremented Times: 1253606

L1 IP Table Write Accesses: 144273626
L1 IP Table Read Accesses: 144273132
L1 RST Write Accesses: 47245017
L1 RST Read Accesses: 94490034
L1 CSPT Write Accesses: 47245017
L1 CSPT Read Accesses: 91941528
L1 RR Filter Tag Write Accesses: 62512074
L1 RR Filter Tag Read Accesses: 4436161922
L1 IP Table Tag Write Accesses: 144273802
L1 IP Table Tag Read Accesses: 144273802
L1 RST Tag Write Accesses: 0
L1 RST Tag Read Accesses: 425304396
L1 RR Filter Write Accesses: 0
L1 RR Filter Read Accesses: 172313581
test: 18687237
LLC TOTAL     ACCESS:   13798018  HIT:    7308291  MISS:    6489727  HIT %:    52.9662  MISS %:    47.0338   MPKI: 32.4486
LLC LOAD      ACCESS:    1995949  HIT:    1197743  MISS:     798206  HIT %:    60.0087  MISS %:    39.9913   MPKI: 3.99103
LLC RFO       ACCESS:    1594063  HIT:          6  MISS:    1594057  HIT %: 0.000376397  MISS %:    99.9996   MPKI: 7.97028
LLC PREFETCH  ACCESS:    6105770  HIT:    2133930  MISS:    3971840  HIT %:    34.9494  MISS %:    65.0506   MPKI: 19.8592
LLC WRITEBACK ACCESS:    3952312  HIT:    3856990  MISS:      95322  HIT %:    97.5882  MISS %:     2.4118   MPKI: 0.47661

RAW hits: 19035701
Loads Generated: 82688947
Loads sent to L1D: 63653245
Stores Generated: 32928491
Stores sent to L1D: 32928489

Region of Interest Statistics

CPU 0 cumulative IPC: 0.267808 instructions: 200000000 cycles: 746804248
ITLB TOTAL     ACCESS:   28456953  HIT:   28456950  MISS:          3  HIT %:        100  MISS %: 1.05422e-05   MPKI: 1.5e-05
ITLB LOAD TRANSLATION ACCESS:   28456953  HIT:   28456950  MISS:          3  HIT %:        100  MISS %: 1.05422e-05   MPKI: 1.5e-05
ITLB PREFETCH  REQUESTED:          0  ISSUED:          0  USEFUL:          0  USELESS:          0
ITLB USEFUL LOAD PREFETCHES:          0 PREFETCH ISSUED TO LOWER LEVEL:          0  ACCURACY: -nan
ITLB TIMELY PREFETCHES:          0 LATE PREFETCHES: 0 DROPPED PREFETCHES: 0
ITLB PREFETCHES SAME FILL-ORIGIN LEVEL: 0 DIFFERENT FILL-ORIGIN LEVEL: 0
ITLB AVERAGE MISS LATENCY: 829.333 cycles
ITLB RQ	ACCESS:   38022704	FORWARD:          0	MERGED:    7999495	TO_CACHE:   30023209

DTLB TOTAL     ACCESS:   52111760  HIT:   49654129  MISS:    2457631  HIT %:    95.2839  MISS %:    4.71608   MPKI: 12.2882
DTLB LOAD TRANSLATION ACCESS:   52111760  HIT:   49654129  MISS:    2457631  HIT %:    95.2839  MISS %:    4.71608   MPKI: 12.2882
DTLB PREFETCH  REQUESTED:          0  ISSUED:          0  USEFUL:          0  USELESS:          0
DTLB USEFUL LOAD PREFETCHES:          0 PREFETCH ISSUED TO LOWER LEVEL:          0  ACCURACY: -nan
DTLB TIMELY PREFETCHES:          0 LATE PREFETCHES: 0 DROPPED PREFETCHES: 0
DTLB PREFETCHES SAME FILL-ORIGIN LEVEL: 0 DIFFERENT FILL-ORIGIN LEVEL: 0
DTLB AVERAGE MISS LATENCY: 32.7344 cycles
DTLB RQ	ACCESS:   69683495	FORWARD:          0	MERGED:   16445195	TO_CACHE:   53238300

STLB TOTAL     ACCESS:    9136199  HIT:    8811669  MISS:     324530  HIT %:    96.4479  MISS %:    3.55213   MPKI: 1.62265
STLB LOAD TRANSLATION ACCESS:    2457634  HIT:    2133116  MISS:     324518  HIT %:    86.7955  MISS %:    13.2045   MPKI: 1.62259
STLB TRANSLATION FROM L1D PREFETCHER ACCESS:    6678565  HIT:    6678553  MISS:         12  HIT %:    99.9998  MISS %: 0.000179679   MPKI: 6e-05
STLB PREFETCH  REQUESTED:          0  ISSUED:          0  USEFUL:         12  USELESS:          0
STLB USEFUL LOAD PREFETCHES:         12 PREFETCH ISSUED TO LOWER LEVEL:          0  ACCURACY: inf
STLB TIMELY PREFETCHES:         12 LATE PREFETCHES: 0 DROPPED PREFETCHES: 0
STLB PREFETCHES SAME FILL-ORIGIN LEVEL: 0 DIFFERENT FILL-ORIGIN LEVEL: 0
STLB AVERAGE MISS LATENCY: 177.994 cycles
STLB RQ	ACCESS:   17333681	FORWARD:          0	MERGED:    8170356	TO_CACHE:    9163325

STLB Hit, L1D data hit: 0
STLB Hit, L2C data hit: 0
STLB Hit, LLC data hit: 0
STLB Hit, LLC data miss: 0
STLB STLB hints to L2: 0
L1D TOTAL     ACCESS:   65717265  HIT:   52121353  MISS:   13595912  HIT %:    79.3115  MISS %:    20.6885   MPKI: 67.9796
L1D LOAD      ACCESS:   35182202  HIT:   30978191  MISS:    4204011  HIT %:    88.0507  MISS %:    11.9493   MPKI: 21.0201
L1D RFO       ACCESS:   17457315  HIT:   15863250  MISS:    1594065  HIT %:    90.8688  MISS %:    9.13122   MPKI: 7.97032
L1D PREFETCH  ACCESS:   13077748  HIT:    5279912  MISS:    7797836  HIT %:    40.3733  MISS %:    59.6267   MPKI: 38.9892
L1D PREFETCH  REQUESTED:   30756838  ISSUED:   29780503  USEFUL:    1767320  USELESS:    6050796
L1D USEFUL LOAD PREFETCHES:    1767320 PREFETCH ISSUED TO LOWER LEVEL:    8586054  ACCURACY: 20.5836
L1D TIMELY PREFETCHES:    1767320 LATE PREFETCHES: 767942 DROPPED PREFETCHES: 0
L1D PREFETCHES SAME FILL-ORIGIN LEVEL: 8586054 DIFFERENT FILL-ORIGIN LEVEL: 0
L1D AVERAGE MISS LATENCY: 399.231 cycles
L1D RQ	ACCESS:   65395394	FORWARD:          0	MERGED:   28850953	TO_CACHE:   36465182
L1D WQ	ACCESS:   33257787	FORWARD:      79553	MERGED:      39474	TO_CACHE:   33218313
L1D PQ	ACCESS:   14905542	FORWARD:          0	MERGED:      30287	TO_CACHE:   14874961

L1D UNIQUE REGIONS ACCESSED: 0
L1D REGIONS CONFLICTS: 0
L1D Cross Page Prefetch Requests: 0
L1D Same Page Prefetch Requests: 15022224
L1D ROI Sum of L1D PQ occupancy: 972462787
L1D PREFETCHES PUSHED FROM L2C: 0
L1I TOTAL     ACCESS:   36456074  HIT:   36456035  MISS:         39  HIT %:    99.9999  MISS %: 0.000106978   MPKI: 0.000195
L1I LOAD      ACCESS:   36456074  HIT:   36456035  MISS:         39  HIT %:    99.9999  MISS %: 0.000106978   MPKI: 0.000195
L1I PREFETCH  REQUESTED:          0  ISSUED:          0  USEFUL:          0  USELESS:          0
L1I USEFUL LOAD PREFETCHES:          0 PREFETCH ISSUED TO LOWER LEVEL:          0  ACCURACY: -nan
L1I TIMELY PREFETCHES:          0 LATE PREFETCHES: 0 DROPPED PREFETCHES: 0
L1I PREFETCHES SAME FILL-ORIGIN LEVEL: 0 DIFFERENT FILL-ORIGIN LEVEL: 0
L1I AVERAGE MISS LATENCY: 392.231 cycles
L1I RQ	ACCESS:   55117241	FORWARD:          0	MERGED:   17094537	TO_CACHE:   38022704

BTB TOTAL     ACCESS:   11430781  HIT:   11430641  MISS:        140  HIT %:    99.9988  MISS %: 0.00122476   MPKI: 0.0007
BTB BRANCH_DIRECT_JUMP	ACCESS:        220  HIT:        196  MISS:         24
BTB BRANCH_INDIRECT	ACCESS:          0  HIT:          0  MISS:          0
BTB BRANCH_CONDITIONAL	ACCESS:   11430520  HIT:   11430433  MISS:         87
BTB BRANCH_DIRECT_CALL	ACCESS:         20  HIT:          6  MISS:         14
BTB BRANCH_INDIRECT_CALL	ACCESS:          0  HIT:          0  MISS:          0
BTB BRANCH_RETURN	ACCESS:         21  HIT:          6  MISS:         15
BTB BRANCH_OTHER ACCESS:          0  HIT:          0  MISS:          0

L2C TOTAL     ACCESS:   19163381  HIT:    8964868  MISS:   10198513  HIT %:    46.7812  MISS %:    53.2188   MPKI: 50.9926
L2C LOAD      ACCESS:    3442365  HIT:    1443427  MISS:    1998938  HIT %:    41.9313  MISS %:    58.0687   MPKI: 9.99469
L2C DATA LOAD MPKI: 9.9945
L2C INSTRUCTION LOAD MPKI: 0.000195
L2C RFO       ACCESS:    1594065  HIT:          1  MISS:    1594064  HIT %: 6.27327e-05  MISS %:    99.9999   MPKI: 7.97032
L2C PREFETCH  ACCESS:    8559160  HIT:    2340373  MISS:    6218787  HIT %:    27.3435  MISS %:    72.6565   MPKI: 31.0939
L2C DATA PREFETCH MPKI: 31.0939
L2C INSTRUCTION PREFETCH MPKI: 0
L2C WRITEBACK ACCESS:    5243219  HIT:    5007570  MISS:     235649  HIT %:    95.5056  MISS %:    4.49436   MPKI: 1.17824
L2C LOAD TRANSLATION ACCESS:     324560  HIT:     173497  MISS:     151063  HIT %:    53.4561  MISS %:    46.5439   MPKI: 0.755315
L2C TRANSLATION FROM L1D PREFETCHER ACCESS:         12  HIT:          0  MISS:         12  HIT %:          0  MISS %:        100   MPKI: 6e-05
L2C PREFETCH  REQUESTED:          0  ISSUED:          0  USEFUL:     349847  USELESS:    5890942
L2C USEFUL LOAD PREFETCHES:     349847 PREFETCH ISSUED TO LOWER LEVEL:    6245516  ACCURACY: 5.60157
L2C TIMELY PREFETCHES:     349847 LATE PREFETCHES: 0 DROPPED PREFETCHES: 0
L2C PREFETCHES SAME FILL-ORIGIN LEVEL: 0 DIFFERENT FILL-ORIGIN LEVEL: 0
L2C AVERAGE MISS LATENCY: 607.557 cycles
L2C RQ	ACCESS:    5403920	FORWARD:          0	MERGED:          0	TO_CACHE:    5403724
L2C WQ	ACCESS:    5284689	FORWARD:        361	MERGED:          0	TO_CACHE:    5284689
L2C PQ	ACCESS:    8586054	FORWARD:          0	MERGED:          0	TO_CACHE:    8585889

L2C Instructions Evicting Data 39
L2C Translations Evicting Data 148427
L2C Data Evicting Data 9735187
L2C Instructions Evicting Instructions 0
L2C Translations Evicting Instructions 0
L2C Data Evicting Instructions 39
L2C Instructions Evicting Translations 0
L2C Translations Evicting Translations 2801
L2C Data Evicting Translations 144929
L2C Dense regions hint from L2: 0
PSCL5 TOTAL     ACCESS:     324531  HIT:     324531  MISS:          0  HIT %:        100  MISS %:          0   MPKI: 0
PSCL5 LOAD TRANSLATION ACCESS:     324519  HIT:     324519  MISS:          0  HIT %:        100  MISS %:          0   MPKI: 0
PSCL5 TRANSLATION FROM L1D PREFETCHER ACCESS:         12  HIT:         12  MISS:          0  HIT %:        100  MISS %:          0   MPKI: 0
PSCL5 PREFETCH  REQUESTED:          0  ISSUED:          0  USEFUL:          0  USELESS:          0
PSCL5 USEFUL LOAD PREFETCHES:          0 PREFETCH ISSUED TO LOWER LEVEL:          0  ACCURACY: -nan
PSCL5 TIMELY PREFETCHES:          0 LATE PREFETCHES: 0 DROPPED PREFETCHES: 0
PSCL5 PREFETCHES SAME FILL-ORIGIN LEVEL: 0 DIFFERENT FILL-ORIGIN LEVEL: 0

PSCL4 TOTAL     ACCESS:     324531  HIT:     324531  MISS:          0  HIT %:        100  MISS %:          0   MPKI: 0
PSCL4 LOAD TRANSLATION ACCESS:     324519  HIT:     324519  MISS:          0  HIT %:        100  MISS %:          0   MPKI: 0
PSCL4 TRANSLATION FROM L1D PREFETCHER ACCESS:         12  HIT:         12  MISS:          0  HIT %:        100  MISS %:          0   MPKI: 0
PSCL4 PREFETCH  REQUESTED:          0  ISSUED:          0  USEFUL:          0  USELESS:          0
PSCL4 USEFUL LOAD PREFETCHES:          0 PREFETCH ISSUED TO LOWER LEVEL:          0  ACCURACY: -nan
PSCL4 TIMELY PREFETCHES:          0 LATE PREFETCHES: 0 DROPPED PREFETCHES: 0
PSCL4 PREFETCHES SAME FILL-ORIGIN LEVEL: 0 DIFFERENT FILL-ORIGIN LEVEL: 0

PSCL3 TOTAL     ACCESS:     324531  HIT:     324531  MISS:          0  HIT %:        100  MISS %:          0   MPKI: 0
PSCL3 LOAD TRANSLATION ACCESS:     324519  HIT:     324519  MISS:          0  HIT %:        100  MISS %:          0   MPKI: 0
PSCL3 TRANSLATION FROM L1D PREFETCHER ACCESS:         12  HIT:         12  MISS:          0  HIT %:        100  MISS %:          0   MPKI: 0
PSCL3 PREFETCH  REQUESTED:          0  ISSUED:          0  USEFUL:          0  USELESS:          0
PSCL3 USEFUL LOAD PREFETCHES:          0 PREFETCH ISSUED TO LOWER LEVEL:          0  ACCURACY: -nan
PSCL3 TIMELY PREFETCHES:          0 LATE PREFETCHES: 0 DROPPED PREFETCHES: 0
PSCL3 PREFETCHES SAME FILL-ORIGIN LEVEL: 0 DIFFERENT FILL-ORIGIN LEVEL: 0

PSCL2 TOTAL     ACCESS:     324531  HIT:     324361  MISS:        170  HIT %:    99.9476  MISS %:  0.0523833   MPKI: 0.00085
PSCL2 LOAD TRANSLATION ACCESS:     324519  HIT:     324349  MISS:        170  HIT %:    99.9476  MISS %:  0.0523852   MPKI: 0.00085
PSCL2 TRANSLATION FROM L1D PREFETCHER ACCESS:         12  HIT:         12  MISS:          0  HIT %:        100  MISS %:          0   MPKI: 0
PSCL2 PREFETCH  REQUESTED:          0  ISSUED:          0  USEFUL:          0  USELESS:          0
PSCL2 USEFUL LOAD PREFETCHES:          0 PREFETCH ISSUED TO LOWER LEVEL:          0  ACCURACY: -nan
PSCL2 TIMELY PREFETCHES:          0 LATE PREFETCHES: 0 DROPPED PREFETCHES: 0
PSCL2 PREFETCHES SAME FILL-ORIGIN LEVEL: 0 DIFFERENT FILL-ORIGIN LEVEL: 0

LLC TOTAL     ACCESS:   13919835  HIT:    7440759  MISS:    6479076  HIT %:    53.4544  MISS %:    46.5456   MPKI: 32.3954
LLC LOAD      ACCESS:    1998878  HIT:    1224491  MISS:     774387  HIT %:    61.2589  MISS %:    38.7411   MPKI: 3.87194
LLC RFO       ACCESS:    1594064  HIT:          6  MISS:    1594058  HIT %: 0.000376396  MISS %:    99.9996   MPKI: 7.97029
LLC PREFETCH  ACCESS:    6218720  HIT:    2227597  MISS:    3991123  HIT %:    35.8208  MISS %:    64.1792   MPKI: 19.9556
LLC WRITEBACK ACCESS:    3957098  HIT:    3864776  MISS:      92322  HIT %:    97.6669  MISS %:    2.33307   MPKI: 0.46161
LLC LOAD TRANSLATION ACCESS:     151063  HIT:     123880  MISS:      27183  HIT %:    82.0055  MISS %:    17.9945   MPKI: 0.135915
LLC TRANSLATION FROM L1D PREFETCHER ACCESS:         12  HIT:          9  MISS:          3  HIT %:         75  MISS %:         25   MPKI: 1.5e-05
LLC PREFETCH  REQUESTED:          0  ISSUED:          0  USEFUL:     725384  USELESS:   15172445
LLC USEFUL LOAD PREFETCHES:     725384 PREFETCH ISSUED TO LOWER LEVEL:   17856436  ACCURACY: 4.06231
LLC TIMELY PREFETCHES:     725384 LATE PREFETCHES: 0 DROPPED PREFETCHES: 0
LLC PREFETCHES SAME FILL-ORIGIN LEVEL: 0 DIFFERENT FILL-ORIGIN LEVEL: 0
LLC AVERAGE MISS LATENCY: 3624.82 cycles
LLC RQ	ACCESS:   15073812	FORWARD:          0	MERGED:          0	TO_CACHE:   15073609
LLC WQ	ACCESS:   15929297	FORWARD:        448	MERGED:          0	TO_CACHE:   15929297
LLC PQ	ACCESS:   24588738	FORWARD:          0	MERGED:          0	TO_CACHE:   24588493

LLC Dense regions hint to LLC: 0

RAW hits: 19035701
Loads Generated: 82688967
Loads sent to L1D: 63653263
Stores Generated: 32928511
Stores sent to L1D: 32928493
Major fault: 0 Minor fault: 67359
Allocated PAGES: 269436

CPU 1 cumulative IPC: 0.265494 instructions: 200000002 cycles: 753311743
ITLB TOTAL     ACCESS:   28477600  HIT:   28477597  MISS:          3  HIT %:        100  MISS %: 1.05346e-05   MPKI: 1.5e-05
ITLB LOAD TRANSLATION ACCESS:   28477600  HIT:   28477597  MISS:          3  HIT %:        100  MISS %: 1.05346e-05   MPKI: 1.5e-05
ITLB PREFETCH  REQUESTED:          0  ISSUED:          0  USEFUL:          0  USELESS:          0
ITLB USEFUL LOAD PREFETCHES:          0 PREFETCH ISSUED TO LOWER LEVEL:          0  ACCURACY: -nan
ITLB TIMELY PREFETCHES:          0 LATE PREFETCHES: 0 DROPPED PREFETCHES: 0
ITLB PREFETCHES SAME FILL-ORIGIN LEVEL: 0 DIFFERENT FILL-ORIGIN LEVEL: 0
ITLB AVERAGE MISS LATENCY: 1489 cycles
ITLB RQ	ACCESS:   37082765	FORWARD:          0	MERGED:    7998685	TO_CACHE:   29084080

DTLB TOTAL     ACCESS:   52118436  HIT:   49660797  MISS:    2457639  HIT %:    95.2845  MISS %:    4.71549   MPKI: 12.2882
DTLB LOAD TRANSLATION ACCESS:   52118436  HIT:   49660797  MISS:    2457639  HIT %:    95.2845  MISS %:    4.71549   MPKI: 12.2882
DTLB PREFETCH  REQUESTED:          0  ISSUED:          0  USEFUL:          0  USELESS:          0
DTLB USEFUL LOAD PREFETCHES:          0 PREFETCH ISSUED TO LOWER LEVEL:          0  ACCURACY: -nan
DTLB TIMELY PREFETCHES:          0 LATE PREFETCHES: 0 DROPPED PREFETCHES: 0
DTLB PREFETCHES SAME FILL-ORIGIN LEVEL: 0 DIFFERENT FILL-ORIGIN LEVEL: 0
DTLB AVERAGE MISS LATENCY: 33.147 cycles
DTLB RQ	ACCESS:   69278036	FORWARD:          0	MERGED:   16440063	TO_CACHE:   52837973

STLB TOTAL     ACCESS:    9146512  HIT:    8821979  MISS:     324533  HIT %:    96.4518  MISS %:    3.54816   MPKI: 1.62266
STLB LOAD TRANSLATION ACCESS:    2457642  HIT:    2133121  MISS:     324521  HIT %:    86.7954  MISS %:    13.2046   MPKI: 1.6226
STLB TRANSLATION FROM L1D PREFETCHER ACCESS:    6688870  HIT:    6688858  MISS:         12  HIT %:    99.9998  MISS %: 0.000179402   MPKI: 6e-05
STLB PREFETCH  REQUESTED:          0  ISSUED:          0  USEFUL:         12  USELESS:          0
STLB USEFUL LOAD PREFETCHES:         12 PREFETCH ISSUED TO LOWER LEVEL:          0  ACCURACY: inf
STLB TIMELY PREFETCHES:         12 LATE PREFETCHES: 0 DROPPED PREFETCHES: 0
STLB PREFETCHES SAME FILL-ORIGIN LEVEL: 0 DIFFERENT FILL-ORIGIN LEVEL: 0
STLB AVERAGE MISS LATENCY: 181.127 cycles
STLB RQ	ACCESS:   17062619	FORWARD:          0	MERGED:    7906414	TO_CACHE:    9156205

STLB Hit, L1D data hit: 0
STLB Hit, L2C data hit: 0
STLB Hit, LLC data hit: 0
STLB Hit, LLC data miss: 0
STLB STLB hints to L2: 0
L1D TOTAL     ACCESS:   65493248  HIT:   52041765  MISS:   13451483  HIT %:    79.4613  MISS %:    20.5387   MPKI: 67.2574
L1D LOAD      ACCESS:   35185904  HIT:   30980918  MISS:    4204986  HIT %:    88.0492  MISS %:    11.9508   MPKI: 21.0249
L1D RFO       ACCESS:   17463852  HIT:   15869787  MISS:    1594065  HIT %:    90.8722  MISS %:     9.1278   MPKI: 7.97032
L1D PREFETCH  ACCESS:   12843492  HIT:    5191060  MISS:    7652432  HIT %:    40.4178  MISS %:    59.5822   MPKI: 38.2622
L1D PREFETCH  REQUESTED:   30148472  ISSUED:   29238111  USEFUL:    1751577  USELESS:    5907913
L1D USEFUL LOAD PREFETCHES:    1751577 PREFETCH ISSUED TO LOWER LEVEL:    8423761  ACCURACY: 20.7933
L1D TIMELY PREFETCHES:    1751577 LATE PREFETCHES: 764268 DROPPED PREFETCHES: 0
L1D PREFETCHES SAME FILL-ORIGIN LEVEL: 8423761 DIFFERENT FILL-ORIGIN LEVEL: 0
L1D AVERAGE MISS LATENCY: 401.523 cycles
L1D RQ	ACCESS:   64246951	FORWARD:          0	MERGED:   28108150	TO_CACHE:   36059528
L1D WQ	ACCESS:   33257515	FORWARD:      79578	MERGED:      39007	TO_CACHE:   33218508
L1D PQ	ACCESS:   14633939	FORWARD:          0	MERGED:      29462	TO_CACHE:   14604172

L1D UNIQUE REGIONS ACCESSED: 0
L1D REGIONS CONFLICTS: 0
L1D Cross Page Prefetch Requests: 0
L1D Same Page Prefetch Requests: 14633940
L1D ROI Sum of L1D PQ occupancy: 946813722
L1D PREFETCHES PUSHED FROM L2C: 0
L1I TOTAL     ACCESS:   36476191  HIT:   36476152  MISS:         39  HIT %:    99.9999  MISS %: 0.000106919   MPKI: 0.000195
L1I LOAD      ACCESS:   36476191  HIT:   36476152  MISS:         39  HIT %:    99.9999  MISS %: 0.000106919   MPKI: 0.000195
L1I PREFETCH  REQUESTED:          0  ISSUED:          0  USEFUL:          0  USELESS:          0
L1I USEFUL LOAD PREFETCHES:          0 PREFETCH ISSUED TO LOWER LEVEL:          0  ACCURACY: -nan
L1I TIMELY PREFETCHES:          0 LATE PREFETCHES: 0 DROPPED PREFETCHES: 0
L1I PREFETCHES SAME FILL-ORIGIN LEVEL: 0 DIFFERENT FILL-ORIGIN LEVEL: 0
L1I AVERAGE MISS LATENCY: 666.359 cycles
L1I RQ	ACCESS:   53218933	FORWARD:          0	MERGED:   16136168	TO_CACHE:   37082765

BTB TOTAL     ACCESS:   11430781  HIT:   11430641  MISS:        140  HIT %:    99.9988  MISS %: 0.00122476   MPKI: 0.0007
BTB BRANCH_DIRECT_JUMP	ACCESS:        220  HIT:        196  MISS:         24
BTB BRANCH_INDIRECT	ACCESS:          0  HIT:          0  MISS:          0
BTB BRANCH_CONDITIONAL	ACCESS:   11430520  HIT:   11430433  MISS:         87
BTB BRANCH_DIRECT_CALL	ACCESS:         20  HIT:          6  MISS:         14
BTB BRANCH_INDIRECT_CALL	ACCESS:          0  HIT:          0  MISS:          0
BTB BRANCH_RETURN	ACCESS:         21  HIT:          6  MISS:         15
BTB BRANCH_OTHER ACCESS:          0  HIT:          0  MISS:          0

L2C TOTAL     ACCESS:   19017533  HIT:    8939250  MISS:   10078283  HIT %:    47.0053  MISS %:    52.9947   MPKI: 50.3914
L2C LOAD      ACCESS:    3442639  HIT:    1443702  MISS:    1998937  HIT %:    41.9359  MISS %:    58.0641   MPKI: 9.99468
L2C DATA LOAD MPKI: 9.99449
L2C INSTRUCTION LOAD MPKI: 0.000195
L2C RFO       ACCESS:    1594065  HIT:          4  MISS:    1594061  HIT %: 0.000250931  MISS %:    99.9997   MPKI: 7.9703
L2C PREFETCH  ACCESS:    8414481  HIT:    2304355  MISS:    6110126  HIT %:    27.3856  MISS %:    72.6144   MPKI: 30.5506
L2C DATA PREFETCH MPKI: 30.5506
L2C INSTRUCTION PREFETCH MPKI: 0
L2C WRITEBACK ACCESS:    5241773  HIT:    5014032  MISS:     227741  HIT %:    95.6553  MISS %:    4.34473   MPKI: 1.1387
L2C LOAD TRANSLATION ACCESS:     324563  HIT:     177156  MISS:     147407  HIT %:    54.5829  MISS %:    45.4171   MPKI: 0.737035
L2C TRANSLATION FROM L1D PREFETCHER ACCESS:         12  HIT:          1  MISS:         11  HIT %:    8.33333  MISS %:    91.6667   MPKI: 5.5e-05
L2C PREFETCH  REQUESTED:          0  ISSUED:          0  USEFUL:     351744  USELESS:    5765437
L2C USEFUL LOAD PREFETCHES:     351744 PREFETCH ISSUED TO LOWER LEVEL:    6119250  ACCURACY: 5.74816
L2C TIMELY PREFETCHES:     351744 LATE PREFETCHES: 0 DROPPED PREFETCHES: 0
L2C PREFETCHES SAME FILL-ORIGIN LEVEL: 0 DIFFERENT FILL-ORIGIN LEVEL: 0
L2C AVERAGE MISS LATENCY: 611.872 cycles
L2C RQ	ACCESS:    5403534	FORWARD:          0	MERGED:          0	TO_CACHE:    5403353
L2C WQ	ACCESS:    5283207	FORWARD:        337	MERGED:          0	TO_CACHE:    5283207
L2C PQ	ACCESS:    8423761	FORWARD:          0	MERGED:          0	TO_CACHE:    8423605

L2C Instructions Evicting Data 38
L2C Translations Evicting Data 143141
L2C Data Evicting Data 9613505
L2C Instructions Evicting Instructions 0
L2C Translations Evicting Instructions 3
L2C Data Evicting Instructions 35
L2C Instructions Evicting Translations 1
L2C Translations Evicting Translations 4388
L2C Data Evicting Translations 139974
L2C Dense regions hint from L2: 0
PSCL5 TOTAL     ACCESS:     324533  HIT:     324533  MISS:          0  HIT %:        100  MISS %:          0   MPKI: 0
PSCL5 LOAD TRANSLATION ACCESS:     324521  HIT:     324521  MISS:          0  HIT %:        100  MISS %:          0   MPKI: 0
PSCL5 TRANSLATION FROM L1D PREFETCHER ACCESS:         12  HIT:         12  MISS:          0  HIT %:        100  MISS %:          0   MPKI: 0
PSCL5 PREFETCH  REQUESTED:          0  ISSUED:          0  USEFUL:          0  USELESS:          0
PSCL5 USEFUL LOAD PREFETCHES:          0 PREFETCH ISSUED TO LOWER LEVEL:          0  ACCURACY: -nan
PSCL5 TIMELY PREFETCHES:          0 LATE PREFETCHES: 0 DROPPED PREFETCHES: 0
PSCL5 PREFETCHES SAME FILL-ORIGIN LEVEL: 0 DIFFERENT FILL-ORIGIN LEVEL: 0

PSCL4 TOTAL     ACCESS:     324533  HIT:     324533  MISS:          0  HIT %:        100  MISS %:          0   MPKI: 0
PSCL4 LOAD TRANSLATION ACCESS:     324521  HIT:     324521  MISS:          0  HIT %:        100  MISS %:          0   MPKI: 0
PSCL4 TRANSLATION FROM L1D PREFETCHER ACCESS:         12  HIT:         12  MISS:          0  HIT %:        100  MISS %:          0   MPKI: 0
PSCL4 PREFETCH  REQUESTED:          0  ISSUED:          0  USEFUL:          0  USELESS:          0
PSCL4 USEFUL LOAD PREFETCHES:          0 PREFETCH ISSUED TO LOWER LEVEL:          0  ACCURACY: -nan
PSCL4 TIMELY PREFETCHES:          0 LATE PREFETCHES: 0 DROPPED PREFETCHES: 0
PSCL4 PREFETCHES SAME FILL-ORIGIN LEVEL: 0 DIFFERENT FILL-ORIGIN LEVEL: 0

PSCL3 TOTAL     ACCESS:     324533  HIT:     324533  MISS:          0  HIT %:        100  MISS %:          0   MPKI: 0
PSCL3 LOAD TRANSLATION ACCESS:     324521  HIT:     324521  MISS:          0  HIT %:        100  MISS %:          0   MPKI: 0
PSCL3 TRANSLATION FROM L1D PREFETCHER ACCESS:         12  HIT:         12  MISS:          0  HIT %:        100  MISS %:          0   MPKI: 0
PSCL3 PREFETCH  REQUESTED:          0  ISSUED:          0  USEFUL:          0  USELESS:          0
PSCL3 USEFUL LOAD PREFETCHES:          0 PREFETCH ISSUED TO LOWER LEVEL:          0  ACCURACY: -nan
PSCL3 TIMELY PREFETCHES:          0 LATE PREFETCHES: 0 DROPPED PREFETCHES: 0
PSCL3 PREFETCHES SAME FILL-ORIGIN LEVEL: 0 DIFFERENT FILL-ORIGIN LEVEL: 0

PSCL2 TOTAL     ACCESS:     324533  HIT:     324363  MISS:        170  HIT %:    99.9476  MISS %:   0.052383   MPKI: 0.00085
PSCL2 LOAD TRANSLATION ACCESS:     324521  HIT:     324351  MISS:        170  HIT %:    99.9476  MISS %:  0.0523849   MPKI: 0.00085
PSCL2 TRANSLATION FROM L1D PREFETCHER ACCESS:         12  HIT:         12  MISS:          0  HIT %:        100  MISS %:          0   MPKI: 0
PSCL2 PREFETCH  REQUESTED:          0  ISSUED:          0  USEFUL:          0  USELESS:          0
PSCL2 USEFUL LOAD PREFETCHES:          0 PREFETCH ISSUED TO LOWER LEVEL:          0  ACCURACY: -nan
PSCL2 TIMELY PREFETCHES:          0 LATE PREFETCHES: 0 DROPPED PREFETCHES: 0
PSCL2 PREFETCHES SAME FILL-ORIGIN LEVEL: 0 DIFFERENT FILL-ORIGIN LEVEL: 0

LLC TOTAL     ACCESS:   13808476  HIT:    7339835  MISS:    6468641  HIT %:    53.1546  MISS %:    46.8454   MPKI: 32.3432
LLC LOAD      ACCESS:    1998896  HIT:    1208424  MISS:     790472  HIT %:    60.4546  MISS %:    39.5454   MPKI: 3.95236
LLC RFO       ACCESS:    1594061  HIT:          2  MISS:    1594059  HIT %: 0.000125466  MISS %:    99.9999   MPKI: 7.97029
LLC PREFETCH  ACCESS:    6110067  HIT:    2149793  MISS:    3960274  HIT %:    35.1844  MISS %:    64.8156   MPKI: 19.8014
LLC WRITEBACK ACCESS:    3958034  HIT:    3862572  MISS:      95462  HIT %:    97.5881  MISS %:    2.41185   MPKI: 0.47731
LLC LOAD TRANSLATION ACCESS:     147407  HIT:     119037  MISS:      28370  HIT %:     80.754  MISS %:     19.246   MPKI: 0.14185
LLC TRANSLATION FROM L1D PREFETCHER ACCESS:         11  HIT:          7  MISS:          4  HIT %:    63.6364  MISS %:    36.3636   MPKI: 2e-05
LLC PREFETCH  REQUESTED:          0  ISSUED:          0  USEFUL:     725384  USELESS:   15172445
LLC USEFUL LOAD PREFETCHES:     725384 PREFETCH ISSUED TO LOWER LEVEL:   17856436  ACCURACY: 4.06231
LLC TIMELY PREFETCHES:     725384 LATE PREFETCHES: 0 DROPPED PREFETCHES: 0
LLC PREFETCHES SAME FILL-ORIGIN LEVEL: 0 DIFFERENT FILL-ORIGIN LEVEL: 0
LLC AVERAGE MISS LATENCY: 3630.67 cycles
LLC RQ	ACCESS:   15073812	FORWARD:          0	MERGED:          0	TO_CACHE:   15073609
LLC WQ	ACCESS:   15929297	FORWARD:        448	MERGED:          0	TO_CACHE:   15929297
LLC PQ	ACCESS:   24588738	FORWARD:          0	MERGED:          0	TO_CACHE:   24588493

LLC Dense regions hint to LLC: 0

RAW hits: 19035700
Loads Generated: 82688964
Loads sent to L1D: 63653264
Stores Generated: 32928508
Stores sent to L1D: 32928491
Major fault: 0 Minor fault: 67359
Allocated PAGES: 269436

CPU 2 cumulative IPC: 0.264501 instructions: 200000001 cycles: 756140431
ITLB TOTAL     ACCESS:   28477911  HIT:   28477908  MISS:          3  HIT %:        100  MISS %: 1.05345e-05   MPKI: 1.5e-05
ITLB LOAD TRANSLATION ACCESS:   28477911  HIT:   28477908  MISS:          3  HIT %:        100  MISS %: 1.05345e-05   MPKI: 1.5e-05
ITLB PREFETCH  REQUESTED:          0  ISSUED:          0  USEFUL:          0  USELESS:          0
ITLB USEFUL LOAD PREFETCHES:          0 PREFETCH ISSUED TO LOWER LEVEL:          0  ACCURACY: -nan
ITLB TIMELY PREFETCHES:          0 LATE PREFETCHES: 0 DROPPED PREFETCHES: 0
ITLB PREFETCHES SAME FILL-ORIGIN LEVEL: 0 DIFFERENT FILL-ORIGIN LEVEL: 0
ITLB AVERAGE MISS LATENCY: 1090 cycles
ITLB RQ	ACCESS:   36664081	FORWARD:          0	MERGED:    7998930	TO_CACHE:   28665151

DTLB TOTAL     ACCESS:   52126496  HIT:   49668834  MISS:    2457662  HIT %:    95.2852  MISS %:     4.7148   MPKI: 12.2883
DTLB LOAD TRANSLATION ACCESS:   52126496  HIT:   49668834  MISS:    2457662  HIT %:    95.2852  MISS %:     4.7148   MPKI: 12.2883
DTLB PREFETCH  REQUESTED:          0  ISSUED:          0  USEFUL:          0  USELESS:          0
DTLB USEFUL LOAD PREFETCHES:          0 PREFETCH ISSUED TO LOWER LEVEL:          0  ACCURACY: -nan
DTLB TIMELY PREFETCHES:          0 LATE PREFETCHES: 0 DROPPED PREFETCHES: 0
DTLB PREFETCHES SAME FILL-ORIGIN LEVEL: 0 DIFFERENT FILL-ORIGIN LEVEL: 0
DTLB AVERAGE MISS LATENCY: 33.3074 cycles
DTLB RQ	ACCESS:   68955366	FORWARD:          0	MERGED:   16429177	TO_CACHE:   52526189

STLB TOTAL     ACCESS:    9145462  HIT:    8820925  MISS:     324537  HIT %:    96.4514  MISS %:    3.54861   MPKI: 1.62268
STLB LOAD TRANSLATION ACCESS:    2457665  HIT:    2133140  MISS:     324525  HIT %:    86.7954  MISS %:    13.2046   MPKI: 1.62262
STLB TRANSLATION FROM L1D PREFETCHER ACCESS:    6687797  HIT:    6687785  MISS:         12  HIT %:    99.9998  MISS %: 0.000179431   MPKI: 6e-05
STLB PREFETCH  REQUESTED:          0  ISSUED:          0  USEFUL:         12  USELESS:          0
STLB USEFUL LOAD PREFETCHES:         12 PREFETCH ISSUED TO LOWER LEVEL:          0  ACCURACY: inf
STLB TIMELY PREFETCHES:         12 LATE PREFETCHES: 0 DROPPED PREFETCHES: 0
STLB PREFETCHES SAME FILL-ORIGIN LEVEL: 0 DIFFERENT FILL-ORIGIN LEVEL: 0
STLB AVERAGE MISS LATENCY: 182.335 cycles
STLB RQ	ACCESS:   17056578	FORWARD:          0	MERGED:    7908374	TO_CACHE:    9148204

STLB Hit, L1D data hit: 0
STLB Hit, L2C data hit: 0
STLB Hit, LLC data hit: 0
STLB Hit, LLC data miss: 0
STLB STLB hints to L2: 0
L1D TOTAL     ACCESS:   65501656  HIT:   52051729  MISS:   13449927  HIT %:    79.4663  MISS %:    20.5337   MPKI: 67.2496
L1D LOAD      ACCESS:   35189727  HIT:   30984766  MISS:    4204961  HIT %:    88.0506  MISS %:    11.9494   MPKI: 21.0248
L1D RFO       ACCESS:   17462982  HIT:   15868917  MISS:    1594065  HIT %:    90.8717  MISS %:    9.12825   MPKI: 7.97032
L1D PREFETCH  ACCESS:   12848947  HIT:    5198046  MISS:    7650901  HIT %:     40.455  MISS %:     59.545   MPKI: 38.2545
L1D PREFETCH  REQUESTED:   30141055  ISSUED:   29226640  USEFUL:    1746554  USELESS:    5906349
L1D USEFUL LOAD PREFETCHES:    1746554 PREFETCH ISSUED TO LOWER LEVEL:    8415327  ACCURACY: 20.7544
L1D TIMELY PREFETCHES:    1746554 LATE PREFETCHES: 762421 DROPPED PREFETCHES: 0
L1D PREFETCHES SAME FILL-ORIGIN LEVEL: 8415327 DIFFERENT FILL-ORIGIN LEVEL: 0
L1D AVERAGE MISS LATENCY: 401.626 cycles
L1D RQ	ACCESS:   63813136	FORWARD:          0	MERGED:   27828209	TO_CACHE:   35905590
L1D WQ	ACCESS:   33088370	FORWARD:      79641	MERGED:      38594	TO_CACHE:   33049776
L1D PQ	ACCESS:   14628079	FORWARD:          0	MERGED:      29214	TO_CACHE:   14598561

L1D UNIQUE REGIONS ACCESSED: 0
L1D REGIONS CONFLICTS: 0
L1D Cross Page Prefetch Requests: 0
L1D Same Page Prefetch Requests: 14628079
L1D ROI Sum of L1D PQ occupancy: 946968334
L1D PREFETCHES PUSHED FROM L2C: 0
L1I TOTAL     ACCESS:   36476833  HIT:   36476794  MISS:         39  HIT %:    99.9999  MISS %: 0.000106917   MPKI: 0.000195
L1I LOAD      ACCESS:   36476833  HIT:   36476794  MISS:         39  HIT %:    99.9999  MISS %: 0.000106917   MPKI: 0.000195
L1I PREFETCH  REQUESTED:          0  ISSUED:          0  USEFUL:          0  USELESS:          0
L1I USEFUL LOAD PREFETCHES:          0 PREFETCH ISSUED TO LOWER LEVEL:          0  ACCURACY: -nan
L1I TIMELY PREFETCHES:          0 LATE PREFETCHES: 0 DROPPED PREFETCHES: 0
L1I PREFETCHES SAME FILL-ORIGIN LEVEL: 0 DIFFERENT FILL-ORIGIN LEVEL: 0
L1I AVERAGE MISS LATENCY: 695.769 cycles
L1I RQ	ACCESS:   52439306	FORWARD:          0	MERGED:   15775225	TO_CACHE:   36664081

BTB TOTAL     ACCESS:   11430782  HIT:   11430642  MISS:        140  HIT %:    99.9988  MISS %: 0.00122476   MPKI: 0.0007
BTB BRANCH_DIRECT_JUMP	ACCESS:        220  HIT:        196  MISS:         24
BTB BRANCH_INDIRECT	ACCESS:          0  HIT:          0  MISS:          0
BTB BRANCH_CONDITIONAL	ACCESS:   11430521  HIT:   11430434  MISS:         87
BTB BRANCH_DIRECT_CALL	ACCESS:         20  HIT:          6  MISS:         14
BTB BRANCH_INDIRECT_CALL	ACCESS:          0  HIT:          0  MISS:          0
[...]
Major fault: 0 Minor fault: 67359
Allocated PAGES: 269436

CPU 3 cumulative IPC: 0.264099 instructions: 200000001 cycles: 757291999
ITLB TOTAL     ACCESS:   28475323  HIT:   28475320  MISS:          3  HIT %:        100  MISS %: 1.05354e-05   MPKI: 1.5e-05
ITLB LOAD TRANSLATION ACCESS:   28475323  HIT:   28475320  MISS:          3  HIT %:        100  MISS %: 1.05354e-05   MPKI: 1.5e-05
ITLB PREFETCH  REQUESTED:          0  ISSUED:          0  USEFUL:          0  USELESS:          0
ITLB USEFUL LOAD PREFETCHES:          0 PREFETCH ISSUED TO LOWER LEVEL:          0  ACCURACY: -nan
ITLB TIMELY PREFETCHES:          0 LATE PREFETCHES: 0 DROPPED PREFETCHES: 0
ITLB PREFETCHES SAME FILL-ORIGIN LEVEL: 0 DIFFERENT FILL-ORIGIN LEVEL: 0
ITLB AVERAGE MISS LATENCY: 1219.67 cycles
ITLB RQ	ACCESS:   36473753	FORWARD:          0	MERGED:    7998429	TO_CACHE:   28475324

DTLB TOTAL     ACCESS:   52120571  HIT:   49662888  MISS:    2457683  HIT %:    95.2846  MISS %:    4.71538   MPKI: 12.2884
DTLB LOAD TRANSLATION ACCESS:   52120571  HIT:   49662888  MISS:    2457683  HIT %:    95.2846  MISS %:    4.71538   MPKI: 12.2884
DTLB PREFETCH  REQUESTED:          0  ISSUED:          0  USEFUL:          0  USELESS:          0
DTLB USEFUL LOAD PREFETCHES:          0 PREFETCH ISSUED TO LOWER LEVEL:          0  ACCURACY: -nan
DTLB TIMELY PREFETCHES:          0 LATE PREFETCHES: 0 DROPPED PREFETCHES: 0
DTLB PREFETCHES SAME FILL-ORIGIN LEVEL: 0 DIFFERENT FILL-ORIGIN LEVEL: 0
DTLB AVERAGE MISS LATENCY: 33.7996 cycles
DTLB RQ	ACCESS:   68733132	FORWARD:          0	MERGED:   16429002	TO_CACHE:   52304130

STLB TOTAL     ACCESS:    9147946  HIT:    8823423  MISS:     324523  HIT %:    96.4525  MISS %:     3.5475   MPKI: 1.62261
STLB LOAD TRANSLATION ACCESS:    2457686  HIT:    2133175  MISS:     324511  HIT %:    86.7961  MISS %:    13.2039   MPKI: 1.62255
STLB TRANSLATION FROM L1D PREFETCHER ACCESS:    6690260  HIT:    6690248  MISS:         12  HIT %:    99.9998  MISS %: 0.000179365   MPKI: 6e-05
STLB PREFETCH  REQUESTED:          0  ISSUED:          0  USEFUL:         12  USELESS:          0
STLB USEFUL LOAD PREFETCHES:         12 PREFETCH ISSUED TO LOWER LEVEL:          0  ACCURACY: inf
STLB TIMELY PREFETCHES:         12 LATE PREFETCHES: 0 DROPPED PREFETCHES: 0
STLB PREFETCHES SAME FILL-ORIGIN LEVEL: 0 DIFFERENT FILL-ORIGIN LEVEL: 0
STLB AVERAGE MISS LATENCY: 186.097 cycles
STLB RQ	ACCESS:   17059284	FORWARD:          0	MERGED:    7911334	TO_CACHE:    9147950

STLB Hit, L1D data hit: 0
STLB Hit, L2C data hit: 0
STLB Hit, LLC data hit: 0
STLB Hit, LLC data miss: 0
STLB STLB hints to L2: 0
L1D TOTAL     ACCESS:   65494630  HIT:   52045411  MISS:   13449219  HIT %:    79.4652  MISS %:    20.5348   MPKI: 67.2461
L1D LOAD      ACCESS:   35188852  HIT:   30983772  MISS:    4205080  HIT %:      88.05  MISS %:      11.95   MPKI: 21.0254
L1D RFO       ACCESS:   17457240  HIT:   15863175  MISS:    1594065  HIT %:    90.8687  MISS %:    9.13125   MPKI: 7.97032
L1D PREFETCH  ACCESS:   12848538  HIT:    5198464  MISS:    7650074  HIT %:    40.4596  MISS %:    59.5404   MPKI: 38.2504
L1D PREFETCH  REQUESTED:   30145001  ISSUED:   29232893  USEFUL:    1744445  USELESS:    5905229
L1D USEFUL LOAD PREFETCHES:    1744445 PREFETCH ISSUED TO LOWER LEVEL:    8412659  ACCURACY: 20.736
L1D TIMELY PREFETCHES:    1744445 LATE PREFETCHES: 762582 DROPPED PREFETCHES: 0
L1D PREFETCHES SAME FILL-ORIGIN LEVEL: 8412659 DIFFERENT FILL-ORIGIN LEVEL: 0
L1D AVERAGE MISS LATENCY: 401.126 cycles
L1D RQ	ACCESS:   63653245	FORWARD:          0	MERGED:   27730450	TO_CACHE:   35843457
L1D WQ	ACCESS:   32928489	FORWARD:      79641	MERGED:      38814	TO_CACHE:   32889675
L1D PQ	ACCESS:   14631295	FORWARD:          0	MERGED:      29394	TO_CACHE:   14601598

L1D UNIQUE REGIONS ACCESSED: 0
L1D REGIONS CONFLICTS: 0
L1D Cross Page Prefetch Requests: 0
L1D Same Page Prefetch Requests: 14631295
L1D ROI Sum of L1D PQ occupancy: 949937494
L1D PREFETCHES PUSHED FROM L2C: 0
L1I TOTAL     ACCESS:   36473745  HIT:   36473706  MISS:         39  HIT %:    99.9999  MISS %: 0.000106926   MPKI: 0.000195
L1I LOAD      ACCESS:   36473745  HIT:   36473706  MISS:         39  HIT %:    99.9999  MISS %: 0.000106926   MPKI: 0.000195
L1I PREFETCH  REQUESTED:          0  ISSUED:          0  USEFUL:          0  USELESS:          0
L1I USEFUL LOAD PREFETCHES:          0 PREFETCH ISSUED TO LOWER LEVEL:          0  ACCURACY: -nan
L1I TIMELY PREFETCHES:          0 LATE PREFETCHES: 0 DROPPED PREFETCHES: 0
L1I PREFETCHES SAME FILL-ORIGIN LEVEL: 0 DIFFERENT FILL-ORIGIN LEVEL: 0
L1I AVERAGE MISS LATENCY: 463.667 cycles
L1I RQ	ACCESS:   52116142	FORWARD:          0	MERGED:   15642389	TO_CACHE:   36473753

BTB TOTAL     ACCESS:   11430729  HIT:   11430588  MISS:        141  HIT %:    99.9988  MISS %: 0.00123352   MPKI: 0.000705
BTB BRANCH_DIRECT_JUMP	ACCESS:        220  HIT:        196  MISS:         24
BTB BRANCH_INDIRECT	ACCESS:          0  HIT:          0  MISS:          0
BTB BRANCH_CONDITIONAL	ACCESS:   11430468  HIT:   11430380  MISS:         88
BTB BRANCH_DIRECT_CALL	ACCESS:         20  HIT:          6  MISS:         14
BTB BRANCH_INDIRECT_CALL	ACCESS:          0  HIT:          0  MISS:          0
BTB BRANCH_RETURN	ACCESS:         21  HIT:          6  MISS:         15
BTB BRANCH_OTHER ACCESS:          0  HIT:          0  MISS:          0

L2C TOTAL     ACCESS:   19015271  HIT:    8941674  MISS:   10073597  HIT %:    47.0236  MISS %:    52.9764   MPKI: 50.368
L2C LOAD      ACCESS:    3442354  HIT:    1446356  MISS:    1995998  HIT %:    42.0165  MISS %:    57.9835   MPKI: 9.97999
L2C DATA LOAD MPKI: 9.97979
L2C INSTRUCTION LOAD MPKI: 0.000195
L2C RFO       ACCESS:    1594065  HIT:          2  MISS:    1594063  HIT %: 0.000125465  MISS %:    99.9999   MPKI: 7.97031
L2C PREFETCH  ACCESS:    8412494  HIT:    2306665  MISS:    6105829  HIT %:    27.4195  MISS %:    72.5805   MPKI: 30.5291
L2C DATA PREFETCH MPKI: 30.5291
L2C INSTRUCTION PREFETCH MPKI: 0
L2C WRITEBACK ACCESS:    5241794  HIT:    5014011  MISS:     227783  HIT %:    95.6545  MISS %:    4.34552   MPKI: 1.13891
L2C LOAD TRANSLATION ACCESS:     324552  HIT:     174638  MISS:     149914  HIT %:    53.8089  MISS %:    46.1911   MPKI: 0.74957
L2C TRANSLATION FROM L1D PREFETCHER ACCESS:         12  HIT:          2  MISS:         10  HIT %:    16.6667  MISS %:    83.3333   MPKI: 5e-05
L2C PREFETCH  REQUESTED:          0  ISSUED:          0  USEFUL:     349746  USELESS:    5752234
L2C USEFUL LOAD PREFETCHES:     349746 PREFETCH ISSUED TO LOWER LEVEL:    6105832  ACCURACY: 5.72806
L2C TIMELY PREFETCHES:     349746 LATE PREFETCHES: 0 DROPPED PREFETCHES: 0
L2C PREFETCHES SAME FILL-ORIGIN LEVEL: 0 DIFFERENT FILL-ORIGIN LEVEL: 0
L2C AVERAGE MISS LATENCY: 611.482 cycles
L2C RQ	ACCESS:    5361166	FORWARD:          0	MERGED:          0	TO_CACHE:    5360983
L2C WQ	ACCESS:    5241794	FORWARD:        345	MERGED:          0	TO_CACHE:    5241794
L2C PQ	ACCESS:    8412659	FORWARD:          0	MERGED:          0	TO_CACHE:    8412497

L2C Instructions Evicting Data 39
L2C Translations Evicting Data 143972
L2C Data Evicting Data 9555236
L2C Instructions Evicting Instructions 0
L2C Translations Evicting Instructions 1
L2C Data Evicting Instructions 38
L2C Instructions Evicting Translations 0
L2C Translations Evicting Translations 5951
L2C Data Evicting Translations 140577
L2C Dense regions hint from L2: 0
PSCL5 TOTAL     ACCESS:     324523  HIT:     324523  MISS:          0  HIT %:        100  MISS %:          0   MPKI: 0
PSCL5 LOAD TRANSLATION ACCESS:     324511  HIT:     324511  MISS:          0  HIT %:        100  MISS %:          0   MPKI: 0
PSCL5 TRANSLATION FROM L1D PREFETCHER ACCESS:         12  HIT:         12  MISS:          0  HIT %:        100  MISS %:          0   MPKI: 0
PSCL5 PREFETCH  REQUESTED:          0  ISSUED:          0  USEFUL:          0  USELESS:          0
PSCL5 USEFUL LOAD PREFETCHES:          0 PREFETCH ISSUED TO LOWER LEVEL:          0  ACCURACY: -nan
PSCL5 TIMELY PREFETCHES:          0 LATE PREFETCHES: 0 DROPPED PREFETCHES: 0
PSCL5 PREFETCHES SAME FILL-ORIGIN LEVEL: 0 DIFFERENT FILL-ORIGIN LEVEL: 0

PSCL4 TOTAL     ACCESS:     324523  HIT:     324523  MISS:          0  HIT %:        100  MISS %:          0   MPKI: 0
PSCL4 LOAD TRANSLATION ACCESS:     324511  HIT:     324511  MISS:          0  HIT %:        100  MISS %:          0   MPKI: 0
PSCL4 TRANSLATION FROM L1D PREFETCHER ACCESS:         12  HIT:         12  MISS:          0  HIT %:        100  MISS %:          0   MPKI: 0
PSCL4 PREFETCH  REQUESTED:          0  ISSUED:          0  USEFUL:          0  USELESS:          0
PSCL4 USEFUL LOAD PREFETCHES:          0 PREFETCH ISSUED TO LOWER LEVEL:          0  ACCURACY: -nan
PSCL4 TIMELY PREFETCHES:          0 LATE PREFETCHES: 0 DROPPED PREFETCHES: 0
PSCL4 PREFETCHES SAME FILL-ORIGIN LEVEL: 0 DIFFERENT FILL-ORIGIN LEVEL: 0

PSCL3 TOTAL     ACCESS:     324523  HIT:     324523  MISS:          0  HIT %:        100  MISS %:          0   MPKI: 0
PSCL3 LOAD TRANSLATION ACCESS:     324511  HIT:     324511  MISS:          0  HIT %:        100  MISS %:          0   MPKI: 0
PSCL3 TRANSLATION FROM L1D PREFETCHER ACCESS:         12  HIT:         12  MISS:          0  HIT %:        100  MISS %:          0   MPKI: 0
PSCL3 PREFETCH  REQUESTED:          0  ISSUED:          0  USEFUL:          0  USELESS:          0
PSCL3 USEFUL LOAD PREFETCHES:          0 PREFETCH ISSUED TO LOWER LEVEL:          0  ACCURACY: -nan
PSCL3 TIMELY PREFETCHES:          0 LATE PREFETCHES: 0 DROPPED PREFETCHES: 0
PSCL3 PREFETCHES SAME FILL-ORIGIN LEVEL: 0 DIFFERENT FILL-ORIGIN LEVEL: 0

PSCL2 TOTAL     ACCESS:     324523  HIT:     324354  MISS:        169  HIT %:    99.9479  MISS %:  0.0520764   MPKI: 0.000845
PSCL2 LOAD TRANSLATION ACCESS:     324511  HIT:     324342  MISS:        169  HIT %:    99.9479  MISS %:  0.0520784   MPKI: 0.000845
PSCL2 TRANSLATION FROM L1D PREFETCHER ACCESS:         12  HIT:         12  MISS:          0  HIT %:        100  MISS %:          0   MPKI: 0
PSCL2 PREFETCH  REQUESTED:          0  ISSUED:          0  USEFUL:          0  USELESS:          0
PSCL2 USEFUL LOAD PREFETCHES:          0 PREFETCH ISSUED TO LOWER LEVEL:          0  ACCURACY: -nan
PSCL2 TIMELY PREFETCHES:          0 LATE PREFETCHES: 0 DROPPED PREFETCHES: 0
PSCL2 PREFETCHES SAME FILL-ORIGIN LEVEL: 0 DIFFERENT FILL-ORIGIN LEVEL: 0

LLC TOTAL     ACCESS:   13798018  HIT:    7308291  MISS:    6489727  HIT %:    52.9662  MISS %:    47.0338   MPKI: 32.4486
LLC LOAD      ACCESS:    1995949  HIT:    1197743  MISS:     798206  HIT %:    60.0087  MISS %:    39.9913   MPKI: 3.99103
LLC RFO       ACCESS:    1594063  HIT:          6  MISS:    1594057  HIT %: 0.000376397  MISS %:    99.9996   MPKI: 7.97028
LLC PREFETCH  ACCESS:    6105770  HIT:    2133930  MISS:    3971840  HIT %:    34.9494  MISS %:    65.0506   MPKI: 19.8592
LLC WRITEBACK ACCESS:    3952312  HIT:    3856990  MISS:      95322  HIT %:    97.5882  MISS %:     2.4118   MPKI: 0.47661
LLC LOAD TRANSLATION ACCESS:     149914  HIT:     119615  MISS:      30299  HIT %:    79.7891  MISS %:    20.2109   MPKI: 0.151495
LLC TRANSLATION FROM L1D PREFETCHER ACCESS:         10  HIT:          7  MISS:          3  HIT %:         70  MISS %:         30   MPKI: 1.5e-05
LLC PREFETCH  REQUESTED:          0  ISSUED:          0  USEFUL:     725384  USELESS:   15172445
LLC USEFUL LOAD PREFETCHES:     725384 PREFETCH ISSUED TO LOWER LEVEL:   17856436  ACCURACY: 4.06231
LLC TIMELY PREFETCHES:     725384 LATE PREFETCHES: 0 DROPPED PREFETCHES: 0
LLC PREFETCHES SAME FILL-ORIGIN LEVEL: 0 DIFFERENT FILL-ORIGIN LEVEL: 0
LLC AVERAGE MISS LATENCY: 3618.87 cycles
LLC RQ	ACCESS:   15073812	FORWARD:          0	MERGED:          0	TO_CACHE:   15073609
LLC WQ	ACCESS:   15929297	FORWARD:        448	MERGED:          0	TO_CACHE:   15929297
LLC PQ	ACCESS:   24588738	FORWARD:          0	MERGED:          0	TO_CACHE:   24588493

LLC Dense regions hint to LLC: 0

RAW hits: 19035701
Loads Generated: 82688947
Loads sent to L1D: 63653245
Stores Generated: 32928491
Stores sent to L1D: 32928489
Major fault: 0 Minor fault: 67359
Allocated PAGES: 269436

stream: 
stream:times selected: 11951627
stream:pref_filled: 6011244
stream:pref_useful: 1406149
stream:pref_late: 705511
stream:misses: 772383
stream:misses_by_poll: 0

CS: 
CS:times selected: 3159631
CS:pref_filled: 455711
CS:pref_useful: 355552
CS:pref_late: 20690
CS:misses: 1125765
CS:misses_by_poll: 942

CPLX: 
CPLX:times selected: 8722069
CPLX:pref_filled: 1433563
CPLX:pref_useful: 120235
CPLX:pref_late: 35103
CPLX:misses: 2981353
CPLX:misses_by_poll: 6643

NL_L1: 
NL:times selected: 48362
NL:pref_filled: 34223
NL:pref_useful: 1407
NL:pref_late: 342
NL:misses: 27438
NL:misses_by_poll: 1

total selections: 23881689
total_filled: 7818111
total_useful: 1767320
total_late: 767942
total_polluted: 7586
total_misses_after_warmup: 4907740
conflicts: 494
Degree Incremented Times: 538282
Degree Decremented Times: 1253606

L1 IP Table Write Accesses: 144273626
L1 IP Table Read Accesses: 144273132
L1 RST Write Accesses: 47245017
L1 RST Read Accesses: 94490034
L1 CSPT Write Accesses: 47245017
L1 CSPT Read Accesses: 91941528
L1 RR Filter Tag Write Accesses: 62512074
L1 RR Filter Tag Read Accesses: 4436161922
L1 IP Table Tag Write Accesses: 144273802
L1 IP Table Tag Read Accesses: 144273802
L1 RST Tag Write Accesses: 0
L1 RST Tag Read Accesses: 425304396
L1 RR Filter Write Accesses: 0
L1 RR Filter Read Accesses: 172313581
test: 18687237

stream: 
stream:times selected: 11928811
stream:pref_filled: 5740267
stream:pref_useful: 1284587
stream:pref_late: 706392
stream:misses: 771867
stream:misses_by_poll: 0

CS: 
CS:times selected: 3138085
CS:pref_filled: 446277
CS:pref_useful: 345135
CS:pref_late: 16464
CS:misses: 1300708
CS:misses_by_poll: 914

CPLX: 
CPLX:times selected: 8720854
CPLX:pref_filled: 1438747
CPLX:pref_useful: 120455
CPLX:pref_late: 35033
CPLX:misses: 2981985
CPLX:misses_by_poll: 6670

NL_L1: 
NL:times selected: 48362
NL:pref_filled: 34201
NL:pref_useful: 1400
NL:pref_late: 358
NL:misses: 27342
NL:misses_by_poll: 5

total selections: 23836112
total_filled: 7659491
total_useful: 1751577
total_late: 764268
total_polluted: 7589
total_misses_after_warmup: 4875025
conflicts: 494
Degree Incremented Times: 538282
Degree Decremented Times: 1253606

L1 IP Table Write Accesses: 144273626
L1 IP Table Read Accesses: 144273132
L1 RST Write Accesses: 47245017
L1 RST Read Accesses: 94490034
L1 CSPT Write Accesses: 47245017
L1 CSPT Read Accesses: 91941528
L1 RR Filter Tag Write Accesses: 62512074
L1 RR Filter Tag Read Accesses: 4436161922
L1 IP Table Tag Write Accesses: 144273802
L1 IP Table Tag Read Accesses: 144273802
L1 RST Tag Write Accesses: 0
L1 RST Tag Read Accesses: 425304396
L1 RR Filter Write Accesses: 0
L1 RR Filter Read Accesses: 172313581
test: 18687237

stream: 
stream:times selected: 11920054
stream:pref_filled: 5737859
stream:pref_useful: 1283868
stream:pref_late: 705795
stream:misses: 772063
stream:misses_by_poll: 0

CS: 
CS:times selected: 3130374
CS:pref_filled: 442474
CS:pref_useful: 341027
CS:pref_late: 15169
CS:misses: 1289032
CS:misses_by_poll: 846

CPLX: 
CPLX:times selected: 8719778
CPLX:pref_filled: 1438372
CPLX:pref_useful: 120230
CPLX:pref_late: 35092
CPLX:misses: 2980979
CPLX:misses_by_poll: 6613

NL_L1: 
NL:times selected: 48351
NL:pref_filled: 34200
NL:pref_useful: 1429
NL:pref_late: 330
NL:misses: 27439
NL:misses_by_poll: 8

total selections: 23818557
total_filled: 7652905
total_useful: 1746554
total_late: 762420
total_polluted: 7467
total_misses_after_warmup: 4862505
conflicts: 494
Degree Incremented Times: 538282
Degree Decremented Times: 1253606

L1 IP Table Write Accesses: 144273626
L1 IP Table Read Accesses: 144273132
L1 RST Write Accesses: 47245017
L1 RST Read Accesses: 94490034
L1 CSPT Write Accesses: 47245017
L1 CSPT Read Accesses: 91941528
L1 RR Filter Tag Write Accesses: 62512074
L1 RR Filter Tag Read Accesses: 4436161922
L1 IP Table Tag Write Accesses: 144273802
L1 IP Table Tag Read Accesses: 144273802
L1 RST Tag Write Accesses: 0
L1 RST Tag Read Accesses: 425304396
L1 RR Filter Write Accesses: 0
L1 RR Filter Read Accesses: 172313581
test: 18687237

stream: 
stream:times selected: 11916522
stream:pref_filled: 5735955
stream:pref_useful: 1283255
stream:pref_late: 706197
stream:misses: 772275
stream:misses_by_poll: 0

CS: 
CS:times selected: 3124457
CS:pref_filled: 440060
CS:pref_useful: 338844
CS:pref_late: 14562
CS:misses: 1285485
CS:misses_by_poll: 896

CPLX: 
CPLX:times selected: 8722182
CPLX:pref_filled: 1439919
CPLX:pref_useful: 120926
CPLX:pref_late: 35380
CPLX:misses: 2982039
CPLX:misses_by_poll: 6727

NL_L1: 
NL:times selected: 48267
NL:pref_filled: 34140
NL:pref_useful: 1420
NL:pref_late: 345
NL:misses: 27355
NL:misses_by_poll: 2

total selections: 23811428
total_filled: 7650074
total_useful: 1744445
total_late: 762582
total_polluted: 7625
total_misses_after_warmup: 4859686
conflicts: 494
Degree Incremented Times: 538282
Degree Decremented Times: 1253606

L1 IP Table Write Accesses: 144273626
L1 IP Table Read Accesses: 144273132
L1 RST Write Accesses: 47245017
L1 RST Read Accesses: 94490034
L1 CSPT Write Accesses: 47245017
L1 CSPT Read Accesses: 91941528
L1 RR Filter Tag Write Accesses: 62512074
L1 RR Filter Tag Read Accesses: 4436161922
L1 IP Table Tag Write Accesses: 144273802
L1 IP Table Tag Read Accesses: 144273802
L1 RST Tag Write Accesses: 0
L1 RST Tag Read Accesses: 425304396
L1 RR Filter Write Accesses: 0
L1 RR Filter Read Accesses: 172313581
test: 18687237

DRAM Statistics
 CHANNEL 0
 RQ ROW_BUFFER_HIT:    8322202  ROW_BUFFER_MISS:   17358493
 DBUS_CONGESTED:         58
 WQ ROW_BUFFER_HIT:    1258050  ROW_BUFFER_MISS:    9019997  FULL:        578

 AVG_CONGESTED_CYCLE: 5
 All warmup complete: 5
Channel 0 Bank busy for read cycles: 0
Channel 0 Bank busy for write cycles: 0
Channel 0
Rank 0
0banks busy for read cycles: 68163
0banks busy for write cycles: 9
1banks busy for read cycles: 6281700
1banks busy for write cycles: 1052856
2banks busy for read cycles: 13762352
2banks busy for write cycles: 1050802
3banks busy for read cycles: 21276106
3banks busy for write cycles: 1049136
4banks busy for read cycles: 28639220
4banks busy for write cycles: 1048296
5banks busy for read cycles: 36660237
5banks busy for write cycles: 1082528
6banks busy for read cycles: 47138797
6banks busy for write cycles: 2536316
7banks busy for read cycles: 80216596
7banks busy for write cycles: 30835242
8banks busy for read cycles: 260621529
8banks busy for write cycles: 223972115

CPU 0 Branch Prediction Accuracy: 98.6359% MPKI: 1.19965 Average ROB Occupancy at Mispredict: 102.945
Branch types
NOT_BRANCH: 190959790 91.2057%
BRANCH_DIRECT_JUMP: 240 0.000114628%
BRANCH_INDIRECT: 0 0%
BRANCH_CONDITIONAL: 18412633 8.79419%
BRANCH_DIRECT_CALL: 31 1.48061e-05%
BRANCH_INDIRECT_CALL: 0 0%
BRANCH_RETURN: 29 1.38509e-05%
BRANCH_OTHER: 0 0%


CPU 1 Branch Prediction Accuracy: 98.5467% MPKI: 1.23213 Average ROB Occupancy at Mispredict: 103.132
Branch types
NOT_BRANCH: 186362701 91.5217%
BRANCH_DIRECT_JUMP: 240 0.000117863%
BRANCH_INDIRECT: 0 0%
BRANCH_CONDITIONAL: 17263923 8.47821%
BRANCH_DIRECT_CALL: 31 1.52239e-05%
BRANCH_INDIRECT_CALL: 0 0%
BRANCH_RETURN: 29 1.42417e-05%
BRANCH_OTHER: 0 0%


CPU 2 Branch Prediction Accuracy: 98.4947% MPKI: 1.24709 Average ROB Occupancy at Mispredict: 103.108
Branch types
NOT_BRANCH: 184458009 91.7158%
BRANCH_DIRECT_JUMP: 220 0.000109388%
BRANCH_INDIRECT: 0 0%
BRANCH_CONDITIONAL: 16661258 8.28427%
BRANCH_DIRECT_CALL: 20 9.94435e-06%
BRANCH_INDIRECT_CALL: 0 0%
BRANCH_RETURN: 21 1.04416e-05%
BRANCH_OTHER: 0 0%


CPU 3 Branch Prediction Accuracy: 98.4652% MPKI: 1.25406 Average ROB Occupancy at Mispredict: 103.161
Branch types
NOT_BRANCH: 183658336 91.8292%
BRANCH_DIRECT_JUMP: 220 0.00011%
BRANCH_INDIRECT: 0 0%
BRANCH_CONDITIONAL: 16341390 8.17069%
BRANCH_DIRECT_CALL: 20 1e-05%
BRANCH_INDIRECT_CALL: 0 0%
BRANCH_RETURN: 21 1.05e-05%
BRANCH_OTHER: 0 0%

DRAM PAGES: 1048576
Allocated PAGES: 269436
