
*** ChampSim Multicore Out-of-Order Simulator ***

Warmup Instructions: 50000000
Simulation Instructions: 200000000
Number of CPUs: 4
LLC sets: 8192
LLC ways: 16
Off-chip DRAM Size: 4096 MB Channels: 1 Width: 64-bit Data Rate: 6400 MT/s
CPU 0 runs ./traces/cs/classification_phase4_core0.trace.xz
.xz
CPU 1 runs ./traces/cs/classification_phase4_core1.trace.xz
.xz
CPU 2 runs ./traces/cs/classification_phase4_core2.trace.xz
.xz
CPU 3 runs ./traces/cs/classification_phase4_core3.trace.xz
.xz
BTB has LRU replacement policy
ITLB has LRU replacement policy
DTLB has LRU replacement policy
STLB has LRU replacement policy
L1I has LRU replacement policy
IP Table Entries: 1024
CSPT Entries: 128
RR_ENTRIES: 32
RST_ENTRIES: 8
L1D has LRU replacement policy
Initialize SRRIP state for L2C
Initialize DRRIP state for LLC
BTB has LRU replacement policy
ITLB has LRU replacement policy
DTLB has LRU replacement policy
STLB has LRU replacement policy
L1I has LRU replacement policy
IP Table Entries: 1024
CSPT Entries: 128
RR_ENTRIES: 32
RST_ENTRIES: 8
L1D has LRU replacement policy
Initialize SRRIP state for L2C
Initialize DRRIP state for LLC
BTB has LRU replacement policy
ITLB has LRU replacement policy
DTLB has LRU replacement policy
STLB has LRU replacement policy
L1I has LRU replacement policy
IP Table Entries: 1024
CSPT Entries: 128
RR_ENTRIES: 32
RST_ENTRIES: 8
L1D has LRU replacement policy
Initialize SRRIP state for L2C
Initialize DRRIP state for LLC
BTB has LRU replacement policy
ITLB has LRU replacement policy
DTLB has LRU replacement policy
STLB has LRU replacement policy
L1I has LRU replacement policy
IP Table Entries: 1024
CSPT Entries: 128
RR_ENTRIES: 32
RST_ENTRIES: 8
L1D has LRU replacement policy
Initialize SRRIP state for L2C
Initialize DRRIP state for LLC
UNIQUE_ASID[0] = 
UNIQUE_ASID[1] = €
Heartbeat CPU 0 instructions: 10000000 cycles: 2631206 heartbeat IPC: 3.80054 cumulative IPC: 3.80054 (Simulation time: 0 hr 2 min 11 sec) 
Heartbeat CPU 2 instructions: 10000001 cycles: 2648847 heartbeat IPC: 3.77523 cumulative IPC: 3.77523 (Simulation time: 0 hr 2 min 12 sec) 
Heartbeat CPU 1 instructions: 10000002 cycles: 2649661 heartbeat IPC: 3.77407 cumulative IPC: 3.77407 (Simulation time: 0 hr 2 min 12 sec) 
Heartbeat CPU 3 instructions: 10000001 cycles: 2658019 heartbeat IPC: 3.7622 cumulative IPC: 3.7622 (Simulation time: 0 hr 2 min 12 sec) 
Heartbeat CPU 1 instructions: 20000000 cycles: 5300681 heartbeat IPC: 3.77213 cumulative IPC: 3.7731 (Simulation time: 0 hr 4 min 18 sec) 
Heartbeat CPU 2 instructions: 20000001 cycles: 5305738 heartbeat IPC: 3.7638 cumulative IPC: 3.7695 (Simulation time: 0 hr 4 min 18 sec) 
Heartbeat CPU 0 instructions: 20000002 cycles: 5350229 heartbeat IPC: 3.67779 cumulative IPC: 3.73816 (Simulation time: 0 hr 4 min 21 sec) 
Heartbeat CPU 3 instructions: 20000002 cycles: 5389007 heartbeat IPC: 3.66168 cumulative IPC: 3.71126 (Simulation time: 0 hr 4 min 24 sec) 
Heartbeat CPU 1 instructions: 30000002 cycles: 7946711 heartbeat IPC: 3.77925 cumulative IPC: 3.77515 (Simulation time: 0 hr 7 min 8 sec) 
Heartbeat CPU 2 instructions: 30000003 cycles: 7953624 heartbeat IPC: 3.7766 cumulative IPC: 3.77187 (Simulation time: 0 hr 7 min 8 sec) 
Heartbeat CPU 0 instructions: 30000000 cycles: 7992934 heartbeat IPC: 3.784 cumulative IPC: 3.75332 (Simulation time: 0 hr 7 min 11 sec) 
Heartbeat CPU 3 instructions: 30000003 cycles: 8085139 heartbeat IPC: 3.70902 cumulative IPC: 3.71051 (Simulation time: 0 hr 7 min 17 sec) 
Heartbeat CPU 1 instructions: 40000000 cycles: 10601236 heartbeat IPC: 3.76715 cumulative IPC: 3.77314 (Simulation time: 0 hr 9 min 26 sec) 
Heartbeat CPU 2 instructions: 40000002 cycles: 10607692 heartbeat IPC: 3.7678 cumulative IPC: 3.77085 (Simulation time: 0 hr 9 min 27 sec) 
Heartbeat CPU 0 instructions: 40000003 cycles: 10639357 heartbeat IPC: 3.77869 cumulative IPC: 3.75963 (Simulation time: 0 hr 9 min 28 sec) 
Heartbeat CPU 3 instructions: 40000003 cycles: 10759176 heartbeat IPC: 3.73966 cumulative IPC: 3.71776 (Simulation time: 0 hr 9 min 35 sec) 
Heartbeat CPU 1 instructions: 50000000 cycles: 13246240 heartbeat IPC: 3.78071 cumulative IPC: 3.77466 (Simulation time: 0 hr 11 min 28 sec) 
Heartbeat CPU 2 instructions: 50000001 cycles: 13265257 heartbeat IPC: 3.76284 cumulative IPC: 3.76924 (Simulation time: 0 hr 11 min 29 sec) 
Heartbeat CPU 0 instructions: 50000001 cycles: 13290024 heartbeat IPC: 3.77263 cumulative IPC: 3.76222 (Simulation time: 0 hr 11 min 30 sec) 
Heartbeat CPU 3 instructions: 50000003 cycles: 13425123 heartbeat IPC: 3.75101 cumulative IPC: 3.72436 (Simulation time: 0 hr 11 min 34 sec) 

Warmup complete CPU 0 instructions: 50502161 cycles: 13425123 (Simulation time: 0 hr 11 min 34 sec) 
Warmup complete CPU 1 instructions: 50652102 cycles: 13425123 (Simulation time: 0 hr 11 min 34 sec) 
Warmup complete CPU 2 instructions: 50586177 cycles: 13425123 (Simulation time: 0 hr 11 min 34 sec) 
Warmup complete CPU 3 instructions: 50000003 cycles: 13425123 (Simulation time: 0 hr 11 min 34 sec) 

Heartbeat CPU 0 instructions: 60000003 cycles: 26192540 heartbeat IPC: 0.775043 cumulative IPC: 0.743913 (Simulation time: 0 hr 13 min 59 sec) 
Heartbeat CPU 1 instructions: 60000002 cycles: 26440022 heartbeat IPC: 0.757933 cumulative IPC: 0.718246 (Simulation time: 0 hr 14 min 4 sec) 
Heartbeat CPU 2 instructions: 60000002 cycles: 27097812 heartbeat IPC: 0.722932 cumulative IPC: 0.688513 (Simulation time: 0 hr 14 min 17 sec) 
Heartbeat CPU 3 instructions: 60000003 cycles: 27927164 heartbeat IPC: 0.689558 cumulative IPC: 0.689558 (Simulation time: 0 hr 14 min 31 sec) 
Heartbeat CPU 0 instructions: 70000001 cycles: 39665985 heartbeat IPC: 0.742201 cumulative IPC: 0.743034 (Simulation time: 0 hr 17 min 43 sec) 
Heartbeat CPU 2 instructions: 70000001 cycles: 40893541 heartbeat IPC: 0.724862 cumulative IPC: 0.706769 (Simulation time: 0 hr 18 min 1 sec) 
Heartbeat CPU 1 instructions: 70000003 cycles: 41475034 heartbeat IPC: 0.665114 cumulative IPC: 0.689767 (Simulation time: 0 hr 18 min 6 sec) 
Heartbeat CPU 3 instructions: 70000000 cycles: 43547476 heartbeat IPC: 0.640192 cumulative IPC: 0.663959 (Simulation time: 0 hr 18 min 31 sec) 
Heartbeat CPU 0 instructions: 80000003 cycles: 52603817 heartbeat IPC: 0.772927 cumulative IPC: 0.752905 (Simulation time: 0 hr 20 min 46 sec) 
Heartbeat CPU 2 instructions: 80000003 cycles: 55624237 heartbeat IPC: 0.678855 cumulative IPC: 0.697025 (Simulation time: 0 hr 21 min 35 sec) 
Heartbeat CPU 1 instructions: 80000003 cycles: 55724612 heartbeat IPC: 0.701775 cumulative IPC: 0.693812 (Simulation time: 0 hr 21 min 37 sec) 
Heartbeat CPU 3 instructions: 80000002 cycles: 57794700 heartbeat IPC: 0.701891 cumulative IPC: 0.676139 (Simulation time: 0 hr 22 min 17 sec) 
Heartbeat CPU 0 instructions: 90000001 cycles: 65891612 heartbeat IPC: 0.75257 cumulative IPC: 0.75282 (Simulation time: 0 hr 24 min 25 sec) 
Heartbeat CPU 2 instructions: 90000003 cycles: 69849311 heartbeat IPC: 0.702984 cumulative IPC: 0.698527 (Simulation time: 0 hr 25 min 14 sec) 
Heartbeat CPU 1 instructions: 90000002 cycles: 70436430 heartbeat IPC: 0.679726 cumulative IPC: 0.690177 (Simulation time: 0 hr 25 min 19 sec) 
Heartbeat CPU 3 instructions: 90000001 cycles: 73567786 heartbeat IPC: 0.633991 cumulative IPC: 0.665085 (Simulation time: 0 hr 25 min 49 sec) 
Heartbeat CPU 0 instructions: 100000002 cycles: 79250876 heartbeat IPC: 0.748544 cumulative IPC: 0.751953 (Simulation time: 0 hr 27 min 23 sec) 
Heartbeat CPU 2 instructions: 100000000 cycles: 83730730 heartbeat IPC: 0.720387 cumulative IPC: 0.702843 (Simulation time: 0 hr 28 min 21 sec) 
Heartbeat CPU 1 instructions: 100000002 cycles: 84217960 heartbeat IPC: 0.725609 cumulative IPC: 0.697075 (Simulation time: 0 hr 28 min 28 sec) 
Heartbeat CPU 3 instructions: 100000000 cycles: 87540163 heartbeat IPC: 0.715698 cumulative IPC: 0.674627 (Simulation time: 0 hr 29 min 16 sec) 
Heartbeat CPU 0 instructions: 110000000 cycles: 87646315 heartbeat IPC: 1.19112 cumulative IPC: 0.801629 (Simulation time: 0 hr 29 min 18 sec) 
Heartbeat CPU 0 instructions: 120000002 cycles: 97653296 heartbeat IPC: 0.999303 cumulative IPC: 0.825114 (Simulation time: 0 hr 31 min 57 sec) 
Heartbeat CPU 2 instructions: 110000000 cycles: 98515711 heartbeat IPC: 0.676362 cumulative IPC: 0.698242 (Simulation time: 0 hr 32 min 8 sec) 
Heartbeat CPU 1 instructions: 110000000 cycles: 99876089 heartbeat IPC: 0.638646 cumulative IPC: 0.686492 (Simulation time: 0 hr 32 min 27 sec) 
Heartbeat CPU 3 instructions: 110000000 cycles: 103907025 heartbeat IPC: 0.610991 cumulative IPC: 0.663116 (Simulation time: 0 hr 33 min 9 sec) 
Heartbeat CPU 0 instructions: 130000000 cycles: 111836245 heartbeat IPC: 0.705072 cumulative IPC: 0.807814 (Simulation time: 0 hr 34 min 59 sec) 
Heartbeat CPU 2 instructions: 120000002 cycles: 112170171 heartbeat IPC: 0.732362 cumulative IPC: 0.70296 (Simulation time: 0 hr 35 min 5 sec) 
Heartbeat CPU 1 instructions: 120000000 cycles: 113989159 heartbeat IPC: 0.708563 cumulative IPC: 0.689589 (Simulation time: 0 hr 35 min 32 sec) 
Heartbeat CPU 3 instructions: 120000001 cycles: 120275425 heartbeat IPC: 0.610933 cumulative IPC: 0.655122 (Simulation time: 0 hr 37 min 8 sec) 
Heartbeat CPU 0 instructions: 140000000 cycles: 125373587 heartbeat IPC: 0.738697 cumulative IPC: 0.799456 (Simulation time: 0 hr 38 min 33 sec) 
Heartbeat CPU 2 instructions: 130000003 cycles: 126366781 heartbeat IPC: 0.704394 cumulative IPC: 0.70314 (Simulation time: 0 hr 38 min 46 sec) 
Heartbeat CPU 1 instructions: 130000000 cycles: 129206929 heartbeat IPC: 0.657126 cumulative IPC: 0.685323 (Simulation time: 0 hr 39 min 24 sec) 
Heartbeat CPU 3 instructions: 130000001 cycles: 130429110 heartbeat IPC: 0.984864 cumulative IPC: 0.683737 (Simulation time: 0 hr 39 min 40 sec) 
Heartbeat CPU 0 instructions: 150000003 cycles: 138496399 heartbeat IPC: 0.762032 cumulative IPC: 0.795529 (Simulation time: 0 hr 41 min 45 sec) 
Heartbeat CPU 2 instructions: 140000000 cycles: 140497007 heartbeat IPC: 0.707703 cumulative IPC: 0.703648 (Simulation time: 0 hr 42 min 14 sec) 
Heartbeat CPU 1 instructions: 140000000 cycles: 143038625 heartbeat IPC: 0.722977 cumulative IPC: 0.689341 (Simulation time: 0 hr 42 min 48 sec) 
Heartbeat CPU 3 instructions: 140000003 cycles: 145801460 heartbeat IPC: 0.650519 cumulative IPC: 0.67988 (Simulation time: 0 hr 43 min 23 sec) 
Heartbeat CPU 0 instructions: 160000002 cycles: 151842355 heartbeat IPC: 0.749291 cumulative IPC: 0.791071 (Simulation time: 0 hr 44 min 47 sec) 
Heartbeat CPU 2 instructions: 150000001 cycles: 154109297 heartbeat IPC: 0.73463 cumulative IPC: 0.706645 (Simulation time: 0 hr 45 min 27 sec) 
Heartbeat CPU 1 instructions: 150000000 cycles: 158234457 heartbeat IPC: 0.658075 cumulative IPC: 0.68606 (Simulation time: 0 hr 46 min 34 sec) 
Heartbeat CPU 3 instructions: 150000000 cycles: 161442915 heartbeat IPC: 0.639327 cumulative IPC: 0.675594 (Simulation time: 0 hr 47 min 19 sec) 
Heartbeat CPU 0 instructions: 170000000 cycles: 165191646 heartbeat IPC: 0.749103 cumulative IPC: 0.787379 (Simulation time: 0 hr 48 min 24 sec) 
Heartbeat CPU 2 instructions: 160000003 cycles: 168480248 heartbeat IPC: 0.695848 cumulative IPC: 0.705645 (Simulation time: 0 hr 49 min 1 sec) 
Heartbeat CPU 1 instructions: 160000003 cycles: 172230790 heartbeat IPC: 0.714473 cumulative IPC: 0.688564 (Simulation time: 0 hr 49 min 54 sec) 
Heartbeat CPU 3 instructions: 160000000 cycles: 175841173 heartbeat IPC: 0.694528 cumulative IPC: 0.677273 (Simulation time: 0 hr 50 min 36 sec) 
Heartbeat CPU 0 instructions: 180000001 cycles: 178001533 heartbeat IPC: 0.780647 cumulative IPC: 0.786855 (Simulation time: 0 hr 50 min 58 sec) 
Heartbeat CPU 2 instructions: 170000002 cycles: 182028997 heartbeat IPC: 0.738075 cumulative IPC: 0.708251 (Simulation time: 0 hr 51 min 43 sec) 
Heartbeat CPU 1 instructions: 170000003 cycles: 187152989 heartbeat IPC: 0.670143 cumulative IPC: 0.686982 (Simulation time: 0 hr 52 min 41 sec) 
Heartbeat CPU 0 instructions: 190000001 cycles: 191137335 heartbeat IPC: 0.761278 cumulative IPC: 0.784965 (Simulation time: 0 hr 53 min 44 sec) 
Heartbeat CPU 3 instructions: 170000000 cycles: 191394828 heartbeat IPC: 0.642936 cumulative IPC: 0.674272 (Simulation time: 0 hr 53 min 49 sec) 
Heartbeat CPU 2 instructions: 180000000 cycles: 196526949 heartbeat IPC: 0.689752 cumulative IPC: 0.706786 (Simulation time: 0 hr 55 min 17 sec) 
Heartbeat CPU 1 instructions: 180000000 cycles: 201353420 heartbeat IPC: 0.704204 cumulative IPC: 0.688283 (Simulation time: 0 hr 56 min 30 sec) 
Heartbeat CPU 0 instructions: 200000001 cycles: 204402050 heartbeat IPC: 0.75388 cumulative IPC: 0.782806 (Simulation time: 0 hr 57 min 9 sec) 
Heartbeat CPU 3 instructions: 180000003 cycles: 205571783 heartbeat IPC: 0.70537 cumulative IPC: 0.676567 (Simulation time: 0 hr 57 min 30 sec) 
Heartbeat CPU 2 instructions: 190000002 cycles: 210397121 heartbeat IPC: 0.720972 cumulative IPC: 0.707785 (Simulation time: 0 hr 58 min 54 sec) 
Heartbeat CPU 0 instructions: 210000000 cycles: 212770896 heartbeat IPC: 1.19491 cumulative IPC: 0.800106 (Simulation time: 0 hr 59 min 40 sec) 
Heartbeat CPU 1 instructions: 190000002 cycles: 215699247 heartbeat IPC: 0.697067 cumulative IPC: 0.688906 (Simulation time: 1 hr 0 min 37 sec) 
Heartbeat CPU 3 instructions: 190000003 cycles: 220858031 heartbeat IPC: 0.654183 cumulative IPC: 0.674917 (Simulation time: 1 hr 2 min 6 sec) 
Heartbeat CPU 0 instructions: 220000000 cycles: 222599351 heartbeat IPC: 1.01745 cumulative IPC: 0.810319 (Simulation time: 1 hr 2 min 32 sec) 
Heartbeat CPU 2 instructions: 200000001 cycles: 223996403 heartbeat IPC: 0.735333 cumulative IPC: 0.709564 (Simulation time: 1 hr 2 min 56 sec) 
Heartbeat CPU 1 instructions: 200000001 cycles: 229141801 heartbeat IPC: 0.743906 cumulative IPC: 0.692334 (Simulation time: 1 hr 4 min 1 sec) 
Heartbeat CPU 3 instructions: 200000001 cycles: 235082722 heartbeat IPC: 0.703003 cumulative IPC: 0.676719 (Simulation time: 1 hr 5 min 34 sec) 
Heartbeat CPU 0 instructions: 230000000 cycles: 236714065 heartbeat IPC: 0.708481 cumulative IPC: 0.803881 (Simulation time: 1 hr 6 min 2 sec) 
Heartbeat CPU 2 instructions: 210000002 cycles: 238903983 heartbeat IPC: 0.6708 cumulative IPC: 0.707001 (Simulation time: 1 hr 6 min 37 sec) 
Heartbeat CPU 1 instructions: 210000000 cycles: 245107209 heartbeat IPC: 0.626354 cumulative IPC: 0.687787 (Simulation time: 1 hr 8 min 0 sec) 
Heartbeat CPU 0 instructions: 240000002 cycles: 250313422 heartbeat IPC: 0.735329 cumulative IPC: 0.799946 (Simulation time: 1 hr 8 min 55 sec) 
Heartbeat CPU 3 instructions: 210000000 cycles: 251519410 heartbeat IPC: 0.608395 cumulative IPC: 0.672003 (Simulation time: 1 hr 9 min 7 sec) 
Heartbeat CPU 2 instructions: 220000000 cycles: 252490400 heartbeat IPC: 0.736029 cumulative IPC: 0.708651 (Simulation time: 1 hr 9 min 18 sec) 
Heartbeat CPU 1 instructions: 220000000 cycles: 259213752 heartbeat IPC: 0.708891 cumulative IPC: 0.688998 (Simulation time: 1 hr 10 min 36 sec) 
Heartbeat CPU 0 instructions: 250000002 cycles: 263338222 heartbeat IPC: 0.767766 cumulative IPC: 0.798269 (Simulation time: 1 hr 11 min 41 sec) 
Finished CPU 0 instructions: 200000000 cycles: 250662316 cumulative IPC: 0.797886 (Simulation time: 1 hr 11 min 52 sec) 
Heartbeat CPU 2 instructions: 230000001 cycles: 266687416 heartbeat IPC: 0.704373 cumulative IPC: 0.708411 (Simulation time: 1 hr 12 min 33 sec) 
Heartbeat CPU 3 instructions: 220000000 cycles: 267850409 heartbeat IPC: 0.612332 cumulative IPC: 0.668173 (Simulation time: 1 hr 12 min 56 sec) 
Heartbeat CPU 1 instructions: 230000003 cycles: 274413838 heartbeat IPC: 0.657891 cumulative IPC: 0.687186 (Simulation time: 1 hr 14 min 52 sec) 
Heartbeat CPU 0 instructions: 260000003 cycles: 276570606 heartbeat IPC: 0.755722 cumulative IPC: 0.796129 (Simulation time: 1 hr 15 min 30 sec) 
Heartbeat CPU 3 instructions: 230000002 cycles: 277946726 heartbeat IPC: 0.99046 cumulative IPC: 0.680474 (Simulation time: 1 hr 15 min 53 sec) 
Heartbeat CPU 2 instructions: 240000002 cycles: 280633473 heartbeat IPC: 0.717049 cumulative IPC: 0.708862 (Simulation time: 1 hr 16 min 27 sec) 
Heartbeat CPU 1 instructions: 240000003 cycles: 288279875 heartbeat IPC: 0.721187 cumulative IPC: 0.688902 (Simulation time: 1 hr 18 min 13 sec) 
Heartbeat CPU 0 instructions: 270000000 cycles: 289943645 heartbeat IPC: 0.747773 cumulative IPC: 0.793791 (Simulation time: 1 hr 18 min 30 sec) 
Heartbeat CPU 3 instructions: 240000000 cycles: 293240503 heartbeat IPC: 0.653861 cumulative IPC: 0.679019 (Simulation time: 1 hr 19 min 14 sec) 
Heartbeat CPU 2 instructions: 250000003 cycles: 294175690 heartbeat IPC: 0.738432 cumulative IPC: 0.710288 (Simulation time: 1 hr 19 min 29 sec) 
Finished CPU 2 instructions: 200000001 cycles: 281672523 cumulative IPC: 0.710044 (Simulation time: 1 hr 19 min 39 sec) 
Heartbeat CPU 0 instructions: 280000002 cycles: 302651416 heartbeat IPC: 0.78692 cumulative IPC: 0.793489 (Simulation time: 1 hr 21 min 14 sec) 
Heartbeat CPU 1 instructions: 250000001 cycles: 303427623 heartbeat IPC: 0.660164 cumulative IPC: 0.687401 (Simulation time: 1 hr 21 min 28 sec) 
Finished CPU 1 instructions: 200000002 cycles: 291040293 cumulative IPC: 0.68719 (Simulation time: 1 hr 21 min 44 sec) 
Heartbeat CPU 2 instructions: 260000002 cycles: 308490127 heartbeat IPC: 0.698595 cumulative IPC: 0.709721 (Simulation time: 1 hr 22 min 50 sec) 
Heartbeat CPU 3 instructions: 250000000 cycles: 308801198 heartbeat IPC: 0.642645 cumulative IPC: 0.677103 (Simulation time: 1 hr 22 min 55 sec) 
Finished CPU 3 instructions: 200000000 cycles: 295376076 cumulative IPC: 0.677103 (Simulation time: 1 hr 22 min 55 sec) 

ChampSim completed all CPUs

Total Simulation Statistics (not including warmup)

CPU 0 cumulative IPC: 0.79334 instructions: 234333602 cycles: 295376076
ITLB TOTAL     ACCESS:   33368010  HIT:   31949615  MISS:    1418395  HIT %:    95.7492  MISS %:    4.25076   MPKI: 6.05289
ITLB LOAD      ACCESS:          0  HIT:          0  MISS:          0  HIT %:       -nan  MISS %:       -nan   MPKI: 0
ITLB RFO       ACCESS:          0  HIT:          0  MISS:          0  HIT %:       -nan  MISS %:       -nan   MPKI: 0
ITLB PREFETCH  ACCESS:          0  HIT:          0  MISS:          0  HIT %:       -nan  MISS %:       -nan   MPKI: 0
ITLB WRITEBACK ACCESS:          0  HIT:          0  MISS:          0  HIT %:       -nan  MISS %:       -nan   MPKI: 0
DTLB TOTAL     ACCESS:   17895977  HIT:    8206622  MISS:    9689355  HIT %:    45.8574  MISS %:    54.1426   MPKI: 41.3486
DTLB LOAD      ACCESS:          0  HIT:          0  MISS:          0  HIT %:       -nan  MISS %:       -nan   MPKI: 0
DTLB RFO       ACCESS:          0  HIT:          0  MISS:          0  HIT %:       -nan  MISS %:       -nan   MPKI: 0
DTLB PREFETCH  ACCESS:          0  HIT:          0  MISS:          0  HIT %:       -nan  MISS %:       -nan   MPKI: 0
DTLB WRITEBACK ACCESS:          0  HIT:          0  MISS:          0  HIT %:       -nan  MISS %:       -nan   MPKI: 0
STLB TOTAL     ACCESS:   15497019  HIT:    7338936  MISS:    8158083  HIT %:    47.3571  MISS %:    52.6429   MPKI: 34.814
STLB LOAD      ACCESS:          0  HIT:          0  MISS:          0  HIT %:       -nan  MISS %:       -nan   MPKI: 0
STLB RFO       ACCESS:          0  HIT:          0  MISS:          0  HIT %:       -nan  MISS %:       -nan   MPKI: 0
STLB PREFETCH  ACCESS:          0  HIT:          0  MISS:          0  HIT %:       -nan  MISS %:       -nan   MPKI: 0
STLB WRITEBACK ACCESS:          0  HIT:          0  MISS:          0  HIT %:       -nan  MISS %:       -nan   MPKI: 0
L1D TOTAL     ACCESS:   24899352  HIT:   21739510  MISS:    3159842  HIT %:    87.3095  MISS %:    12.6905   MPKI: 13.4844
L1D LOAD      ACCESS:   16180792  HIT:   14856420  MISS:    1324372  HIT %:    91.8152  MISS %:    8.18484   MPKI: 5.65165
L1D RFO       ACCESS:    3424978  HIT:    3281309  MISS:     143669  HIT %:    95.8053  MISS %:    4.19474   MPKI: 0.613096
L1D PREFETCH  ACCESS:    5293582  HIT:    3601781  MISS:    1691801  HIT %:    68.0405  MISS %:    31.9595   MPKI: 7.21963
L1D WRITEBACK ACCESS:          0  HIT:          0  MISS:          0  HIT %:       -nan  MISS %:       -nan   MPKI: 0
L1I TOTAL     ACCESS:   44247807  HIT:   44236947  MISS:      10860  HIT %:    99.9755  MISS %:  0.0245436   MPKI: 0.0463442
L1I LOAD      ACCESS:   44247807  HIT:   44236947  MISS:      10860  HIT %:    99.9755  MISS %:  0.0245436   MPKI: 0.0463442
L1I RFO       ACCESS:          0  HIT:          0  MISS:          0  HIT %:       -nan  MISS %:       -nan   MPKI: 0
L1I PREFETCH  ACCESS:          0  HIT:          0  MISS:          0  HIT %:       -nan  MISS %:       -nan   MPKI: 0
L1I WRITEBACK ACCESS:          0  HIT:          0  MISS:          0  HIT %:       -nan  MISS %:       -nan   MPKI: 0
L2C TOTAL     ACCESS:   12104870  HIT:    9819435  MISS:    2285435  HIT %:    81.1197  MISS %:    18.8803   MPKI: 9.75291
L2C LOAD      ACCESS:    1293215  HIT:     417695  MISS:     875520  HIT %:     32.299  MISS %:     67.701   MPKI: 3.73621
L2C RFO       ACCESS:     143544  HIT:      89905  MISS:      53639  HIT %:    62.6324  MISS %:    37.3676   MPKI: 0.2289
L2C PREFETCH  ACCESS:    1733835  HIT:     574532  MISS:    1159303  HIT %:    33.1365  MISS %:    66.8635   MPKI: 4.94723
L2C WRITEBACK ACCESS:     197002  HIT:     191901  MISS:       5101  HIT %:    97.4107  MISS %:    2.58931   MPKI: 0.0217681
PSCL5 TOTAL     ACCESS:    8158083  HIT:    8158083  MISS:          0  HIT %:        100  MISS %:          0   MPKI: 0
PSCL5 LOAD      ACCESS:          0  HIT:          0  MISS:          0  HIT %:       -nan  MISS %:       -nan   MPKI: 0
PSCL5 RFO       ACCESS:          0  HIT:          0  MISS:          0  HIT %:       -nan  MISS %:       -nan   MPKI: 0
PSCL5 PREFETCH  ACCESS:          0  HIT:          0  MISS:          0  HIT %:       -nan  MISS %:       -nan   MPKI: 0
PSCL5 WRITEBACK ACCESS:          0  HIT:          0  MISS:          0  HIT %:       -nan  MISS %:       -nan   MPKI: 0
PSCL4 TOTAL     ACCESS:    8158083  HIT:    8158083  MISS:          0  HIT %:        100  MISS %:          0   MPKI: 0
PSCL4 LOAD      ACCESS:          0  HIT:          0  MISS:          0  HIT %:       -nan  MISS %:       -nan   MPKI: 0
PSCL4 RFO       ACCESS:          0  HIT:          0  MISS:          0  HIT %:       -nan  MISS %:       -nan   MPKI: 0
PSCL4 PREFETCH  ACCESS:          0  HIT:          0  MISS:          0  HIT %:       -nan  MISS %:       -nan   MPKI: 0
PSCL4 WRITEBACK ACCESS:          0  HIT:          0  MISS:          0  HIT %:       -nan  MISS %:       -nan   MPKI: 0
PSCL3 TOTAL     ACCESS:    8157845  HIT:    8157735  MISS:        110  HIT %:    99.9987  MISS %:  0.0013484   MPKI: 0.000469416
PSCL3 LOAD      ACCESS:          0  HIT:          0  MISS:          0  HIT %:       -nan  MISS %:       -nan   MPKI: 0
PSCL3 RFO       ACCESS:          0  HIT:          0  MISS:          0  HIT %:       -nan  MISS %:       -nan   MPKI: 0
PSCL3 PREFETCH  ACCESS:          0  HIT:          0  MISS:          0  HIT %:       -nan  MISS %:       -nan   MPKI: 0
PSCL3 WRITEBACK ACCESS:          0  HIT:          0  MISS:          0  HIT %:       -nan  MISS %:       -nan   MPKI: 0
PSCL2 TOTAL     ACCESS:    8158083  HIT:    7579001  MISS:     579082  HIT %:    92.9017  MISS %:    7.09826   MPKI: 2.47119
PSCL2 LOAD      ACCESS:          0  HIT:          0  MISS:          0  HIT %:       -nan  MISS %:       -nan   MPKI: 0
PSCL2 RFO       ACCESS:          0  HIT:          0  MISS:          0  HIT %:       -nan  MISS %:       -nan   MPKI: 0
PSCL2 PREFETCH  ACCESS:          0  HIT:          0  MISS:          0  HIT %:       -nan  MISS %:       -nan   MPKI: 0
PSCL2 WRITEBACK ACCESS:          0  HIT:          0  MISS:          0  HIT %:       -nan  MISS %:       -nan   MPKI: 0

stream: 
stream:times selected: 7254057
stream:pref_filled: 1369800
stream:pref_useful: 99878
stream:pref_late: 36802
stream:misses: 310505
stream:misses_by_poll: 0

CS: 
CS:times selected: 395166
CS:pref_filled: 270079
CS:pref_useful: 206435
CS:pref_late: 5892
CS:misses: 44858
CS:misses_by_poll: 429

CPLX: 
CPLX:times selected: 6819062
CPLX:pref_filled: 411948
CPLX:pref_useful: 18025
CPLX:pref_late: 1459
CPLX:misses: 1168458
CPLX:misses_by_poll: 904

NL_L1: 
NL:times selected: 52076
NL:pref_filled: 16243
NL:pref_useful: 1690
NL:pref_late: 772
NL:misses: 14772
NL:misses_by_poll: 0

total selections: 14520361
total_filled: 1691801
total_useful: 254612
total_late: 45702
total_polluted: 1333
total_misses_after_warmup: 1374846
conflicts: 842342
Degree Incremented Times: 48051
Degree Decremented Times: 884590

L1 IP Table Write Accesses: 55361028
L1 IP Table Read Accesses: 54518686
L1 RST Write Accesses: 21378679
L1 RST Read Accesses: 42757358
L1 CSPT Write Accesses: 21378679
L1 CSPT Read Accesses: 41469335
L1 RR Filter Tag Write Accesses: 19425709
L1 RR Filter Tag Read Accesses: 760988157
L1 IP Table Tag Write Accesses: 60467332
L1 IP Table Tag Read Accesses: 60467332
L1 RST Tag Write Accesses: 0
L1 RST Tag Read Accesses: 214366418
L1 RR Filter Write Accesses: 0
L1 RR Filter Read Accesses: 26237342
test: 13938464
LLC TOTAL     ACCESS:    2360197  HIT:    1024081  MISS:    1336116  HIT %:    43.3896  MISS %:    56.6104   MPKI: 5.70177
LLC LOAD      ACCESS:     875520  HIT:     305962  MISS:     569558  HIT %:    34.9463  MISS %:    65.0537   MPKI: 2.43054
LLC RFO       ACCESS:      53639  HIT:        829  MISS:      52810  HIT %:    1.54552  MISS %:    98.4545   MPKI: 0.225362
LLC PREFETCH  ACCESS:    1159303  HIT:     508119  MISS:     651184  HIT %:    43.8297  MISS %:    56.1703   MPKI: 2.77888
LLC WRITEBACK ACCESS:      79863  HIT:      73828  MISS:       6035  HIT %:    92.4433  MISS %:    7.55669   MPKI: 0.0257539

RAW hits: 483287
Loads Generated: 26110840
Loads sent to L1D: 25627553
Stores Generated: 3849084
Stores sent to L1D: 3849085

CPU 1 cumulative IPC: 0.688481 instructions: 203360849 cycles: 295376076
ITLB TOTAL     ACCESS:   29412726  HIT:   28073244  MISS:    1339482  HIT %:    95.4459  MISS %:    4.55409   MPKI: 6.58673
ITLB LOAD      ACCESS:          0  HIT:          0  MISS:          0  HIT %:       -nan  MISS %:       -nan   MPKI: 0
ITLB RFO       ACCESS:          0  HIT:          0  MISS:          0  HIT %:       -nan  MISS %:       -nan   MPKI: 0
ITLB PREFETCH  ACCESS:          0  HIT:          0  MISS:          0  HIT %:       -nan  MISS %:       -nan   MPKI: 0
ITLB WRITEBACK ACCESS:          0  HIT:          0  MISS:          0  HIT %:       -nan  MISS %:       -nan   MPKI: 0
DTLB TOTAL     ACCESS:   15963014  HIT:    6955903  MISS:    9007111  HIT %:    43.5751  MISS %:    56.4249   MPKI: 44.2913
DTLB LOAD      ACCESS:          0  HIT:          0  MISS:          0  HIT %:       -nan  MISS %:       -nan   MPKI: 0
DTLB RFO       ACCESS:          0  HIT:          0  MISS:          0  HIT %:       -nan  MISS %:       -nan   MPKI: 0
DTLB PREFETCH  ACCESS:          0  HIT:          0  MISS:          0  HIT %:       -nan  MISS %:       -nan   MPKI: 0
DTLB WRITEBACK ACCESS:          0  HIT:          0  MISS:          0  HIT %:       -nan  MISS %:       -nan   MPKI: 0
STLB TOTAL     ACCESS:   14163182  HIT:    6807670  MISS:    7355512  HIT %:     48.066  MISS %:     51.934   MPKI: 36.1698
STLB LOAD      ACCESS:          0  HIT:          0  MISS:          0  HIT %:       -nan  MISS %:       -nan   MPKI: 0
STLB RFO       ACCESS:          0  HIT:          0  MISS:          0  HIT %:       -nan  MISS %:       -nan   MPKI: 0
STLB PREFETCH  ACCESS:          0  HIT:          0  MISS:          0  HIT %:       -nan  MISS %:       -nan   MPKI: 0
STLB WRITEBACK ACCESS:          0  HIT:          0  MISS:          0  HIT %:       -nan  MISS %:       -nan   MPKI: 0
L1D TOTAL     ACCESS:   22241614  HIT:   19221455  MISS:    3020159  HIT %:    86.4211  MISS %:    13.5789   MPKI: 14.8512
L1D LOAD      ACCESS:   14478559  HIT:   13170377  MISS:    1308182  HIT %:    90.9647  MISS %:    9.03531   MPKI: 6.43281
L1D RFO       ACCESS:    3096327  HIT:    2979939  MISS:     116388  HIT %:    96.2411  MISS %:    3.75891   MPKI: 0.572323
L1D PREFETCH  ACCESS:    4666728  HIT:    3071139  MISS:    1595589  HIT %:    65.8093  MISS %:    34.1907   MPKI: 7.8461
L1D WRITEBACK ACCESS:          0  HIT:          0  MISS:          0  HIT %:       -nan  MISS %:       -nan   MPKI: 0
L1I TOTAL     ACCESS:   38878209  HIT:   38862485  MISS:      15724  HIT %:    99.9596  MISS %:  0.0404442   MPKI: 0.0773207
L1I LOAD      ACCESS:   38878209  HIT:   38862485  MISS:      15724  HIT %:    99.9596  MISS %:  0.0404442   MPKI: 0.0773207
L1I RFO       ACCESS:          0  HIT:          0  MISS:          0  HIT %:       -nan  MISS %:       -nan   MPKI: 0
L1I PREFETCH  ACCESS:          0  HIT:          0  MISS:          0  HIT %:       -nan  MISS %:       -nan   MPKI: 0
L1I WRITEBACK ACCESS:          0  HIT:          0  MISS:          0  HIT %:       -nan  MISS %:       -nan   MPKI: 0
L2C TOTAL     ACCESS:   11124285  HIT:    8745400  MISS:    2378885  HIT %:    78.6154  MISS %:    21.3846   MPKI: 11.6979
L2C LOAD      ACCESS:    1271347  HIT:     326526  MISS:     944821  HIT %:    25.6835  MISS %:    74.3165   MPKI: 4.64603
L2C RFO       ACCESS:     116278  HIT:      78860  MISS:      37418  HIT %:    67.8202  MISS %:    32.1798   MPKI: 0.183998
L2C PREFETCH  ACCESS:    1648131  HIT:     447693  MISS:    1200438  HIT %:    27.1637  MISS %:    72.8363   MPKI: 5.90299
L2C WRITEBACK ACCESS:     193454  HIT:     189000  MISS:       4454  HIT %:    97.6976  MISS %:    2.30236   MPKI: 0.021902
PSCL5 TOTAL     ACCESS:    7355513  HIT:    7355513  MISS:          0  HIT %:        100  MISS %:          0   MPKI: 0
PSCL5 LOAD      ACCESS:          0  HIT:          0  MISS:          0  HIT %:       -nan  MISS %:       -nan   MPKI: 0
PSCL5 RFO       ACCESS:          0  HIT:          0  MISS:          0  HIT %:       -nan  MISS %:       -nan   MPKI: 0
PSCL5 PREFETCH  ACCESS:          0  HIT:          0  MISS:          0  HIT %:       -nan  MISS %:       -nan   MPKI: 0
PSCL5 WRITEBACK ACCESS:          0  HIT:          0  MISS:          0  HIT %:       -nan  MISS %:       -nan   MPKI: 0
PSCL4 TOTAL     ACCESS:    7355513  HIT:    7355513  MISS:          0  HIT %:        100  MISS %:          0   MPKI: 0
PSCL4 LOAD      ACCESS:          0  HIT:          0  MISS:          0  HIT %:       -nan  MISS %:       -nan   MPKI: 0
PSCL4 RFO       ACCESS:          0  HIT:          0  MISS:          0  HIT %:       -nan  MISS %:       -nan   MPKI: 0
PSCL4 PREFETCH  ACCESS:          0  HIT:          0  MISS:          0  HIT %:       -nan  MISS %:       -nan   MPKI: 0
PSCL4 WRITEBACK ACCESS:          0  HIT:          0  MISS:          0  HIT %:       -nan  MISS %:       -nan   MPKI: 0
PSCL3 TOTAL     ACCESS:    7355003  HIT:    7354893  MISS:        110  HIT %:    99.9985  MISS %: 0.00149558   MPKI: 0.00054091
PSCL3 LOAD      ACCESS:          0  HIT:          0  MISS:          0  HIT %:       -nan  MISS %:       -nan   MPKI: 0
PSCL3 RFO       ACCESS:          0  HIT:          0  MISS:          0  HIT %:       -nan  MISS %:       -nan   MPKI: 0
PSCL3 PREFETCH  ACCESS:          0  HIT:          0  MISS:          0  HIT %:       -nan  MISS %:       -nan   MPKI: 0
PSCL3 WRITEBACK ACCESS:          0  HIT:          0  MISS:          0  HIT %:       -nan  MISS %:       -nan   MPKI: 0
PSCL2 TOTAL     ACCESS:    7355513  HIT:    6816032  MISS:     539481  HIT %:    92.6656  MISS %:    7.33438   MPKI: 2.65283
PSCL2 LOAD      ACCESS:          0  HIT:          0  MISS:          0  HIT %:       -nan  MISS %:       -nan   MPKI: 0
PSCL2 RFO       ACCESS:          0  HIT:          0  MISS:          0  HIT %:       -nan  MISS %:       -nan   MPKI: 0
PSCL2 PREFETCH  ACCESS:          0  HIT:          0  MISS:          0  HIT %:       -nan  MISS %:       -nan   MPKI: 0
PSCL2 WRITEBACK ACCESS:          0  HIT:          0  MISS:          0  HIT %:       -nan  MISS %:       -nan   MPKI: 0

stream: 
stream:times selected: 6591097
stream:pref_filled: 1341236
stream:pref_useful: 111227
stream:pref_late: 44438
stream:misses: 348693
stream:misses_by_poll: 0

CS: 
CS:times selected: 339415
CS:pref_filled: 281240
CS:pref_useful: 209858
CS:pref_late: 6760
CS:misses: 52635
CS:misses_by_poll: 834

CPLX: 
CPLX:times selected: 6166230
CPLX:pref_filled: 381845
CPLX:pref_useful: 25417
CPLX:pref_late: 3872
CPLX:misses: 1119168
CPLX:misses_by_poll: 682

NL_L1: 
NL:times selected: 96967
NL:pref_filled: 16862
NL:pref_useful: 2450
NL:pref_late: 1091
NL:misses: 13268
NL:misses_by_poll: 10

total selections: 13193709
total_filled: 1595589
total_useful: 267812
total_late: 57191
total_polluted: 1526
total_misses_after_warmup: 1402651
conflicts: 842342
Degree Incremented Times: 48051
Degree Decremented Times: 884590

L1 IP Table Write Accesses: 55361028
L1 IP Table Read Accesses: 54518686
L1 RST Write Accesses: 21378679
L1 RST Read Accesses: 42757358
L1 CSPT Write Accesses: 21378679
L1 CSPT Read Accesses: 41469335
L1 RR Filter Tag Write Accesses: 19425709
L1 RR Filter Tag Read Accesses: 760988157
L1 IP Table Tag Write Accesses: 60467332
L1 IP Table Tag Read Accesses: 60467332
L1 RST Tag Write Accesses: 0
L1 RST Tag Read Accesses: 214366418
L1 RR Filter Write Accesses: 0
L1 RR Filter Read Accesses: 26237342
test: 13938464
LLC TOTAL     ACCESS:    2437617  HIT:     881408  MISS:    1556209  HIT %:    36.1586  MISS %:    63.8414   MPKI: 7.65245
LLC LOAD      ACCESS:     944821  HIT:     280326  MISS:     664495  HIT %:    29.6697  MISS %:    70.3303   MPKI: 3.26757
LLC RFO       ACCESS:      37418  HIT:        824  MISS:      36594  HIT %:    2.20215  MISS %:    97.7979   MPKI: 0.179946
LLC PREFETCH  ACCESS:    1200437  HIT:     403707  MISS:     796730  HIT %:      33.63  MISS %:      66.37   MPKI: 3.91781
LLC WRITEBACK ACCESS:      63187  HIT:      58149  MISS:       5038  HIT %:    92.0268  MISS %:    7.97316   MPKI: 0.0247737

RAW hits: 475082
Loads Generated: 23546668
Loads sent to L1D: 23071586
Stores Generated: 3415269
Stores sent to L1D: 3415269

CPU 2 cumulative IPC: 0.709677 instructions: 209621541 cycles: 295376076
ITLB TOTAL     ACCESS:   30246306  HIT:   28947004  MISS:    1299302  HIT %:    95.7043  MISS %:    4.29574   MPKI: 6.19832
ITLB LOAD      ACCESS:          0  HIT:          0  MISS:          0  HIT %:       -nan  MISS %:       -nan   MPKI: 0
ITLB RFO       ACCESS:          0  HIT:          0  MISS:          0  HIT %:       -nan  MISS %:       -nan   MPKI: 0
ITLB PREFETCH  ACCESS:          0  HIT:          0  MISS:          0  HIT %:       -nan  MISS %:       -nan   MPKI: 0
ITLB WRITEBACK ACCESS:          0  HIT:          0  MISS:          0  HIT %:       -nan  MISS %:       -nan   MPKI: 0
DTLB TOTAL     ACCESS:   15888275  HIT:    6923857  MISS:    8964418  HIT %:    43.5784  MISS %:    56.4216   MPKI: 42.7648
DTLB LOAD      ACCESS:          0  HIT:          0  MISS:          0  HIT %:       -nan  MISS %:       -nan   MPKI: 0
DTLB RFO       ACCESS:          0  HIT:          0  MISS:          0  HIT %:       -nan  MISS %:       -nan   MPKI: 0
DTLB PREFETCH  ACCESS:          0  HIT:          0  MISS:          0  HIT %:       -nan  MISS %:       -nan   MPKI: 0
DTLB WRITEBACK ACCESS:          0  HIT:          0  MISS:          0  HIT %:       -nan  MISS %:       -nan   MPKI: 0
STLB TOTAL     ACCESS:   14183695  HIT:    6563876  MISS:    7619819  HIT %:    46.2776  MISS %:    53.7224   MPKI: 36.3504
STLB LOAD      ACCESS:          0  HIT:          0  MISS:          0  HIT %:       -nan  MISS %:       -nan   MPKI: 0
STLB RFO       ACCESS:          0  HIT:          0  MISS:          0  HIT %:       -nan  MISS %:       -nan   MPKI: 0
STLB PREFETCH  ACCESS:          0  HIT:          0  MISS:          0  HIT %:       -nan  MISS %:       -nan   MPKI: 0
STLB WRITEBACK ACCESS:          0  HIT:          0  MISS:          0  HIT %:       -nan  MISS %:       -nan   MPKI: 0
L1D TOTAL     ACCESS:   22043982  HIT:   18970342  MISS:    3073640  HIT %:    86.0568  MISS %:    13.9432   MPKI: 14.6628
L1D LOAD      ACCESS:   14606029  HIT:   13257033  MISS:    1348996  HIT %:    90.7641  MISS %:    9.23588   MPKI: 6.43539
L1D RFO       ACCESS:    2756320  HIT:    2614615  MISS:     141705  HIT %:    94.8589  MISS %:    5.14109   MPKI: 0.676004
L1D PREFETCH  ACCESS:    4681633  HIT:    3098694  MISS:    1582939  HIT %:    66.1883  MISS %:    33.8117   MPKI: 7.55141
L1D WRITEBACK ACCESS:          0  HIT:          0  MISS:          0  HIT %:       -nan  MISS %:       -nan   MPKI: 0
L1I TOTAL     ACCESS:   39953105  HIT:   39947693  MISS:       5412  HIT %:    99.9865  MISS %:  0.0135459   MPKI: 0.025818
L1I LOAD      ACCESS:   39953105  HIT:   39947693  MISS:       5412  HIT %:    99.9865  MISS %:  0.0135459   MPKI: 0.025818
L1I RFO       ACCESS:          0  HIT:          0  MISS:          0  HIT %:       -nan  MISS %:       -nan   MPKI: 0
L1I PREFETCH  ACCESS:          0  HIT:          0  MISS:          0  HIT %:       -nan  MISS %:       -nan   MPKI: 0
L1I WRITEBACK ACCESS:          0  HIT:          0  MISS:          0  HIT %:       -nan  MISS %:       -nan   MPKI: 0
L2C TOTAL     ACCESS:   11491846  HIT:    9100942  MISS:    2390904  HIT %:    79.1948  MISS %:    20.8052   MPKI: 11.4058
L2C LOAD      ACCESS:    1312679  HIT:     339652  MISS:     973027  HIT %:    25.8747  MISS %:    74.1253   MPKI: 4.64183
L2C RFO       ACCESS:     141686  HIT:      95822  MISS:      45864  HIT %:    67.6298  MISS %:    32.3702   MPKI: 0.218794
L2C PREFETCH  ACCESS:    1624658  HIT:     465929  MISS:    1158729  HIT %:    28.6786  MISS %:    71.3214   MPKI: 5.52772
L2C WRITEBACK ACCESS:     172780  HIT:     168353  MISS:       4427  HIT %:    97.4378  MISS %:    2.56222   MPKI: 0.021119
PSCL5 TOTAL     ACCESS:    7619819  HIT:    7619819  MISS:          0  HIT %:        100  MISS %:          0   MPKI: 0
PSCL5 LOAD      ACCESS:          0  HIT:          0  MISS:          0  HIT %:       -nan  MISS %:       -nan   MPKI: 0
PSCL5 RFO       ACCESS:          0  HIT:          0  MISS:          0  HIT %:       -nan  MISS %:       -nan   MPKI: 0
PSCL5 PREFETCH  ACCESS:          0  HIT:          0  MISS:          0  HIT %:       -nan  MISS %:       -nan   MPKI: 0
PSCL5 WRITEBACK ACCESS:          0  HIT:          0  MISS:          0  HIT %:       -nan  MISS %:       -nan   MPKI: 0
PSCL4 TOTAL     ACCESS:    7619819  HIT:    7619819  MISS:          0  HIT %:        100  MISS %:          0   MPKI: 0
PSCL4 LOAD      ACCESS:          0  HIT:          0  MISS:          0  HIT %:       -nan  MISS %:       -nan   MPKI: 0
PSCL4 RFO       ACCESS:          0  HIT:          0  MISS:          0  HIT %:       -nan  MISS %:       -nan   MPKI: 0
PSCL4 PREFETCH  ACCESS:          0  HIT:          0  MISS:          0  HIT %:       -nan  MISS %:       -nan   MPKI: 0
PSCL4 WRITEBACK ACCESS:          0  HIT:          0  MISS:          0  HIT %:       -nan  MISS %:       -nan   MPKI: 0
PSCL3 TOTAL     ACCESS:    7614378  HIT:    7614314  MISS:         64  HIT %:    99.9992  MISS %: 0.000840515   MPKI: 0.000305312
PSCL3 LOAD      ACCESS:          0  HIT:          0  MISS:          0  HIT %:       -nan  MISS %:       -nan   MPKI: 0
PSCL3 RFO       ACCESS:          0  HIT:          0  MISS:          0  HIT %:       -nan  MISS %:       -nan   MPKI: 0
PSCL3 PREFETCH  ACCESS:          0  HIT:          0  MISS:          0  HIT %:       -nan  MISS %:       -nan   MPKI: 0
PSCL3 WRITEBACK ACCESS:          0  HIT:          0  MISS:          0  HIT %:       -nan  MISS %:       -nan   MPKI: 0
PSCL2 TOTAL     ACCESS:    7619819  HIT:    6999645  MISS:     620174  HIT %:     91.861  MISS %:    8.13896   MPKI: 2.95854
PSCL2 LOAD      ACCESS:          0  HIT:          0  MISS:          0  HIT %:       -nan  MISS %:       -nan   MPKI: 0
PSCL2 RFO       ACCESS:          0  HIT:          0  MISS:          0  HIT %:       -nan  MISS %:       -nan   MPKI: 0
PSCL2 PREFETCH  ACCESS:          0  HIT:          0  MISS:          0  HIT %:       -nan  MISS %:       -nan   MPKI: 0
PSCL2 WRITEBACK ACCESS:          0  HIT:          0  MISS:          0  HIT %:       -nan  MISS %:       -nan   MPKI: 0

stream: 
stream:times selected: 6592567
stream:pref_filled: 1362862
stream:pref_useful: 100510
stream:pref_late: 40800
stream:misses: 327240
stream:misses_by_poll: 0

CS: 
CS:times selected: 218359
CS:pref_filled: 220585
CS:pref_useful: 165490
CS:pref_late: 3120
CS:misses: 36184
CS:misses_by_poll: 1277

CPLX: 
CPLX:times selected: 6335717
CPLX:pref_filled: 383417
CPLX:pref_useful: 15325
CPLX:pref_late: 1293
CPLX:misses: 1104487
CPLX:misses_by_poll: 772

NL_L1: 
NL:times selected: 56683
NL:pref_filled: 18669
NL:pref_useful: 1998
NL:pref_late: 872
NL:misses: 13981
NL:misses_by_poll: 2

total selections: 13203326
total_filled: 1582939
total_useful: 219227
total_late: 46874
total_polluted: 2051
total_misses_after_warmup: 1401109
conflicts: 842342
Degree Incremented Times: 48051
Degree Decremented Times: 884590

L1 IP Table Write Accesses: 55361028
L1 IP Table Read Accesses: 54518686
L1 RST Write Accesses: 21378679
L1 RST Read Accesses: 42757358
L1 CSPT Write Accesses: 21378679
L1 CSPT Read Accesses: 41469335
L1 RR Filter Tag Write Accesses: 19425709
L1 RR Filter Tag Read Accesses: 760988157
L1 IP Table Tag Write Accesses: 60467332
L1 IP Table Tag Read Accesses: 60467332
L1 RST Tag Write Accesses: 0
L1 RST Tag Read Accesses: 214366418
L1 RR Filter Write Accesses: 0
L1 RR Filter Read Accesses: 26237342
test: 13938464
LLC TOTAL     ACCESS:    2435572  HIT:    1019514  MISS:    1416058  HIT %:    41.8593  MISS %:    58.1407   MPKI: 6.75531
LLC LOAD      ACCESS:     973027  HIT:     334677  MISS:     638350  HIT %:    34.3954  MISS %:    65.6046   MPKI: 3.04525
LLC RFO       ACCESS:      45864  HIT:        543  MISS:      45321  HIT %:    1.18394  MISS %:    98.8161   MPKI: 0.216204
LLC PREFETCH  ACCESS:    1158729  HIT:     482954  MISS:     675775  HIT %:    41.6796  MISS %:    58.3204   MPKI: 3.22379
LLC WRITEBACK ACCESS:      49095  HIT:      45754  MISS:       3341  HIT %:    93.1948  MISS %:    6.80517   MPKI: 0.0159382

RAW hits: 396705
Loads Generated: 23442172
Loads sent to L1D: 23045467
Stores Generated: 3086912
Stores sent to L1D: 3086915

CPU 3 cumulative IPC: 0.677103 instructions: 200000000 cycles: 295376076
ITLB TOTAL     ACCESS:   28981819  HIT:   27815743  MISS:    1166076  HIT %:    95.9765  MISS %:    4.02347   MPKI: 5.83038
ITLB LOAD      ACCESS:          0  HIT:          0  MISS:          0  HIT %:       -nan  MISS %:       -nan   MPKI: 0
ITLB RFO       ACCESS:          0  HIT:          0  MISS:          0  HIT %:       -nan  MISS %:       -nan   MPKI: 0
ITLB PREFETCH  ACCESS:          0  HIT:          0  MISS:          0  HIT %:       -nan  MISS %:       -nan   MPKI: 0
ITLB WRITEBACK ACCESS:          0  HIT:          0  MISS:          0  HIT %:       -nan  MISS %:       -nan   MPKI: 0
DTLB TOTAL     ACCESS:   16471430  HIT:    7572855  MISS:    8898575  HIT %:    45.9757  MISS %:    54.0243   MPKI: 44.4929
DTLB LOAD      ACCESS:          0  HIT:          0  MISS:          0  HIT %:       -nan  MISS %:       -nan   MPKI: 0
DTLB RFO       ACCESS:          0  HIT:          0  MISS:          0  HIT %:       -nan  MISS %:       -nan   MPKI: 0
DTLB PREFETCH  ACCESS:          0  HIT:          0  MISS:          0  HIT %:       -nan  MISS %:       -nan   MPKI: 0
DTLB WRITEBACK ACCESS:          0  HIT:          0  MISS:          0  HIT %:       -nan  MISS %:       -nan   MPKI: 0
STLB TOTAL     ACCESS:   13595601  HIT:    6934661  MISS:    6660940  HIT %:    51.0067  MISS %:    48.9933   MPKI: 33.3047
STLB LOAD      ACCESS:          0  HIT:          0  MISS:          0  HIT %:       -nan  MISS %:       -nan   MPKI: 0
STLB RFO       ACCESS:          0  HIT:          0  MISS:          0  HIT %:       -nan  MISS %:       -nan   MPKI: 0
STLB PREFETCH  ACCESS:          0  HIT:          0  MISS:          0  HIT %:       -nan  MISS %:       -nan   MPKI: 0
STLB WRITEBACK ACCESS:          0  HIT:          0  MISS:          0  HIT %:       -nan  MISS %:       -nan   MPKI: 0
L1D TOTAL     ACCESS:   22546091  HIT:   19646753  MISS:    2899338  HIT %:    87.1404  MISS %:    12.8596   MPKI: 14.4967
L1D LOAD      ACCESS:   14774705  HIT:   13467063  MISS:    1307642  HIT %:    91.1495  MISS %:    8.85055   MPKI: 6.53821
L1D RFO       ACCESS:    3501772  HIT:    3370970  MISS:     130802  HIT %:    96.2647  MISS %:    3.73531   MPKI: 0.65401
L1D PREFETCH  ACCESS:    4269614  HIT:    2808720  MISS:    1460894  HIT %:    65.7839  MISS %:    34.2161   MPKI: 7.30447
L1D WRITEBACK ACCESS:          0  HIT:          0  MISS:          0  HIT %:       -nan  MISS %:       -nan   MPKI: 0
L1I TOTAL     ACCESS:   38262044  HIT:   38247339  MISS:      14705  HIT %:    99.9616  MISS %:  0.0384323   MPKI: 0.073525
L1I LOAD      ACCESS:   38262044  HIT:   38247339  MISS:      14705  HIT %:    99.9616  MISS %:  0.0384323   MPKI: 0.073525
L1I RFO       ACCESS:          0  HIT:          0  MISS:          0  HIT %:       -nan  MISS %:       -nan   MPKI: 0
L1I PREFETCH  ACCESS:          0  HIT:          0  MISS:          0  HIT %:       -nan  MISS %:       -nan   MPKI: 0
L1I WRITEBACK ACCESS:          0  HIT:          0  MISS:          0  HIT %:       -nan  MISS %:       -nan   MPKI: 0
L2C TOTAL     ACCESS:   10279207  HIT:    8002362  MISS:    2276845  HIT %:      77.85  MISS %:      22.15   MPKI: 11.3842
L2C LOAD      ACCESS:    1259615  HIT:     327916  MISS:     931699  HIT %:     26.033  MISS %:     73.967   MPKI: 4.6585
L2C RFO       ACCESS:     130674  HIT:      89650  MISS:      41024  HIT %:    68.6058  MISS %:    31.3942   MPKI: 0.20512
L2C PREFETCH  ACCESS:    1523636  HIT:     415861  MISS:    1107775  HIT %:     27.294  MISS %:     72.706   MPKI: 5.53887
L2C WRITEBACK ACCESS:     226754  HIT:     219667  MISS:       7087  HIT %:    96.8746  MISS %:    3.12541   MPKI: 0.035435
PSCL5 TOTAL     ACCESS:    6660941  HIT:    6660941  MISS:          0  HIT %:        100  MISS %:          0   MPKI: 0
PSCL5 LOAD      ACCESS:          0  HIT:          0  MISS:          0  HIT %:       -nan  MISS %:       -nan   MPKI: 0
PSCL5 RFO       ACCESS:          0  HIT:          0  MISS:          0  HIT %:       -nan  MISS %:       -nan   MPKI: 0
PSCL5 PREFETCH  ACCESS:          0  HIT:          0  MISS:          0  HIT %:       -nan  MISS %:       -nan   MPKI: 0
PSCL5 WRITEBACK ACCESS:          0  HIT:          0  MISS:          0  HIT %:       -nan  MISS %:       -nan   MPKI: 0
PSCL4 TOTAL     ACCESS:    6660941  HIT:    6660941  MISS:          0  HIT %:        100  MISS %:          0   MPKI: 0
PSCL4 LOAD      ACCESS:          0  HIT:          0  MISS:          0  HIT %:       -nan  MISS %:       -nan   MPKI: 0
PSCL4 RFO       ACCESS:          0  HIT:          0  MISS:          0  HIT %:       -nan  MISS %:       -nan   MPKI: 0
PSCL4 PREFETCH  ACCESS:          0  HIT:          0  MISS:          0  HIT %:       -nan  MISS %:       -nan   MPKI: 0
PSCL4 WRITEBACK ACCESS:          0  HIT:          0  MISS:          0  HIT %:       -nan  MISS %:       -nan   MPKI: 0
PSCL3 TOTAL     ACCESS:    6658784  HIT:    6658657  MISS:        127  HIT %:    99.9981  MISS %: 0.00190726   MPKI: 0.000635
PSCL3 LOAD      ACCESS:          0  HIT:          0  MISS:          0  HIT %:       -nan  MISS %:       -nan   MPKI: 0
PSCL3 RFO       ACCESS:          0  HIT:          0  MISS:          0  HIT %:       -nan  MISS %:       -nan   MPKI: 0
PSCL3 PREFETCH  ACCESS:          0  HIT:          0  MISS:          0  HIT %:       -nan  MISS %:       -nan   MPKI: 0
PSCL3 WRITEBACK ACCESS:          0  HIT:          0  MISS:          0  HIT %:       -nan  MISS %:       -nan   MPKI: 0
PSCL2 TOTAL     ACCESS:    6660941  HIT:    6183480  MISS:     477461  HIT %:    92.8319  MISS %:    7.16807   MPKI: 2.38731
PSCL2 LOAD      ACCESS:          0  HIT:          0  MISS:          0  HIT %:       -nan  MISS %:       -nan   MPKI: 0
PSCL2 RFO       ACCESS:          0  HIT:          0  MISS:          0  HIT %:       -nan  MISS %:       -nan   MPKI: 0
PSCL2 PREFETCH  ACCESS:          0  HIT:          0  MISS:          0  HIT %:       -nan  MISS %:       -nan   MPKI: 0
PSCL2 WRITEBACK ACCESS:          0  HIT:          0  MISS:          0  HIT %:       -nan  MISS %:       -nan   MPKI: 0

stream: 
stream:times selected: 6322287
stream:pref_filled: 1196641
stream:pref_useful: 110684
stream:pref_late: 53060
stream:misses: 262008
stream:misses_by_poll: 0

CS: 
CS:times selected: 634680
CS:pref_filled: 362177
CS:pref_useful: 260748
CS:pref_late: 9711
CS:misses: 57192
CS:misses_by_poll: 1178

CPLX: 
CPLX:times selected: 5651662
CPLX:pref_filled: 278193
CPLX:pref_useful: 22103
CPLX:pref_late: 3314
CPLX:misses: 919944
CPLX:misses_by_poll: 345

NL_L1: 
NL:times selected: 100138
NL:pref_filled: 14838
NL:pref_useful: 2219
NL:pref_late: 710
NL:misses: 11515
NL:misses_by_poll: 1

total selections: 12708767
total_filled: 1460894
total_useful: 296016
total_late: 67851
total_polluted: 1524
total_misses_after_warmup: 1360210
conflicts: 842342
Degree Incremented Times: 48051
Degree Decremented Times: 884590

L1 IP Table Write Accesses: 55361028
L1 IP Table Read Accesses: 54518686
L1 RST Write Accesses: 21378679
L1 RST Read Accesses: 42757358
L1 CSPT Write Accesses: 21378679
L1 CSPT Read Accesses: 41469335
L1 RR Filter Tag Write Accesses: 19425709
L1 RR Filter Tag Read Accesses: 760988157
L1 IP Table Tag Write Accesses: 60467332
L1 IP Table Tag Read Accesses: 60467332
L1 RST Tag Write Accesses: 0
L1 RST Tag Read Accesses: 214366418
L1 RR Filter Write Accesses: 0
L1 RR Filter Read Accesses: 26237342
test: 13938464
LLC TOTAL     ACCESS:    2351573  HIT:     863147  MISS:    1488426  HIT %:    36.7051  MISS %:    63.2949   MPKI: 7.44213
LLC LOAD      ACCESS:     931699  HIT:     252473  MISS:     679226  HIT %:    27.0981  MISS %:    72.9019   MPKI: 3.39613
LLC RFO       ACCESS:      41024  HIT:       1202  MISS:      39822  HIT %:    2.92999  MISS %:      97.07   MPKI: 0.19911
LLC PREFETCH  ACCESS:    1107775  HIT:     400779  MISS:     706996  HIT %:    36.1787  MISS %:    63.8213   MPKI: 3.53498
LLC WRITEBACK ACCESS:      81815  HIT:      76181  MISS:       5634  HIT %:    93.1137  MISS %:    6.88627   MPKI: 0.02817

RAW hits: 533177
Loads Generated: 23956161
Loads sent to L1D: 23422984
Stores Generated: 3874816
Stores sent to L1D: 3874816

Region of Interest Statistics

CPU 0 cumulative IPC: 0.797886 instructions: 200000000 cycles: 250662316
ITLB TOTAL     ACCESS:   28465659  HIT:   27253364  MISS:    1212295  HIT %:    95.7412  MISS %:     4.2588   MPKI: 6.06147
ITLB LOAD TRANSLATION ACCESS:   28465659  HIT:   27253364  MISS:    1212295  HIT %:    95.7412  MISS %:     4.2588   MPKI: 6.06147
ITLB PREFETCH  REQUESTED:          0  ISSUED:          0  USEFUL:          0  USELESS:          0
ITLB USEFUL LOAD PREFETCHES:          0 PREFETCH ISSUED TO LOWER LEVEL:          0  ACCURACY: -nan
ITLB TIMELY PREFETCHES:          0 LATE PREFETCHES: 0 DROPPED PREFETCHES: 0
ITLB PREFETCHES SAME FILL-ORIGIN LEVEL: 0 DIFFERENT FILL-ORIGIN LEVEL: 0
ITLB AVERAGE MISS LATENCY: 41.6245 cycles
ITLB RQ	ACCESS:   44251887	FORWARD:          0	MERGED:   10192205	TO_CACHE:   34059682

DTLB TOTAL     ACCESS:   15345376  HIT:    7115135  MISS:    8230241  HIT %:    46.3666  MISS %:    53.6334   MPKI: 41.1512
DTLB LOAD TRANSLATION ACCESS:   15345376  HIT:    7115135  MISS:    8230241  HIT %:    46.3666  MISS %:    53.6334   MPKI: 41.1512
DTLB PREFETCH  REQUESTED:          0  ISSUED:          0  USEFUL:          0  USELESS:          0
DTLB USEFUL LOAD PREFETCHES:          0 PREFETCH ISSUED TO LOWER LEVEL:          0  ACCURACY: -nan
DTLB TIMELY PREFETCHES:          0 LATE PREFETCHES: 0 DROPPED PREFETCHES: 0
DTLB PREFETCHES SAME FILL-ORIGIN LEVEL: 0 DIFFERENT FILL-ORIGIN LEVEL: 0
DTLB AVERAGE MISS LATENCY: 30.7173 cycles
DTLB RQ	ACCESS:   20011504	FORWARD:          0	MERGED:    1351109	TO_CACHE:   18660395

STLB TOTAL     ACCESS:   13174765  HIT:    6235247  MISS:    6939518  HIT %:    47.3272  MISS %:    52.6728   MPKI: 34.6976
STLB LOAD TRANSLATION ACCESS:    9442536  HIT:    4269186  MISS:    5173350  HIT %:    45.2123  MISS %:    54.7877   MPKI: 25.8667
STLB TRANSLATION FROM L1D PREFETCHER ACCESS:    3732229  HIT:    1966061  MISS:    1766168  HIT %:    52.6779  MISS %:    47.3221   MPKI: 8.83084
STLB PREFETCH  REQUESTED:          0  ISSUED:          0  USEFUL:     612453  USELESS:    1467722
STLB USEFUL LOAD PREFETCHES:     612453 PREFETCH ISSUED TO LOWER LEVEL:          0  ACCURACY: inf
STLB TIMELY PREFETCHES:     612453 LATE PREFETCHES: 0 DROPPED PREFETCHES: 0
STLB PREFETCHES SAME FILL-ORIGIN LEVEL: 0 DIFFERENT FILL-ORIGIN LEVEL: 0
STLB AVERAGE MISS LATENCY: 38.0572 cycles
STLB RQ	ACCESS:   16499981	FORWARD:          0	MERGED:     986698	TO_CACHE:   15513283

STLB Hit, L1D data hit: 0
STLB Hit, L2C data hit: 0
STLB Hit, LLC data hit: 0
STLB Hit, LLC data miss: 0
STLB STLB hints to L2: 0
L1D TOTAL     ACCESS:   21354926  HIT:   18671793  MISS:    2683133  HIT %:    87.4355  MISS %:    12.5645   MPKI: 13.4157
L1D LOAD      ACCESS:   13848688  HIT:   12722988  MISS:    1125700  HIT %:    91.8714  MISS %:    8.12857   MPKI: 5.6285
L1D RFO       ACCESS:    2993866  HIT:    2873339  MISS:     120527  HIT %:    95.9742  MISS %:     4.0258   MPKI: 0.602635
L1D PREFETCH  ACCESS:    4512372  HIT:    3075466  MISS:    1436906  HIT %:    68.1563  MISS %:    31.8437   MPKI: 7.18453
L1D PREFETCH  REQUESTED:   10784620  ISSUED:   10784611  USEFUL:     254612  USELESS:    1437237
L1D USEFUL LOAD PREFETCHES:     254612 PREFETCH ISSUED TO LOWER LEVEL:    1733844  ACCURACY: 14.6848
L1D TIMELY PREFETCHES:     254612 LATE PREFETCHES: 42012 DROPPED PREFETCHES: 0
L1D PREFETCHES SAME FILL-ORIGIN LEVEL: 1733844 DIFFERENT FILL-ORIGIN LEVEL: 0
L1D AVERAGE MISS LATENCY: 127.759 cycles
L1D RQ	ACCESS:   25627553	FORWARD:          0	MERGED:    9377437	TO_CACHE:   16228139
L1D WQ	ACCESS:    3849085	FORWARD:      22125	MERGED:      65720	TO_CACHE:    3783365
L1D PQ	ACCESS:    5392380	FORWARD:          0	MERGED:          1	TO_CACHE:    5392231

L1D UNIQUE REGIONS ACCESSED: 0
L1D REGIONS CONFLICTS: 0
L1D Cross Page Prefetch Requests: 0
L1D Same Page Prefetch Requests: 6638153
L1D ROI Sum of L1D PQ occupancy: 141500435
L1D PREFETCHES PUSHED FROM L2C: 0
L1I TOTAL     ACCESS:   37763512  HIT:   37752852  MISS:      10660  HIT %:    99.9718  MISS %:  0.0282283   MPKI: 0.0533
L1I LOAD      ACCESS:   37763512  HIT:   37752852  MISS:      10660  HIT %:    99.9718  MISS %:  0.0282283   MPKI: 0.0533
L1I PREFETCH  REQUESTED:          0  ISSUED:          0  USEFUL:          0  USELESS:          0
L1I USEFUL LOAD PREFETCHES:          0 PREFETCH ISSUED TO LOWER LEVEL:          0  ACCURACY: -nan
L1I TIMELY PREFETCHES:          0 LATE PREFETCHES: 0 DROPPED PREFETCHES: 0
L1I PREFETCHES SAME FILL-ORIGIN LEVEL: 0 DIFFERENT FILL-ORIGIN LEVEL: 0
L1I AVERAGE MISS LATENCY: 130.658 cycles
L1I RQ	ACCESS:   68190889	FORWARD:          0	MERGED:   23939002	TO_CACHE:   44251887

BTB BRANCH_DIRECT_JUMP	ACCESS:          0  HIT:          0  MISS:          0
BTB BRANCH_INDIRECT	ACCESS:          0  HIT:          0  MISS:          0
BTB BRANCH_CONDITIONAL	ACCESS:          0  HIT:          0  MISS:          0
BTB BRANCH_DIRECT_CALL	ACCESS:          0  HIT:          0  MISS:          0
BTB BRANCH_INDIRECT_CALL	ACCESS:          0  HIT:          0  MISS:          0
BTB BRANCH_RETURN	ACCESS:          0  HIT:          0  MISS:          0
BTB BRANCH_OTHER ACCESS:          0  HIT:          0  MISS:          0

L2C TOTAL     ACCESS:   10293581  HIT:    8372988  MISS:    1920593  HIT %:    81.3418  MISS %:    18.6582   MPKI: 9.60296
L2C LOAD      ACCESS:    1100525  HIT:     364503  MISS:     736022  HIT %:    33.1208  MISS %:    66.8792   MPKI: 3.68011
L2C DATA LOAD MPKI: 3.65239
L2C INSTRUCTION LOAD MPKI: 0.027725
L2C RFO       ACCESS:     120421  HIT:      74576  MISS:      45845  HIT %:    61.9294  MISS %:    38.0706   MPKI: 0.229225
L2C PREFETCH  ACCESS:    1472759  HIT:     499588  MISS:     973171  HIT %:    33.9219  MISS %:    66.0781   MPKI: 4.86585
L2C DATA PREFETCH MPKI: 4.86585
L2C INSTRUCTION PREFETCH MPKI: 0
L2C WRITEBACK ACCESS:     169091  HIT:     164632  MISS:       4459  HIT %:     97.363  MISS %:    2.63704   MPKI: 0.022295
L2C LOAD TRANSLATION ACCESS:    5646440  HIT:    5485447  MISS:     160993  HIT %:    97.1488  MISS %:    2.85123   MPKI: 0.804965
L2C TRANSLATION FROM L1D PREFETCHER ACCESS:    1784345  HIT:    1784242  MISS:        103  HIT %:    99.9942  MISS %: 0.00577243   MPKI: 0.000515
L2C PREFETCH  REQUESTED:          0  ISSUED:          0  USEFUL:      73812  USELESS:    1085874
L2C USEFUL LOAD PREFETCHES:      73812 PREFETCH ISSUED TO LOWER LEVEL:    1159304  ACCURACY: 6.36692
L2C TIMELY PREFETCHES:      73812 LATE PREFETCHES: 0 DROPPED PREFETCHES: 0
L2C PREFETCHES SAME FILL-ORIGIN LEVEL: 0 DIFFERENT FILL-ORIGIN LEVEL: 0
L2C AVERAGE MISS LATENCY: 170.959 cycles
L2C RQ	ACCESS:   10174135	FORWARD:          0	MERGED:          0	TO_CACHE:   10174035
L2C WQ	ACCESS:     197002	FORWARD:        108	MERGED:          0	TO_CACHE:     197002
L2C PQ	ACCESS:    1733844	FORWARD:          0	MERGED:          0	TO_CACHE:    1733836

L2C Instructions Evicting Data 4945
L2C Translations Evicting Data 176265
L2C Data Evicting Data 1901608
L2C Instructions Evicting Instructions 360
L2C Translations Evicting Instructions 236
L2C Data Evicting Instructions 5031
L2C Instructions Evicting Translations 440
L2C Translations Evicting Translations 15370
L2C Data Evicting Translations 176076
L2C Dense regions hint from L2: 0
PSCL5 TOTAL     ACCESS:    6939519  HIT:    6939519  MISS:          0  HIT %:        100  MISS %:          0   MPKI: 0
PSCL5 LOAD TRANSLATION ACCESS:    5173351  HIT:    5173351  MISS:          0  HIT %:        100  MISS %:          0   MPKI: 0
PSCL5 TRANSLATION FROM L1D PREFETCHER ACCESS:    1766168  HIT:    1766168  MISS:          0  HIT %:        100  MISS %:          0   MPKI: 0
PSCL5 PREFETCH  REQUESTED:          0  ISSUED:          0  USEFUL:          0  USELESS:          0
PSCL5 USEFUL LOAD PREFETCHES:          0 PREFETCH ISSUED TO LOWER LEVEL:          0  ACCURACY: -nan
PSCL5 TIMELY PREFETCHES:          0 LATE PREFETCHES: 0 DROPPED PREFETCHES: 0
PSCL5 PREFETCHES SAME FILL-ORIGIN LEVEL: 0 DIFFERENT FILL-ORIGIN LEVEL: 0

PSCL4 TOTAL     ACCESS:    6939519  HIT:    6939519  MISS:          0  HIT %:        100  MISS %:          0   MPKI: 0
PSCL4 LOAD TRANSLATION ACCESS:    5173351  HIT:    5173351  MISS:          0  HIT %:        100  MISS %:          0   MPKI: 0
PSCL4 TRANSLATION FROM L1D PREFETCHER ACCESS:    1766168  HIT:    1766168  MISS:          0  HIT %:        100  MISS %:          0   MPKI: 0
PSCL4 PREFETCH  REQUESTED:          0  ISSUED:          0  USEFUL:          0  USELESS:          0
PSCL4 USEFUL LOAD PREFETCHES:          0 PREFETCH ISSUED TO LOWER LEVEL:          0  ACCURACY: -nan
PSCL4 TIMELY PREFETCHES:          0 LATE PREFETCHES: 0 DROPPED PREFETCHES: 0
PSCL4 PREFETCHES SAME FILL-ORIGIN LEVEL: 0 DIFFERENT FILL-ORIGIN LEVEL: 0

PSCL3 TOTAL     ACCESS:    6939287  HIT:    6939187  MISS:        100  HIT %:    99.9986  MISS %: 0.00144107   MPKI: 0.0005
PSCL3 LOAD TRANSLATION ACCESS:    5173126  HIT:    5173026  MISS:        100  HIT %:    99.9981  MISS %: 0.00193307   MPKI: 0.0005
PSCL3 TRANSLATION FROM L1D PREFETCHER ACCESS:    1766161  HIT:    1766161  MISS:          0  HIT %:        100  MISS %:          0   MPKI: 0
PSCL3 PREFETCH  REQUESTED:          0  ISSUED:          0  USEFUL:          0  USELESS:          0
PSCL3 USEFUL LOAD PREFETCHES:          0 PREFETCH ISSUED TO LOWER LEVEL:          0  ACCURACY: -nan
PSCL3 TIMELY PREFETCHES:          0 LATE PREFETCHES: 0 DROPPED PREFETCHES: 0
PSCL3 PREFETCHES SAME FILL-ORIGIN LEVEL: 0 DIFFERENT FILL-ORIGIN LEVEL: 0

PSCL2 TOTAL     ACCESS:    6939519  HIT:    6448352  MISS:     491167  HIT %:    92.9222  MISS %:    7.07782   MPKI: 2.45583
PSCL2 LOAD TRANSLATION ACCESS:    5191528  HIT:    4700361  MISS:     491167  HIT %:    90.5391  MISS %:    9.46093   MPKI: 2.45583
PSCL2 TRANSLATION FROM L1D PREFETCHER ACCESS:    1747991  HIT:    1747991  MISS:          0  HIT %:        100  MISS %:          0   MPKI: 0
PSCL2 PREFETCH  REQUESTED:          0  ISSUED:          0  USEFUL:          0  USELESS:          0
PSCL2 USEFUL LOAD PREFETCHES:          0 PREFETCH ISSUED TO LOWER LEVEL:          0  ACCURACY: -nan
PSCL2 TIMELY PREFETCHES:          0 LATE PREFETCHES: 0 DROPPED PREFETCHES: 0
PSCL2 PREFETCHES SAME FILL-ORIGIN LEVEL: 0 DIFFERENT FILL-ORIGIN LEVEL: 0

LLC TOTAL     ACCESS:    1988590  HIT:     865599  MISS:    1122991  HIT %:    43.5283  MISS %:    56.4717   MPKI: 5.61496
LLC LOAD      ACCESS:     736022  HIT:     257707  MISS:     478315  HIT %:    35.0135  MISS %:    64.9865   MPKI: 2.39158
LLC RFO       ACCESS:      45845  HIT:        725  MISS:      45120  HIT %:    1.58142  MISS %:    98.4186   MPKI: 0.2256
LLC PREFETCH  ACCESS:     973171  HIT:     426948  MISS:     546223  HIT %:    43.8718  MISS %:    56.1282   MPKI: 2.73111
LLC WRITEBACK ACCESS:      72456  HIT:      66955  MISS:       5501  HIT %:    92.4078  MISS %:    7.59219   MPKI: 0.027505
LLC LOAD TRANSLATION ACCESS:     160993  HIT:     113240  MISS:      47753  HIT %:    70.3385  MISS %:    29.6615   MPKI: 0.238765
LLC TRANSLATION FROM L1D PREFETCHER ACCESS:        103  HIT:         24  MISS:         79  HIT %:     23.301  MISS %:     76.699   MPKI: 0.000395
LLC PREFETCH  REQUESTED:          0  ISSUED:          0  USEFUL:      42896  USELESS:    2789213
LLC USEFUL LOAD PREFETCHES:      42896 PREFETCH ISSUED TO LOWER LEVEL:    2830687  ACCURACY: 1.51539
LLC TIMELY PREFETCHES:      42896 LATE PREFETCHES: 0 DROPPED PREFETCHES: 0
LLC PREFETCHES SAME FILL-ORIGIN LEVEL: 0 DIFFERENT FILL-ORIGIN LEVEL: 0
LLC AVERAGE MISS LATENCY: 1002.22 cycles
LLC RQ	ACCESS:    4684759	FORWARD:          0	MERGED:          0	TO_CACHE:    4684759
LLC WQ	ACCESS:     273960	FORWARD:          1	MERGED:          0	TO_CACHE:     273960
LLC PQ	ACCESS:    4626248	FORWARD:          0	MERGED:          0	TO_CACHE:    4626247

LLC Dense regions hint to LLC: 0

RAW hits: 427614
Loads Generated: 22360532
Loads sent to L1D: 21932918
Stores Generated: 3360878
Stores sent to L1D: 3360879
Major fault: 0 Minor fault: 9199
Allocated PAGES: 47422

CPU 1 cumulative IPC: 0.68719 instructions: 200000002 cycles: 291040293
ITLB TOTAL     ACCESS:   28926824  HIT:   27600759  MISS:    1326065  HIT %:    95.4158  MISS %:    4.58421   MPKI: 6.63032
ITLB LOAD TRANSLATION ACCESS:   28926824  HIT:   27600759  MISS:    1326065  HIT %:    95.4158  MISS %:    4.58421   MPKI: 6.63032
ITLB PREFETCH  REQUESTED:          0  ISSUED:          0  USEFUL:          0  USELESS:          0
ITLB USEFUL LOAD PREFETCHES:          0 PREFETCH ISSUED TO LOWER LEVEL:          0  ACCURACY: -nan
ITLB TIMELY PREFETCHES:          0 LATE PREFETCHES: 0 DROPPED PREFETCHES: 0
ITLB PREFETCHES SAME FILL-ORIGIN LEVEL: 0 DIFFERENT FILL-ORIGIN LEVEL: 0
ITLB AVERAGE MISS LATENCY: 41.3595 cycles
ITLB RQ	ACCESS:   38883776	FORWARD:          0	MERGED:    8946301	TO_CACHE:   29937475

DTLB TOTAL     ACCESS:   15670901  HIT:    6837281  MISS:    8833620  HIT %:    43.6304  MISS %:    56.3696   MPKI: 44.1681
DTLB LOAD TRANSLATION ACCESS:   15670901  HIT:    6837281  MISS:    8833620  HIT %:    43.6304  MISS %:    56.3696   MPKI: 44.1681
DTLB PREFETCH  REQUESTED:          0  ISSUED:          0  USEFUL:          0  USELESS:          0
DTLB USEFUL LOAD PREFETCHES:          0 PREFETCH ISSUED TO LOWER LEVEL:          0  ACCURACY: -nan
DTLB TIMELY PREFETCHES:          0 LATE PREFETCHES: 0 DROPPED PREFETCHES: 0
DTLB PREFETCHES SAME FILL-ORIGIN LEVEL: 0 DIFFERENT FILL-ORIGIN LEVEL: 0
DTLB AVERAGE MISS LATENCY: 26.4349 cycles
DTLB RQ	ACCESS:   17913342	FORWARD:          0	MERGED:    1241925	TO_CACHE:   16671417

STLB TOTAL     ACCESS:   13914140  HIT:    6656886  MISS:    7257254  HIT %:    47.8426  MISS %:    52.1574   MPKI: 36.2863
STLB LOAD TRANSLATION ACCESS:   10159684  HIT:    4573422  MISS:    5586262  HIT %:    45.0154  MISS %:    54.9846   MPKI: 27.9313
STLB TRANSLATION FROM L1D PREFETCHER ACCESS:    3754456  HIT:    2083464  MISS:    1670992  HIT %:    55.4931  MISS %:    44.5069   MPKI: 8.35496
STLB PREFETCH  REQUESTED:          0  ISSUED:          0  USEFUL:     580828  USELESS:    1113570
STLB USEFUL LOAD PREFETCHES:     580828 PREFETCH ISSUED TO LOWER LEVEL:          0  ACCURACY: inf
STLB TIMELY PREFETCHES:     580828 LATE PREFETCHES: 0 DROPPED PREFETCHES: 0
STLB PREFETCHES SAME FILL-ORIGIN LEVEL: 0 DIFFERENT FILL-ORIGIN LEVEL: 0
STLB AVERAGE MISS LATENCY: 33.5235 cycles
STLB RQ	ACCESS:   15128690	FORWARD:          0	MERGED:     932881	TO_CACHE:   14195809

STLB Hit, L1D data hit: 0
STLB Hit, L2C data hit: 0
STLB Hit, LLC data hit: 0
STLB Hit, LLC data miss: 0
STLB STLB hints to L2: 0
L1D TOTAL     ACCESS:   21844115  HIT:   18878247  MISS:    2965868  HIT %:    86.4226  MISS %:    13.5774   MPKI: 14.8293
L1D LOAD      ACCESS:   14209760  HIT:   12923151  MISS:    1286609  HIT %:    90.9456  MISS %:     9.0544   MPKI: 6.43304
L1D RFO       ACCESS:    3044584  HIT:    2932089  MISS:     112495  HIT %:    96.3051  MISS %:    3.69492   MPKI: 0.562475
L1D PREFETCH  ACCESS:    4589771  HIT:    3023007  MISS:    1566764  HIT %:     65.864  MISS %:     34.136   MPKI: 7.83382
L1D PREFETCH  REQUESTED:    9564482  ISSUED:    9564479  USEFUL:     267812  USELESS:    1327766
L1D USEFUL LOAD PREFETCHES:     267812 PREFETCH ISSUED TO LOWER LEVEL:    1648149  ACCURACY: 16.2493
L1D TIMELY PREFETCHES:     267812 LATE PREFETCHES: 52544 DROPPED PREFETCHES: 0
L1D PREFETCHES SAME FILL-ORIGIN LEVEL: 1648149 DIFFERENT FILL-ORIGIN LEVEL: 0
L1D AVERAGE MISS LATENCY: 128.431 cycles
L1D RQ	ACCESS:   23071586	FORWARD:          0	MERGED:    8485217	TO_CACHE:   14568561
L1D WQ	ACCESS:    3415269	FORWARD:      18093	MERGED:      70488	TO_CACHE:    3344781
L1D PQ	ACCESS:    4782382	FORWARD:          0	MERGED:          0	TO_CACHE:    4782097

L1D UNIQUE REGIONS ACCESSED: 0
L1D REGIONS CONFLICTS: 0
L1D Cross Page Prefetch Requests: 0
L1D Same Page Prefetch Requests: 6033982
L1D ROI Sum of L1D PQ occupancy: 119217005
L1D PREFETCHES PUSHED FROM L2C: 0
L1I TOTAL     ACCESS:   38240573  HIT:   38224849  MISS:      15724  HIT %:    99.9589  MISS %:  0.0411186   MPKI: 0.07862
L1I LOAD      ACCESS:   38240573  HIT:   38224849  MISS:      15724  HIT %:    99.9589  MISS %:  0.0411186   MPKI: 0.07862
L1I PREFETCH  REQUESTED:          0  ISSUED:          0  USEFUL:          0  USELESS:          0
L1I USEFUL LOAD PREFETCHES:          0 PREFETCH ISSUED TO LOWER LEVEL:          0  ACCURACY: -nan
L1I TIMELY PREFETCHES:          0 LATE PREFETCHES: 0 DROPPED PREFETCHES: 0
L1I PREFETCHES SAME FILL-ORIGIN LEVEL: 0 DIFFERENT FILL-ORIGIN LEVEL: 0
L1I AVERAGE MISS LATENCY: 160.84 cycles
L1I RQ	ACCESS:   60447627	FORWARD:          0	MERGED:   21563851	TO_CACHE:   38883776

BTB BRANCH_DIRECT_JUMP	ACCESS:          0  HIT:          0  MISS:          0
BTB BRANCH_INDIRECT	ACCESS:          0  HIT:          0  MISS:          0
BTB BRANCH_CONDITIONAL	ACCESS:          0  HIT:          0  MISS:          0
BTB BRANCH_DIRECT_CALL	ACCESS:          0  HIT:          0  MISS:          0
BTB BRANCH_INDIRECT_CALL	ACCESS:          0  HIT:          0  MISS:          0
BTB BRANCH_RETURN	ACCESS:          0  HIT:          0  MISS:          0
BTB BRANCH_OTHER ACCESS:          0  HIT:          0  MISS:          0

L2C TOTAL     ACCESS:   10959851  HIT:    8618225  MISS:    2341626  HIT %:    78.6345  MISS %:    21.3655   MPKI: 11.7081
L2C LOAD      ACCESS:    1250763  HIT:     319011  MISS:     931752  HIT %:    25.5053  MISS %:    74.4947   MPKI: 4.65876
L2C DATA LOAD MPKI: 4.60602
L2C INSTRUCTION LOAD MPKI: 0.052735
L2C RFO       ACCESS:     112390  HIT:      76083  MISS:      36307  HIT %:    67.6955  MISS %:    32.3045   MPKI: 0.181535
L2C PREFETCH  ACCESS:    1618317  HIT:     438570  MISS:    1179747  HIT %:    27.1004  MISS %:    72.8996   MPKI: 5.89873
L2C DATA PREFETCH MPKI: 5.89873
L2C INSTRUCTION PREFETCH MPKI: 0
L2C WRITEBACK ACCESS:     187743  HIT:     183417  MISS:       4326  HIT %:    97.6958  MISS %:    2.30421   MPKI: 0.02163
L2C LOAD TRANSLATION ACCESS:    6106230  HIT:    5916864  MISS:     189366  HIT %:    96.8988  MISS %:    3.10119   MPKI: 0.94683
L2C TRANSLATION FROM L1D PREFETCHER ACCESS:    1684408  HIT:    1684280  MISS:        128  HIT %:    99.9924  MISS %: 0.00759911   MPKI: 0.00064
L2C PREFETCH  REQUESTED:          0  ISSUED:          0  USEFUL:      59947  USELESS:    1140264
L2C USEFUL LOAD PREFETCHES:      59947 PREFETCH ISSUED TO LOWER LEVEL:    1200439  ACCURACY: 4.99376
L2C TIMELY PREFETCHES:      59947 LATE PREFETCHES: 0 DROPPED PREFETCHES: 0
L2C PREFETCHES SAME FILL-ORIGIN LEVEL: 0 DIFFERENT FILL-ORIGIN LEVEL: 0
L2C AVERAGE MISS LATENCY: 158.45 cycles
L2C RQ	ACCESS:    9282810	FORWARD:          0	MERGED:          0	TO_CACHE:    9282700
L2C WQ	ACCESS:     193454	FORWARD:        127	MERGED:          0	TO_CACHE:     193454
L2C PQ	ACCESS:    1648149	FORWARD:          0	MERGED:          0	TO_CACHE:    1648132

L2C Instructions Evicting Data 9088
L2C Translations Evicting Data 176329
L2C Data Evicting Data 1986868
L2C Instructions Evicting Instructions 458
L2C Translations Evicting Instructions 583
L2C Data Evicting Instructions 9366
L2C Instructions Evicting Translations 1001
L2C Translations Evicting Translations 14842
L2C Data Evicting Translations 175895
L2C Dense regions hint from L2: 0
PSCL5 TOTAL     ACCESS:    7257254  HIT:    7257254  MISS:          0  HIT %:        100  MISS %:          0   MPKI: 0
PSCL5 LOAD TRANSLATION ACCESS:    5586262  HIT:    5586262  MISS:          0  HIT %:        100  MISS %:          0   MPKI: 0
PSCL5 TRANSLATION FROM L1D PREFETCHER ACCESS:    1670992  HIT:    1670992  MISS:          0  HIT %:        100  MISS %:          0   MPKI: 0
PSCL5 PREFETCH  REQUESTED:          0  ISSUED:          0  USEFUL:          0  USELESS:          0
PSCL5 USEFUL LOAD PREFETCHES:          0 PREFETCH ISSUED TO LOWER LEVEL:          0  ACCURACY: -nan
PSCL5 TIMELY PREFETCHES:          0 LATE PREFETCHES: 0 DROPPED PREFETCHES: 0
PSCL5 PREFETCHES SAME FILL-ORIGIN LEVEL: 0 DIFFERENT FILL-ORIGIN LEVEL: 0

PSCL4 TOTAL     ACCESS:    7257254  HIT:    7257254  MISS:          0  HIT %:        100  MISS %:          0   MPKI: 0
PSCL4 LOAD TRANSLATION ACCESS:    5586262  HIT:    5586262  MISS:          0  HIT %:        100  MISS %:          0   MPKI: 0
PSCL4 TRANSLATION FROM L1D PREFETCHER ACCESS:    1670992  HIT:    1670992  MISS:          0  HIT %:        100  MISS %:          0   MPKI: 0
PSCL4 PREFETCH  REQUESTED:          0  ISSUED:          0  USEFUL:          0  USELESS:          0
PSCL4 USEFUL LOAD PREFETCHES:          0 PREFETCH ISSUED TO LOWER LEVEL:          0  ACCURACY: -nan
PSCL4 TIMELY PREFETCHES:          0 LATE PREFETCHES: 0 DROPPED PREFETCHES: 0
PSCL4 PREFETCHES SAME FILL-ORIGIN LEVEL: 0 DIFFERENT FILL-ORIGIN LEVEL: 0

PSCL3 TOTAL     ACCESS:    7256744  HIT:    7256634  MISS:        110  HIT %:    99.9985  MISS %: 0.00151583   MPKI: 0.00055
PSCL3 LOAD TRANSLATION ACCESS:    5585937  HIT:    5585827  MISS:        110  HIT %:     99.998  MISS %: 0.00196923   MPKI: 0.00055
PSCL3 TRANSLATION FROM L1D PREFETCHER ACCESS:    1670807  HIT:    1670807  MISS:          0  HIT %:        100  MISS %:          0   MPKI: 0
PSCL3 PREFETCH  REQUESTED:          0  ISSUED:          0  USEFUL:          0  USELESS:          0
PSCL3 USEFUL LOAD PREFETCHES:          0 PREFETCH ISSUED TO LOWER LEVEL:          0  ACCURACY: -nan
PSCL3 TIMELY PREFETCHES:          0 LATE PREFETCHES: 0 DROPPED PREFETCHES: 0
PSCL3 PREFETCHES SAME FILL-ORIGIN LEVEL: 0 DIFFERENT FILL-ORIGIN LEVEL: 0

PSCL2 TOTAL     ACCESS:    7257254  HIT:    6723951  MISS:     533303  HIT %:    92.6514  MISS %:    7.34855   MPKI: 2.66651
PSCL2 LOAD TRANSLATION ACCESS:    5599665  HIT:    5066362  MISS:     533303  HIT %:    90.4762  MISS %:    9.52384   MPKI: 2.66651
PSCL2 TRANSLATION FROM L1D PREFETCHER ACCESS:    1657589  HIT:    1657589  MISS:          0  HIT %:        100  MISS %:          0   MPKI: 0
PSCL2 PREFETCH  REQUESTED:          0  ISSUED:          0  USEFUL:          0  USELESS:          0
PSCL2 USEFUL LOAD PREFETCHES:          0 PREFETCH ISSUED TO LOWER LEVEL:          0  ACCURACY: -nan
PSCL2 TIMELY PREFETCHES:          0 LATE PREFETCHES: 0 DROPPED PREFETCHES: 0
PSCL2 PREFETCHES SAME FILL-ORIGIN LEVEL: 0 DIFFERENT FILL-ORIGIN LEVEL: 0

LLC TOTAL     ACCESS:    2399603  HIT:     866321  MISS:    1533282  HIT %:    36.1027  MISS %:    63.8973   MPKI: 7.66641
LLC LOAD      ACCESS:     931752  HIT:     275659  MISS:     656093  HIT %:     29.585  MISS %:     70.415   MPKI: 3.28046
LLC RFO       ACCESS:      36307  HIT:        801  MISS:      35506  HIT %:    2.20619  MISS %:    97.7938   MPKI: 0.17753
LLC PREFETCH  ACCESS:    1179746  HIT:     395861  MISS:     783885  HIT %:    33.5548  MISS %:    66.4452   MPKI: 3.91942
LLC WRITEBACK ACCESS:      62304  HIT:      57302  MISS:       5002  HIT %:    91.9716  MISS %:    8.02838   MPKI: 0.02501
LLC LOAD TRANSLATION ACCESS:     189366  HIT:     136693  MISS:      52673  HIT %:    72.1846  MISS %:    27.8154   MPKI: 0.263365
LLC TRANSLATION FROM L1D PREFETCHER ACCESS:        128  HIT:          5  MISS:        123  HIT %:    3.90625  MISS %:    96.0938   MPKI: 0.000615
LLC PREFETCH  REQUESTED:          0  ISSUED:          0  USEFUL:      42896  USELESS:    2789213
LLC USEFUL LOAD PREFETCHES:      42896 PREFETCH ISSUED TO LOWER LEVEL:    2830687  ACCURACY: 1.51539
LLC TIMELY PREFETCHES:      42896 LATE PREFETCHES: 0 DROPPED PREFETCHES: 0
LLC PREFETCHES SAME FILL-ORIGIN LEVEL: 0 DIFFERENT FILL-ORIGIN LEVEL: 0
LLC AVERAGE MISS LATENCY: 734.039 cycles
LLC RQ	ACCESS:    4684759	FORWARD:          0	MERGED:          0	TO_CACHE:    4684759
LLC WQ	ACCESS:     273960	FORWARD:          1	MERGED:          0	TO_CACHE:     273960
LLC PQ	ACCESS:    4626248	FORWARD:          0	MERGED:          0	TO_CACHE:    4626247

LLC Dense regions hint to LLC: 0

RAW hits: 471408
Loads Generated: 23135580
Loads sent to L1D: 22664172
Stores Generated: 3355656
Stores sent to L1D: 3355656
Major fault: 0 Minor fault: 12297
Allocated PAGES: 47422

CPU 2 cumulative IPC: 0.710044 instructions: 200000001 cycles: 281672523
ITLB TOTAL     ACCESS:   28860124  HIT:   27624894  MISS:    1235230  HIT %:    95.7199  MISS %:    4.28006   MPKI: 6.17615
ITLB LOAD TRANSLATION ACCESS:   28860124  HIT:   27624894  MISS:    1235230  HIT %:    95.7199  MISS %:    4.28006   MPKI: 6.17615
ITLB PREFETCH  REQUESTED:          0  ISSUED:          0  USEFUL:          0  USELESS:          0
ITLB USEFUL LOAD PREFETCHES:          0 PREFETCH ISSUED TO LOWER LEVEL:          0  ACCURACY: -nan
ITLB TIMELY PREFETCHES:          0 LATE PREFETCHES: 0 DROPPED PREFETCHES: 0
ITLB PREFETCHES SAME FILL-ORIGIN LEVEL: 0 DIFFERENT FILL-ORIGIN LEVEL: 0
ITLB AVERAGE MISS LATENCY: 44.6201 cycles
ITLB RQ	ACCESS:   39955107	FORWARD:          0	MERGED:    9163331	TO_CACHE:   30791776

DTLB TOTAL     ACCESS:   15186581  HIT:    6599980  MISS:    8586601  HIT %:    43.4593  MISS %:    56.5407   MPKI: 42.933
DTLB LOAD TRANSLATION ACCESS:   15186581  HIT:    6599980  MISS:    8586601  HIT %:    43.4593  MISS %:    56.5407   MPKI: 42.933
DTLB PREFETCH  REQUESTED:          0  ISSUED:          0  USEFUL:          0  USELESS:          0
DTLB USEFUL LOAD PREFETCHES:          0 PREFETCH ISSUED TO LOWER LEVEL:          0  ACCURACY: -nan
DTLB TIMELY PREFETCHES:          0 LATE PREFETCHES: 0 DROPPED PREFETCHES: 0
DTLB PREFETCHES SAME FILL-ORIGIN LEVEL: 0 DIFFERENT FILL-ORIGIN LEVEL: 0
DTLB AVERAGE MISS LATENCY: 27.5276 cycles
DTLB RQ	ACCESS:   17725079	FORWARD:          0	MERGED:    1239056	TO_CACHE:   16486023

STLB TOTAL     ACCESS:   13557202  HIT:    6296657  MISS:    7260545  HIT %:    46.4451  MISS %:    53.5549   MPKI: 36.3027
STLB LOAD TRANSLATION ACCESS:    9821831  HIT:    4364855  MISS:    5456976  HIT %:    44.4403  MISS %:    55.5597   MPKI: 27.2849
STLB TRANSLATION FROM L1D PREFETCHER ACCESS:    3735371  HIT:    1931802  MISS:    1803569  HIT %:    51.7165  MISS %:    48.2835   MPKI: 9.01784
STLB PREFETCH  REQUESTED:          0  ISSUED:          0  USEFUL:     593188  USELESS:    1303785
STLB USEFUL LOAD PREFETCHES:     593188 PREFETCH ISSUED TO LOWER LEVEL:          0  ACCURACY: inf
STLB TIMELY PREFETCHES:     593188 LATE PREFETCHES: 0 DROPPED PREFETCHES: 0
STLB PREFETCHES SAME FILL-ORIGIN LEVEL: 0 DIFFERENT FILL-ORIGIN LEVEL: 0
STLB AVERAGE MISS LATENCY: 34.9337 cycles
STLB RQ	ACCESS:   15044047	FORWARD:          0	MERGED:     837248	TO_CACHE:   14206799

STLB Hit, L1D data hit: 0
STLB Hit, L2C data hit: 0
STLB Hit, LLC data hit: 0
STLB Hit, LLC data miss: 0
STLB STLB hints to L2: 0
L1D TOTAL     ACCESS:   21039040  HIT:   18103864  MISS:    2935176  HIT %:    86.0489  MISS %:    13.9511   MPKI: 14.6759
L1D LOAD      ACCESS:   13946308  HIT:   12659711  MISS:    1286597  HIT %:    90.7746  MISS %:    9.22536   MPKI: 6.43298
L1D RFO       ACCESS:    2641798  HIT:    2504478  MISS:     137320  HIT %:     94.802  MISS %:    5.19798   MPKI: 0.6866
L1D PREFETCH  ACCESS:    4450934  HIT:    2939675  MISS:    1511259  HIT %:    66.0463  MISS %:    33.9537   MPKI: 7.55629
L1D PREFETCH  REQUESTED:    9560660  ISSUED:    9560657  USEFUL:     219227  USELESS:    1363720
L1D USEFUL LOAD PREFETCHES:     219227 PREFETCH ISSUED TO LOWER LEVEL:    1624666  ACCURACY: 13.4937
L1D TIMELY PREFETCHES:     219227 LATE PREFETCHES: 41716 DROPPED PREFETCHES: 0
L1D PREFETCHES SAME FILL-ORIGIN LEVEL: 1624666 DIFFERENT FILL-ORIGIN LEVEL: 0
L1D AVERAGE MISS LATENCY: 122.892 cycles
L1D RQ	ACCESS:   23045467	FORWARD:          0	MERGED:    8379873	TO_CACHE:   14653972
L1D WQ	ACCESS:    3086915	FORWARD:      11625	MERGED:      15808	TO_CACHE:    3071107
L1D PQ	ACCESS:    4780330	FORWARD:          0	MERGED:          0	TO_CACHE:    4780327

L1D UNIQUE REGIONS ACCESSED: 0
L1D REGIONS CONFLICTS: 0
L1D Cross Page Prefetch Requests: 0
L1D Same Page Prefetch Requests: 5983336
L1D ROI Sum of L1D PQ occupancy: 128508983
L1D PREFETCHES PUSHED FROM L2C: 0
L1I TOTAL     ACCESS:   38122937  HIT:   38117527  MISS:       5410  HIT %:    99.9858  MISS %:  0.0141909   MPKI: 0.02705
L1I LOAD      ACCESS:   38122937  HIT:   38117527  MISS:       5410  HIT %:    99.9858  MISS %:  0.0141909   MPKI: 0.02705
L1I PREFETCH  REQUESTED:          0  ISSUED:          0  USEFUL:          0  USELESS:          0
L1I USEFUL LOAD PREFETCHES:          0 PREFETCH ISSUED TO LOWER LEVEL:          0  ACCURACY: -nan
L1I TIMELY PREFETCHES:          0 LATE PREFETCHES: 0 DROPPED PREFETCHES: 0
L1I PREFETCHES SAME FILL-ORIGIN LEVEL: 0 DIFFERENT FILL-ORIGIN LEVEL: 0
L1I AVERAGE MISS LATENCY: 242.72 cycles
L1I RQ	ACCESS:   62097659	FORWARD:          0	MERGED:   22142552	TO_CACHE:   39955107

BTB BRANCH_DIRECT_JUMP	ACCESS:          0  HIT:          0  MISS:          0
BTB BRANCH_INDIRECT	ACCESS:          0  HIT:          0  MISS:          0
BTB BRANCH_CONDITIONAL	ACCESS:          0  HIT:          0  MISS:          0
BTB BRANCH_DIRECT_CALL	ACCESS:          0  HIT:          0  MISS:          0
BTB BRANCH_INDIRECT_CALL	ACCESS:          0  HIT:          0  MISS:          0
BTB BRANCH_RETURN	ACCESS:          0  HIT:          0  MISS:          0
BTB BRANCH_OTHER ACCESS:          0  HIT:          0  MISS:          0

L2C TOTAL     ACCESS:   10959781  HIT:    8679706  MISS:    2280075  HIT %:     79.196  MISS %:     20.804   MPKI: 11.4004
L2C LOAD      ACCESS:    1252364  HIT:     325701  MISS:     926663  HIT %:    26.0069  MISS %:    73.9931   MPKI: 4.63331
L2C DATA LOAD MPKI: 4.6068
L2C INSTRUCTION LOAD MPKI: 0.026515
L2C RFO       ACCESS:     137302  HIT:      92805  MISS:      44497  HIT %:    67.5919  MISS %:    32.4081   MPKI: 0.222485
L2C PREFETCH  ACCESS:    1550891  HIT:     445045  MISS:    1105846  HIT %:    28.6961  MISS %:    71.3039   MPKI: 5.52923
[...]
LLC RQ	ACCESS:    4684759	FORWARD:          0	MERGED:          0	TO_CACHE:    4684759
LLC WQ	ACCESS:     273960	FORWARD:          1	MERGED:          0	TO_CACHE:     273960
LLC PQ	ACCESS:    4626248	FORWARD:          0	MERGED:          0	TO_CACHE:    4626247

LLC Dense regions hint to LLC: 0

RAW hits: 375313
Loads Generated: 22377603
Loads sent to L1D: 22002290
Stores Generated: 2962095
Stores sent to L1D: 2962097
Major fault: 0 Minor fault: 9566
Allocated PAGES: 47422

CPU 3 cumulative IPC: 0.677103 instructions: 200000000 cycles: 295376076
ITLB TOTAL     ACCESS:   28981819  HIT:   27815743  MISS:    1166076  HIT %:    95.9765  MISS %:    4.02347   MPKI: 5.83038
ITLB LOAD TRANSLATION ACCESS:   28981819  HIT:   27815743  MISS:    1166076  HIT %:    95.9765  MISS %:    4.02347   MPKI: 5.83038
ITLB PREFETCH  REQUESTED:          0  ISSUED:          0  USEFUL:          0  USELESS:          0
ITLB USEFUL LOAD PREFETCHES:          0 PREFETCH ISSUED TO LOWER LEVEL:          0  ACCURACY: -nan
ITLB TIMELY PREFETCHES:          0 LATE PREFETCHES: 0 DROPPED PREFETCHES: 0
ITLB PREFETCHES SAME FILL-ORIGIN LEVEL: 0 DIFFERENT FILL-ORIGIN LEVEL: 0
ITLB AVERAGE MISS LATENCY: 38.6593 cycles
ITLB RQ	ACCESS:   38267434	FORWARD:          0	MERGED:    8751829	TO_CACHE:   29515605

DTLB TOTAL     ACCESS:   16471430  HIT:    7572855  MISS:    8898575  HIT %:    45.9757  MISS %:    54.0243   MPKI: 44.4929
DTLB LOAD TRANSLATION ACCESS:   16471430  HIT:    7572855  MISS:    8898575  HIT %:    45.9757  MISS %:    54.0243   MPKI: 44.4929
DTLB PREFETCH  REQUESTED:          0  ISSUED:          0  USEFUL:          0  USELESS:          0
DTLB USEFUL LOAD PREFETCHES:          0 PREFETCH ISSUED TO LOWER LEVEL:          0  ACCURACY: -nan
DTLB TIMELY PREFETCHES:          0 LATE PREFETCHES: 0 DROPPED PREFETCHES: 0
DTLB PREFETCHES SAME FILL-ORIGIN LEVEL: 0 DIFFERENT FILL-ORIGIN LEVEL: 0
DTLB AVERAGE MISS LATENCY: 25.2185 cycles
DTLB RQ	ACCESS:   18599177	FORWARD:          0	MERGED:    1464331	TO_CACHE:   17134846

STLB TOTAL     ACCESS:   13595601  HIT:    6934661  MISS:    6660940  HIT %:    51.0067  MISS %:    48.9933   MPKI: 33.3047
STLB LOAD TRANSLATION ACCESS:   10064651  HIT:    4827991  MISS:    5236660  HIT %:    47.9698  MISS %:    52.0302   MPKI: 26.1833
STLB TRANSLATION FROM L1D PREFETCHER ACCESS:    3530950  HIT:    2106670  MISS:    1424280  HIT %:     59.663  MISS %:     40.337   MPKI: 7.1214
STLB PREFETCH  REQUESTED:          0  ISSUED:          0  USEFUL:     556940  USELESS:     867341
STLB USEFUL LOAD PREFETCHES:     556940 PREFETCH ISSUED TO LOWER LEVEL:          0  ACCURACY: inf
STLB TIMELY PREFETCHES:     556940 LATE PREFETCHES: 0 DROPPED PREFETCHES: 0
STLB PREFETCHES SAME FILL-ORIGIN LEVEL: 0 DIFFERENT FILL-ORIGIN LEVEL: 0
STLB AVERAGE MISS LATENCY: 33.1196 cycles
STLB RQ	ACCESS:   14471202	FORWARD:          0	MERGED:     846865	TO_CACHE:   13624337

STLB Hit, L1D data hit: 0
STLB Hit, L2C data hit: 0
STLB Hit, LLC data hit: 0
STLB Hit, LLC data miss: 0
STLB STLB hints to L2: 0
L1D TOTAL     ACCESS:   22546091  HIT:   19646753  MISS:    2899338  HIT %:    87.1404  MISS %:    12.8596   MPKI: 14.4967
L1D LOAD      ACCESS:   14774705  HIT:   13467063  MISS:    1307642  HIT %:    91.1495  MISS %:    8.85055   MPKI: 6.53821
L1D RFO       ACCESS:    3501772  HIT:    3370970  MISS:     130802  HIT %:    96.2647  MISS %:    3.73531   MPKI: 0.65401
L1D PREFETCH  ACCESS:    4269614  HIT:    2808720  MISS:    1460894  HIT %:    65.7839  MISS %:    34.2161   MPKI: 7.30447
L1D PREFETCH  REQUESTED:    8816731  ISSUED:    8816725  USEFUL:     296016  USELESS:    1164892
L1D USEFUL LOAD PREFETCHES:     296016 PREFETCH ISSUED TO LOWER LEVEL:    1523645  ACCURACY: 19.4281
L1D TIMELY PREFETCHES:     296016 LATE PREFETCHES: 62722 DROPPED PREFETCHES: 0
L1D PREFETCHES SAME FILL-ORIGIN LEVEL: 1523645 DIFFERENT FILL-ORIGIN LEVEL: 0
L1D AVERAGE MISS LATENCY: 126.034 cycles
L1D RQ	ACCESS:   23422984	FORWARD:          0	MERGED:    8577392	TO_CACHE:   14827275
L1D WQ	ACCESS:    3874816	FORWARD:      21941	MERGED:     102914	TO_CACHE:    3771902
L1D PQ	ACCESS:    4410175	FORWARD:          0	MERGED:          1	TO_CACHE:    4406550

L1D UNIQUE REGIONS ACCESSED: 0
L1D REGIONS CONFLICTS: 0
L1D Cross Page Prefetch Requests: 0
L1D Same Page Prefetch Requests: 5593980
L1D ROI Sum of L1D PQ occupancy: 105047604
L1D PREFETCHES PUSHED FROM L2C: 0
L1I TOTAL     ACCESS:   38262044  HIT:   38247339  MISS:      14705  HIT %:    99.9616  MISS %:  0.0384323   MPKI: 0.073525
L1I LOAD      ACCESS:   38262044  HIT:   38247339  MISS:      14705  HIT %:    99.9616  MISS %:  0.0384323   MPKI: 0.073525
L1I PREFETCH  REQUESTED:          0  ISSUED:          0  USEFUL:          0  USELESS:          0
L1I USEFUL LOAD PREFETCHES:          0 PREFETCH ISSUED TO LOWER LEVEL:          0  ACCURACY: -nan
L1I TIMELY PREFETCHES:          0 LATE PREFETCHES: 0 DROPPED PREFETCHES: 0
L1I PREFETCHES SAME FILL-ORIGIN LEVEL: 0 DIFFERENT FILL-ORIGIN LEVEL: 0
L1I AVERAGE MISS LATENCY: 125.27 cycles
L1I RQ	ACCESS:   59271464	FORWARD:          0	MERGED:   21004030	TO_CACHE:   38267434

BTB BRANCH_DIRECT_JUMP	ACCESS:          0  HIT:          0  MISS:          0
BTB BRANCH_INDIRECT	ACCESS:          0  HIT:          0  MISS:          0
BTB BRANCH_CONDITIONAL	ACCESS:          0  HIT:          0  MISS:          0
BTB BRANCH_DIRECT_CALL	ACCESS:          0  HIT:          0  MISS:          0
BTB BRANCH_INDIRECT_CALL	ACCESS:          0  HIT:          0  MISS:          0
BTB BRANCH_RETURN	ACCESS:          0  HIT:          0  MISS:          0
BTB BRANCH_OTHER ACCESS:          0  HIT:          0  MISS:          0

L2C TOTAL     ACCESS:   10279207  HIT:    8002362  MISS:    2276845  HIT %:      77.85  MISS %:      22.15   MPKI: 11.3842
L2C LOAD      ACCESS:    1259615  HIT:     327916  MISS:     931699  HIT %:     26.033  MISS %:     73.967   MPKI: 4.6585
L2C DATA LOAD MPKI: 4.61902
L2C INSTRUCTION LOAD MPKI: 0.039475
L2C RFO       ACCESS:     130674  HIT:      89650  MISS:      41024  HIT %:    68.6058  MISS %:    31.3942   MPKI: 0.20512
L2C PREFETCH  ACCESS:    1523636  HIT:     415861  MISS:    1107775  HIT %:     27.294  MISS %:     72.706   MPKI: 5.53887
L2C DATA PREFETCH MPKI: 5.53887
L2C INSTRUCTION PREFETCH MPKI: 0
L2C WRITEBACK ACCESS:     226754  HIT:     219667  MISS:       7087  HIT %:    96.8746  MISS %:    3.12541   MPKI: 0.035435
L2C LOAD TRANSLATION ACCESS:    5704390  HIT:    5515223  MISS:     189167  HIT %:    96.6838  MISS %:    3.31617   MPKI: 0.945835
L2C TRANSLATION FROM L1D PREFETCHER ACCESS:    1434138  HIT:    1434045  MISS:         93  HIT %:    99.9935  MISS %: 0.00648473   MPKI: 0.000465
L2C PREFETCH  REQUESTED:          0  ISSUED:          0  USEFUL:      66759  USELESS:    1041175
L2C USEFUL LOAD PREFETCHES:      66759 PREFETCH ISSUED TO LOWER LEVEL:    1107775  ACCURACY: 6.0264
L2C TIMELY PREFETCHES:      66759 LATE PREFETCHES: 0 DROPPED PREFETCHES: 0
L2C PREFETCHES SAME FILL-ORIGIN LEVEL: 0 DIFFERENT FILL-ORIGIN LEVEL: 0
L2C AVERAGE MISS LATENCY: 157.362 cycles
L2C RQ	ACCESS:    8528927	FORWARD:          0	MERGED:          0	TO_CACHE:    8528820
L2C WQ	ACCESS:     226754	FORWARD:        116	MERGED:          0	TO_CACHE:     226754
L2C PQ	ACCESS:    1523645	FORWARD:          0	MERGED:          0	TO_CACHE:    1523636

L2C Instructions Evicting Data 6729
L2C Translations Evicting Data 173269
L2C Data Evicting Data 1893100
L2C Instructions Evicting Instructions 452
L2C Translations Evicting Instructions 419
L2C Data Evicting Instructions 6803
L2C Instructions Evicting Translations 714
L2C Translations Evicting Translations 15571
L2C Data Evicting Translations 172697
L2C Dense regions hint from L2: 0
PSCL5 TOTAL     ACCESS:    6660941  HIT:    6660941  MISS:          0  HIT %:        100  MISS %:          0   MPKI: 0
PSCL5 LOAD TRANSLATION ACCESS:    5236661  HIT:    5236661  MISS:          0  HIT %:        100  MISS %:          0   MPKI: 0
PSCL5 TRANSLATION FROM L1D PREFETCHER ACCESS:    1424280  HIT:    1424280  MISS:          0  HIT %:        100  MISS %:          0   MPKI: 0
PSCL5 PREFETCH  REQUESTED:          0  ISSUED:          0  USEFUL:          0  USELESS:          0
PSCL5 USEFUL LOAD PREFETCHES:          0 PREFETCH ISSUED TO LOWER LEVEL:          0  ACCURACY: -nan
PSCL5 TIMELY PREFETCHES:          0 LATE PREFETCHES: 0 DROPPED PREFETCHES: 0
PSCL5 PREFETCHES SAME FILL-ORIGIN LEVEL: 0 DIFFERENT FILL-ORIGIN LEVEL: 0

PSCL4 TOTAL     ACCESS:    6660941  HIT:    6660941  MISS:          0  HIT %:        100  MISS %:          0   MPKI: 0
PSCL4 LOAD TRANSLATION ACCESS:    5236661  HIT:    5236661  MISS:          0  HIT %:        100  MISS %:          0   MPKI: 0
PSCL4 TRANSLATION FROM L1D PREFETCHER ACCESS:    1424280  HIT:    1424280  MISS:          0  HIT %:        100  MISS %:          0   MPKI: 0
PSCL4 PREFETCH  REQUESTED:          0  ISSUED:          0  USEFUL:          0  USELESS:          0
PSCL4 USEFUL LOAD PREFETCHES:          0 PREFETCH ISSUED TO LOWER LEVEL:          0  ACCURACY: -nan
PSCL4 TIMELY PREFETCHES:          0 LATE PREFETCHES: 0 DROPPED PREFETCHES: 0
PSCL4 PREFETCHES SAME FILL-ORIGIN LEVEL: 0 DIFFERENT FILL-ORIGIN LEVEL: 0

PSCL3 TOTAL     ACCESS:    6658784  HIT:    6658657  MISS:        127  HIT %:    99.9981  MISS %: 0.00190726   MPKI: 0.000635
PSCL3 LOAD TRANSLATION ACCESS:    5234746  HIT:    5234619  MISS:        127  HIT %:    99.9976  MISS %:  0.0024261   MPKI: 0.000635
PSCL3 TRANSLATION FROM L1D PREFETCHER ACCESS:    1424038  HIT:    1424038  MISS:          0  HIT %:        100  MISS %:          0   MPKI: 0
PSCL3 PREFETCH  REQUESTED:          0  ISSUED:          0  USEFUL:          0  USELESS:          0
PSCL3 USEFUL LOAD PREFETCHES:          0 PREFETCH ISSUED TO LOWER LEVEL:          0  ACCURACY: -nan
PSCL3 TIMELY PREFETCHES:          0 LATE PREFETCHES: 0 DROPPED PREFETCHES: 0
PSCL3 PREFETCHES SAME FILL-ORIGIN LEVEL: 0 DIFFERENT FILL-ORIGIN LEVEL: 0

PSCL2 TOTAL     ACCESS:    6660941  HIT:    6183480  MISS:     477461  HIT %:    92.8319  MISS %:    7.16807   MPKI: 2.38731
PSCL2 LOAD TRANSLATION ACCESS:    5246507  HIT:    4769046  MISS:     477461  HIT %:    90.8994  MISS %:    9.10055   MPKI: 2.38731
PSCL2 TRANSLATION FROM L1D PREFETCHER ACCESS:    1414434  HIT:    1414434  MISS:          0  HIT %:        100  MISS %:          0   MPKI: 0
PSCL2 PREFETCH  REQUESTED:          0  ISSUED:          0  USEFUL:          0  USELESS:          0
PSCL2 USEFUL LOAD PREFETCHES:          0 PREFETCH ISSUED TO LOWER LEVEL:          0  ACCURACY: -nan
PSCL2 TIMELY PREFETCHES:          0 LATE PREFETCHES: 0 DROPPED PREFETCHES: 0
PSCL2 PREFETCHES SAME FILL-ORIGIN LEVEL: 0 DIFFERENT FILL-ORIGIN LEVEL: 0

LLC TOTAL     ACCESS:    2351573  HIT:     863147  MISS:    1488426  HIT %:    36.7051  MISS %:    63.2949   MPKI: 7.44213
LLC LOAD      ACCESS:     931699  HIT:     252473  MISS:     679226  HIT %:    27.0981  MISS %:    72.9019   MPKI: 3.39613
LLC RFO       ACCESS:      41024  HIT:       1202  MISS:      39822  HIT %:    2.92999  MISS %:      97.07   MPKI: 0.19911
LLC PREFETCH  ACCESS:    1107775  HIT:     400779  MISS:     706996  HIT %:    36.1787  MISS %:    63.8213   MPKI: 3.53498
LLC WRITEBACK ACCESS:      81815  HIT:      76181  MISS:       5634  HIT %:    93.1137  MISS %:    6.88627   MPKI: 0.02817
LLC LOAD TRANSLATION ACCESS:     189167  HIT:     132505  MISS:      56662  HIT %:    70.0466  MISS %:    29.9534   MPKI: 0.28331
LLC TRANSLATION FROM L1D PREFETCHER ACCESS:         93  HIT:          7  MISS:         86  HIT %:    7.52688  MISS %:    92.4731   MPKI: 0.00043
LLC PREFETCH  REQUESTED:          0  ISSUED:          0  USEFUL:      42896  USELESS:    2789213
LLC USEFUL LOAD PREFETCHES:      42896 PREFETCH ISSUED TO LOWER LEVEL:    2830687  ACCURACY: 1.51539
LLC TIMELY PREFETCHES:      42896 LATE PREFETCHES: 0 DROPPED PREFETCHES: 0
LLC PREFETCHES SAME FILL-ORIGIN LEVEL: 0 DIFFERENT FILL-ORIGIN LEVEL: 0
LLC AVERAGE MISS LATENCY: 756.161 cycles
LLC RQ	ACCESS:    4684759	FORWARD:          0	MERGED:          0	TO_CACHE:    4684759
LLC WQ	ACCESS:     273960	FORWARD:          1	MERGED:          0	TO_CACHE:     273960
LLC PQ	ACCESS:    4626248	FORWARD:          0	MERGED:          0	TO_CACHE:    4626247

LLC Dense regions hint to LLC: 0

RAW hits: 533177
Loads Generated: 23956161
Loads sent to L1D: 23422984
Stores Generated: 3874816
Stores sent to L1D: 3874816
Major fault: 0 Minor fault: 16360
Allocated PAGES: 47422

stream: 
stream:times selected: 7254057
stream:pref_filled: 1369800
stream:pref_useful: 99878
stream:pref_late: 36802
stream:misses: 310505
stream:misses_by_poll: 0

CS: 
CS:times selected: 395166
CS:pref_filled: 270079
CS:pref_useful: 206435
CS:pref_late: 5892
CS:misses: 44858
CS:misses_by_poll: 429

CPLX: 
CPLX:times selected: 6819062
CPLX:pref_filled: 411948
CPLX:pref_useful: 18025
CPLX:pref_late: 1459
CPLX:misses: 1168458
CPLX:misses_by_poll: 904

NL_L1: 
NL:times selected: 52076
NL:pref_filled: 16243
NL:pref_useful: 1690
NL:pref_late: 772
NL:misses: 14772
NL:misses_by_poll: 0

total selections: 14520361
total_filled: 1691801
total_useful: 254612
total_late: 45702
total_polluted: 1333
total_misses_after_warmup: 1374846
conflicts: 842342
Degree Incremented Times: 48051
Degree Decremented Times: 884590

L1 IP Table Write Accesses: 55361028
L1 IP Table Read Accesses: 54518686
L1 RST Write Accesses: 21378679
L1 RST Read Accesses: 42757358
L1 CSPT Write Accesses: 21378679
L1 CSPT Read Accesses: 41469335
L1 RR Filter Tag Write Accesses: 19425709
L1 RR Filter Tag Read Accesses: 760988157
L1 IP Table Tag Write Accesses: 60467332
L1 IP Table Tag Read Accesses: 60467332
L1 RST Tag Write Accesses: 0
L1 RST Tag Read Accesses: 214366418
L1 RR Filter Write Accesses: 0
L1 RR Filter Read Accesses: 26237342
test: 13938464

stream: 
stream:times selected: 6591097
stream:pref_filled: 1341236
stream:pref_useful: 111227
stream:pref_late: 44438
stream:misses: 348693
stream:misses_by_poll: 0

CS: 
CS:times selected: 339415
CS:pref_filled: 281240
CS:pref_useful: 209858
CS:pref_late: 6760
CS:misses: 52635
CS:misses_by_poll: 834

CPLX: 
CPLX:times selected: 6166230
CPLX:pref_filled: 381845
CPLX:pref_useful: 25417
CPLX:pref_late: 3872
CPLX:misses: 1119168
CPLX:misses_by_poll: 682

NL_L1: 
NL:times selected: 96967
NL:pref_filled: 16862
NL:pref_useful: 2450
NL:pref_late: 1091
NL:misses: 13268
NL:misses_by_poll: 10

total selections: 13193709
total_filled: 1595589
total_useful: 267812
total_late: 57191
total_polluted: 1526
total_misses_after_warmup: 1402651
conflicts: 842342
Degree Incremented Times: 48051
Degree Decremented Times: 884590

L1 IP Table Write Accesses: 55361028
L1 IP Table Read Accesses: 54518686
L1 RST Write Accesses: 21378679
L1 RST Read Accesses: 42757358
L1 CSPT Write Accesses: 21378679
L1 CSPT Read Accesses: 41469335
L1 RR Filter Tag Write Accesses: 19425709
L1 RR Filter Tag Read Accesses: 760988157
L1 IP Table Tag Write Accesses: 60467332
L1 IP Table Tag Read Accesses: 60467332
L1 RST Tag Write Accesses: 0
L1 RST Tag Read Accesses: 214366418
L1 RR Filter Write Accesses: 0
L1 RR Filter Read Accesses: 26237342
test: 13938464

stream: 
stream:times selected: 6592567
stream:pref_filled: 1362862
stream:pref_useful: 100510
stream:pref_late: 40800
stream:misses: 327240
stream:misses_by_poll: 0

CS: 
CS:times selected: 218359
CS:pref_filled: 220585
CS:pref_useful: 165490
CS:pref_late: 3120
CS:misses: 36184
CS:misses_by_poll: 1277

CPLX: 
CPLX:times selected: 6335717
CPLX:pref_filled: 383417
CPLX:pref_useful: 15325
CPLX:pref_late: 1293
CPLX:misses: 1104487
CPLX:misses_by_poll: 772

NL_L1: 
NL:times selected: 56683
NL:pref_filled: 18669
NL:pref_useful: 1998
NL:pref_late: 872
NL:misses: 13981
NL:misses_by_poll: 2

total selections: 13203326
total_filled: 1582939
total_useful: 219227
total_late: 46874
total_polluted: 2051
total_misses_after_warmup: 1401109
conflicts: 842342
Degree Incremented Times: 48051
Degree Decremented Times: 884590

L1 IP Table Write Accesses: 55361028
L1 IP Table Read Accesses: 54518686
L1 RST Write Accesses: 21378679
L1 RST Read Accesses: 42757358
L1 CSPT Write Accesses: 21378679
L1 CSPT Read Accesses: 41469335
L1 RR Filter Tag Write Accesses: 19425709
L1 RR Filter Tag Read Accesses: 760988157
L1 IP Table Tag Write Accesses: 60467332
L1 IP Table Tag Read Accesses: 60467332
L1 RST Tag Write Accesses: 0
L1 RST Tag Read Accesses: 214366418
L1 RR Filter Write Accesses: 0
L1 RR Filter Read Accesses: 26237342
test: 13938464

stream: 
stream:times selected: 6322287
stream:pref_filled: 1196641
stream:pref_useful: 110684
stream:pref_late: 53060
stream:misses: 262008
stream:misses_by_poll: 0

CS: 
CS:times selected: 634680
CS:pref_filled: 362177
CS:pref_useful: 260748
CS:pref_late: 9711
CS:misses: 57192
CS:misses_by_poll: 1178

CPLX: 
CPLX:times selected: 5651662
CPLX:pref_filled: 278193
CPLX:pref_useful: 22103
CPLX:pref_late: 3314
CPLX:misses: 919944
CPLX:misses_by_poll: 345

NL_L1: 
NL:times selected: 100138
NL:pref_filled: 14838
NL:pref_useful: 2219
NL:pref_late: 710
NL:misses: 11515
NL:misses_by_poll: 1

total selections: 12708767
total_filled: 1460894
total_useful: 296016
total_late: 67851
total_polluted: 1524
total_misses_after_warmup: 1360210
conflicts: 842342
Degree Incremented Times: 48051
Degree Decremented Times: 884590

L1 IP Table Write Accesses: 55361028
L1 IP Table Read Accesses: 54518686
L1 RST Write Accesses: 21378679
L1 RST Read Accesses: 42757358
L1 CSPT Write Accesses: 21378679
L1 CSPT Read Accesses: 41469335
L1 RR Filter Tag Write Accesses: 19425709
L1 RR Filter Tag Read Accesses: 760988157
L1 IP Table Tag Write Accesses: 60467332
L1 IP Table Tag Read Accesses: 60467332
L1 RST Tag Write Accesses: 0
L1 RST Tag Read Accesses: 214366418
L1 RR Filter Write Accesses: 0
L1 RR Filter Read Accesses: 26237342
test: 13938464

DRAM Statistics
 CHANNEL 0
 RQ ROW_BUFFER_HIT:     705431  ROW_BUFFER_MISS:    5070910
 DBUS_CONGESTED:       1154
 WQ ROW_BUFFER_HIT:      64788  ROW_BUFFER_MISS:     186147  FULL:          0

 AVG_CONGESTED_CYCLE: 4
 All warmup complete: 5
Channel 0 Bank busy for read cycles: 0
Channel 0 Bank busy for write cycles: 0
Channel 0
Rank 0
0banks busy for read cycles: 4919387
0banks busy for write cycles: 11493
1banks busy for read cycles: 47784742
1banks busy for write cycles: 2755696
2banks busy for read cycles: 68371487
2banks busy for write cycles: 2260115
3banks busy for read cycles: 63557795
3banks busy for write cycles: 1982560
4banks busy for read cycles: 45631650
4banks busy for write cycles: 1875813
5banks busy for read cycles: 25938030
5banks busy for write cycles: 1821073
6banks busy for read cycles: 11887513
6banks busy for write cycles: 1986854
7banks busy for read cycles: 4159053
7banks busy for write cycles: 2657784
8banks busy for read cycles: 1035675
8banks busy for write cycles: 6739357

CPU 0 Branch Prediction Accuracy: 99.0994% MPKI: 1.20168 Average ROB Occupancy at Mispredict: 115.808
Branch types
NOT_BRANCH: 0 0%
BRANCH_DIRECT_JUMP: 0 0%
BRANCH_INDIRECT: 0 0%
BRANCH_CONDITIONAL: 0 0%
BRANCH_DIRECT_CALL: 0 0%
BRANCH_INDIRECT_CALL: 0 0%
BRANCH_RETURN: 0 0%
BRANCH_OTHER: 0 0%


CPU 1 Branch Prediction Accuracy: 98.8578% MPKI: 1.56141 Average ROB Occupancy at Mispredict: 128.188
Branch types
NOT_BRANCH: 0 0%
BRANCH_DIRECT_JUMP: 0 0%
BRANCH_INDIRECT: 0 0%
BRANCH_CONDITIONAL: 0 0%
BRANCH_DIRECT_CALL: 0 0%
BRANCH_INDIRECT_CALL: 0 0%
BRANCH_RETURN: 0 0%
BRANCH_OTHER: 0 0%


CPU 2 Branch Prediction Accuracy: 99.0864% MPKI: 1.23035 Average ROB Occupancy at Mispredict: 130.74
Branch types
NOT_BRANCH: 0 0%
BRANCH_DIRECT_JUMP: 0 0%
BRANCH_INDIRECT: 0 0%
BRANCH_CONDITIONAL: 0 0%
BRANCH_DIRECT_CALL: 0 0%
BRANCH_INDIRECT_CALL: 0 0%
BRANCH_RETURN: 0 0%
BRANCH_OTHER: 0 0%


CPU 3 Branch Prediction Accuracy: 98.686% MPKI: 1.82549 Average ROB Occupancy at Mispredict: 120.321
Branch types
NOT_BRANCH: 0 0%
BRANCH_DIRECT_JUMP: 0 0%
BRANCH_INDIRECT: 0 0%
BRANCH_CONDITIONAL: 0 0%
BRANCH_DIRECT_CALL: 0 0%
BRANCH_INDIRECT_CALL: 0 0%
BRANCH_RETURN: 0 0%
BRANCH_OTHER: 0 0%

DRAM PAGES: 1048576
Allocated PAGES: 47422
