
*** ChampSim Multicore Out-of-Order Simulator ***

Warmup Instructions: 50000000
Simulation Instructions: 200000000
Number of CPUs: 4
LLC sets: 8192
LLC ways: 16
Off-chip DRAM Size: 4096 MB Channels: 1 Width: 64-bit Data Rate: 6400 MT/s
CPU 0 runs ./traces/ligra/ligra_BFSCC.com-lj.ungraph.gcc_6.3.0_O3.drop_3500M.length_250M.champsimtrace.xz
.xz
CPU 1 runs ./traces/ligra/ligra_BFSCC.com-lj.ungraph.gcc_6.3.0_O3.drop_3500M.length_250M.champsimtrace.xz
.xz
CPU 2 runs ./traces/ligra/ligra_BFSCC.com-lj.ungraph.gcc_6.3.0_O3.drop_3500M.length_250M.champsimtrace.xz
.xz
CPU 3 runs ./traces/ligra/ligra_BFSCC.com-lj.ungraph.gcc_6.3.0_O3.drop_3500M.length_250M.champsimtrace.xz
.xz
BTB has LRU replacement policy
ITLB has LRU replacement policy
DTLB has LRU replacement policy
STLB has LRU replacement policy
L1I has LRU replacement policy
IP Table Entries: 1024
CSPT Entries: 128
RR_ENTRIES: 32
RST_ENTRIES: 8
L1D has LRU replacement policy
Initialize SRRIP state for L2C
Initialize DRRIP state for LLC
BTB has LRU replacement policy
ITLB has LRU replacement policy
DTLB has LRU replacement policy
STLB has LRU replacement policy
L1I has LRU replacement policy
IP Table Entries: 1024
CSPT Entries: 128
RR_ENTRIES: 32
RST_ENTRIES: 8
L1D has LRU replacement policy
Initialize SRRIP state for L2C
Initialize DRRIP state for LLC
BTB has LRU replacement policy
ITLB has LRU replacement policy
DTLB has LRU replacement policy
STLB has LRU replacement policy
L1I has LRU replacement policy
IP Table Entries: 1024
CSPT Entries: 128
RR_ENTRIES: 32
RST_ENTRIES: 8
L1D has LRU replacement policy
Initialize SRRIP state for L2C
Initialize DRRIP state for LLC
BTB has LRU replacement policy
ITLB has LRU replacement policy
DTLB has LRU replacement policy
STLB has LRU replacement policy
L1I has LRU replacement policy
IP Table Entries: 1024
CSPT Entries: 128
RR_ENTRIES: 32
RST_ENTRIES: 8
L1D has LRU replacement policy
Initialize SRRIP state for L2C
Initialize DRRIP state for LLC
Heartbeat CPU 0 instructions: 10000002 cycles: 3333345 heartbeat IPC: 2.99999 cumulative IPC: 2.99999 (Simulation time: 0 hr 1 min 55 sec) 
Heartbeat CPU 1 instructions: 10000002 cycles: 3333346 heartbeat IPC: 2.99999 cumulative IPC: 2.99999 (Simulation time: 0 hr 1 min 55 sec) 
Heartbeat CPU 2 instructions: 10000002 cycles: 3333347 heartbeat IPC: 2.99999 cumulative IPC: 2.99999 (Simulation time: 0 hr 1 min 55 sec) 
Heartbeat CPU 3 instructions: 10000002 cycles: 3333348 heartbeat IPC: 2.99999 cumulative IPC: 2.99999 (Simulation time: 0 hr 1 min 55 sec) 
Heartbeat CPU 0 instructions: 20000000 cycles: 6666677 heartbeat IPC: 3 cumulative IPC: 3 (Simulation time: 0 hr 3 min 47 sec) 
Heartbeat CPU 1 instructions: 20000000 cycles: 6666678 heartbeat IPC: 3 cumulative IPC: 2.99999 (Simulation time: 0 hr 3 min 47 sec) 
Heartbeat CPU 2 instructions: 20000000 cycles: 6666679 heartbeat IPC: 3 cumulative IPC: 2.99999 (Simulation time: 0 hr 3 min 47 sec) 
Heartbeat CPU 3 instructions: 20000000 cycles: 6666680 heartbeat IPC: 3 cumulative IPC: 2.99999 (Simulation time: 0 hr 3 min 47 sec) 
Heartbeat CPU 0 instructions: 30000001 cycles: 10000011 heartbeat IPC: 3 cumulative IPC: 3 (Simulation time: 0 hr 5 min 42 sec) 
Heartbeat CPU 1 instructions: 30000001 cycles: 10000012 heartbeat IPC: 3 cumulative IPC: 3 (Simulation time: 0 hr 5 min 42 sec) 
Heartbeat CPU 2 instructions: 30000001 cycles: 10000013 heartbeat IPC: 3 cumulative IPC: 3 (Simulation time: 0 hr 5 min 42 sec) 
Heartbeat CPU 3 instructions: 30000001 cycles: 10000014 heartbeat IPC: 3 cumulative IPC: 3 (Simulation time: 0 hr 5 min 42 sec) 
Heartbeat CPU 0 instructions: 40000001 cycles: 13333345 heartbeat IPC: 3 cumulative IPC: 3 (Simulation time: 0 hr 7 min 42 sec) 
Heartbeat CPU 1 instructions: 40000001 cycles: 13333346 heartbeat IPC: 3 cumulative IPC: 3 (Simulation time: 0 hr 7 min 42 sec) 
Heartbeat CPU 2 instructions: 40000001 cycles: 13333347 heartbeat IPC: 3 cumulative IPC: 3 (Simulation time: 0 hr 7 min 42 sec) 
Heartbeat CPU 3 instructions: 40000001 cycles: 13333348 heartbeat IPC: 3 cumulative IPC: 3 (Simulation time: 0 hr 7 min 42 sec) 
Heartbeat CPU 0 instructions: 50000001 cycles: 16666678 heartbeat IPC: 3 cumulative IPC: 3 (Simulation time: 0 hr 9 min 41 sec) 
Heartbeat CPU 1 instructions: 50000003 cycles: 16666680 heartbeat IPC: 3 cumulative IPC: 3 (Simulation time: 0 hr 9 min 41 sec) 
Heartbeat CPU 2 instructions: 50000003 cycles: 16666681 heartbeat IPC: 3 cumulative IPC: 3 (Simulation time: 0 hr 9 min 41 sec) 
Heartbeat CPU 3 instructions: 50000003 cycles: 16666682 heartbeat IPC: 3 cumulative IPC: 3 (Simulation time: 0 hr 9 min 41 sec) 

Warmup complete CPU 0 instructions: 50000011 cycles: 16666682 (Simulation time: 0 hr 9 min 41 sec) 
Warmup complete CPU 1 instructions: 50000011 cycles: 16666682 (Simulation time: 0 hr 9 min 41 sec) 
Warmup complete CPU 2 instructions: 50000007 cycles: 16666682 (Simulation time: 0 hr 9 min 41 sec) 
Warmup complete CPU 3 instructions: 50000003 cycles: 16666682 (Simulation time: 0 hr 9 min 41 sec) 

Heartbeat CPU 0 instructions: 60000000 cycles: 25393783 heartbeat IPC: 1.14586 cumulative IPC: 1.14585 (Simulation time: 0 hr 12 min 21 sec) 
Heartbeat CPU 2 instructions: 60000000 cycles: 25401992 heartbeat IPC: 1.14478 cumulative IPC: 1.14478 (Simulation time: 0 hr 12 min 21 sec) 
Heartbeat CPU 1 instructions: 60000000 cycles: 25412839 heartbeat IPC: 1.14336 cumulative IPC: 1.14336 (Simulation time: 0 hr 12 min 22 sec) 
Heartbeat CPU 3 instructions: 60000000 cycles: 25421901 heartbeat IPC: 1.14218 cumulative IPC: 1.14218 (Simulation time: 0 hr 12 min 22 sec) 
Heartbeat CPU 0 instructions: 70000003 cycles: 34149555 heartbeat IPC: 1.1421 cumulative IPC: 1.14398 (Simulation time: 0 hr 15 min 6 sec) 
Heartbeat CPU 2 instructions: 70000003 cycles: 34159395 heartbeat IPC: 1.14189 cumulative IPC: 1.14333 (Simulation time: 0 hr 15 min 6 sec) 
Heartbeat CPU 1 instructions: 70000003 cycles: 34168953 heartbeat IPC: 1.14206 cumulative IPC: 1.14271 (Simulation time: 0 hr 15 min 7 sec) 
Heartbeat CPU 3 instructions: 70000003 cycles: 34178281 heartbeat IPC: 1.14202 cumulative IPC: 1.1421 (Simulation time: 0 hr 15 min 7 sec) 
Heartbeat CPU 0 instructions: 80000000 cycles: 42867525 heartbeat IPC: 1.14706 cumulative IPC: 1.145 (Simulation time: 0 hr 17 min 36 sec) 
Heartbeat CPU 2 instructions: 80000000 cycles: 42876953 heartbeat IPC: 1.14711 cumulative IPC: 1.14459 (Simulation time: 0 hr 17 min 36 sec) 
Heartbeat CPU 1 instructions: 80000000 cycles: 42886109 heartbeat IPC: 1.14716 cumulative IPC: 1.14419 (Simulation time: 0 hr 17 min 36 sec) 
Heartbeat CPU 3 instructions: 80000000 cycles: 42896601 heartbeat IPC: 1.14701 cumulative IPC: 1.14373 (Simulation time: 0 hr 17 min 36 sec) 
Heartbeat CPU 0 instructions: 90000002 cycles: 51620076 heartbeat IPC: 1.14252 cumulative IPC: 1.14438 (Simulation time: 0 hr 20 min 16 sec) 
Heartbeat CPU 2 instructions: 90000002 cycles: 51632359 heartbeat IPC: 1.14215 cumulative IPC: 1.14398 (Simulation time: 0 hr 20 min 16 sec) 
Heartbeat CPU 1 instructions: 90000002 cycles: 51639854 heartbeat IPC: 1.14237 cumulative IPC: 1.14373 (Simulation time: 0 hr 20 min 16 sec) 
Heartbeat CPU 3 instructions: 90000002 cycles: 51648283 heartbeat IPC: 1.14264 cumulative IPC: 1.14346 (Simulation time: 0 hr 20 min 16 sec) 
Heartbeat CPU 0 instructions: 100000000 cycles: 60358919 heartbeat IPC: 1.14432 cumulative IPC: 1.14437 (Simulation time: 0 hr 22 min 51 sec) 
Heartbeat CPU 2 instructions: 100000000 cycles: 60370601 heartbeat IPC: 1.14439 cumulative IPC: 1.14406 (Simulation time: 0 hr 22 min 51 sec) 
Heartbeat CPU 1 instructions: 100000000 cycles: 60378885 heartbeat IPC: 1.14429 cumulative IPC: 1.14385 (Simulation time: 0 hr 22 min 51 sec) 
Heartbeat CPU 3 instructions: 100000000 cycles: 60386431 heartbeat IPC: 1.14441 cumulative IPC: 1.14365 (Simulation time: 0 hr 22 min 51 sec) 
Heartbeat CPU 0 instructions: 110000000 cycles: 69113793 heartbeat IPC: 1.14222 cumulative IPC: 1.14401 (Simulation time: 0 hr 25 min 35 sec) 
Heartbeat CPU 2 instructions: 110000000 cycles: 69121215 heartbeat IPC: 1.14278 cumulative IPC: 1.14385 (Simulation time: 0 hr 25 min 35 sec) 
Heartbeat CPU 1 instructions: 110000000 cycles: 69131692 heartbeat IPC: 1.14249 cumulative IPC: 1.14362 (Simulation time: 0 hr 25 min 36 sec) 
Heartbeat CPU 3 instructions: 110000000 cycles: 69139721 heartbeat IPC: 1.14243 cumulative IPC: 1.14344 (Simulation time: 0 hr 25 min 36 sec) 
Heartbeat CPU 0 instructions: 120000000 cycles: 77887806 heartbeat IPC: 1.13973 cumulative IPC: 1.1434 (Simulation time: 0 hr 28 min 13 sec) 
Heartbeat CPU 2 instructions: 120000000 cycles: 77896719 heartbeat IPC: 1.13954 cumulative IPC: 1.14323 (Simulation time: 0 hr 28 min 13 sec) 
Heartbeat CPU 1 instructions: 120000000 cycles: 77905080 heartbeat IPC: 1.13981 cumulative IPC: 1.14307 (Simulation time: 0 hr 28 min 13 sec) 
Heartbeat CPU 3 instructions: 120000000 cycles: 77913760 heartbeat IPC: 1.13973 cumulative IPC: 1.14291 (Simulation time: 0 hr 28 min 13 sec) 
Heartbeat CPU 0 instructions: 130000003 cycles: 86675680 heartbeat IPC: 1.13793 cumulative IPC: 1.14271 (Simulation time: 0 hr 30 min 42 sec) 
Heartbeat CPU 2 instructions: 130000003 cycles: 86686682 heartbeat IPC: 1.13766 cumulative IPC: 1.14253 (Simulation time: 0 hr 30 min 43 sec) 
Heartbeat CPU 1 instructions: 130000003 cycles: 86694609 heartbeat IPC: 1.13772 cumulative IPC: 1.1424 (Simulation time: 0 hr 30 min 43 sec) 
Heartbeat CPU 3 instructions: 130000003 cycles: 86703687 heartbeat IPC: 1.13767 cumulative IPC: 1.14225 (Simulation time: 0 hr 30 min 43 sec) 
Heartbeat CPU 0 instructions: 140000000 cycles: 95460523 heartbeat IPC: 1.13832 cumulative IPC: 1.14222 (Simulation time: 0 hr 33 min 8 sec) 
Heartbeat CPU 2 instructions: 140000000 cycles: 95470307 heartbeat IPC: 1.13848 cumulative IPC: 1.14208 (Simulation time: 0 hr 33 min 9 sec) 
Heartbeat CPU 1 instructions: 140000000 cycles: 95478250 heartbeat IPC: 1.13848 cumulative IPC: 1.14196 (Simulation time: 0 hr 33 min 9 sec) 
Heartbeat CPU 3 instructions: 140000000 cycles: 95487750 heartbeat IPC: 1.13842 cumulative IPC: 1.14183 (Simulation time: 0 hr 33 min 9 sec) 
Heartbeat CPU 0 instructions: 150000000 cycles: 104231531 heartbeat IPC: 1.14012 cumulative IPC: 1.14201 (Simulation time: 0 hr 35 min 30 sec) 
Heartbeat CPU 2 instructions: 150000000 cycles: 104240771 heartbeat IPC: 1.14019 cumulative IPC: 1.14189 (Simulation time: 0 hr 35 min 30 sec) 
Heartbeat CPU 1 instructions: 150000000 cycles: 104249398 heartbeat IPC: 1.1401 cumulative IPC: 1.14178 (Simulation time: 0 hr 35 min 31 sec) 
Heartbeat CPU 3 instructions: 150000000 cycles: 104258448 heartbeat IPC: 1.14016 cumulative IPC: 1.14166 (Simulation time: 0 hr 35 min 31 sec) 
Heartbeat CPU 0 instructions: 160000001 cycles: 113008342 heartbeat IPC: 1.13937 cumulative IPC: 1.14177 (Simulation time: 0 hr 37 min 50 sec) 
Heartbeat CPU 2 instructions: 160000001 cycles: 113018737 heartbeat IPC: 1.13922 cumulative IPC: 1.14165 (Simulation time: 0 hr 37 min 51 sec) 
Heartbeat CPU 1 instructions: 160000001 cycles: 113027021 heartbeat IPC: 1.13926 cumulative IPC: 1.14155 (Simulation time: 0 hr 37 min 51 sec) 
Heartbeat CPU 3 instructions: 160000001 cycles: 113036367 heartbeat IPC: 1.13922 cumulative IPC: 1.14144 (Simulation time: 0 hr 37 min 51 sec) 
Heartbeat CPU 0 instructions: 170000001 cycles: 121694950 heartbeat IPC: 1.1512 cumulative IPC: 1.14255 (Simulation time: 0 hr 40 min 16 sec) 
Heartbeat CPU 2 instructions: 170000001 cycles: 121704712 heartbeat IPC: 1.15128 cumulative IPC: 1.14244 (Simulation time: 0 hr 40 min 16 sec) 
Heartbeat CPU 1 instructions: 170000001 cycles: 121712817 heartbeat IPC: 1.1513 cumulative IPC: 1.14236 (Simulation time: 0 hr 40 min 16 sec) 
Heartbeat CPU 3 instructions: 170000001 cycles: 121722084 heartbeat IPC: 1.15132 cumulative IPC: 1.14225 (Simulation time: 0 hr 40 min 16 sec) 
Heartbeat CPU 0 instructions: 180000001 cycles: 130464039 heartbeat IPC: 1.14037 cumulative IPC: 1.14238 (Simulation time: 0 hr 42 min 37 sec) 
Heartbeat CPU 2 instructions: 180000001 cycles: 130477186 heartbeat IPC: 1.13993 cumulative IPC: 1.14225 (Simulation time: 0 hr 42 min 37 sec) 
Heartbeat CPU 1 instructions: 180000001 cycles: 130485319 heartbeat IPC: 1.13993 cumulative IPC: 1.14217 (Simulation time: 0 hr 42 min 37 sec) 
Heartbeat CPU 3 instructions: 180000001 cycles: 130492696 heartbeat IPC: 1.14017 cumulative IPC: 1.14209 (Simulation time: 0 hr 42 min 37 sec) 
Heartbeat CPU 0 instructions: 190000000 cycles: 139289246 heartbeat IPC: 1.13312 cumulative IPC: 1.14171 (Simulation time: 0 hr 45 min 6 sec) 
Heartbeat CPU 2 instructions: 190000000 cycles: 139303210 heartbeat IPC: 1.13301 cumulative IPC: 1.14158 (Simulation time: 0 hr 45 min 6 sec) 
Heartbeat CPU 1 instructions: 190000000 cycles: 139314238 heartbeat IPC: 1.13264 cumulative IPC: 1.14148 (Simulation time: 0 hr 45 min 6 sec) 
Heartbeat CPU 3 instructions: 190000000 cycles: 139322158 heartbeat IPC: 1.13257 cumulative IPC: 1.14141 (Simulation time: 0 hr 45 min 7 sec) 
Heartbeat CPU 0 instructions: 200000001 cycles: 148135654 heartbeat IPC: 1.1304 cumulative IPC: 1.14095 (Simulation time: 0 hr 47 min 50 sec) 
Heartbeat CPU 2 instructions: 200000001 cycles: 148152902 heartbeat IPC: 1.12998 cumulative IPC: 1.1408 (Simulation time: 0 hr 47 min 50 sec) 
Heartbeat CPU 1 instructions: 200000001 cycles: 148161870 heartbeat IPC: 1.13025 cumulative IPC: 1.14073 (Simulation time: 0 hr 47 min 50 sec) 
Heartbeat CPU 3 instructions: 200000001 cycles: 148170357 heartbeat IPC: 1.13017 cumulative IPC: 1.14065 (Simulation time: 0 hr 47 min 50 sec) 
Heartbeat CPU 0 instructions: 210000000 cycles: 156958730 heartbeat IPC: 1.13339 cumulative IPC: 1.14048 (Simulation time: 0 hr 50 min 36 sec) 
Heartbeat CPU 2 instructions: 210000000 cycles: 156976556 heartbeat IPC: 1.13332 cumulative IPC: 1.14033 (Simulation time: 0 hr 50 min 37 sec) 
Heartbeat CPU 1 instructions: 210000000 cycles: 156985491 heartbeat IPC: 1.13332 cumulative IPC: 1.14026 (Simulation time: 0 hr 50 min 37 sec) 
Heartbeat CPU 3 instructions: 210000000 cycles: 156994888 heartbeat IPC: 1.1332 cumulative IPC: 1.14018 (Simulation time: 0 hr 50 min 37 sec) 
Heartbeat CPU 0 instructions: 220000000 cycles: 165865167 heartbeat IPC: 1.12278 cumulative IPC: 1.13942 (Simulation time: 0 hr 53 min 9 sec) 
Heartbeat CPU 2 instructions: 220000000 cycles: 165883444 heartbeat IPC: 1.12273 cumulative IPC: 1.13928 (Simulation time: 0 hr 53 min 9 sec) 
Heartbeat CPU 1 instructions: 220000000 cycles: 165892771 heartbeat IPC: 1.12268 cumulative IPC: 1.13921 (Simulation time: 0 hr 53 min 9 sec) 
Heartbeat CPU 3 instructions: 220000000 cycles: 165902056 heartbeat IPC: 1.12269 cumulative IPC: 1.13914 (Simulation time: 0 hr 53 min 9 sec) 
Heartbeat CPU 0 instructions: 230000002 cycles: 174669773 heartbeat IPC: 1.13577 cumulative IPC: 1.13922 (Simulation time: 0 hr 55 min 50 sec) 
Heartbeat CPU 2 instructions: 230000002 cycles: 174688352 heartbeat IPC: 1.13573 cumulative IPC: 1.13908 (Simulation time: 0 hr 55 min 50 sec) 
Heartbeat CPU 1 instructions: 230000002 cycles: 174697300 heartbeat IPC: 1.13578 cumulative IPC: 1.13902 (Simulation time: 0 hr 55 min 50 sec) 
Heartbeat CPU 3 instructions: 230000002 cycles: 174707671 heartbeat IPC: 1.13564 cumulative IPC: 1.13894 (Simulation time: 0 hr 55 min 50 sec) 
Heartbeat CPU 0 instructions: 240000002 cycles: 183456764 heartbeat IPC: 1.13805 cumulative IPC: 1.13916 (Simulation time: 0 hr 58 min 7 sec) 
Heartbeat CPU 2 instructions: 240000002 cycles: 183476595 heartbeat IPC: 1.13788 cumulative IPC: 1.13902 (Simulation time: 0 hr 58 min 7 sec) 
Heartbeat CPU 1 instructions: 240000002 cycles: 183484810 heartbeat IPC: 1.13798 cumulative IPC: 1.13896 (Simulation time: 0 hr 58 min 7 sec) 
Heartbeat CPU 3 instructions: 240000002 cycles: 183496381 heartbeat IPC: 1.13782 cumulative IPC: 1.13889 (Simulation time: 0 hr 58 min 7 sec) 
*** Reached end of trace for Core: 0 Repeating trace: ./traces/ligra/ligra_BFSCC.com-lj.ungraph.gcc_6.3.0_O3.drop_3500M.length_250M.champsimtrace.xz
Heartbeat CPU 0 instructions: 250000002 cycles: 192202741 heartbeat IPC: 1.14338 cumulative IPC: 1.13937 (Simulation time: 1 hr 0 min 36 sec) 
Finished CPU 0 instructions: 200000000 cycles: 175536517 cumulative IPC: 1.13936 (Simulation time: 1 hr 0 min 36 sec) 
*** Reached end of trace for Core: 2 Repeating trace: ./traces/ligra/ligra_BFSCC.com-lj.ungraph.gcc_6.3.0_O3.drop_3500M.length_250M.champsimtrace.xz
Heartbeat CPU 2 instructions: 250000002 cycles: 192221506 heartbeat IPC: 1.14352 cumulative IPC: 1.13925 (Simulation time: 1 hr 0 min 36 sec) 
Finished CPU 2 instructions: 200000000 cycles: 175554826 cumulative IPC: 1.13925 (Simulation time: 1 hr 0 min 36 sec) 
*** Reached end of trace for Core: 1 Repeating trace: ./traces/ligra/ligra_BFSCC.com-lj.ungraph.gcc_6.3.0_O3.drop_3500M.length_250M.champsimtrace.xz
Heartbeat CPU 1 instructions: 250000002 cycles: 192231716 heartbeat IPC: 1.14326 cumulative IPC: 1.13918 (Simulation time: 1 hr 0 min 36 sec) 
Finished CPU 1 instructions: 200000000 cycles: 175565913 cumulative IPC: 1.13917 (Simulation time: 1 hr 0 min 36 sec) 
*** Reached end of trace for Core: 3 Repeating trace: ./traces/ligra/ligra_BFSCC.com-lj.ungraph.gcc_6.3.0_O3.drop_3500M.length_250M.champsimtrace.xz
Heartbeat CPU 3 instructions: 250000002 cycles: 192244339 heartbeat IPC: 1.14312 cumulative IPC: 1.1391 (Simulation time: 1 hr 0 min 36 sec) 
Finished CPU 3 instructions: 200000003 cycles: 175577658 cumulative IPC: 1.1391 (Simulation time: 1 hr 0 min 36 sec) 

ChampSim completed all CPUs

Total Simulation Statistics (not including warmup)

CPU 0 cumulative IPC: 1.13936 instructions: 200046418 cycles: 175577658
ITLB TOTAL     ACCESS:   33188181  HIT:   33188181  MISS:          0  HIT %:        100  MISS %:          0   MPKI: 0
ITLB LOAD      ACCESS:          0  HIT:          0  MISS:          0  HIT %:       -nan  MISS %:       -nan   MPKI: 0
ITLB RFO       ACCESS:          0  HIT:          0  MISS:          0  HIT %:       -nan  MISS %:       -nan   MPKI: 0
ITLB PREFETCH  ACCESS:          0  HIT:          0  MISS:          0  HIT %:       -nan  MISS %:       -nan   MPKI: 0
ITLB WRITEBACK ACCESS:          0  HIT:          0  MISS:          0  HIT %:       -nan  MISS %:       -nan   MPKI: 0
DTLB TOTAL     ACCESS:   33849884  HIT:   33838701  MISS:      11183  HIT %:     99.967  MISS %:   0.033037   MPKI: 0.055902
DTLB LOAD      ACCESS:          0  HIT:          0  MISS:          0  HIT %:       -nan  MISS %:       -nan   MPKI: 0
DTLB RFO       ACCESS:          0  HIT:          0  MISS:          0  HIT %:       -nan  MISS %:       -nan   MPKI: 0
DTLB PREFETCH  ACCESS:          0  HIT:          0  MISS:          0  HIT %:       -nan  MISS %:       -nan   MPKI: 0
DTLB WRITEBACK ACCESS:          0  HIT:          0  MISS:          0  HIT %:       -nan  MISS %:       -nan   MPKI: 0
STLB TOTAL     ACCESS:     342780  HIT:     331597  MISS:      11183  HIT %:    96.7376  MISS %:    3.26244   MPKI: 0.055902
STLB LOAD      ACCESS:          0  HIT:          0  MISS:          0  HIT %:       -nan  MISS %:       -nan   MPKI: 0
STLB RFO       ACCESS:          0  HIT:          0  MISS:          0  HIT %:       -nan  MISS %:       -nan   MPKI: 0
STLB PREFETCH  ACCESS:          0  HIT:          0  MISS:          0  HIT %:       -nan  MISS %:       -nan   MPKI: 0
STLB WRITEBACK ACCESS:          0  HIT:          0  MISS:          0  HIT %:       -nan  MISS %:       -nan   MPKI: 0
L1D TOTAL     ACCESS:   25071267  HIT:   24355779  MISS:     715488  HIT %:    97.1462  MISS %:    2.85382   MPKI: 3.57661
L1D LOAD      ACCESS:   12471308  HIT:   12465631  MISS:       5677  HIT %:    99.9545  MISS %:  0.0455205   MPKI: 0.0283784
L1D RFO       ACCESS:   12211581  HIT:   11853840  MISS:     357741  HIT %:    97.0705  MISS %:    2.92952   MPKI: 1.78829
L1D PREFETCH  ACCESS:     388378  HIT:      36308  MISS:     352070  HIT %:    9.34862  MISS %:    90.6514   MPKI: 1.75994
L1D WRITEBACK ACCESS:          0  HIT:          0  MISS:          0  HIT %:       -nan  MISS %:       -nan   MPKI: 0
L1I TOTAL     ACCESS:   33188180  HIT:   33188180  MISS:          0  HIT %:        100  MISS %:          0   MPKI: 0
L1I LOAD      ACCESS:   33188180  HIT:   33188180  MISS:          0  HIT %:        100  MISS %:          0   MPKI: 0
L1I RFO       ACCESS:          0  HIT:          0  MISS:          0  HIT %:       -nan  MISS %:       -nan   MPKI: 0
L1I PREFETCH  ACCESS:          0  HIT:          0  MISS:          0  HIT %:       -nan  MISS %:       -nan   MPKI: 0
L1I WRITEBACK ACCESS:          0  HIT:          0  MISS:          0  HIT %:       -nan  MISS %:       -nan   MPKI: 0
L2C TOTAL     ACCESS:    1084409  HIT:     211538  MISS:     872871  HIT %:    19.5072  MISS %:    80.4928   MPKI: 4.36334
L2C LOAD      ACCESS:       5592  HIT:          0  MISS:       5592  HIT %:          0  MISS %:        100   MPKI: 0.0279535
L2C RFO       ACCESS:     357741  HIT:          0  MISS:     357741  HIT %:          0  MISS %:        100   MPKI: 1.78829
L2C PREFETCH  ACCESS:     352155  HIT:          0  MISS:     352155  HIT %:          0  MISS %:        100   MPKI: 1.76037
L2C WRITEBACK ACCESS:     357738  HIT:     201778  MISS:     155960  HIT %:    56.4038  MISS %:    43.5962   MPKI: 0.779619
PSCL5 TOTAL     ACCESS:      11183  HIT:      11183  MISS:          0  HIT %:        100  MISS %:          0   MPKI: 0
PSCL5 LOAD      ACCESS:          0  HIT:          0  MISS:          0  HIT %:       -nan  MISS %:       -nan   MPKI: 0
PSCL5 RFO       ACCESS:          0  HIT:          0  MISS:          0  HIT %:       -nan  MISS %:       -nan   MPKI: 0
PSCL5 PREFETCH  ACCESS:          0  HIT:          0  MISS:          0  HIT %:       -nan  MISS %:       -nan   MPKI: 0
PSCL5 WRITEBACK ACCESS:          0  HIT:          0  MISS:          0  HIT %:       -nan  MISS %:       -nan   MPKI: 0
PSCL4 TOTAL     ACCESS:      11183  HIT:      11183  MISS:          0  HIT %:        100  MISS %:          0   MPKI: 0
PSCL4 LOAD      ACCESS:          0  HIT:          0  MISS:          0  HIT %:       -nan  MISS %:       -nan   MPKI: 0
PSCL4 RFO       ACCESS:          0  HIT:          0  MISS:          0  HIT %:       -nan  MISS %:       -nan   MPKI: 0
PSCL4 PREFETCH  ACCESS:          0  HIT:          0  MISS:          0  HIT %:       -nan  MISS %:       -nan   MPKI: 0
PSCL4 WRITEBACK ACCESS:          0  HIT:          0  MISS:          0  HIT %:       -nan  MISS %:       -nan   MPKI: 0
PSCL3 TOTAL     ACCESS:      11183  HIT:      11183  MISS:          0  HIT %:        100  MISS %:          0   MPKI: 0
PSCL3 LOAD      ACCESS:          0  HIT:          0  MISS:          0  HIT %:       -nan  MISS %:       -nan   MPKI: 0
PSCL3 RFO       ACCESS:          0  HIT:          0  MISS:          0  HIT %:       -nan  MISS %:       -nan   MPKI: 0
PSCL3 PREFETCH  ACCESS:          0  HIT:          0  MISS:          0  HIT %:       -nan  MISS %:       -nan   MPKI: 0
PSCL3 WRITEBACK ACCESS:          0  HIT:          0  MISS:          0  HIT %:       -nan  MISS %:       -nan   MPKI: 0
PSCL2 TOTAL     ACCESS:      11183  HIT:      11161  MISS:         22  HIT %:    99.8033  MISS %:   0.196727   MPKI: 0.000109974
PSCL2 LOAD      ACCESS:          0  HIT:          0  MISS:          0  HIT %:       -nan  MISS %:       -nan   MPKI: 0
PSCL2 RFO       ACCESS:          0  HIT:          0  MISS:          0  HIT %:       -nan  MISS %:       -nan   MPKI: 0
PSCL2 PREFETCH  ACCESS:          0  HIT:          0  MISS:          0  HIT %:       -nan  MISS %:       -nan   MPKI: 0
PSCL2 WRITEBACK ACCESS:          0  HIT:          0  MISS:          0  HIT %:       -nan  MISS %:       -nan   MPKI: 0

stream: 
stream:times selected: 863268
stream:pref_filled: 437630
stream:pref_useful: 437619
stream:pref_late: 80
stream:misses: 11
stream:misses_by_poll: 0

CS: 
CS:times selected: 820731
CS:pref_filled: 2330
CS:pref_useful: 2330
CS:pref_late: 5
CS:misses: 29412
CS:misses_by_poll: 1

CPLX: 
CPLX:times selected: 42489
CPLX:pref_filled: 171
CPLX:pref_useful: 171
CPLX:pref_late: 0
CPLX:misses: 1
CPLX:misses_by_poll: 0

NL_L1: 
NL:times selected: 1
NL:pref_filled: 0
NL:pref_useful: 0
NL:pref_late: 0
NL:misses: 0
NL:misses_by_poll: 0

total selections: 1726489
total_filled: 352070
total_useful: 352065
total_late: 85
total_polluted: 1
total_misses_after_warmup: 27074
conflicts: 0
Degree Incremented Times: 295793
Degree Decremented Times: 0

L1 IP Table Write Accesses: 49956274
L1 IP Table Read Accesses: 49956274
L1 RST Write Accesses: 2737068
L1 RST Read Accesses: 5474136
L1 CSPT Write Accesses: 2737068
L1 CSPT Read Accesses: 3238703
L1 RR Filter Tag Write Accesses: 1550521
L1 RR Filter Tag Read Accesses: 458571929
L1 IP Table Tag Write Accesses: 49956274
L1 IP Table Tag Read Accesses: 49956274
L1 RST Tag Write Accesses: 0
L1 RST Tag Read Accesses: 24625262
L1 RR Filter Write Accesses: 0
L1 RR Filter Read Accesses: 23424604
test: 55486
LLC TOTAL     ACCESS:    1072895  HIT:     330269  MISS:     742626  HIT %:     30.783  MISS %:     69.217   MPKI: 3.71227
LLC LOAD      ACCESS:       5592  HIT:          0  MISS:       5592  HIT %:          0  MISS %:        100   MPKI: 0.0279535
LLC RFO       ACCESS:     357741  HIT:          0  MISS:     357741  HIT %:          0  MISS %:        100   MPKI: 1.78829
LLC PREFETCH  ACCESS:     352155  HIT:          0  MISS:     352155  HIT %:          0  MISS %:        100   MPKI: 1.76037
LLC WRITEBACK ACCESS:     355984  HIT:     330268  MISS:      25716  HIT %:    92.7761  MISS %:    7.22392   MPKI: 0.12855

RAW hits: 0
Loads Generated: 42784566
Loads sent to L1D: 42784566
Stores Generated: 22895458
Stores sent to L1D: 22895458

CPU 1 cumulative IPC: 1.13917 instructions: 200013205 cycles: 175577658
ITLB TOTAL     ACCESS:   33182690  HIT:   33182690  MISS:          0  HIT %:        100  MISS %:          0   MPKI: 0
ITLB LOAD      ACCESS:          0  HIT:          0  MISS:          0  HIT %:       -nan  MISS %:       -nan   MPKI: 0
ITLB RFO       ACCESS:          0  HIT:          0  MISS:          0  HIT %:       -nan  MISS %:       -nan   MPKI: 0
ITLB PREFETCH  ACCESS:          0  HIT:          0  MISS:          0  HIT %:       -nan  MISS %:       -nan   MPKI: 0
ITLB WRITEBACK ACCESS:          0  HIT:          0  MISS:          0  HIT %:       -nan  MISS %:       -nan   MPKI: 0
DTLB TOTAL     ACCESS:   33842335  HIT:   33831154  MISS:      11181  HIT %:     99.967  MISS %:  0.0330385   MPKI: 0.0559013
DTLB LOAD      ACCESS:          0  HIT:          0  MISS:          0  HIT %:       -nan  MISS %:       -nan   MPKI: 0
DTLB RFO       ACCESS:          0  HIT:          0  MISS:          0  HIT %:       -nan  MISS %:       -nan   MPKI: 0
DTLB PREFETCH  ACCESS:          0  HIT:          0  MISS:          0  HIT %:       -nan  MISS %:       -nan   MPKI: 0
DTLB WRITEBACK ACCESS:          0  HIT:          0  MISS:          0  HIT %:       -nan  MISS %:       -nan   MPKI: 0
STLB TOTAL     ACCESS:     340840  HIT:     329659  MISS:      11181  HIT %:    96.7196  MISS %:    3.28042   MPKI: 0.0559013
STLB LOAD      ACCESS:          0  HIT:          0  MISS:          0  HIT %:       -nan  MISS %:       -nan   MPKI: 0
STLB RFO       ACCESS:          0  HIT:          0  MISS:          0  HIT %:       -nan  MISS %:       -nan   MPKI: 0
STLB PREFETCH  ACCESS:          0  HIT:          0  MISS:          0  HIT %:       -nan  MISS %:       -nan   MPKI: 0
STLB WRITEBACK ACCESS:          0  HIT:          0  MISS:          0  HIT %:       -nan  MISS %:       -nan   MPKI: 0
L1D TOTAL     ACCESS:   25072021  HIT:   24356646  MISS:     715375  HIT %:    97.1467  MISS %:    2.85328   MPKI: 3.57664
L1D LOAD      ACCESS:   12463189  HIT:   12456923  MISS:       6266  HIT %:    99.9497  MISS %:  0.0502761   MPKI: 0.0313279
L1D RFO       ACCESS:   12221824  HIT:   11864142  MISS:     357682  HIT %:    97.0734  MISS %:    2.92658   MPKI: 1.78829
L1D PREFETCH  ACCESS:     387008  HIT:      35581  MISS:     351427  HIT %:    9.19387  MISS %:    90.8061   MPKI: 1.75702
L1D WRITEBACK ACCESS:          0  HIT:          0  MISS:          0  HIT %:       -nan  MISS %:       -nan   MPKI: 0
L1I TOTAL     ACCESS:   33182689  HIT:   33182689  MISS:          0  HIT %:        100  MISS %:          0   MPKI: 0
L1I LOAD      ACCESS:   33182689  HIT:   33182689  MISS:          0  HIT %:        100  MISS %:          0   MPKI: 0
L1I RFO       ACCESS:          0  HIT:          0  MISS:          0  HIT %:       -nan  MISS %:       -nan   MPKI: 0
L1I PREFETCH  ACCESS:          0  HIT:          0  MISS:          0  HIT %:       -nan  MISS %:       -nan   MPKI: 0
L1I WRITEBACK ACCESS:          0  HIT:          0  MISS:          0  HIT %:       -nan  MISS %:       -nan   MPKI: 0
L2C TOTAL     ACCESS:    1084230  HIT:     215097  MISS:     869133  HIT %:    19.8387  MISS %:    80.1613   MPKI: 4.34538
L2C LOAD      ACCESS:       6154  HIT:          0  MISS:       6154  HIT %:          0  MISS %:        100   MPKI: 0.030768
L2C RFO       ACCESS:     357682  HIT:          0  MISS:     357682  HIT %:          0  MISS %:        100   MPKI: 1.78829
L2C PREFETCH  ACCESS:     351539  HIT:          0  MISS:     351539  HIT %:          0  MISS %:        100   MPKI: 1.75758
L2C WRITEBACK ACCESS:     357674  HIT:     205336  MISS:     152338  HIT %:    57.4087  MISS %:    42.5913   MPKI: 0.76164
PSCL5 TOTAL     ACCESS:      11181  HIT:      11181  MISS:          0  HIT %:        100  MISS %:          0   MPKI: 0
PSCL5 LOAD      ACCESS:          0  HIT:          0  MISS:          0  HIT %:       -nan  MISS %:       -nan   MPKI: 0
PSCL5 RFO       ACCESS:          0  HIT:          0  MISS:          0  HIT %:       -nan  MISS %:       -nan   MPKI: 0
PSCL5 PREFETCH  ACCESS:          0  HIT:          0  MISS:          0  HIT %:       -nan  MISS %:       -nan   MPKI: 0
PSCL5 WRITEBACK ACCESS:          0  HIT:          0  MISS:          0  HIT %:       -nan  MISS %:       -nan   MPKI: 0
PSCL4 TOTAL     ACCESS:      11181  HIT:      11181  MISS:          0  HIT %:        100  MISS %:          0   MPKI: 0
PSCL4 LOAD      ACCESS:          0  HIT:          0  MISS:          0  HIT %:       -nan  MISS %:       -nan   MPKI: 0
PSCL4 RFO       ACCESS:          0  HIT:          0  MISS:          0  HIT %:       -nan  MISS %:       -nan   MPKI: 0
PSCL4 PREFETCH  ACCESS:          0  HIT:          0  MISS:          0  HIT %:       -nan  MISS %:       -nan   MPKI: 0
PSCL4 WRITEBACK ACCESS:          0  HIT:          0  MISS:          0  HIT %:       -nan  MISS %:       -nan   MPKI: 0
PSCL3 TOTAL     ACCESS:      11181  HIT:      11181  MISS:          0  HIT %:        100  MISS %:          0   MPKI: 0
PSCL3 LOAD      ACCESS:          0  HIT:          0  MISS:          0  HIT %:       -nan  MISS %:       -nan   MPKI: 0
PSCL3 RFO       ACCESS:          0  HIT:          0  MISS:          0  HIT %:       -nan  MISS %:       -nan   MPKI: 0
PSCL3 PREFETCH  ACCESS:          0  HIT:          0  MISS:          0  HIT %:       -nan  MISS %:       -nan   MPKI: 0
PSCL3 WRITEBACK ACCESS:          0  HIT:          0  MISS:          0  HIT %:       -nan  MISS %:       -nan   MPKI: 0
PSCL2 TOTAL     ACCESS:      11181  HIT:      11159  MISS:         22  HIT %:    99.8032  MISS %:   0.196762   MPKI: 0.000109993
PSCL2 LOAD      ACCESS:          0  HIT:          0  MISS:          0  HIT %:       -nan  MISS %:       -nan   MPKI: 0
PSCL2 RFO       ACCESS:          0  HIT:          0  MISS:          0  HIT %:       -nan  MISS %:       -nan   MPKI: 0
PSCL2 PREFETCH  ACCESS:          0  HIT:          0  MISS:          0  HIT %:       -nan  MISS %:       -nan   MPKI: 0
PSCL2 WRITEBACK ACCESS:          0  HIT:          0  MISS:          0  HIT %:       -nan  MISS %:       -nan   MPKI: 0

stream: 
stream:times selected: 863172
stream:pref_filled: 349153
stream:pref_useful: 349142
stream:pref_late: 96
stream:misses: 14
stream:misses_by_poll: 0

CS: 
CS:times selected: 820573
CS:pref_filled: 2105
CS:pref_useful: 2105
CS:pref_late: 14
CS:misses: 182354
CS:misses_by_poll: 5

CPLX: 
CPLX:times selected: 42551
CPLX:pref_filled: 169
CPLX:pref_useful: 169
CPLX:pref_late: 1
CPLX:misses: 1
CPLX:misses_by_poll: 0

NL_L1: 
NL:times selected: 2
NL:pref_filled: 0
NL:pref_useful: 0
NL:pref_late: 0
NL:misses: 0
NL:misses_by_poll: 0

total selections: 1726298
total_filled: 351427
total_useful: 351416
total_late: 112
total_polluted: 5
total_misses_after_warmup: 30675
conflicts: 0
Degree Incremented Times: 295793
Degree Decremented Times: 0

L1 IP Table Write Accesses: 49956274
L1 IP Table Read Accesses: 49956274
L1 RST Write Accesses: 2737068
L1 RST Read Accesses: 5474136
L1 CSPT Write Accesses: 2737068
L1 CSPT Read Accesses: 3238703
L1 RR Filter Tag Write Accesses: 1550521
L1 RR Filter Tag Read Accesses: 458571929
L1 IP Table Tag Write Accesses: 49956274
L1 IP Table Tag Read Accesses: 49956274
L1 RST Tag Write Accesses: 0
L1 RST Tag Read Accesses: 24625262
L1 RR Filter Write Accesses: 0
L1 RR Filter Read Accesses: 23424604
test: 55486
LLC TOTAL     ACCESS:    1072762  HIT:     326591  MISS:     746171  HIT %:    30.4439  MISS %:    69.5561   MPKI: 3.73061
LLC LOAD      ACCESS:       6154  HIT:          0  MISS:       6154  HIT %:          0  MISS %:        100   MPKI: 0.030768
LLC RFO       ACCESS:     357682  HIT:          0  MISS:     357682  HIT %:          0  MISS %:        100   MPKI: 1.78829
LLC PREFETCH  ACCESS:     351539  HIT:          0  MISS:     351539  HIT %:          0  MISS %:        100   MPKI: 1.75758
LLC WRITEBACK ACCESS:     355967  HIT:     326591  MISS:      29376  HIT %:    91.7475  MISS %:    8.25245   MPKI: 0.14687

RAW hits: 0
Loads Generated: 42777459
Loads sent to L1D: 42777457
Stores Generated: 22891659
Stores sent to L1D: 22891658

CPU 2 cumulative IPC: 1.13924 instructions: 200025407 cycles: 175577658
ITLB TOTAL     ACCESS:   33184661  HIT:   33184661  MISS:          0  HIT %:        100  MISS %:          0   MPKI: 0
ITLB LOAD      ACCESS:          0  HIT:          0  MISS:          0  HIT %:       -nan  MISS %:       -nan   MPKI: 0
ITLB RFO       ACCESS:          0  HIT:          0  MISS:          0  HIT %:       -nan  MISS %:       -nan   MPKI: 0
ITLB PREFETCH  ACCESS:          0  HIT:          0  MISS:          0  HIT %:       -nan  MISS %:       -nan   MPKI: 0
ITLB WRITEBACK ACCESS:          0  HIT:          0  MISS:          0  HIT %:       -nan  MISS %:       -nan   MPKI: 0
DTLB TOTAL     ACCESS:   33845403  HIT:   33834222  MISS:      11181  HIT %:     99.967  MISS %:  0.0330355   MPKI: 0.0558979
DTLB LOAD      ACCESS:          0  HIT:          0  MISS:          0  HIT %:       -nan  MISS %:       -nan   MPKI: 0
DTLB RFO       ACCESS:          0  HIT:          0  MISS:          0  HIT %:       -nan  MISS %:       -nan   MPKI: 0
DTLB PREFETCH  ACCESS:          0  HIT:          0  MISS:          0  HIT %:       -nan  MISS %:       -nan   MPKI: 0
DTLB WRITEBACK ACCESS:          0  HIT:          0  MISS:          0  HIT %:       -nan  MISS %:       -nan   MPKI: 0
STLB TOTAL     ACCESS:     342270  HIT:     331089  MISS:      11181  HIT %:    96.7333  MISS %:    3.26672   MPKI: 0.0558979
STLB LOAD      ACCESS:          0  HIT:          0  MISS:          0  HIT %:       -nan  MISS %:       -nan   MPKI: 0
STLB RFO       ACCESS:          0  HIT:          0  MISS:          0  HIT %:       -nan  MISS %:       -nan   MPKI: 0
STLB PREFETCH  ACCESS:          0  HIT:          0  MISS:          0  HIT %:       -nan  MISS %:       -nan   MPKI: 0
STLB WRITEBACK ACCESS:          0  HIT:          0  MISS:          0  HIT %:       -nan  MISS %:       -nan   MPKI: 0
L1D TOTAL     ACCESS:   24988544  HIT:   24273125  MISS:     715419  HIT %:     97.137  MISS %:    2.86299   MPKI: 3.57664
L1D LOAD      ACCESS:   12466820  HIT:   12460846  MISS:       5974  HIT %:    99.9521  MISS %:  0.0479192   MPKI: 0.0298662
L1D RFO       ACCESS:   12134171  HIT:   11776467  MISS:     357704  HIT %:    97.0521  MISS %:    2.94791   MPKI: 1.78829
L1D PREFETCH  ACCESS:     387553  HIT:      35812  MISS:     351741  HIT %:    9.24054  MISS %:    90.7595   MPKI: 1.75848
L1D WRITEBACK ACCESS:          0  HIT:          0  MISS:          0  HIT %:       -nan  MISS %:       -nan   MPKI: 0
L1I TOTAL     ACCESS:   33184660  HIT:   33184660  MISS:          0  HIT %:        100  MISS %:          0   MPKI: 0
L1I LOAD      ACCESS:   33184660  HIT:   33184660  MISS:          0  HIT %:        100  MISS %:          0   MPKI: 0
L1I RFO       ACCESS:          0  HIT:          0  MISS:          0  HIT %:       -nan  MISS %:       -nan   MPKI: 0
L1I PREFETCH  ACCESS:          0  HIT:          0  MISS:          0  HIT %:       -nan  MISS %:       -nan   MPKI: 0
L1I WRITEBACK ACCESS:          0  HIT:          0  MISS:          0  HIT %:       -nan  MISS %:       -nan   MPKI: 0
L2C TOTAL     ACCESS:    1084295  HIT:     202645  MISS:     881650  HIT %:    18.6891  MISS %:    81.3109   MPKI: 4.40769
L2C LOAD      ACCESS:       5870  HIT:          0  MISS:       5870  HIT %:          0  MISS %:        100   MPKI: 0.0293463
L2C RFO       ACCESS:     357704  HIT:          0  MISS:     357704  HIT %:          0  MISS %:        100   MPKI: 1.78829
L2C PREFETCH  ACCESS:     351845  HIT:          0  MISS:     351845  HIT %:          0  MISS %:        100   MPKI: 1.759
L2C WRITEBACK ACCESS:     357695  HIT:     192885  MISS:     164810  HIT %:    53.9244  MISS %:    46.0756   MPKI: 0.823945
PSCL5 TOTAL     ACCESS:      11181  HIT:      11181  MISS:          0  HIT %:        100  MISS %:          0   MPKI: 0
PSCL5 LOAD      ACCESS:          0  HIT:          0  MISS:          0  HIT %:       -nan  MISS %:       -nan   MPKI: 0
PSCL5 RFO       ACCESS:          0  HIT:          0  MISS:          0  HIT %:       -nan  MISS %:       -nan   MPKI: 0
PSCL5 PREFETCH  ACCESS:          0  HIT:          0  MISS:          0  HIT %:       -nan  MISS %:       -nan   MPKI: 0
PSCL5 WRITEBACK ACCESS:          0  HIT:          0  MISS:          0  HIT %:       -nan  MISS %:       -nan   MPKI: 0
PSCL4 TOTAL     ACCESS:      11181  HIT:      11181  MISS:          0  HIT %:        100  MISS %:          0   MPKI: 0
PSCL4 LOAD      ACCESS:          0  HIT:          0  MISS:          0  HIT %:       -nan  MISS %:       -nan   MPKI: 0
PSCL4 RFO       ACCESS:          0  HIT:          0  MISS:          0  HIT %:       -nan  MISS %:       -nan   MPKI: 0
PSCL4 PREFETCH  ACCESS:          0  HIT:          0  MISS:          0  HIT %:       -nan  MISS %:       -nan   MPKI: 0
PSCL4 WRITEBACK ACCESS:          0  HIT:          0  MISS:          0  HIT %:       -nan  MISS %:       -nan   MPKI: 0
PSCL3 TOTAL     ACCESS:      11181  HIT:      11181  MISS:          0  HIT %:        100  MISS %:          0   MPKI: 0
PSCL3 LOAD      ACCESS:          0  HIT:          0  MISS:          0  HIT %:       -nan  MISS %:       -nan   MPKI: 0
PSCL3 RFO       ACCESS:          0  HIT:          0  MISS:          0  HIT %:       -nan  MISS %:       -nan   MPKI: 0
PSCL3 PREFETCH  ACCESS:          0  HIT:          0  MISS:          0  HIT %:       -nan  MISS %:       -nan   MPKI: 0
PSCL3 WRITEBACK ACCESS:          0  HIT:          0  MISS:          0  HIT %:       -nan  MISS %:       -nan   MPKI: 0
PSCL2 TOTAL     ACCESS:      11181  HIT:      11159  MISS:         22  HIT %:    99.8032  MISS %:   0.196762   MPKI: 0.000109986
PSCL2 LOAD      ACCESS:          0  HIT:          0  MISS:          0  HIT %:       -nan  MISS %:       -nan   MPKI: 0
PSCL2 RFO       ACCESS:          0  HIT:          0  MISS:          0  HIT %:       -nan  MISS %:       -nan   MPKI: 0
PSCL2 PREFETCH  ACCESS:          0  HIT:          0  MISS:          0  HIT %:       -nan  MISS %:       -nan   MPKI: 0
PSCL2 WRITEBACK ACCESS:          0  HIT:          0  MISS:          0  HIT %:       -nan  MISS %:       -nan   MPKI: 0

stream: 
stream:times selected: 863128
stream:pref_filled: 349828
stream:pref_useful: 349817
stream:pref_late: 92
stream:misses: 23
stream:misses_by_poll: 0

CS: 
CS:times selected: 820578
CS:pref_filled: 1753
CS:pref_useful: 1753
CS:pref_late: 10
CS:misses: 197441
CS:misses_by_poll: 6

CPLX: 
CPLX:times selected: 42498
CPLX:pref_filled: 160
CPLX:pref_useful: 160
CPLX:pref_late: 0
CPLX:misses: 1
CPLX:misses_by_poll: 0

NL_L1: 
NL:times selected: 1
NL:pref_filled: 0
NL:pref_useful: 0
NL:pref_late: 0
NL:misses: 0
NL:misses_by_poll: 0

total selections: 1726205
total_filled: 351741
total_useful: 351730
total_late: 104
total_polluted: 6
total_misses_after_warmup: 28835
conflicts: 0
Degree Incremented Times: 295793
Degree Decremented Times: 0

L1 IP Table Write Accesses: 49956274
L1 IP Table Read Accesses: 49956274
L1 RST Write Accesses: 2737068
L1 RST Read Accesses: 5474136
L1 CSPT Write Accesses: 2737068
L1 CSPT Read Accesses: 3238703
L1 RR Filter Tag Write Accesses: 1550521
L1 RR Filter Tag Read Accesses: 458571929
L1 IP Table Tag Write Accesses: 49956274
L1 IP Table Tag Read Accesses: 49956274
L1 RST Tag Write Accesses: 0
L1 RST Tag Read Accesses: 24625262
L1 RR Filter Write Accesses: 0
L1 RR Filter Read Accesses: 23424604
test: 55486
LLC TOTAL     ACCESS:    1075553  HIT:     331808  MISS:     743745  HIT %:      30.85  MISS %:      69.15   MPKI: 3.71825
LLC LOAD      ACCESS:       5870  HIT:          0  MISS:       5870  HIT %:          0  MISS %:        100   MPKI: 0.0293463
LLC RFO       ACCESS:     357704  HIT:          0  MISS:     357704  HIT %:          0  MISS %:        100   MPKI: 1.78829
LLC PREFETCH  ACCESS:     351845  HIT:          0  MISS:     351845  HIT %:          0  MISS %:        100   MPKI: 1.759
LLC WRITEBACK ACCESS:     358713  HIT:     331808  MISS:      26905  HIT %:    92.4996  MISS %:    7.50043   MPKI: 0.134508

RAW hits: 0
Loads Generated: 42780071
Loads sent to L1D: 42780069
Stores Generated: 22893054
Stores sent to L1D: 22893054

CPU 3 cumulative IPC: 1.1391 instructions: 200000003 cycles: 175577658
ITLB TOTAL     ACCESS:   33180468  HIT:   33180468  MISS:          0  HIT %:        100  MISS %:          0   MPKI: 0
ITLB LOAD      ACCESS:          0  HIT:          0  MISS:          0  HIT %:       -nan  MISS %:       -nan   MPKI: 0
ITLB RFO       ACCESS:          0  HIT:          0  MISS:          0  HIT %:       -nan  MISS %:       -nan   MPKI: 0
ITLB PREFETCH  ACCESS:          0  HIT:          0  MISS:          0  HIT %:       -nan  MISS %:       -nan   MPKI: 0
ITLB WRITEBACK ACCESS:          0  HIT:          0  MISS:          0  HIT %:       -nan  MISS %:       -nan   MPKI: 0
DTLB TOTAL     ACCESS:   33839919  HIT:   33828742  MISS:      11177  HIT %:     99.967  MISS %:   0.033029   MPKI: 0.055885
DTLB LOAD      ACCESS:          0  HIT:          0  MISS:          0  HIT %:       -nan  MISS %:       -nan   MPKI: 0
DTLB RFO       ACCESS:          0  HIT:          0  MISS:          0  HIT %:       -nan  MISS %:       -nan   MPKI: 0
DTLB PREFETCH  ACCESS:          0  HIT:          0  MISS:          0  HIT %:       -nan  MISS %:       -nan   MPKI: 0
DTLB WRITEBACK ACCESS:          0  HIT:          0  MISS:          0  HIT %:       -nan  MISS %:       -nan   MPKI: 0
STLB TOTAL     ACCESS:     339956  HIT:     328779  MISS:      11177  HIT %:    96.7122  MISS %:    3.28778   MPKI: 0.055885
STLB LOAD      ACCESS:          0  HIT:          0  MISS:          0  HIT %:       -nan  MISS %:       -nan   MPKI: 0
STLB RFO       ACCESS:          0  HIT:          0  MISS:          0  HIT %:       -nan  MISS %:       -nan   MPKI: 0
STLB PREFETCH  ACCESS:          0  HIT:          0  MISS:          0  HIT %:       -nan  MISS %:       -nan   MPKI: 0
STLB WRITEBACK ACCESS:          0  HIT:          0  MISS:          0  HIT %:       -nan  MISS %:       -nan   MPKI: 0
L1D TOTAL     ACCESS:   25099360  HIT:   24384039  MISS:     715321  HIT %:      97.15  MISS %:    2.84996   MPKI: 3.5766
L1D LOAD      ACCESS:   12461097  HIT:   12454674  MISS:       6423  HIT %:    99.9485  MISS %:  0.0515444   MPKI: 0.032115
L1D RFO       ACCESS:   12251217  HIT:   11893559  MISS:     357658  HIT %:    97.0806  MISS %:    2.91937   MPKI: 1.78829
L1D PREFETCH  ACCESS:     387046  HIT:      35806  MISS:     351240  HIT %:     9.2511  MISS %:    90.7489   MPKI: 1.7562
L1D WRITEBACK ACCESS:          0  HIT:          0  MISS:          0  HIT %:       -nan  MISS %:       -nan   MPKI: 0
L1I TOTAL     ACCESS:   33180468  HIT:   33180468  MISS:          0  HIT %:        100  MISS %:          0   MPKI: 0
L1I LOAD      ACCESS:   33180468  HIT:   33180468  MISS:          0  HIT %:        100  MISS %:          0   MPKI: 0
L1I RFO       ACCESS:          0  HIT:          0  MISS:          0  HIT %:       -nan  MISS %:       -nan   MPKI: 0
L1I PREFETCH  ACCESS:          0  HIT:          0  MISS:          0  HIT %:       -nan  MISS %:       -nan   MPKI: 0
L1I WRITEBACK ACCESS:          0  HIT:          0  MISS:          0  HIT %:       -nan  MISS %:       -nan   MPKI: 0
L2C TOTAL     ACCESS:    1084156  HIT:     221816  MISS:     862340  HIT %:    20.4598  MISS %:    79.5402   MPKI: 4.3117
L2C LOAD      ACCESS:       6296  HIT:          0  MISS:       6296  HIT %:          0  MISS %:        100   MPKI: 0.03148
L2C RFO       ACCESS:     357658  HIT:          0  MISS:     357658  HIT %:          0  MISS %:        100   MPKI: 1.78829
L2C PREFETCH  ACCESS:     351367  HIT:          0  MISS:     351367  HIT %:          0  MISS %:        100   MPKI: 1.75683
L2C WRITEBACK ACCESS:     357658  HIT:     212059  MISS:     145599  HIT %:     59.291  MISS %:     40.709   MPKI: 0.727995
PSCL5 TOTAL     ACCESS:      11177  HIT:      11177  MISS:          0  HIT %:        100  MISS %:          0   MPKI: 0
PSCL5 LOAD      ACCESS:          0  HIT:          0  MISS:          0  HIT %:       -nan  MISS %:       -nan   MPKI: 0
PSCL5 RFO       ACCESS:          0  HIT:          0  MISS:          0  HIT %:       -nan  MISS %:       -nan   MPKI: 0
PSCL5 PREFETCH  ACCESS:          0  HIT:          0  MISS:          0  HIT %:       -nan  MISS %:       -nan   MPKI: 0
PSCL5 WRITEBACK ACCESS:          0  HIT:          0  MISS:          0  HIT %:       -nan  MISS %:       -nan   MPKI: 0
PSCL4 TOTAL     ACCESS:      11177  HIT:      11177  MISS:          0  HIT %:        100  MISS %:          0   MPKI: 0
PSCL4 LOAD      ACCESS:          0  HIT:          0  MISS:          0  HIT %:       -nan  MISS %:       -nan   MPKI: 0
PSCL4 RFO       ACCESS:          0  HIT:          0  MISS:          0  HIT %:       -nan  MISS %:       -nan   MPKI: 0
PSCL4 PREFETCH  ACCESS:          0  HIT:          0  MISS:          0  HIT %:       -nan  MISS %:       -nan   MPKI: 0
PSCL4 WRITEBACK ACCESS:          0  HIT:          0  MISS:          0  HIT %:       -nan  MISS %:       -nan   MPKI: 0
PSCL3 TOTAL     ACCESS:      11177  HIT:      11177  MISS:          0  HIT %:        100  MISS %:          0   MPKI: 0
PSCL3 LOAD      ACCESS:          0  HIT:          0  MISS:          0  HIT %:       -nan  MISS %:       -nan   MPKI: 0
PSCL3 RFO       ACCESS:          0  HIT:          0  MISS:          0  HIT %:       -nan  MISS %:       -nan   MPKI: 0
PSCL3 PREFETCH  ACCESS:          0  HIT:          0  MISS:          0  HIT %:       -nan  MISS %:       -nan   MPKI: 0
PSCL3 WRITEBACK ACCESS:          0  HIT:          0  MISS:          0  HIT %:       -nan  MISS %:       -nan   MPKI: 0
PSCL2 TOTAL     ACCESS:      11177  HIT:      11155  MISS:         22  HIT %:    99.8032  MISS %:   0.196833   MPKI: 0.00011
PSCL2 LOAD      ACCESS:          0  HIT:          0  MISS:          0  HIT %:       -nan  MISS %:       -nan   MPKI: 0
PSCL2 RFO       ACCESS:          0  HIT:          0  MISS:          0  HIT %:       -nan  MISS %:       -nan   MPKI: 0
PSCL2 PREFETCH  ACCESS:          0  HIT:          0  MISS:          0  HIT %:       -nan  MISS %:       -nan   MPKI: 0
PSCL2 WRITEBACK ACCESS:          0  HIT:          0  MISS:          0  HIT %:       -nan  MISS %:       -nan   MPKI: 0

stream: 
stream:times selected: 863127
stream:pref_filled: 349150
stream:pref_useful: 349145
stream:pref_late: 103
stream:misses: 17
stream:misses_by_poll: 0

CS: 
CS:times selected: 820512
CS:pref_filled: 1913
CS:pref_useful: 1913
CS:pref_late: 23
CS:misses: 200291
CS:misses_by_poll: 2

CPLX: 
CPLX:times selected: 42561
CPLX:pref_filled: 177
CPLX:pref_useful: 177
CPLX:pref_late: 1
CPLX:misses: 1
CPLX:misses_by_poll: 0

NL_L1: 
NL:times selected: 0
NL:pref_filled: 0
NL:pref_useful: 0
NL:pref_late: 0
NL:misses: 0
NL:misses_by_poll: 0

total selections: 1726200
total_filled: 351240
total_useful: 351235
total_late: 127
total_polluted: 2
total_misses_after_warmup: 31608
conflicts: 0
Degree Incremented Times: 295793
Degree Decremented Times: 0

L1 IP Table Write Accesses: 49956274
L1 IP Table Read Accesses: 49956274
L1 RST Write Accesses: 2737068
L1 RST Read Accesses: 5474136
L1 CSPT Write Accesses: 2737068
L1 CSPT Read Accesses: 3238703
L1 RR Filter Tag Write Accesses: 1550521
L1 RR Filter Tag Read Accesses: 458571929
L1 IP Table Tag Write Accesses: 49956274
L1 IP Table Tag Read Accesses: 49956274
L1 RST Tag Write Accesses: 0
L1 RST Tag Read Accesses: 24625262
L1 RR Filter Write Accesses: 0
L1 RR Filter Read Accesses: 23424604
test: 55486
LLC TOTAL     ACCESS:    1075586  HIT:     332571  MISS:     743015  HIT %:      30.92  MISS %:      69.08   MPKI: 3.71507
LLC LOAD      ACCESS:       6296  HIT:          0  MISS:       6296  HIT %:          0  MISS %:        100   MPKI: 0.03148
LLC RFO       ACCESS:     357658  HIT:          0  MISS:     357658  HIT %:          0  MISS %:        100   MPKI: 1.78829
LLC PREFETCH  ACCESS:     351367  HIT:          0  MISS:     351367  HIT %:          0  MISS %:        100   MPKI: 1.75683
LLC WRITEBACK ACCESS:     358845  HIT:     332570  MISS:      26275  HIT %:    92.6779  MISS %:     7.3221   MPKI: 0.131375

RAW hits: 0
Loads Generated: 42774634
Loads sent to L1D: 42774634
Stores Generated: 22890146
Stores sent to L1D: 22890147

Region of Interest Statistics

CPU 0 cumulative IPC: 1.13936 instructions: 200000000 cycles: 175536517
ITLB TOTAL     ACCESS:   33180480  HIT:   33180480  MISS:          0  HIT %:        100  MISS %:          0   MPKI: 0
ITLB LOAD TRANSLATION ACCESS:   33180480  HIT:   33180480  MISS:          0  HIT %:        100  MISS %:          0   MPKI: 0
ITLB PREFETCH  REQUESTED:          0  ISSUED:          0  USEFUL:          0  USELESS:          0
ITLB USEFUL LOAD PREFETCHES:          0 PREFETCH ISSUED TO LOWER LEVEL:          0  ACCURACY: -nan
ITLB TIMELY PREFETCHES:          0 LATE PREFETCHES: 0 DROPPED PREFETCHES: 0
ITLB PREFETCHES SAME FILL-ORIGIN LEVEL: 0 DIFFERENT FILL-ORIGIN LEVEL: 0
ITLB AVERAGE MISS LATENCY: -nan cycles
ITLB RQ	ACCESS:   33188181	FORWARD:          0	MERGED:          0	TO_CACHE:   33188181

DTLB TOTAL     ACCESS:   33842023  HIT:   33830845  MISS:      11178  HIT %:     99.967  MISS %:  0.0330299   MPKI: 0.05589
DTLB LOAD TRANSLATION ACCESS:   33842023  HIT:   33830845  MISS:      11178  HIT %:     99.967  MISS %:  0.0330299   MPKI: 0.05589
DTLB PREFETCH  REQUESTED:          0  ISSUED:          0  USEFUL:          0  USELESS:          0
DTLB USEFUL LOAD PREFETCHES:          0 PREFETCH ISSUED TO LOWER LEVEL:          0  ACCURACY: -nan
DTLB TIMELY PREFETCHES:          0 LATE PREFETCHES: 0 DROPPED PREFETCHES: 0
DTLB PREFETCHES SAME FILL-ORIGIN LEVEL: 0 DIFFERENT FILL-ORIGIN LEVEL: 0
DTLB AVERAGE MISS LATENCY: 151.091 cycles
DTLB RQ	ACCESS:   35388164	FORWARD:          0	MERGED:    1504382	TO_CACHE:   33883782

STLB TOTAL     ACCESS:     342701  HIT:     331523  MISS:      11178  HIT %:    96.7383  MISS %:    3.26174   MPKI: 0.05589
STLB LOAD TRANSLATION ACCESS:      11178  HIT:          0  MISS:      11178  HIT %:          0  MISS %:        100   MPKI: 0.05589
STLB TRANSLATION FROM L1D PREFETCHER ACCESS:     331523  HIT:     331523  MISS:          0  HIT %:        100  MISS %:          0   MPKI: 0
STLB PREFETCH  REQUESTED:          0  ISSUED:          0  USEFUL:          0  USELESS:          0
STLB USEFUL LOAD PREFETCHES:          0 PREFETCH ISSUED TO LOWER LEVEL:          0  ACCURACY: -nan
STLB TIMELY PREFETCHES:          0 LATE PREFETCHES: 0 DROPPED PREFETCHES: 0
STLB PREFETCHES SAME FILL-ORIGIN LEVEL: 0 DIFFERENT FILL-ORIGIN LEVEL: 0
STLB AVERAGE MISS LATENCY: 142.087 cycles
STLB RQ	ACCESS:     399647	FORWARD:          0	MERGED:      56867	TO_CACHE:     342780

STLB Hit, L1D data hit: 0
STLB Hit, L2C data hit: 0
STLB Hit, LLC data hit: 0
STLB Hit, LLC data miss: 0
STLB STLB hints to L2: 0
L1D TOTAL     ACCESS:   25066035  HIT:   24350715  MISS:     715320  HIT %:    97.1463  MISS %:    2.85374   MPKI: 3.5766
L1D LOAD      ACCESS:   12468413  HIT:   12462738  MISS:       5675  HIT %:    99.9545  MISS %:   0.045515   MPKI: 0.028375
L1D RFO       ACCESS:   12209328  HIT:   11851670  MISS:     357658  HIT %:    97.0706  MISS %:    2.92938   MPKI: 1.78829
L1D PREFETCH  ACCESS:     388294  HIT:      36307  MISS:     351987  HIT %:    9.35039  MISS %:    90.6496   MPKI: 1.75994
L1D PREFETCH  REQUESTED:     776928  ISSUED:     776928  USEFUL:     352065  USELESS:          0
L1D USEFUL LOAD PREFETCHES:     352065 PREFETCH ISSUED TO LOWER LEVEL:     352156  ACCURACY: 99.9742
L1D TIMELY PREFETCHES:     352065 LATE PREFETCHES: 85 DROPPED PREFETCHES: 0
L1D PREFETCHES SAME FILL-ORIGIN LEVEL: 352156 DIFFERENT FILL-ORIGIN LEVEL: 0
L1D AVERAGE MISS LATENCY: 224.667 cycles
L1D RQ	ACCESS:   42784566	FORWARD:          0	MERGED:   30291860	TO_CACHE:   12492706
L1D WQ	ACCESS:   22895458	FORWARD:          0	MERGED:          0	TO_CACHE:   22895458
L1D PQ	ACCESS:     388464	FORWARD:          0	MERGED:          0	TO_CACHE:     388464

L1D UNIQUE REGIONS ACCESSED: 0
L1D REGIONS CONFLICTS: 0
L1D Cross Page Prefetch Requests: 0
L1D Same Page Prefetch Requests: 476701
L1D ROI Sum of L1D PQ occupancy: 4295661
L1D PREFETCHES PUSHED FROM L2C: 0
L1I TOTAL     ACCESS:   33180480  HIT:   33180480  MISS:          0  HIT %:        100  MISS %:          0   MPKI: 0
L1I LOAD      ACCESS:   33180480  HIT:   33180480  MISS:          0  HIT %:        100  MISS %:          0   MPKI: 0
L1I PREFETCH  REQUESTED:          0  ISSUED:          0  USEFUL:          0  USELESS:          0
L1I USEFUL LOAD PREFETCHES:          0 PREFETCH ISSUED TO LOWER LEVEL:          0  ACCURACY: -nan
L1I TIMELY PREFETCHES:          0 LATE PREFETCHES: 0 DROPPED PREFETCHES: 0
L1I PREFETCHES SAME FILL-ORIGIN LEVEL: 0 DIFFERENT FILL-ORIGIN LEVEL: 0
L1I AVERAGE MISS LATENCY: -nan cycles
L1I RQ	ACCESS:   55504169	FORWARD:          0	MERGED:   22315988	TO_CACHE:   33188181

BTB TOTAL     ACCESS:   45780290  HIT:   45780287  MISS:          3  HIT %:        100  MISS %: 6.55304e-06   MPKI: 1.5e-05
BTB BRANCH_DIRECT_JUMP	ACCESS:          0  HIT:          0  MISS:          0
BTB BRANCH_INDIRECT	ACCESS:          0  HIT:          0  MISS:          0
BTB BRANCH_CONDITIONAL	ACCESS:   45780290  HIT:   45780287  MISS:          3
BTB BRANCH_DIRECT_CALL	ACCESS:          0  HIT:          0  MISS:          0
BTB BRANCH_INDIRECT_CALL	ACCESS:          0  HIT:          0  MISS:          0
BTB BRANCH_RETURN	ACCESS:          0  HIT:          0  MISS:          0
BTB BRANCH_OTHER ACCESS:          0  HIT:          0  MISS:          0

L2C TOTAL     ACCESS:    1084158  HIT:     211465  MISS:     872693  HIT %:     19.505  MISS %:     80.495   MPKI: 4.36346
L2C LOAD      ACCESS:       5590  HIT:          0  MISS:       5590  HIT %:          0  MISS %:        100   MPKI: 0.02795
L2C DATA LOAD MPKI: 0.02795
L2C INSTRUCTION LOAD MPKI: 0
L2C RFO       ACCESS:     357658  HIT:          0  MISS:     357658  HIT %:          0  MISS %:        100   MPKI: 1.78829
L2C PREFETCH  ACCESS:     352073  HIT:          0  MISS:     352073  HIT %:          0  MISS %:        100   MPKI: 1.76036
L2C DATA PREFETCH MPKI: 1.76036
L2C INSTRUCTION PREFETCH MPKI: 0
L2C WRITEBACK ACCESS:     357658  HIT:     201708  MISS:     155950  HIT %:    56.3969  MISS %:    43.6031   MPKI: 0.77975
L2C LOAD TRANSLATION ACCESS:      11179  HIT:       9757  MISS:       1422  HIT %:    87.2797  MISS %:    12.7203   MPKI: 0.00711
L2C PREFETCH  REQUESTED:          0  ISSUED:          0  USEFUL:          0  USELESS:     353942
L2C USEFUL LOAD PREFETCHES:          0 PREFETCH ISSUED TO LOWER LEVEL:     352156  ACCURACY: 0
L2C TIMELY PREFETCHES:          0 LATE PREFETCHES: 0 DROPPED PREFETCHES: 0
L2C PREFETCHES SAME FILL-ORIGIN LEVEL: 0 DIFFERENT FILL-ORIGIN LEVEL: 0
L2C AVERAGE MISS LATENCY: 173.883 cycles
L2C RQ	ACCESS:     374517	FORWARD:          0	MERGED:          0	TO_CACHE:     374517
L2C WQ	ACCESS:     357738	FORWARD:          0	MERGED:          0	TO_CACHE:     357738
L2C PQ	ACCESS:     352156	FORWARD:          0	MERGED:          0	TO_CACHE:     352156

L2C Instructions Evicting Data 0
L2C Translations Evicting Data 1423
L2C Data Evicting Data 714205
L2C Instructions Evicting Instructions 0
L2C Translations Evicting Instructions 0
L2C Data Evicting Instructions 0
L2C Instructions Evicting Translations 0
L2C Translations Evicting Translations 0
L2C Data Evicting Translations 1283
L2C Dense regions hint from L2: 0
PSCL5 TOTAL     ACCESS:      11179  HIT:      11179  MISS:          0  HIT %:        100  MISS %:          0   MPKI: 0
PSCL5 LOAD TRANSLATION ACCESS:      11179  HIT:      11179  MISS:          0  HIT %:        100  MISS %:          0   MPKI: 0
PSCL5 PREFETCH  REQUESTED:          0  ISSUED:          0  USEFUL:          0  USELESS:          0
PSCL5 USEFUL LOAD PREFETCHES:          0 PREFETCH ISSUED TO LOWER LEVEL:          0  ACCURACY: -nan
PSCL5 TIMELY PREFETCHES:          0 LATE PREFETCHES: 0 DROPPED PREFETCHES: 0
PSCL5 PREFETCHES SAME FILL-ORIGIN LEVEL: 0 DIFFERENT FILL-ORIGIN LEVEL: 0

PSCL4 TOTAL     ACCESS:      11179  HIT:      11179  MISS:          0  HIT %:        100  MISS %:          0   MPKI: 0
PSCL4 LOAD TRANSLATION ACCESS:      11179  HIT:      11179  MISS:          0  HIT %:        100  MISS %:          0   MPKI: 0
PSCL4 PREFETCH  REQUESTED:          0  ISSUED:          0  USEFUL:          0  USELESS:          0
PSCL4 USEFUL LOAD PREFETCHES:          0 PREFETCH ISSUED TO LOWER LEVEL:          0  ACCURACY: -nan
PSCL4 TIMELY PREFETCHES:          0 LATE PREFETCHES: 0 DROPPED PREFETCHES: 0
PSCL4 PREFETCHES SAME FILL-ORIGIN LEVEL: 0 DIFFERENT FILL-ORIGIN LEVEL: 0

PSCL3 TOTAL     ACCESS:      11179  HIT:      11179  MISS:          0  HIT %:        100  MISS %:          0   MPKI: 0
PSCL3 LOAD TRANSLATION ACCESS:      11179  HIT:      11179  MISS:          0  HIT %:        100  MISS %:          0   MPKI: 0
PSCL3 PREFETCH  REQUESTED:          0  ISSUED:          0  USEFUL:          0  USELESS:          0
PSCL3 USEFUL LOAD PREFETCHES:          0 PREFETCH ISSUED TO LOWER LEVEL:          0  ACCURACY: -nan
PSCL3 TIMELY PREFETCHES:          0 LATE PREFETCHES: 0 DROPPED PREFETCHES: 0
PSCL3 PREFETCHES SAME FILL-ORIGIN LEVEL: 0 DIFFERENT FILL-ORIGIN LEVEL: 0

PSCL2 TOTAL     ACCESS:      11179  HIT:      11157  MISS:         22  HIT %:    99.8032  MISS %:   0.196798   MPKI: 0.00011
PSCL2 LOAD TRANSLATION ACCESS:      11179  HIT:      11157  MISS:         22  HIT %:    99.8032  MISS %:   0.196798   MPKI: 0.00011
PSCL2 PREFETCH  REQUESTED:          0  ISSUED:          0  USEFUL:          0  USELESS:          0
PSCL2 USEFUL LOAD PREFETCHES:          0 PREFETCH ISSUED TO LOWER LEVEL:          0  ACCURACY: -nan
PSCL2 TIMELY PREFETCHES:          0 LATE PREFETCHES: 0 DROPPED PREFETCHES: 0
PSCL2 PREFETCHES SAME FILL-ORIGIN LEVEL: 0 DIFFERENT FILL-ORIGIN LEVEL: 0

LLC TOTAL     ACCESS:    1072639  HIT:     330181  MISS:     742458  HIT %:    30.7821  MISS %:    69.2179   MPKI: 3.71229
LLC LOAD      ACCESS:       5590  HIT:          0  MISS:       5590  HIT %:          0  MISS %:        100   MPKI: 0.02795
LLC RFO       ACCESS:     357658  HIT:          0  MISS:     357658  HIT %:          0  MISS %:        100   MPKI: 1.78829
LLC PREFETCH  ACCESS:     352073  HIT:          0  MISS:     352073  HIT %:          0  MISS %:        100   MPKI: 1.76036
LLC WRITEBACK ACCESS:     355896  HIT:     330180  MISS:      25716  HIT %:    92.7743  MISS %:    7.22571   MPKI: 0.12858
LLC LOAD TRANSLATION ACCESS:       1422  HIT:          1  MISS:       1421  HIT %:  0.0703235  MISS %:    99.9297   MPKI: 0.007105
LLC PREFETCH  REQUESTED:          0  ISSUED:          0  USEFUL:          0  USELESS:    1361474
LLC USEFUL LOAD PREFETCHES:          0 PREFETCH ISSUED TO LOWER LEVEL:    1406909  ACCURACY: 0
LLC TIMELY PREFETCHES:          0 LATE PREFETCHES: 0 DROPPED PREFETCHES: 0
LLC PREFETCHES SAME FILL-ORIGIN LEVEL: 0 DIFFERENT FILL-ORIGIN LEVEL: 0
LLC AVERAGE MISS LATENCY: 697.578 cycles
LLC RQ	ACCESS:    1460382	FORWARD:          0	MERGED:          0	TO_CACHE:    1460382
LLC WQ	ACCESS:    1429509	FORWARD:          0	MERGED:          0	TO_CACHE:    1429509
LLC PQ	ACCESS:    1406910	FORWARD:          0	MERGED:          0	TO_CACHE:    1406910

LLC Dense regions hint to LLC: 0

RAW hits: 0
Loads Generated: 42774640
Loads sent to L1D: 42774640
Stores Generated: 22890150
Stores sent to L1D: 22890146
Major fault: 0 Minor fault: 14010
Allocated PAGES: 56040

CPU 1 cumulative IPC: 1.13917 instructions: 200000000 cycles: 175565913
ITLB TOTAL     ACCESS:   33180502  HIT:   33180502  MISS:          0  HIT %:        100  MISS %:          0   MPKI: 0
ITLB LOAD TRANSLATION ACCESS:   33180502  HIT:   33180502  MISS:          0  HIT %:        100  MISS %:          0   MPKI: 0
ITLB PREFETCH  REQUESTED:          0  ISSUED:          0  USEFUL:          0  USELESS:          0
ITLB USEFUL LOAD PREFETCHES:          0 PREFETCH ISSUED TO LOWER LEVEL:          0  ACCURACY: -nan
ITLB TIMELY PREFETCHES:          0 LATE PREFETCHES: 0 DROPPED PREFETCHES: 0
ITLB PREFETCHES SAME FILL-ORIGIN LEVEL: 0 DIFFERENT FILL-ORIGIN LEVEL: 0
ITLB AVERAGE MISS LATENCY: -nan cycles
ITLB RQ	ACCESS:   33182689	FORWARD:          0	MERGED:          0	TO_CACHE:   33182689

DTLB TOTAL     ACCESS:   33840088  HIT:   33828909  MISS:      11179  HIT %:     99.967  MISS %:  0.0330348   MPKI: 0.055895
DTLB LOAD TRANSLATION ACCESS:   33840088  HIT:   33828909  MISS:      11179  HIT %:     99.967  MISS %:  0.0330348   MPKI: 0.055895
DTLB PREFETCH  REQUESTED:          0  ISSUED:          0  USEFUL:          0  USELESS:          0
DTLB USEFUL LOAD PREFETCHES:          0 PREFETCH ISSUED TO LOWER LEVEL:          0  ACCURACY: -nan
DTLB TIMELY PREFETCHES:          0 LATE PREFETCHES: 0 DROPPED PREFETCHES: 0
DTLB PREFETCHES SAME FILL-ORIGIN LEVEL: 0 DIFFERENT FILL-ORIGIN LEVEL: 0
DTLB AVERAGE MISS LATENCY: 151.039 cycles
DTLB RQ	ACCESS:   35379256	FORWARD:          0	MERGED:    1502855	TO_CACHE:   33876401

STLB TOTAL     ACCESS:     340819  HIT:     329640  MISS:      11179  HIT %:      96.72  MISS %:    3.28004   MPKI: 0.055895
STLB LOAD TRANSLATION ACCESS:      11179  HIT:          0  MISS:      11179  HIT %:          0  MISS %:        100   MPKI: 0.055895
STLB TRANSLATION FROM L1D PREFETCHER ACCESS:     329640  HIT:     329640  MISS:          0  HIT %:        100  MISS %:          0   MPKI: 0
STLB PREFETCH  REQUESTED:          0  ISSUED:          0  USEFUL:          0  USELESS:          0
STLB USEFUL LOAD PREFETCHES:          0 PREFETCH ISSUED TO LOWER LEVEL:          0  ACCURACY: -nan
STLB TIMELY PREFETCHES:          0 LATE PREFETCHES: 0 DROPPED PREFETCHES: 0
STLB PREFETCHES SAME FILL-ORIGIN LEVEL: 0 DIFFERENT FILL-ORIGIN LEVEL: 0
STLB AVERAGE MISS LATENCY: 142.037 cycles
STLB RQ	ACCESS:     398343	FORWARD:          0	MERGED:      57503	TO_CACHE:     340840

STLB Hit, L1D data hit: 0
STLB Hit, L2C data hit: 0
STLB Hit, LLC data hit: 0
STLB Hit, LLC data miss: 0
STLB STLB hints to L2: 0
L1D TOTAL     ACCESS:   25070386  HIT:   24355060  MISS:     715326  HIT %:    97.1467  MISS %:    2.85327   MPKI: 3.57663
L1D LOAD      ACCESS:   12462360  HIT:   12456095  MISS:       6265  HIT %:    99.9497  MISS %:  0.0502714   MPKI: 0.031325
L1D RFO       ACCESS:   12221043  HIT:   11863384  MISS:     357659  HIT %:    97.0734  MISS %:    2.92658   MPKI: 1.78829
L1D PREFETCH  ACCESS:     386983  HIT:      35581  MISS:     351402  HIT %:    9.19446  MISS %:    90.8055   MPKI: 1.75701
L1D PREFETCH  REQUESTED:     774324  ISSUED:     774324  USEFUL:     351416  USELESS:          0
L1D USEFUL LOAD PREFETCHES:     351416 PREFETCH ISSUED TO LOWER LEVEL:     351540  ACCURACY: 99.9647
L1D TIMELY PREFETCHES:     351416 LATE PREFETCHES: 112 DROPPED PREFETCHES: 0
L1D PREFETCHES SAME FILL-ORIGIN LEVEL: 351540 DIFFERENT FILL-ORIGIN LEVEL: 0
L1D AVERAGE MISS LATENCY: 223.747 cycles
L1D RQ	ACCESS:   42777457	FORWARD:          0	MERGED:   30289859	TO_CACHE:   12487598
L1D WQ	ACCESS:   22891658	FORWARD:          0	MERGED:          0	TO_CACHE:   22891658
L1D PQ	ACCESS:     387162	FORWARD:          0	MERGED:          0	TO_CACHE:     387162

L1D UNIQUE REGIONS ACCESSED: 0
L1D REGIONS CONFLICTS: 0
L1D Cross Page Prefetch Requests: 0
L1D Same Page Prefetch Requests: 387162
L1D ROI Sum of L1D PQ occupancy: 4281921
L1D PREFETCHES PUSHED FROM L2C: 0
L1I TOTAL     ACCESS:   33180502  HIT:   33180502  MISS:          0  HIT %:        100  MISS %:          0   MPKI: 0
L1I LOAD      ACCESS:   33180502  HIT:   33180502  MISS:          0  HIT %:        100  MISS %:          0   MPKI: 0
L1I PREFETCH  REQUESTED:          0  ISSUED:          0  USEFUL:          0  USELESS:          0
L1I USEFUL LOAD PREFETCHES:          0 PREFETCH ISSUED TO LOWER LEVEL:          0  ACCURACY: -nan
L1I TIMELY PREFETCHES:          0 LATE PREFETCHES: 0 DROPPED PREFETCHES: 0
L1I PREFETCHES SAME FILL-ORIGIN LEVEL: 0 DIFFERENT FILL-ORIGIN LEVEL: 0
L1I AVERAGE MISS LATENCY: -nan cycles
L1I RQ	ACCESS:   55495045	FORWARD:          0	MERGED:   22312356	TO_CACHE:   33182689

BTB TOTAL     ACCESS:   45780290  HIT:   45780287  MISS:          3  HIT %:        100  MISS %: 6.55304e-06   MPKI: 1.5e-05
BTB BRANCH_DIRECT_JUMP	ACCESS:          0  HIT:          0  MISS:          0
BTB BRANCH_INDIRECT	ACCESS:          0  HIT:          0  MISS:          0
BTB BRANCH_CONDITIONAL	ACCESS:   45780290  HIT:   45780287  MISS:          3
BTB BRANCH_DIRECT_CALL	ACCESS:          0  HIT:          0  MISS:          0
BTB BRANCH_INDIRECT_CALL	ACCESS:          0  HIT:          0  MISS:          0
BTB BRANCH_RETURN	ACCESS:          0  HIT:          0  MISS:          0
BTB BRANCH_OTHER ACCESS:          0  HIT:          0  MISS:          0

L2C TOTAL     ACCESS:    1084165  HIT:     215084  MISS:     869081  HIT %:    19.8387  MISS %:    80.1613   MPKI: 4.34541
L2C LOAD      ACCESS:       6153  HIT:          0  MISS:       6153  HIT %:          0  MISS %:        100   MPKI: 0.030765
L2C DATA LOAD MPKI: 0.030765
L2C INSTRUCTION LOAD MPKI: 0
L2C RFO       ACCESS:     357659  HIT:          0  MISS:     357659  HIT %:          0  MISS %:        100   MPKI: 1.78829
L2C PREFETCH  ACCESS:     351514  HIT:          0  MISS:     351514  HIT %:          0  MISS %:        100   MPKI: 1.75757
L2C DATA PREFETCH MPKI: 1.75757
L2C INSTRUCTION PREFETCH MPKI: 0
L2C WRITEBACK ACCESS:     357660  HIT:     205325  MISS:     152335  HIT %:    57.4079  MISS %:    42.5921   MPKI: 0.761675
L2C LOAD TRANSLATION ACCESS:      11179  HIT:       9759  MISS:       1420  HIT %:    87.2976  MISS %:    12.7024   MPKI: 0.0071
L2C PREFETCH  REQUESTED:          0  ISSUED:          0  USEFUL:          0  USELESS:     349217
L2C USEFUL LOAD PREFETCHES:          0 PREFETCH ISSUED TO LOWER LEVEL:     351540  ACCURACY: 0
L2C TIMELY PREFETCHES:          0 LATE PREFETCHES: 0 DROPPED PREFETCHES: 0
L2C PREFETCHES SAME FILL-ORIGIN LEVEL: 0 DIFFERENT FILL-ORIGIN LEVEL: 0
L2C AVERAGE MISS LATENCY: 173.856 cycles
L2C RQ	ACCESS:     375017	FORWARD:          0	MERGED:          0	TO_CACHE:     375017
L2C WQ	ACCESS:     357674	FORWARD:          0	MERGED:          0	TO_CACHE:     357674
L2C PQ	ACCESS:     351540	FORWARD:          0	MERGED:          0	TO_CACHE:     351540

L2C Instructions Evicting Data 0
L2C Translations Evicting Data 1420
L2C Data Evicting Data 714108
L2C Instructions Evicting Instructions 0
L2C Translations Evicting Instructions 0
L2C Data Evicting Instructions 0
L2C Instructions Evicting Translations 0
L2C Translations Evicting Translations 0
L2C Data Evicting Translations 1267
L2C Dense regions hint from L2: 0
PSCL5 TOTAL     ACCESS:      11179  HIT:      11179  MISS:          0  HIT %:        100  MISS %:          0   MPKI: 0
PSCL5 LOAD TRANSLATION ACCESS:      11179  HIT:      11179  MISS:          0  HIT %:        100  MISS %:          0   MPKI: 0
PSCL5 PREFETCH  REQUESTED:          0  ISSUED:          0  USEFUL:          0  USELESS:          0
PSCL5 USEFUL LOAD PREFETCHES:          0 PREFETCH ISSUED TO LOWER LEVEL:          0  ACCURACY: -nan
PSCL5 TIMELY PREFETCHES:          0 LATE PREFETCHES: 0 DROPPED PREFETCHES: 0
PSCL5 PREFETCHES SAME FILL-ORIGIN LEVEL: 0 DIFFERENT FILL-ORIGIN LEVEL: 0

PSCL4 TOTAL     ACCESS:      11179  HIT:      11179  MISS:          0  HIT %:        100  MISS %:          0   MPKI: 0
PSCL4 LOAD TRANSLATION ACCESS:      11179  HIT:      11179  MISS:          0  HIT %:        100  MISS %:          0   MPKI: 0
PSCL4 PREFETCH  REQUESTED:          0  ISSUED:          0  USEFUL:          0  USELESS:          0
PSCL4 USEFUL LOAD PREFETCHES:          0 PREFETCH ISSUED TO LOWER LEVEL:          0  ACCURACY: -nan
PSCL4 TIMELY PREFETCHES:          0 LATE PREFETCHES: 0 DROPPED PREFETCHES: 0
PSCL4 PREFETCHES SAME FILL-ORIGIN LEVEL: 0 DIFFERENT FILL-ORIGIN LEVEL: 0

PSCL3 TOTAL     ACCESS:      11179  HIT:      11179  MISS:          0  HIT %:        100  MISS %:          0   MPKI: 0
PSCL3 LOAD TRANSLATION ACCESS:      11179  HIT:      11179  MISS:          0  HIT %:        100  MISS %:          0   MPKI: 0
PSCL3 PREFETCH  REQUESTED:          0  ISSUED:          0  USEFUL:          0  USELESS:          0
PSCL3 USEFUL LOAD PREFETCHES:          0 PREFETCH ISSUED TO LOWER LEVEL:          0  ACCURACY: -nan
PSCL3 TIMELY PREFETCHES:          0 LATE PREFETCHES: 0 DROPPED PREFETCHES: 0
PSCL3 PREFETCHES SAME FILL-ORIGIN LEVEL: 0 DIFFERENT FILL-ORIGIN LEVEL: 0

PSCL2 TOTAL     ACCESS:      11179  HIT:      11157  MISS:         22  HIT %:    99.8032  MISS %:   0.196798   MPKI: 0.00011
PSCL2 LOAD TRANSLATION ACCESS:      11179  HIT:      11157  MISS:         22  HIT %:    99.8032  MISS %:   0.196798   MPKI: 0.00011
PSCL2 PREFETCH  REQUESTED:          0  ISSUED:          0  USEFUL:          0  USELESS:          0
PSCL2 USEFUL LOAD PREFETCHES:          0 PREFETCH ISSUED TO LOWER LEVEL:          0  ACCURACY: -nan
PSCL2 TIMELY PREFETCHES:          0 LATE PREFETCHES: 0 DROPPED PREFETCHES: 0
PSCL2 PREFETCHES SAME FILL-ORIGIN LEVEL: 0 DIFFERENT FILL-ORIGIN LEVEL: 0

LLC TOTAL     ACCESS:    1072665  HIT:     326547  MISS:     746118  HIT %:    30.4426  MISS %:    69.5574   MPKI: 3.73059
LLC LOAD      ACCESS:       6153  HIT:          0  MISS:       6153  HIT %:          0  MISS %:        100   MPKI: 0.030765
LLC RFO       ACCESS:     357659  HIT:          0  MISS:     357659  HIT %:          0  MISS %:        100   MPKI: 1.78829
LLC PREFETCH  ACCESS:     351515  HIT:          0  MISS:     351515  HIT %:          0  MISS %:        100   MPKI: 1.75758
LLC WRITEBACK ACCESS:     355918  HIT:     326547  MISS:      29371  HIT %:    91.7478  MISS %:    8.25218   MPKI: 0.146855
LLC LOAD TRANSLATION ACCESS:       1420  HIT:          0  MISS:       1420  HIT %:          0  MISS %:        100   MPKI: 0.0071
LLC PREFETCH  REQUESTED:          0  ISSUED:          0  USEFUL:          0  USELESS:    1361474
LLC USEFUL LOAD PREFETCHES:          0 PREFETCH ISSUED TO LOWER LEVEL:    1406909  ACCURACY: 0
LLC TIMELY PREFETCHES:          0 LATE PREFETCHES: 0 DROPPED PREFETCHES: 0
LLC PREFETCHES SAME FILL-ORIGIN LEVEL: 0 DIFFERENT FILL-ORIGIN LEVEL: 0
LLC AVERAGE MISS LATENCY: 694.157 cycles
LLC RQ	ACCESS:    1460382	FORWARD:          0	MERGED:          0	TO_CACHE:    1460382
LLC WQ	ACCESS:    1429509	FORWARD:          0	MERGED:          0	TO_CACHE:    1429509
LLC PQ	ACCESS:    1406910	FORWARD:          0	MERGED:          0	TO_CACHE:    1406910

LLC Dense regions hint to LLC: 0

RAW hits: 0
Loads Generated: 42774640
Loads sent to L1D: 42774640
Stores Generated: 22890150
Stores sent to L1D: 22890146
Major fault: 0 Minor fault: 14010
Allocated PAGES: 56040

CPU 2 cumulative IPC: 1.13925 instructions: 200000000 cycles: 175554826
ITLB TOTAL     ACCESS:   33180448  HIT:   33180448  MISS:          0  HIT %:        100  MISS %:          0   MPKI: 0
ITLB LOAD TRANSLATION ACCESS:   33180448  HIT:   33180448  MISS:          0  HIT %:        100  MISS %:          0   MPKI: 0
ITLB PREFETCH  REQUESTED:          0  ISSUED:          0  USEFUL:          0  USELESS:          0
ITLB USEFUL LOAD PREFETCHES:          0 PREFETCH ISSUED TO LOWER LEVEL:          0  ACCURACY: -nan
ITLB TIMELY PREFETCHES:          0 LATE PREFETCHES: 0 DROPPED PREFETCHES: 0
ITLB PREFETCHES SAME FILL-ORIGIN LEVEL: 0 DIFFERENT FILL-ORIGIN LEVEL: 0
ITLB AVERAGE MISS LATENCY: -nan cycles
ITLB RQ	ACCESS:   33184661	FORWARD:          0	MERGED:          0	TO_CACHE:   33184661

DTLB TOTAL     ACCESS:   33841085  HIT:   33829908  MISS:      11177  HIT %:     99.967  MISS %:  0.0330279   MPKI: 0.055885
DTLB LOAD TRANSLATION ACCESS:   33841085  HIT:   33829908  MISS:      11177  HIT %:     99.967  MISS %:  0.0330279   MPKI: 0.055885
DTLB PREFETCH  REQUESTED:          0  ISSUED:          0  USEFUL:          0  USELESS:          0
DTLB USEFUL LOAD PREFETCHES:          0 PREFETCH ISSUED TO LOWER LEVEL:          0  ACCURACY: -nan
DTLB TIMELY PREFETCHES:          0 LATE PREFETCHES: 0 DROPPED PREFETCHES: 0
DTLB PREFETCHES SAME FILL-ORIGIN LEVEL: 0 DIFFERENT FILL-ORIGIN LEVEL: 0
DTLB AVERAGE MISS LATENCY: 151.341 cycles
DTLB RQ	ACCESS:   35382736	FORWARD:          0	MERGED:    1503463	TO_CACHE:   33879273

STLB TOTAL     ACCESS:     342224  HIT:     331047  MISS:      11177  HIT %:     96.734  MISS %:    3.26599   MPKI: 0.055885
STLB LOAD TRANSLATION ACCESS:      11177  HIT:          0  MISS:      11177  HIT %:          0  MISS %:        100   MPKI: 0.055885
STLB TRANSLATION FROM L1D PREFETCHER ACCESS:     331047  HIT:     331047  MISS:          0  HIT %:        100  MISS %:          0   MPKI: 0
STLB PREFETCH  REQUESTED:          0  ISSUED:          0  USEFUL:          0  USELESS:          0
STLB USEFUL LOAD PREFETCHES:          0 PREFETCH ISSUED TO LOWER LEVEL:          0  ACCURACY: -nan
STLB TIMELY PREFETCHES:          0 LATE PREFETCHES: 0 DROPPED PREFETCHES: 0
STLB PREFETCHES SAME FILL-ORIGIN LEVEL: 0 DIFFERENT FILL-ORIGIN LEVEL: 0
STLB AVERAGE MISS LATENCY: 142.338 cycles
STLB RQ	ACCESS:     398848	FORWARD:          0	MERGED:      56578	TO_CACHE:     342270

STLB Hit, L1D data hit: 0
STLB Hit, L2C data hit: 0
STLB Hit, LLC data hit: 0
STLB Hit, LLC data miss: 0
STLB STLB hints to L2: 0
L1D TOTAL     ACCESS:   24985419  HIT:   24270097  MISS:     715322  HIT %:     97.137  MISS %:    2.86296   MPKI: 3.57661
L1D LOAD      ACCESS:   12465225  HIT:   12459253  MISS:       5972  HIT %:    99.9521  MISS %:  0.0479093   MPKI: 0.02986
L1D RFO       ACCESS:   12132690  HIT:   11775032  MISS:     357658  HIT %:    97.0521  MISS %:    2.94789   MPKI: 1.78829
L1D PREFETCH  ACCESS:     387504  HIT:      35812  MISS:     351692  HIT %:    9.24171  MISS %:    90.7583   MPKI: 1.75846
L1D PREFETCH  REQUESTED:     775334  ISSUED:     775334  USEFUL:     351730  USELESS:          0
L1D USEFUL LOAD PREFETCHES:     351730 PREFETCH ISSUED TO LOWER LEVEL:     351846  ACCURACY: 99.967
L1D TIMELY PREFETCHES:     351730 LATE PREFETCHES: 104 DROPPED PREFETCHES: 0
L1D PREFETCHES SAME FILL-ORIGIN LEVEL: 351846 DIFFERENT FILL-ORIGIN LEVEL: 0
L1D AVERAGE MISS LATENCY: 222.754 cycles
L1D RQ	ACCESS:   42780069	FORWARD:          0	MERGED:   30290387	TO_CACHE:   12489682
L1D WQ	ACCESS:   22893054	FORWARD:          0	MERGED:          0	TO_CACHE:   22893054
L1D PQ	ACCESS:     387667	FORWARD:          0	MERGED:          0	TO_CACHE:     387667

L1D UNIQUE REGIONS ACCESSED: 0
L1D REGIONS CONFLICTS: 0
L1D Cross Page Prefetch Requests: 0
L1D Same Page Prefetch Requests: 387667
L1D ROI Sum of L1D PQ occupancy: 4287171
L1D PREFETCHES PUSHED FROM L2C: 0
L1I TOTAL     ACCESS:   33180447  HIT:   33180447  MISS:          0  HIT %:        100  MISS %:          0   MPKI: 0
L1I LOAD      ACCESS:   33180447  HIT:   33180447  MISS:          0  HIT %:        100  MISS %:          0   MPKI: 0
L1I PREFETCH  REQUESTED:          0  ISSUED:          0  USEFUL:          0  USELESS:          0
L1I USEFUL LOAD PREFETCHES:          0 PREFETCH ISSUED TO LOWER LEVEL:          0  ACCURACY: -nan
L1I TIMELY PREFETCHES:          0 LATE PREFETCHES: 0 DROPPED PREFETCHES: 0
L1I PREFETCHES SAME FILL-ORIGIN LEVEL: 0 DIFFERENT FILL-ORIGIN LEVEL: 0
L1I AVERAGE MISS LATENCY: -nan cycles
L1I RQ	ACCESS:   55498455	FORWARD:          0	MERGED:   22313794	TO_CACHE:   33184661

BTB TOTAL     ACCESS:   45780289  HIT:   45780286  MISS:          3  HIT %:        100  MISS %: 6.55304e-06   MPKI: 1.5e-05
BTB BRANCH_DIRECT_JUMP	ACCESS:          0  HIT:          0  MISS:          0
BTB BRANCH_INDIRECT	ACCESS:          0  HIT:          0  MISS:          0
BTB BRANCH_CONDITIONAL	ACCESS:   45780289  HIT:   45780286  MISS:          3
BTB BRANCH_DIRECT_CALL	ACCESS:          0  HIT:          0  MISS:          0
BTB BRANCH_INDIRECT_CALL	ACCESS:          0  HIT:          0  MISS:          0
BTB BRANCH_RETURN	ACCESS:          0  HIT:          0  MISS:          0
BTB BRANCH_OTHER ACCESS:          0  HIT:          0  MISS:          0

L2C TOTAL     ACCESS:    1084157  HIT:     202612  MISS:     881545  HIT %:    18.6884  MISS %:    81.3116   MPKI: 4.40773
L2C LOAD      ACCESS:       5868  HIT:          0  MISS:       5868  HIT %:          0  MISS %:        100   MPKI: 0.02934
L2C DATA LOAD MPKI: 0.02934
L2C INSTRUCTION LOAD MPKI: 0
L2C RFO       ACCESS:     357658  HIT:          0  MISS:     357658  HIT %:          0  MISS %:        100   MPKI: 1.78829
L2C PREFETCH  ACCESS:     351796  HIT:          0  MISS:     351796  HIT %:          0  MISS %:        100   MPKI: 1.75898
L2C DATA PREFETCH MPKI: 1.75898
L2C INSTRUCTION PREFETCH MPKI: 0
L2C WRITEBACK ACCESS:     357658  HIT:     192854  MISS:     164804  HIT %:    53.9213  MISS %:    46.0787   MPKI: 0.82402
L2C LOAD TRANSLATION ACCESS:      11177  HIT:       9758  MISS:       1419  HIT %:    87.3043  MISS %:    12.6957   MPKI: 0.007095
L2C PREFETCH  REQUESTED:          0  ISSUED:          0  USEFUL:          0  USELESS:     347198
L2C USEFUL LOAD PREFETCHES:          0 PREFETCH ISSUED TO LOWER LEVEL:     351846  ACCURACY: 0
L2C TIMELY PREFETCHES:          0 LATE PREFETCHES: 0 DROPPED PREFETCHES: 0
L2C PREFETCHES SAME FILL-ORIGIN LEVEL: 0 DIFFERENT FILL-ORIGIN LEVEL: 0
L2C AVERAGE MISS LATENCY: 170.6 cycles
L2C RQ	ACCESS:     374755	FORWARD:          0	MERGED:          0	TO_CACHE:     374755
L2C WQ	ACCESS:     357695	FORWARD:          0	MERGED:          0	TO_CACHE:     357695
L2C PQ	ACCESS:     351846	FORWARD:          0	MERGED:          0	TO_CACHE:     351846

L2C Instructions Evicting Data 0
L2C Translations Evicting Data 1421
L2C Data Evicting Data 714124
L2C Instructions Evicting Instructions 0
L2C Translations Evicting Instructions 0
L2C Data Evicting Instructions 0
L2C Instructions Evicting Translations 0
L2C Translations Evicting Translations 0
L2C Data Evicting Translations 1295
L2C Dense regions hint from L2: 0
PSCL5 TOTAL     ACCESS:      11177  HIT:      11177  MISS:          0  HIT %:        100  MISS %:          0   MPKI: 0
PSCL5 LOAD TRANSLATION ACCESS:      11177  HIT:      11177  MISS:          0  HIT %:        100  MISS %:          0   MPKI: 0
PSCL5 PREFETCH  REQUESTED:          0  ISSUED:          0  USEFUL:          0  USELESS:          0
PSCL5 USEFUL LOAD PREFETCHES:          0 PREFETCH ISSUED TO LOWER LEVEL:          0  ACCURACY: -nan
PSCL5 TIMELY PREFETCHES:          0 LATE PREFETCHES: 0 DROPPED PREFETCHES: 0
PSCL5 PREFETCHES SAME FILL-ORIGIN LEVEL: 0 DIFFERENT FILL-ORIGIN LEVEL: 0

PSCL4 TOTAL     ACCESS:      11177  HIT:      11177  MISS:          0  HIT %:        100  MISS %:          0   MPKI: 0
PSCL4 LOAD TRANSLATION ACCESS:      11177  HIT:      11177  MISS:          0  HIT %:        100  MISS %:          0   MPKI: 0
[...]
LLC LOAD      ACCESS:       5868  HIT:          0  MISS:       5868  HIT %:          0  MISS %:        100   MPKI: 0.02934
LLC RFO       ACCESS:     357658  HIT:          0  MISS:     357658  HIT %:          0  MISS %:        100   MPKI: 1.78829
LLC PREFETCH  ACCESS:     351796  HIT:          0  MISS:     351796  HIT %:          0  MISS %:        100   MPKI: 1.75898
LLC WRITEBACK ACCESS:     358682  HIT:     331777  MISS:      26905  HIT %:    92.4989  MISS %:    7.50107   MPKI: 0.134525
LLC LOAD TRANSLATION ACCESS:       1419  HIT:          0  MISS:       1419  HIT %:          0  MISS %:        100   MPKI: 0.007095
LLC PREFETCH  REQUESTED:          0  ISSUED:          0  USEFUL:          0  USELESS:    1361474
LLC USEFUL LOAD PREFETCHES:          0 PREFETCH ISSUED TO LOWER LEVEL:    1406909  ACCURACY: 0
LLC TIMELY PREFETCHES:          0 LATE PREFETCHES: 0 DROPPED PREFETCHES: 0
LLC PREFETCHES SAME FILL-ORIGIN LEVEL: 0 DIFFERENT FILL-ORIGIN LEVEL: 0
LLC AVERAGE MISS LATENCY: 696.464 cycles
LLC RQ	ACCESS:    1460382	FORWARD:          0	MERGED:          0	TO_CACHE:    1460382
LLC WQ	ACCESS:    1429509	FORWARD:          0	MERGED:          0	TO_CACHE:    1429509
LLC PQ	ACCESS:    1406910	FORWARD:          0	MERGED:          0	TO_CACHE:    1406910

LLC Dense regions hint to LLC: 0

RAW hits: 0
Loads Generated: 42774635
Loads sent to L1D: 42774633
Stores Generated: 22890146
Stores sent to L1D: 22890147
Major fault: 0 Minor fault: 14010
Allocated PAGES: 56040

CPU 3 cumulative IPC: 1.1391 instructions: 200000003 cycles: 175577658
ITLB TOTAL     ACCESS:   33180468  HIT:   33180468  MISS:          0  HIT %:        100  MISS %:          0   MPKI: 0
ITLB LOAD TRANSLATION ACCESS:   33180468  HIT:   33180468  MISS:          0  HIT %:        100  MISS %:          0   MPKI: 0
ITLB PREFETCH  REQUESTED:          0  ISSUED:          0  USEFUL:          0  USELESS:          0
ITLB USEFUL LOAD PREFETCHES:          0 PREFETCH ISSUED TO LOWER LEVEL:          0  ACCURACY: -nan
ITLB TIMELY PREFETCHES:          0 LATE PREFETCHES: 0 DROPPED PREFETCHES: 0
ITLB PREFETCHES SAME FILL-ORIGIN LEVEL: 0 DIFFERENT FILL-ORIGIN LEVEL: 0
ITLB AVERAGE MISS LATENCY: -nan cycles
ITLB RQ	ACCESS:   33180468	FORWARD:          0	MERGED:          0	TO_CACHE:   33180468

DTLB TOTAL     ACCESS:   33839919  HIT:   33828742  MISS:      11177  HIT %:     99.967  MISS %:   0.033029   MPKI: 0.055885
DTLB LOAD TRANSLATION ACCESS:   33839919  HIT:   33828742  MISS:      11177  HIT %:     99.967  MISS %:   0.033029   MPKI: 0.055885
DTLB PREFETCH  REQUESTED:          0  ISSUED:          0  USEFUL:          0  USELESS:          0
DTLB USEFUL LOAD PREFETCHES:          0 PREFETCH ISSUED TO LOWER LEVEL:          0  ACCURACY: -nan
DTLB TIMELY PREFETCHES:          0 LATE PREFETCHES: 0 DROPPED PREFETCHES: 0
DTLB PREFETCHES SAME FILL-ORIGIN LEVEL: 0 DIFFERENT FILL-ORIGIN LEVEL: 0
DTLB AVERAGE MISS LATENCY: 151.136 cycles
DTLB RQ	ACCESS:   35376430	FORWARD:          0	MERGED:    1502357	TO_CACHE:   33874073

STLB TOTAL     ACCESS:     339956  HIT:     328779  MISS:      11177  HIT %:    96.7122  MISS %:    3.28778   MPKI: 0.055885
STLB LOAD TRANSLATION ACCESS:      11177  HIT:          0  MISS:      11177  HIT %:          0  MISS %:        100   MPKI: 0.055885
STLB TRANSLATION FROM L1D PREFETCHER ACCESS:     328779  HIT:     328779  MISS:          0  HIT %:        100  MISS %:          0   MPKI: 0
STLB PREFETCH  REQUESTED:          0  ISSUED:          0  USEFUL:          0  USELESS:          0
STLB USEFUL LOAD PREFETCHES:          0 PREFETCH ISSUED TO LOWER LEVEL:          0  ACCURACY: -nan
STLB TIMELY PREFETCHES:          0 LATE PREFETCHES: 0 DROPPED PREFETCHES: 0
STLB PREFETCHES SAME FILL-ORIGIN LEVEL: 0 DIFFERENT FILL-ORIGIN LEVEL: 0
STLB AVERAGE MISS LATENCY: 142.136 cycles
STLB RQ	ACCESS:     398406	FORWARD:          0	MERGED:      58449	TO_CACHE:     339957

STLB Hit, L1D data hit: 0
STLB Hit, L2C data hit: 0
STLB Hit, LLC data hit: 0
STLB Hit, LLC data miss: 0
STLB STLB hints to L2: 0
L1D TOTAL     ACCESS:   25099360  HIT:   24384039  MISS:     715321  HIT %:      97.15  MISS %:    2.84996   MPKI: 3.5766
L1D LOAD      ACCESS:   12461097  HIT:   12454674  MISS:       6423  HIT %:    99.9485  MISS %:  0.0515444   MPKI: 0.032115
L1D RFO       ACCESS:   12251217  HIT:   11893559  MISS:     357658  HIT %:    97.0806  MISS %:    2.91937   MPKI: 1.78829
L1D PREFETCH  ACCESS:     387046  HIT:      35806  MISS:     351240  HIT %:     9.2511  MISS %:    90.7489   MPKI: 1.7562
L1D PREFETCH  REQUESTED:     774456  ISSUED:     774456  USEFUL:     351235  USELESS:          0
L1D USEFUL LOAD PREFETCHES:     351235 PREFETCH ISSUED TO LOWER LEVEL:     351368  ACCURACY: 99.9621
L1D TIMELY PREFETCHES:     351235 LATE PREFETCHES: 127 DROPPED PREFETCHES: 0
L1D PREFETCHES SAME FILL-ORIGIN LEVEL: 351368 DIFFERENT FILL-ORIGIN LEVEL: 0
L1D AVERAGE MISS LATENCY: 223.694 cycles
L1D RQ	ACCESS:   42774634	FORWARD:          0	MERGED:   30288351	TO_CACHE:   12486283
L1D WQ	ACCESS:   22890147	FORWARD:          0	MERGED:          0	TO_CACHE:   22890147
L1D PQ	ACCESS:     387228	FORWARD:          0	MERGED:          0	TO_CACHE:     387228

L1D UNIQUE REGIONS ACCESSED: 0
L1D REGIONS CONFLICTS: 0
L1D Cross Page Prefetch Requests: 0
L1D Same Page Prefetch Requests: 387228
L1D ROI Sum of L1D PQ occupancy: 4283164
L1D PREFETCHES PUSHED FROM L2C: 0
L1I TOTAL     ACCESS:   33180468  HIT:   33180468  MISS:          0  HIT %:        100  MISS %:          0   MPKI: 0
L1I LOAD      ACCESS:   33180468  HIT:   33180468  MISS:          0  HIT %:        100  MISS %:          0   MPKI: 0
L1I PREFETCH  REQUESTED:          0  ISSUED:          0  USEFUL:          0  USELESS:          0
L1I USEFUL LOAD PREFETCHES:          0 PREFETCH ISSUED TO LOWER LEVEL:          0  ACCURACY: -nan
L1I TIMELY PREFETCHES:          0 LATE PREFETCHES: 0 DROPPED PREFETCHES: 0
L1I PREFETCHES SAME FILL-ORIGIN LEVEL: 0 DIFFERENT FILL-ORIGIN LEVEL: 0
L1I AVERAGE MISS LATENCY: -nan cycles
L1I RQ	ACCESS:   55491121	FORWARD:          0	MERGED:   22310653	TO_CACHE:   33180468

BTB TOTAL     ACCESS:   45780290  HIT:   45780286  MISS:          4  HIT %:        100  MISS %: 8.73738e-06   MPKI: 2e-05
BTB BRANCH_DIRECT_JUMP	ACCESS:          0  HIT:          0  MISS:          0
BTB BRANCH_INDIRECT	ACCESS:          0  HIT:          0  MISS:          0
BTB BRANCH_CONDITIONAL	ACCESS:   45780290  HIT:   45780286  MISS:          4
BTB BRANCH_DIRECT_CALL	ACCESS:          0  HIT:          0  MISS:          0
BTB BRANCH_INDIRECT_CALL	ACCESS:          0  HIT:          0  MISS:          0
BTB BRANCH_RETURN	ACCESS:          0  HIT:          0  MISS:          0
BTB BRANCH_OTHER ACCESS:          0  HIT:          0  MISS:          0

L2C TOTAL     ACCESS:    1084156  HIT:     221816  MISS:     862340  HIT %:    20.4598  MISS %:    79.5402   MPKI: 4.3117
L2C LOAD      ACCESS:       6296  HIT:          0  MISS:       6296  HIT %:          0  MISS %:        100   MPKI: 0.03148
L2C DATA LOAD MPKI: 0.03148
L2C INSTRUCTION LOAD MPKI: 0
L2C RFO       ACCESS:     357658  HIT:          0  MISS:     357658  HIT %:          0  MISS %:        100   MPKI: 1.78829
L2C PREFETCH  ACCESS:     351367  HIT:          0  MISS:     351367  HIT %:          0  MISS %:        100   MPKI: 1.75683
L2C DATA PREFETCH MPKI: 1.75683
L2C INSTRUCTION PREFETCH MPKI: 0
L2C WRITEBACK ACCESS:     357658  HIT:     212059  MISS:     145599  HIT %:     59.291  MISS %:     40.709   MPKI: 0.727995
L2C LOAD TRANSLATION ACCESS:      11177  HIT:       9757  MISS:       1420  HIT %:    87.2953  MISS %:    12.7047   MPKI: 0.0071
L2C PREFETCH  REQUESTED:          0  ISSUED:          0  USEFUL:          0  USELESS:     346523
L2C USEFUL LOAD PREFETCHES:          0 PREFETCH ISSUED TO LOWER LEVEL:     351368  ACCURACY: 0
L2C TIMELY PREFETCHES:          0 LATE PREFETCHES: 0 DROPPED PREFETCHES: 0
L2C PREFETCHES SAME FILL-ORIGIN LEVEL: 0 DIFFERENT FILL-ORIGIN LEVEL: 0
L2C AVERAGE MISS LATENCY: 175.172 cycles
L2C RQ	ACCESS:     375131	FORWARD:          0	MERGED:          0	TO_CACHE:     375131
L2C WQ	ACCESS:     357658	FORWARD:          0	MERGED:          0	TO_CACHE:     357658
L2C PQ	ACCESS:     351368	FORWARD:          0	MERGED:          0	TO_CACHE:     351368

L2C Instructions Evicting Data 0
L2C Translations Evicting Data 1420
L2C Data Evicting Data 714005
L2C Instructions Evicting Instructions 0
L2C Translations Evicting Instructions 0
L2C Data Evicting Instructions 0
L2C Instructions Evicting Translations 0
L2C Translations Evicting Translations 0
L2C Data Evicting Translations 1316
L2C Dense regions hint from L2: 0
PSCL5 TOTAL     ACCESS:      11177  HIT:      11177  MISS:          0  HIT %:        100  MISS %:          0   MPKI: 0
PSCL5 LOAD TRANSLATION ACCESS:      11177  HIT:      11177  MISS:          0  HIT %:        100  MISS %:          0   MPKI: 0
PSCL5 PREFETCH  REQUESTED:          0  ISSUED:          0  USEFUL:          0  USELESS:          0
PSCL5 USEFUL LOAD PREFETCHES:          0 PREFETCH ISSUED TO LOWER LEVEL:          0  ACCURACY: -nan
PSCL5 TIMELY PREFETCHES:          0 LATE PREFETCHES: 0 DROPPED PREFETCHES: 0
PSCL5 PREFETCHES SAME FILL-ORIGIN LEVEL: 0 DIFFERENT FILL-ORIGIN LEVEL: 0

PSCL4 TOTAL     ACCESS:      11177  HIT:      11177  MISS:          0  HIT %:        100  MISS %:          0   MPKI: 0
PSCL4 LOAD TRANSLATION ACCESS:      11177  HIT:      11177  MISS:          0  HIT %:        100  MISS %:          0   MPKI: 0
PSCL4 PREFETCH  REQUESTED:          0  ISSUED:          0  USEFUL:          0  USELESS:          0
PSCL4 USEFUL LOAD PREFETCHES:          0 PREFETCH ISSUED TO LOWER LEVEL:          0  ACCURACY: -nan
PSCL4 TIMELY PREFETCHES:          0 LATE PREFETCHES: 0 DROPPED PREFETCHES: 0
PSCL4 PREFETCHES SAME FILL-ORIGIN LEVEL: 0 DIFFERENT FILL-ORIGIN LEVEL: 0

PSCL3 TOTAL     ACCESS:      11177  HIT:      11177  MISS:          0  HIT %:        100  MISS %:          0   MPKI: 0
PSCL3 LOAD TRANSLATION ACCESS:      11177  HIT:      11177  MISS:          0  HIT %:        100  MISS %:          0   MPKI: 0
PSCL3 PREFETCH  REQUESTED:          0  ISSUED:          0  USEFUL:          0  USELESS:          0
PSCL3 USEFUL LOAD PREFETCHES:          0 PREFETCH ISSUED TO LOWER LEVEL:          0  ACCURACY: -nan
PSCL3 TIMELY PREFETCHES:          0 LATE PREFETCHES: 0 DROPPED PREFETCHES: 0
PSCL3 PREFETCHES SAME FILL-ORIGIN LEVEL: 0 DIFFERENT FILL-ORIGIN LEVEL: 0

PSCL2 TOTAL     ACCESS:      11177  HIT:      11155  MISS:         22  HIT %:    99.8032  MISS %:   0.196833   MPKI: 0.00011
PSCL2 LOAD TRANSLATION ACCESS:      11177  HIT:      11155  MISS:         22  HIT %:    99.8032  MISS %:   0.196833   MPKI: 0.00011
PSCL2 PREFETCH  REQUESTED:          0  ISSUED:          0  USEFUL:          0  USELESS:          0
PSCL2 USEFUL LOAD PREFETCHES:          0 PREFETCH ISSUED TO LOWER LEVEL:          0  ACCURACY: -nan
PSCL2 TIMELY PREFETCHES:          0 LATE PREFETCHES: 0 DROPPED PREFETCHES: 0
PSCL2 PREFETCHES SAME FILL-ORIGIN LEVEL: 0 DIFFERENT FILL-ORIGIN LEVEL: 0

LLC TOTAL     ACCESS:    1075586  HIT:     332571  MISS:     743015  HIT %:      30.92  MISS %:      69.08   MPKI: 3.71507
LLC LOAD      ACCESS:       6296  HIT:          0  MISS:       6296  HIT %:          0  MISS %:        100   MPKI: 0.03148
LLC RFO       ACCESS:     357658  HIT:          0  MISS:     357658  HIT %:          0  MISS %:        100   MPKI: 1.78829
LLC PREFETCH  ACCESS:     351367  HIT:          0  MISS:     351367  HIT %:          0  MISS %:        100   MPKI: 1.75683
LLC WRITEBACK ACCESS:     358845  HIT:     332570  MISS:      26275  HIT %:    92.6779  MISS %:     7.3221   MPKI: 0.131375
LLC LOAD TRANSLATION ACCESS:       1420  HIT:          1  MISS:       1419  HIT %:  0.0704225  MISS %:    99.9296   MPKI: 0.007095
LLC PREFETCH  REQUESTED:          0  ISSUED:          0  USEFUL:          0  USELESS:    1361474
LLC USEFUL LOAD PREFETCHES:          0 PREFETCH ISSUED TO LOWER LEVEL:    1406909  ACCURACY: 0
LLC TIMELY PREFETCHES:          0 LATE PREFETCHES: 0 DROPPED PREFETCHES: 0
LLC PREFETCHES SAME FILL-ORIGIN LEVEL: 0 DIFFERENT FILL-ORIGIN LEVEL: 0
LLC AVERAGE MISS LATENCY: 697.056 cycles
LLC RQ	ACCESS:    1460382	FORWARD:          0	MERGED:          0	TO_CACHE:    1460382
LLC WQ	ACCESS:    1429509	FORWARD:          0	MERGED:          0	TO_CACHE:    1429509
LLC PQ	ACCESS:    1406910	FORWARD:          0	MERGED:          0	TO_CACHE:    1406910

LLC Dense regions hint to LLC: 0

RAW hits: 0
Loads Generated: 42774634
Loads sent to L1D: 42774634
Stores Generated: 22890146
Stores sent to L1D: 22890147
Major fault: 0 Minor fault: 14010
Allocated PAGES: 56040

stream: 
stream:times selected: 863268
stream:pref_filled: 437630
stream:pref_useful: 437619
stream:pref_late: 80
stream:misses: 11
stream:misses_by_poll: 0

CS: 
CS:times selected: 820731
CS:pref_filled: 2330
CS:pref_useful: 2330
CS:pref_late: 5
CS:misses: 29412
CS:misses_by_poll: 1

CPLX: 
CPLX:times selected: 42489
CPLX:pref_filled: 171
CPLX:pref_useful: 171
CPLX:pref_late: 0
CPLX:misses: 1
CPLX:misses_by_poll: 0

NL_L1: 
NL:times selected: 1
NL:pref_filled: 0
NL:pref_useful: 0
NL:pref_late: 0
NL:misses: 0
NL:misses_by_poll: 0

total selections: 1726489
total_filled: 352070
total_useful: 352065
total_late: 85
total_polluted: 1
total_misses_after_warmup: 27074
conflicts: 0
Degree Incremented Times: 295793
Degree Decremented Times: 0

L1 IP Table Write Accesses: 49956274
L1 IP Table Read Accesses: 49956274
L1 RST Write Accesses: 2737068
L1 RST Read Accesses: 5474136
L1 CSPT Write Accesses: 2737068
L1 CSPT Read Accesses: 3238703
L1 RR Filter Tag Write Accesses: 1550521
L1 RR Filter Tag Read Accesses: 458571929
L1 IP Table Tag Write Accesses: 49956274
L1 IP Table Tag Read Accesses: 49956274
L1 RST Tag Write Accesses: 0
L1 RST Tag Read Accesses: 24625262
L1 RR Filter Write Accesses: 0
L1 RR Filter Read Accesses: 23424604
test: 55486

stream: 
stream:times selected: 863172
stream:pref_filled: 349153
stream:pref_useful: 349142
stream:pref_late: 96
stream:misses: 14
stream:misses_by_poll: 0

CS: 
CS:times selected: 820573
CS:pref_filled: 2105
CS:pref_useful: 2105
CS:pref_late: 14
CS:misses: 182354
CS:misses_by_poll: 5

CPLX: 
CPLX:times selected: 42551
CPLX:pref_filled: 169
CPLX:pref_useful: 169
CPLX:pref_late: 1
CPLX:misses: 1
CPLX:misses_by_poll: 0

NL_L1: 
NL:times selected: 2
NL:pref_filled: 0
NL:pref_useful: 0
NL:pref_late: 0
NL:misses: 0
NL:misses_by_poll: 0

total selections: 1726298
total_filled: 351427
total_useful: 351416
total_late: 112
total_polluted: 5
total_misses_after_warmup: 30675
conflicts: 0
Degree Incremented Times: 295793
Degree Decremented Times: 0

L1 IP Table Write Accesses: 49956274
L1 IP Table Read Accesses: 49956274
L1 RST Write Accesses: 2737068
L1 RST Read Accesses: 5474136
L1 CSPT Write Accesses: 2737068
L1 CSPT Read Accesses: 3238703
L1 RR Filter Tag Write Accesses: 1550521
L1 RR Filter Tag Read Accesses: 458571929
L1 IP Table Tag Write Accesses: 49956274
L1 IP Table Tag Read Accesses: 49956274
L1 RST Tag Write Accesses: 0
L1 RST Tag Read Accesses: 24625262
L1 RR Filter Write Accesses: 0
L1 RR Filter Read Accesses: 23424604
test: 55486

stream: 
stream:times selected: 863128
stream:pref_filled: 349828
stream:pref_useful: 349817
stream:pref_late: 92
stream:misses: 23
stream:misses_by_poll: 0

CS: 
CS:times selected: 820578
CS:pref_filled: 1753
CS:pref_useful: 1753
CS:pref_late: 10
CS:misses: 197441
CS:misses_by_poll: 6

CPLX: 
CPLX:times selected: 42498
CPLX:pref_filled: 160
CPLX:pref_useful: 160
CPLX:pref_late: 0
CPLX:misses: 1
CPLX:misses_by_poll: 0

NL_L1: 
NL:times selected: 1
NL:pref_filled: 0
NL:pref_useful: 0
NL:pref_late: 0
NL:misses: 0
NL:misses_by_poll: 0

total selections: 1726205
total_filled: 351741
total_useful: 351730
total_late: 104
total_polluted: 6
total_misses_after_warmup: 28835
conflicts: 0
Degree Incremented Times: 295793
Degree Decremented Times: 0

L1 IP Table Write Accesses: 49956274
L1 IP Table Read Accesses: 49956274
L1 RST Write Accesses: 2737068
L1 RST Read Accesses: 5474136
L1 CSPT Write Accesses: 2737068
L1 CSPT Read Accesses: 3238703
L1 RR Filter Tag Write Accesses: 1550521
L1 RR Filter Tag Read Accesses: 458571929
L1 IP Table Tag Write Accesses: 49956274
L1 IP Table Tag Read Accesses: 49956274
L1 RST Tag Write Accesses: 0
L1 RST Tag Read Accesses: 24625262
L1 RR Filter Write Accesses: 0
L1 RR Filter Read Accesses: 23424604
test: 55486

stream: 
stream:times selected: 863127
stream:pref_filled: 349150
stream:pref_useful: 349145
stream:pref_late: 103
stream:misses: 17
stream:misses_by_poll: 0

CS: 
CS:times selected: 820512
CS:pref_filled: 1913
CS:pref_useful: 1913
CS:pref_late: 23
CS:misses: 200291
CS:misses_by_poll: 2

CPLX: 
CPLX:times selected: 42561
CPLX:pref_filled: 177
CPLX:pref_useful: 177
CPLX:pref_late: 1
CPLX:misses: 1
CPLX:misses_by_poll: 0

NL_L1: 
NL:times selected: 0
NL:pref_filled: 0
NL:pref_useful: 0
NL:pref_late: 0
NL:misses: 0
NL:misses_by_poll: 0

total selections: 1726200
total_filled: 351240
total_useful: 351235
total_late: 127
total_polluted: 2
total_misses_after_warmup: 31608
conflicts: 0
Degree Incremented Times: 295793
Degree Decremented Times: 0

L1 IP Table Write Accesses: 49956274
L1 IP Table Read Accesses: 49956274
L1 RST Write Accesses: 2737068
L1 RST Read Accesses: 5474136
L1 CSPT Write Accesses: 2737068
L1 CSPT Read Accesses: 3238703
L1 RR Filter Tag Write Accesses: 1550521
L1 RR Filter Tag Read Accesses: 458571929
L1 IP Table Tag Write Accesses: 49956274
L1 IP Table Tag Read Accesses: 49956274
L1 RST Tag Write Accesses: 0
L1 RST Tag Read Accesses: 24625262
L1 RR Filter Write Accesses: 0
L1 RR Filter Read Accesses: 23424604
test: 55486

DRAM Statistics
 CHANNEL 0
 RQ ROW_BUFFER_HIT:    1358443  ROW_BUFFER_MISS:    1508842
 DBUS_CONGESTED:       1388
 WQ ROW_BUFFER_HIT:     716347  ROW_BUFFER_MISS:     716574  FULL:        580

 AVG_CONGESTED_CYCLE: 5
 All warmup complete: 5
Channel 0 Bank busy for read cycles: 0
Channel 0 Bank busy for write cycles: 0
Channel 0
Rank 0
0banks busy for read cycles: 537165
0banks busy for write cycles: 442
1banks busy for read cycles: 41596377
1banks busy for write cycles: 336158
2banks busy for read cycles: 52422983
2banks busy for write cycles: 362320
3banks busy for read cycles: 30817870
3banks busy for write cycles: 406017
4banks busy for read cycles: 8536376
4banks busy for write cycles: 450099
5banks busy for read cycles: 1057302
5banks busy for write cycles: 512146
6banks busy for read cycles: 577161
6banks busy for write cycles: 647502
7banks busy for read cycles: 1724853
7banks busy for write cycles: 2546231
8banks busy for read cycles: 425287
8banks busy for write cycles: 32621370

CPU 0 Branch Prediction Accuracy: 99.4144% MPKI: 1.34036 Average ROB Occupancy at Mispredict: 33.0021
Branch types
NOT_BRANCH: 154255522 77.1099%
BRANCH_DIRECT_JUMP: 0 0%
BRANCH_INDIRECT: 0 0%
BRANCH_CONDITIONAL: 45790921 22.8901%
BRANCH_DIRECT_CALL: 0 0%
BRANCH_INDIRECT_CALL: 0 0%
BRANCH_RETURN: 0 0%
BRANCH_OTHER: 0 0%


CPU 1 Branch Prediction Accuracy: 99.4144% MPKI: 1.34037 Average ROB Occupancy at Mispredict: 33.1571
Branch types
NOT_BRANCH: 154229906 77.1099%
BRANCH_DIRECT_JUMP: 0 0%
BRANCH_INDIRECT: 0 0%
BRANCH_CONDITIONAL: 45783320 22.8901%
BRANCH_DIRECT_CALL: 0 0%
BRANCH_INDIRECT_CALL: 0 0%
BRANCH_RETURN: 0 0%
BRANCH_OTHER: 0 0%


CPU 2 Branch Prediction Accuracy: 99.4144% MPKI: 1.34037 Average ROB Occupancy at Mispredict: 33.0793
Branch types
NOT_BRANCH: 154239315 77.1099%
BRANCH_DIRECT_JUMP: 0 0%
BRANCH_INDIRECT: 0 0%
BRANCH_CONDITIONAL: 45786111 22.8901%
BRANCH_DIRECT_CALL: 0 0%
BRANCH_INDIRECT_CALL: 0 0%
BRANCH_RETURN: 0 0%
BRANCH_OTHER: 0 0%


CPU 3 Branch Prediction Accuracy: 99.4144% MPKI: 1.34035 Average ROB Occupancy at Mispredict: 33.1814
Branch types
NOT_BRANCH: 154219718 77.1099%
BRANCH_DIRECT_JUMP: 0 0%
BRANCH_INDIRECT: 0 0%
BRANCH_CONDITIONAL: 45780296 22.8901%
BRANCH_DIRECT_CALL: 0 0%
BRANCH_INDIRECT_CALL: 0 0%
BRANCH_RETURN: 0 0%
BRANCH_OTHER: 0 0%

DRAM PAGES: 1048576
Allocated PAGES: 56040
