
*** ChampSim Multicore Out-of-Order Simulator ***

Warmup Instructions: 50000000
Simulation Instructions: 200000000
Number of CPUs: 4
LLC sets: 8192
LLC ways: 16
Off-chip DRAM Size: 4096 MB Channels: 1 Width: 64-bit Data Rate: 6400 MT/s
CPU 0 runs ./traces/cs/cloud9_phase3_core0.trace.xz
.xz
CPU 1 runs ./traces/cs/cloud9_phase3_core1.trace.xz
.xz
CPU 2 runs ./traces/cs/cloud9_phase3_core2.trace.xz
.xz
CPU 3 runs ./traces/cs/cloud9_phase3_core3.trace.xz
.xz
BTB has LRU replacement policy
ITLB has LRU replacement policy
DTLB has LRU replacement policy
STLB has LRU replacement policy
L1I has LRU replacement policy
IP Table Entries: 1024
CSPT Entries: 128
RR_ENTRIES: 32
RST_ENTRIES: 8
L1D has LRU replacement policy
Initialize SRRIP state for L2C
Initialize DRRIP state for LLC
BTB has LRU replacement policy
ITLB has LRU replacement policy
DTLB has LRU replacement policy
STLB has LRU replacement policy
L1I has LRU replacement policy
IP Table Entries: 1024
CSPT Entries: 128
RR_ENTRIES: 32
RST_ENTRIES: 8
L1D has LRU replacement policy
Initialize SRRIP state for L2C
Initialize DRRIP state for LLC
BTB has LRU replacement policy
ITLB has LRU replacement policy
DTLB has LRU replacement policy
STLB has LRU replacement policy
L1I has LRU replacement policy
IP Table Entries: 1024
CSPT Entries: 128
RR_ENTRIES: 32
RST_ENTRIES: 8
L1D has LRU replacement policy
Initialize SRRIP state for L2C
Initialize DRRIP state for LLC
BTB has LRU replacement policy
ITLB has LRU replacement policy
DTLB has LRU replacement policy
STLB has LRU replacement policy
L1I has LRU replacement policy
IP Table Entries: 1024
CSPT Entries: 128
RR_ENTRIES: 32
RST_ENTRIES: 8
L1D has LRU replacement policy
Initialize SRRIP state for L2C
Initialize DRRIP state for LLC
UNIQUE_ASID[0] = €
UNIQUE_ASID[1] = 
Heartbeat CPU 3 instructions: 10000000 cycles: 3340080 heartbeat IPC: 2.99394 cumulative IPC: 2.99394 (Simulation time: 0 hr 2 min 41 sec) 
Heartbeat CPU 0 instructions: 10000003 cycles: 3526224 heartbeat IPC: 2.8359 cumulative IPC: 2.8359 (Simulation time: 0 hr 2 min 50 sec) 
Heartbeat CPU 2 instructions: 10000001 cycles: 3697054 heartbeat IPC: 2.70486 cumulative IPC: 2.70486 (Simulation time: 0 hr 2 min 59 sec) 
Heartbeat CPU 1 instructions: 10000000 cycles: 3714969 heartbeat IPC: 2.69181 cumulative IPC: 2.69181 (Simulation time: 0 hr 3 min 0 sec) 
Heartbeat CPU 3 instructions: 20000000 cycles: 6679316 heartbeat IPC: 2.9947 cumulative IPC: 2.99432 (Simulation time: 0 hr 5 min 7 sec) 
Heartbeat CPU 0 instructions: 20000001 cycles: 6857716 heartbeat IPC: 3.00166 cumulative IPC: 2.91642 (Simulation time: 0 hr 5 min 14 sec) 
Heartbeat CPU 2 instructions: 20000003 cycles: 7424511 heartbeat IPC: 2.68279 cumulative IPC: 2.69378 (Simulation time: 0 hr 5 min 40 sec) 
Heartbeat CPU 1 instructions: 20000003 cycles: 7435535 heartbeat IPC: 2.68776 cumulative IPC: 2.68979 (Simulation time: 0 hr 5 min 41 sec) 
Heartbeat CPU 3 instructions: 30000001 cycles: 10011772 heartbeat IPC: 3.00079 cumulative IPC: 2.99647 (Simulation time: 0 hr 7 min 37 sec) 
Heartbeat CPU 0 instructions: 30000002 cycles: 10407423 heartbeat IPC: 2.81713 cumulative IPC: 2.88256 (Simulation time: 0 hr 7 min 57 sec) 
Heartbeat CPU 2 instructions: 30000000 cycles: 11172939 heartbeat IPC: 2.66778 cumulative IPC: 2.68506 (Simulation time: 0 hr 8 min 34 sec) 
Heartbeat CPU 1 instructions: 30000003 cycles: 11207476 heartbeat IPC: 2.65115 cumulative IPC: 2.67678 (Simulation time: 0 hr 8 min 36 sec) 
Heartbeat CPU 3 instructions: 40000003 cycles: 13339241 heartbeat IPC: 3.00529 cumulative IPC: 2.99867 (Simulation time: 0 hr 10 min 20 sec) 
Heartbeat CPU 0 instructions: 40000000 cycles: 13729754 heartbeat IPC: 3.00993 cumulative IPC: 2.91338 (Simulation time: 0 hr 10 min 39 sec) 
Heartbeat CPU 2 instructions: 40000000 cycles: 14915056 heartbeat IPC: 2.67228 cumulative IPC: 2.68185 (Simulation time: 0 hr 11 min 37 sec) 
Heartbeat CPU 1 instructions: 40000002 cycles: 14922286 heartbeat IPC: 2.69193 cumulative IPC: 2.68055 (Simulation time: 0 hr 11 min 37 sec) 
Heartbeat CPU 3 instructions: 50000003 cycles: 16670118 heartbeat IPC: 3.00221 cumulative IPC: 2.99938 (Simulation time: 0 hr 12 min 46 sec) 
Heartbeat CPU 0 instructions: 50000000 cycles: 17209166 heartbeat IPC: 2.87405 cumulative IPC: 2.90543 (Simulation time: 0 hr 13 min 4 sec) 
Heartbeat CPU 2 instructions: 50000001 cycles: 18613917 heartbeat IPC: 2.70354 cumulative IPC: 2.68616 (Simulation time: 0 hr 13 min 46 sec) 
Heartbeat CPU 1 instructions: 50000003 cycles: 18652200 heartbeat IPC: 2.68103 cumulative IPC: 2.68065 (Simulation time: 0 hr 13 min 47 sec) 

Warmup complete CPU 0 instructions: 53793528 cycles: 18652200 (Simulation time: 0 hr 13 min 47 sec) 
Warmup complete CPU 1 instructions: 50000003 cycles: 18652200 (Simulation time: 0 hr 13 min 47 sec) 
Warmup complete CPU 2 instructions: 50103131 cycles: 18652199 (Simulation time: 0 hr 13 min 47 sec) 
Warmup complete CPU 3 instructions: 55765197 cycles: 18652199 (Simulation time: 0 hr 13 min 47 sec) 

Heartbeat CPU 3 instructions: 60000003 cycles: 24788021 heartbeat IPC: 1.23185 cumulative IPC: 0.690177 (Simulation time: 0 hr 15 min 1 sec) 
Heartbeat CPU 0 instructions: 60000003 cycles: 31923066 heartbeat IPC: 0.67963 cumulative IPC: 0.467677 (Simulation time: 0 hr 16 min 55 sec) 
Heartbeat CPU 1 instructions: 60000003 cycles: 35080887 heartbeat IPC: 0.608691 cumulative IPC: 0.608691 (Simulation time: 0 hr 17 min 45 sec) 
Heartbeat CPU 2 instructions: 60000003 cycles: 35855348 heartbeat IPC: 0.579998 cumulative IPC: 0.575294 (Simulation time: 0 hr 17 min 58 sec) 
Heartbeat CPU 3 instructions: 70000002 cycles: 39271263 heartbeat IPC: 0.690453 cumulative IPC: 0.690371 (Simulation time: 0 hr 18 min 55 sec) 
Heartbeat CPU 0 instructions: 70000002 cycles: 51568248 heartbeat IPC: 0.509031 cumulative IPC: 0.492358 (Simulation time: 0 hr 22 min 13 sec) 
Heartbeat CPU 1 instructions: 70000000 cycles: 51947507 heartbeat IPC: 0.592887 cumulative IPC: 0.600685 (Simulation time: 0 hr 22 min 19 sec) 
Heartbeat CPU 2 instructions: 70000002 cycles: 52448884 heartbeat IPC: 0.602644 cumulative IPC: 0.588723 (Simulation time: 0 hr 22 min 27 sec) 
Heartbeat CPU 3 instructions: 80000000 cycles: 53883472 heartbeat IPC: 0.684359 cumulative IPC: 0.687878 (Simulation time: 0 hr 22 min 51 sec) 
Heartbeat CPU 3 instructions: 90000001 cycles: 68555486 heartbeat IPC: 0.68157 cumulative IPC: 0.686023 (Simulation time: 0 hr 26 min 24 sec) 
Heartbeat CPU 2 instructions: 80000001 cycles: 68734891 heartbeat IPC: 0.614024 cumulative IPC: 0.59695 (Simulation time: 0 hr 26 min 27 sec) 
Heartbeat CPU 1 instructions: 80000000 cycles: 69123294 heartbeat IPC: 0.582215 cumulative IPC: 0.5944 (Simulation time: 0 hr 26 min 33 sec) 
Heartbeat CPU 0 instructions: 80000002 cycles: 72603092 heartbeat IPC: 0.475402 cumulative IPC: 0.485747 (Simulation time: 0 hr 27 min 34 sec) 
Heartbeat CPU 3 instructions: 100000001 cycles: 82836677 heartbeat IPC: 0.700222 cumulative IPC: 0.689182 (Simulation time: 0 hr 29 min 46 sec) 
Heartbeat CPU 2 instructions: 90000002 cycles: 83762113 heartbeat IPC: 0.665459 cumulative IPC: 0.612762 (Simulation time: 0 hr 30 min 1 sec) 
Heartbeat CPU 1 instructions: 90000002 cycles: 85402194 heartbeat IPC: 0.614292 cumulative IPC: 0.599251 (Simulation time: 0 hr 30 min 29 sec) 
Heartbeat CPU 0 instructions: 90000001 cycles: 85758301 heartbeat IPC: 0.760155 cumulative IPC: 0.539541 (Simulation time: 0 hr 30 min 36 sec) 
Heartbeat CPU 3 instructions: 110000000 cycles: 96971413 heartbeat IPC: 0.707477 cumulative IPC: 0.692484 (Simulation time: 0 hr 33 min 50 sec) 
Heartbeat CPU 0 instructions: 100000000 cycles: 98691141 heartbeat IPC: 0.773225 cumulative IPC: 0.5773 (Simulation time: 0 hr 34 min 21 sec) 
Heartbeat CPU 2 instructions: 100000003 cycles: 99153447 heartbeat IPC: 0.649716 cumulative IPC: 0.619827 (Simulation time: 0 hr 34 min 28 sec) 
Heartbeat CPU 1 instructions: 100000001 cycles: 101875359 heartbeat IPC: 0.607048 cumulative IPC: 0.600794 (Simulation time: 0 hr 35 min 11 sec) 
Heartbeat CPU 3 instructions: 120000000 cycles: 111023090 heartbeat IPC: 0.711659 cumulative IPC: 0.695401 (Simulation time: 0 hr 37 min 20 sec) 
Heartbeat CPU 2 instructions: 110000000 cycles: 115590537 heartbeat IPC: 0.60838 cumulative IPC: 0.617886 (Simulation time: 0 hr 38 min 19 sec) 
Heartbeat CPU 1 instructions: 110000000 cycles: 118699562 heartbeat IPC: 0.594382 cumulative IPC: 0.599716 (Simulation time: 0 hr 38 min 58 sec) 
Heartbeat CPU 0 instructions: 110000000 cycles: 123309404 heartbeat IPC: 0.406202 cumulative IPC: 0.537053 (Simulation time: 0 hr 39 min 57 sec) 
Heartbeat CPU 3 instructions: 130000000 cycles: 125469426 heartbeat IPC: 0.692217 cumulative IPC: 0.69497 (Simulation time: 0 hr 40 min 20 sec) 
Heartbeat CPU 2 instructions: 120000001 cycles: 133024147 heartbeat IPC: 0.573605 cumulative IPC: 0.611136 (Simulation time: 0 hr 41 min 41 sec) 
Heartbeat CPU 1 instructions: 120000001 cycles: 135907558 heartbeat IPC: 0.581125 cumulative IPC: 0.596988 (Simulation time: 0 hr 42 min 11 sec) 
Heartbeat CPU 3 instructions: 140000002 cycles: 139727120 heartbeat IPC: 0.701376 cumulative IPC: 0.695725 (Simulation time: 0 hr 42 min 51 sec) 
Heartbeat CPU 0 instructions: 120000000 cycles: 141777157 heartbeat IPC: 0.541484 cumulative IPC: 0.537718 (Simulation time: 0 hr 43 min 13 sec) 
Heartbeat CPU 2 instructions: 130000002 cycles: 150804591 heartbeat IPC: 0.562416 cumulative IPC: 0.604581 (Simulation time: 0 hr 44 min 44 sec) 
Heartbeat CPU 1 instructions: 130000002 cycles: 152412568 heartbeat IPC: 0.605877 cumulative IPC: 0.598084 (Simulation time: 0 hr 45 min 1 sec) 
Heartbeat CPU 3 instructions: 150000002 cycles: 154214639 heartbeat IPC: 0.690249 cumulative IPC: 0.695139 (Simulation time: 0 hr 45 min 20 sec) 
Heartbeat CPU 0 instructions: 130000002 cycles: 164726236 heartbeat IPC: 0.435747 cumulative IPC: 0.521698 (Simulation time: 0 hr 47 min 56 sec) 
Heartbeat CPU 2 instructions: 140000002 cycles: 167303430 heartbeat IPC: 0.606103 cumulative IPC: 0.60475 (Simulation time: 0 hr 48 min 37 sec) 
Heartbeat CPU 3 instructions: 160000003 cycles: 168853018 heartbeat IPC: 0.683136 cumulative IPC: 0.69397 (Simulation time: 0 hr 49 min 1 sec) 
Heartbeat CPU 1 instructions: 140000001 cycles: 169363009 heartbeat IPC: 0.589955 cumulative IPC: 0.59717 (Simulation time: 0 hr 49 min 10 sec) 
Heartbeat CPU 3 instructions: 170000001 cycles: 183419650 heartbeat IPC: 0.6865 cumulative IPC: 0.693309 (Simulation time: 0 hr 52 min 41 sec) 
Heartbeat CPU 2 instructions: 150000001 cycles: 184381456 heartbeat IPC: 0.585548 cumulative IPC: 0.602771 (Simulation time: 0 hr 52 min 56 sec) 
Heartbeat CPU 0 instructions: 140000003 cycles: 184485033 heartbeat IPC: 0.506104 cumulative IPC: 0.51984 (Simulation time: 0 hr 52 min 57 sec) 
Heartbeat CPU 1 instructions: 150000000 cycles: 186582547 heartbeat IPC: 0.580736 cumulative IPC: 0.595485 (Simulation time: 0 hr 53 min 30 sec) 
Heartbeat CPU 3 instructions: 180000003 cycles: 198109221 heartbeat IPC: 0.680755 cumulative IPC: 0.692282 (Simulation time: 0 hr 56 min 33 sec) 
Heartbeat CPU 2 instructions: 160000000 cycles: 201760022 heartbeat IPC: 0.575421 cumulative IPC: 0.600176 (Simulation time: 0 hr 57 min 18 sec) 
Heartbeat CPU 1 instructions: 160000000 cycles: 203003359 heartbeat IPC: 0.608983 cumulative IPC: 0.596687 (Simulation time: 0 hr 57 min 30 sec) 
Heartbeat CPU 0 instructions: 150000003 cycles: 207194618 heartbeat IPC: 0.440343 cumulative IPC: 0.510264 (Simulation time: 0 hr 58 min 13 sec) 
Heartbeat CPU 3 instructions: 190000003 cycles: 212809694 heartbeat IPC: 0.68025 cumulative IPC: 0.691371 (Simulation time: 0 hr 59 min 10 sec) 
Heartbeat CPU 2 instructions: 170000000 cycles: 218369927 heartbeat IPC: 0.60205 cumulative IPC: 0.600332 (Simulation time: 1 hr 0 min 12 sec) 
Heartbeat CPU 1 instructions: 170000000 cycles: 219884439 heartbeat IPC: 0.592379 cumulative IPC: 0.596326 (Simulation time: 1 hr 0 min 29 sec) 
Heartbeat CPU 3 instructions: 200000001 cycles: 227321362 heartbeat IPC: 0.689101 cumulative IPC: 0.691213 (Simulation time: 1 hr 1 min 48 sec) 
Heartbeat CPU 0 instructions: 160000002 cycles: 229525392 heartbeat IPC: 0.447812 cumulative IPC: 0.503651 (Simulation time: 1 hr 2 min 22 sec) 
Heartbeat CPU 2 instructions: 180000002 cycles: 234481383 heartbeat IPC: 0.620677 cumulative IPC: 0.60185 (Simulation time: 1 hr 3 min 28 sec) 
Heartbeat CPU 1 instructions: 180000000 cycles: 236936535 heartbeat IPC: 0.586438 cumulative IPC: 0.595554 (Simulation time: 1 hr 4 min 1 sec) 
Heartbeat CPU 3 instructions: 210000002 cycles: 241581951 heartbeat IPC: 0.701233 cumulative IPC: 0.691854 (Simulation time: 1 hr 5 min 5 sec) 
Heartbeat CPU 0 instructions: 170000000 cycles: 248863766 heartbeat IPC: 0.517106 cumulative IPC: 0.504781 (Simulation time: 1 hr 6 min 44 sec) 
Heartbeat CPU 2 instructions: 190000003 cycles: 249583883 heartbeat IPC: 0.662142 cumulative IPC: 0.605793 (Simulation time: 1 hr 6 min 53 sec) 
Heartbeat CPU 1 instructions: 190000003 cycles: 253324185 heartbeat IPC: 0.610216 cumulative IPC: 0.596577 (Simulation time: 1 hr 7 min 37 sec) 
Heartbeat CPU 3 instructions: 220000000 cycles: 255753449 heartbeat IPC: 0.705642 cumulative IPC: 0.692678 (Simulation time: 1 hr 8 min 8 sec) 
Heartbeat CPU 2 instructions: 200000000 cycles: 265343365 heartbeat IPC: 0.634538 cumulative IPC: 0.60763 (Simulation time: 1 hr 10 min 14 sec) 
Heartbeat CPU 0 instructions: 180000003 cycles: 269890440 heartbeat IPC: 0.475587 cumulative IPC: 0.502338 (Simulation time: 1 hr 11 min 15 sec) 
Heartbeat CPU 1 instructions: 200000000 cycles: 270097935 heartbeat IPC: 0.596169 cumulative IPC: 0.59655 (Simulation time: 1 hr 11 min 18 sec) 
Heartbeat CPU 3 instructions: 230000002 cycles: 270099054 heartbeat IPC: 0.697078 cumulative IPC: 0.692929 (Simulation time: 1 hr 11 min 18 sec) 
Heartbeat CPU 2 instructions: 210000002 cycles: 281894567 heartbeat IPC: 0.604186 cumulative IPC: 0.607413 (Simulation time: 1 hr 13 min 53 sec) 
Heartbeat CPU 0 instructions: 190000003 cycles: 283040845 heartbeat IPC: 0.760433 cumulative IPC: 0.515175 (Simulation time: 1 hr 14 min 5 sec) 
Heartbeat CPU 3 instructions: 240000000 cycles: 284132358 heartbeat IPC: 0.71259 cumulative IPC: 0.693968 (Simulation time: 1 hr 14 min 17 sec) 
Heartbeat CPU 1 instructions: 210000000 cycles: 286632531 heartbeat IPC: 0.604793 cumulative IPC: 0.597059 (Simulation time: 1 hr 14 min 46 sec) 
Heartbeat CPU 0 instructions: 200000002 cycles: 295923763 heartbeat IPC: 0.776222 cumulative IPC: 0.527304 (Simulation time: 1 hr 16 min 30 sec) 
Heartbeat CPU 3 instructions: 250000000 cycles: 298238943 heartbeat IPC: 0.708889 cumulative IPC: 0.694721 (Simulation time: 1 hr 16 min 55 sec) 
Heartbeat CPU 2 instructions: 220000000 cycles: 298792699 heartbeat IPC: 0.591781 cumulative IPC: 0.60647 (Simulation time: 1 hr 17 min 0 sec) 
Heartbeat CPU 1 instructions: 220000000 cycles: 303468051 heartbeat IPC: 0.593982 cumulative IPC: 0.596877 (Simulation time: 1 hr 17 min 48 sec) 
Finished CPU 3 instructions: 200000003 cycles: 287988878 cumulative IPC: 0.694471 (Simulation time: 1 hr 18 min 34 sec) 
Heartbeat CPU 3 instructions: 260000002 cycles: 312752552 heartbeat IPC: 0.689009 cumulative IPC: 0.694439 (Simulation time: 1 hr 20 min 8 sec) 
Heartbeat CPU 2 instructions: 230000003 cycles: 316324550 heartbeat IPC: 0.570391 cumulative IPC: 0.604345 (Simulation time: 1 hr 21 min 5 sec) 
Heartbeat CPU 1 instructions: 230000000 cycles: 319879811 heartbeat IPC: 0.609319 cumulative IPC: 0.597555 (Simulation time: 1 hr 22 min 1 sec) 
Heartbeat CPU 0 instructions: 210000001 cycles: 320450473 heartbeat IPC: 0.407719 cumulative IPC: 0.517586 (Simulation time: 1 hr 22 min 10 sec) 
Heartbeat CPU 3 instructions: 270000000 cycles: 327275206 heartbeat IPC: 0.688579 cumulative IPC: 0.694163 (Simulation time: 1 hr 24 min 3 sec) 
Heartbeat CPU 2 instructions: 240000001 cycles: 332764370 heartbeat IPC: 0.608279 cumulative IPC: 0.604551 (Simulation time: 1 hr 25 min 35 sec) 
Heartbeat CPU 1 instructions: 240000000 cycles: 336730620 heartbeat IPC: 0.593443 cumulative IPC: 0.597337 (Simulation time: 1 hr 26 min 41 sec) 
Heartbeat CPU 0 instructions: 220000000 cycles: 338753434 heartbeat IPC: 0.54636 cumulative IPC: 0.519231 (Simulation time: 1 hr 27 min 13 sec) 
Heartbeat CPU 3 instructions: 280000002 cycles: 342047731 heartbeat IPC: 0.676932 cumulative IPC: 0.693376 (Simulation time: 1 hr 27 min 46 sec) 
Heartbeat CPU 2 instructions: 250000002 cycles: 349921318 heartbeat IPC: 0.582854 cumulative IPC: 0.603427 (Simulation time: 1 hr 29 min 11 sec) 
Finished CPU 2 instructions: 200000002 cycles: 331437723 cumulative IPC: 0.603432 (Simulation time: 1 hr 29 min 14 sec) 
Heartbeat CPU 1 instructions: 250000001 cycles: 354020769 heartbeat IPC: 0.578364 cumulative IPC: 0.596359 (Simulation time: 1 hr 30 min 18 sec) 
Finished CPU 1 instructions: 200000002 cycles: 335368574 cumulative IPC: 0.596359 (Simulation time: 1 hr 30 min 18 sec) 
Heartbeat CPU 3 instructions: 290000002 cycles: 356758567 heartbeat IPC: 0.679771 cumulative IPC: 0.692784 (Simulation time: 1 hr 30 min 48 sec) 
Heartbeat CPU 0 instructions: 230000002 cycles: 361692911 heartbeat IPC: 0.43593 cumulative IPC: 0.513661 (Simulation time: 1 hr 32 min 7 sec) 
Heartbeat CPU 2 instructions: 260000003 cycles: 367315398 heartbeat IPC: 0.574908 cumulative IPC: 0.602005 (Simulation time: 1 hr 33 min 23 sec) 
Heartbeat CPU 1 instructions: 260000001 cycles: 370449329 heartbeat IPC: 0.608696 cumulative IPC: 0.596935 (Simulation time: 1 hr 33 min 56 sec) 
Heartbeat CPU 3 instructions: 300000000 cycles: 371402003 heartbeat IPC: 0.6829 cumulative IPC: 0.692374 (Simulation time: 1 hr 34 min 6 sec) 
Heartbeat CPU 0 instructions: 240000001 cycles: 381421360 heartbeat IPC: 0.506882 cumulative IPC: 0.513292 (Simulation time: 1 hr 35 min 50 sec) 
Heartbeat CPU 2 instructions: 270000003 cycles: 383930192 heartbeat IPC: 0.601873 cumulative IPC: 0.601999 (Simulation time: 1 hr 36 min 15 sec) 
Heartbeat CPU 3 instructions: 310000001 cycles: 385855073 heartbeat IPC: 0.691895 cumulative IPC: 0.692355 (Simulation time: 1 hr 36 min 37 sec) 
Heartbeat CPU 1 instructions: 270000000 cycles: 387401712 heartbeat IPC: 0.589887 cumulative IPC: 0.596611 (Simulation time: 1 hr 37 min 3 sec) 
Heartbeat CPU 2 instructions: 280000003 cycles: 400006308 heartbeat IPC: 0.622041 cumulative IPC: 0.602844 (Simulation time: 1 hr 39 min 31 sec) 
Heartbeat CPU 3 instructions: 320000000 cycles: 400110842 heartbeat IPC: 0.70147 cumulative IPC: 0.692696 (Simulation time: 1 hr 39 min 32 sec) 
Heartbeat CPU 0 instructions: 250000002 cycles: 404000363 heartbeat IPC: 0.442889 cumulative IPC: 0.509167 (Simulation time: 1 hr 40 min 13 sec) 
Heartbeat CPU 1 instructions: 280000003 cycles: 404517824 heartbeat IPC: 0.584245 cumulative IPC: 0.596062 (Simulation time: 1 hr 40 min 19 sec) 
Finished CPU 0 instructions: 200000000 cycles: 394112622 cumulative IPC: 0.507469 (Simulation time: 1 hr 42 min 11 sec) 

ChampSim completed all CPUs

Total Simulation Statistics (not including warmup)

CPU 0 cumulative IPC: 0.507469 instructions: 200000000 cycles: 394112622
ITLB TOTAL     ACCESS:   36609536  HIT:   28653237  MISS:    7956299  HIT %:    78.2671  MISS %:    21.7329   MPKI: 39.7815
ITLB LOAD      ACCESS:          0  HIT:          0  MISS:          0  HIT %:       -nan  MISS %:       -nan   MPKI: 0
ITLB RFO       ACCESS:          0  HIT:          0  MISS:          0  HIT %:       -nan  MISS %:       -nan   MPKI: 0
ITLB PREFETCH  ACCESS:          0  HIT:          0  MISS:          0  HIT %:       -nan  MISS %:       -nan   MPKI: 0
ITLB WRITEBACK ACCESS:          0  HIT:          0  MISS:          0  HIT %:       -nan  MISS %:       -nan   MPKI: 0
DTLB TOTAL     ACCESS:   26575609  HIT:   15057087  MISS:   11518522  HIT %:    56.6575  MISS %:    43.3425   MPKI: 57.5926
DTLB LOAD      ACCESS:          0  HIT:          0  MISS:          0  HIT %:       -nan  MISS %:       -nan   MPKI: 0
DTLB RFO       ACCESS:          0  HIT:          0  MISS:          0  HIT %:       -nan  MISS %:       -nan   MPKI: 0
DTLB PREFETCH  ACCESS:          0  HIT:          0  MISS:          0  HIT %:       -nan  MISS %:       -nan   MPKI: 0
DTLB WRITEBACK ACCESS:          0  HIT:          0  MISS:          0  HIT %:       -nan  MISS %:       -nan   MPKI: 0
STLB TOTAL     ACCESS:   23416969  HIT:    7295438  MISS:   16121531  HIT %:    31.1545  MISS %:    68.8455   MPKI: 80.6077
STLB LOAD      ACCESS:          0  HIT:          0  MISS:          0  HIT %:       -nan  MISS %:       -nan   MPKI: 0
STLB RFO       ACCESS:          0  HIT:          0  MISS:          0  HIT %:       -nan  MISS %:       -nan   MPKI: 0
STLB PREFETCH  ACCESS:          0  HIT:          0  MISS:          0  HIT %:       -nan  MISS %:       -nan   MPKI: 0
STLB WRITEBACK ACCESS:          0  HIT:          0  MISS:          0  HIT %:       -nan  MISS %:       -nan   MPKI: 0
L1D TOTAL     ACCESS:   37374258  HIT:   33034474  MISS:    4339784  HIT %:    88.3883  MISS %:    11.6117   MPKI: 21.6989
L1D LOAD      ACCESS:   19525451  HIT:   17669729  MISS:    1855722  HIT %:    90.4959  MISS %:    9.50412   MPKI: 9.27861
L1D RFO       ACCESS:   12955104  HIT:   12441625  MISS:     513479  HIT %:    96.0365  MISS %:    3.96353   MPKI: 2.56739
L1D PREFETCH  ACCESS:    4893703  HIT:    2923120  MISS:    1970583  HIT %:    59.7323  MISS %:    40.2677   MPKI: 9.85291
L1D WRITEBACK ACCESS:          0  HIT:          0  MISS:          0  HIT %:       -nan  MISS %:       -nan   MPKI: 0
L1I TOTAL     ACCESS:   44786430  HIT:   44706584  MISS:      79846  HIT %:    99.8217  MISS %:   0.178282   MPKI: 0.39923
L1I LOAD      ACCESS:   44786430  HIT:   44706584  MISS:      79846  HIT %:    99.8217  MISS %:   0.178282   MPKI: 0.39923
L1I RFO       ACCESS:          0  HIT:          0  MISS:          0  HIT %:       -nan  MISS %:       -nan   MPKI: 0
L1I PREFETCH  ACCESS:          0  HIT:          0  MISS:          0  HIT %:       -nan  MISS %:       -nan   MPKI: 0
L1I WRITEBACK ACCESS:          0  HIT:          0  MISS:          0  HIT %:       -nan  MISS %:       -nan   MPKI: 0
L2C TOTAL     ACCESS:   23270280  HIT:   20686168  MISS:    2584112  HIT %:    88.8952  MISS %:    11.1048   MPKI: 12.9206
L2C LOAD      ACCESS:    1910831  HIT:     821178  MISS:    1089653  HIT %:    42.9749  MISS %:    57.0251   MPKI: 5.44827
L2C RFO       ACCESS:     512709  HIT:     367247  MISS:     145462  HIT %:    71.6287  MISS %:    28.3713   MPKI: 0.72731
L2C PREFETCH  ACCESS:    1996026  HIT:     804543  MISS:    1191483  HIT %:    40.3072  MISS %:    59.6928   MPKI: 5.95742
L2C WRITEBACK ACCESS:    1791268  HIT:    1735270  MISS:      55998  HIT %:    96.8738  MISS %:    3.12617   MPKI: 0.27999
PSCL5 TOTAL     ACCESS:   16121530  HIT:   16121530  MISS:          0  HIT %:        100  MISS %:          0   MPKI: 0
PSCL5 LOAD      ACCESS:          0  HIT:          0  MISS:          0  HIT %:       -nan  MISS %:       -nan   MPKI: 0
PSCL5 RFO       ACCESS:          0  HIT:          0  MISS:          0  HIT %:       -nan  MISS %:       -nan   MPKI: 0
PSCL5 PREFETCH  ACCESS:          0  HIT:          0  MISS:          0  HIT %:       -nan  MISS %:       -nan   MPKI: 0
PSCL5 WRITEBACK ACCESS:          0  HIT:          0  MISS:          0  HIT %:       -nan  MISS %:       -nan   MPKI: 0
PSCL4 TOTAL     ACCESS:   11431916  HIT:   11431916  MISS:          0  HIT %:        100  MISS %:          0   MPKI: 0
PSCL4 LOAD      ACCESS:          0  HIT:          0  MISS:          0  HIT %:       -nan  MISS %:       -nan   MPKI: 0
PSCL4 RFO       ACCESS:          0  HIT:          0  MISS:          0  HIT %:       -nan  MISS %:       -nan   MPKI: 0
PSCL4 PREFETCH  ACCESS:          0  HIT:          0  MISS:          0  HIT %:       -nan  MISS %:       -nan   MPKI: 0
PSCL4 WRITEBACK ACCESS:          0  HIT:          0  MISS:          0  HIT %:       -nan  MISS %:       -nan   MPKI: 0
PSCL3 TOTAL     ACCESS:   16119805  HIT:   16119150  MISS:        655  HIT %:    99.9959  MISS %: 0.00406332   MPKI: 0.003275
PSCL3 LOAD      ACCESS:          0  HIT:          0  MISS:          0  HIT %:       -nan  MISS %:       -nan   MPKI: 0
PSCL3 RFO       ACCESS:          0  HIT:          0  MISS:          0  HIT %:       -nan  MISS %:       -nan   MPKI: 0
PSCL3 PREFETCH  ACCESS:          0  HIT:          0  MISS:          0  HIT %:       -nan  MISS %:       -nan   MPKI: 0
PSCL3 WRITEBACK ACCESS:          0  HIT:          0  MISS:          0  HIT %:       -nan  MISS %:       -nan   MPKI: 0
PSCL2 TOTAL     ACCESS:   16121530  HIT:   15184259  MISS:     937271  HIT %:    94.1862  MISS %:    5.81378   MPKI: 4.68635
PSCL2 LOAD      ACCESS:          0  HIT:          0  MISS:          0  HIT %:       -nan  MISS %:       -nan   MPKI: 0
PSCL2 RFO       ACCESS:          0  HIT:          0  MISS:          0  HIT %:       -nan  MISS %:       -nan   MPKI: 0
PSCL2 PREFETCH  ACCESS:          0  HIT:          0  MISS:          0  HIT %:       -nan  MISS %:       -nan   MPKI: 0
PSCL2 WRITEBACK ACCESS:          0  HIT:          0  MISS:          0  HIT %:       -nan  MISS %:       -nan   MPKI: 0

stream: 
stream:times selected: 8358713
stream:pref_filled: 2052252
stream:pref_useful: 272716
stream:pref_late: 16140
stream:misses: 548025
stream:misses_by_poll: 0

CS: 
CS:times selected: 484657
CS:pref_filled: 251387
CS:pref_useful: 211094
CS:pref_late: 9088
CS:misses: 52834
CS:misses_by_poll: 990

CPLX: 
CPLX:times selected: 7795501
CPLX:pref_filled: 370438
CPLX:pref_useful: 49530
CPLX:pref_late: 626
CPLX:misses: 1559103
CPLX:misses_by_poll: 452

NL_L1: 
NL:times selected: 60302
NL:pref_filled: 21789
NL:pref_useful: 2457
NL:pref_late: 120
NL:misses: 18871
NL:misses_by_poll: 1

total selections: 16699173
total_filled: 1970583
total_useful: 386654
total_late: 26753
total_polluted: 1443
total_misses_after_warmup: 2120559
conflicts: 1965320
Degree Incremented Times: 425614
Degree Decremented Times: 1432502

L1 IP Table Write Accesses: 86275765
L1 IP Table Read Accesses: 84310445
L1 RST Write Accesses: 30788770
L1 RST Read Accesses: 61577540
L1 CSPT Write Accesses: 30788770
L1 CSPT Read Accesses: 60026616
L1 RR Filter Tag Write Accesses: 24675235
L1 RR Filter Tag Read Accesses: 1058461598
L1 IP Table Tag Write Accesses: 94428195
L1 IP Table Tag Read Accesses: 94428195
L1 RST Tag Write Accesses: 0
L1 RST Tag Read Accesses: 300896589
L1 RR Filter Write Accesses: 0
L1 RR Filter Read Accesses: 38044635
test: 20117062
LLC TOTAL     ACCESS:    3639594  HIT:    2196226  MISS:    1443368  HIT %:    60.3426  MISS %:    39.6574   MPKI: 7.21684
LLC LOAD      ACCESS:    1089652  HIT:     439332  MISS:     650320  HIT %:    40.3186  MISS %:    59.6814   MPKI: 3.2516
LLC RFO       ACCESS:     145461  HIT:      71333  MISS:      74128  HIT %:    49.0393  MISS %:    50.9607   MPKI: 0.37064
LLC PREFETCH  ACCESS:    1191480  HIT:     497978  MISS:     693502  HIT %:    41.7949  MISS %:    58.2051   MPKI: 3.46751
LLC WRITEBACK ACCESS:    1111485  HIT:    1096279  MISS:      15206  HIT %:    98.6319  MISS %:    1.36808   MPKI: 0.07603

RAW hits: 3568958
Loads Generated: 34270891
Loads sent to L1D: 30701929
Stores Generated: 14503187
Stores sent to L1D: 14503186

CPU 1 cumulative IPC: 0.59667 instructions: 235155324 cycles: 394112622
ITLB TOTAL     ACCESS:   48021845  HIT:   36472383  MISS:   11549462  HIT %:    75.9496  MISS %:    24.0504   MPKI: 49.1142
ITLB LOAD      ACCESS:          0  HIT:          0  MISS:          0  HIT %:       -nan  MISS %:       -nan   MPKI: 0
ITLB RFO       ACCESS:          0  HIT:          0  MISS:          0  HIT %:       -nan  MISS %:       -nan   MPKI: 0
ITLB PREFETCH  ACCESS:          0  HIT:          0  MISS:          0  HIT %:       -nan  MISS %:       -nan   MPKI: 0
ITLB WRITEBACK ACCESS:          0  HIT:          0  MISS:          0  HIT %:       -nan  MISS %:       -nan   MPKI: 0
DTLB TOTAL     ACCESS:   33621678  HIT:   19927690  MISS:   13693988  HIT %:    59.2704  MISS %:    40.7296   MPKI: 58.2338
DTLB LOAD      ACCESS:          0  HIT:          0  MISS:          0  HIT %:       -nan  MISS %:       -nan   MPKI: 0
DTLB RFO       ACCESS:          0  HIT:          0  MISS:          0  HIT %:       -nan  MISS %:       -nan   MPKI: 0
DTLB PREFETCH  ACCESS:          0  HIT:          0  MISS:          0  HIT %:       -nan  MISS %:       -nan   MPKI: 0
DTLB WRITEBACK ACCESS:          0  HIT:          0  MISS:          0  HIT %:       -nan  MISS %:       -nan   MPKI: 0
STLB TOTAL     ACCESS:   30629625  HIT:    8039992  MISS:   22589633  HIT %:    26.2491  MISS %:    73.7509   MPKI: 96.0626
STLB LOAD      ACCESS:          0  HIT:          0  MISS:          0  HIT %:       -nan  MISS %:       -nan   MPKI: 0
STLB RFO       ACCESS:          0  HIT:          0  MISS:          0  HIT %:       -nan  MISS %:       -nan   MPKI: 0
STLB PREFETCH  ACCESS:          0  HIT:          0  MISS:          0  HIT %:       -nan  MISS %:       -nan   MPKI: 0
STLB WRITEBACK ACCESS:          0  HIT:          0  MISS:          0  HIT %:       -nan  MISS %:       -nan   MPKI: 0
L1D TOTAL     ACCESS:   45927934  HIT:   43122646  MISS:    2805288  HIT %:     93.892  MISS %:    6.10802   MPKI: 11.9295
L1D LOAD      ACCESS:   23782457  HIT:   22697960  MISS:    1084497  HIT %:    95.4399  MISS %:    4.56007   MPKI: 4.61183
L1D RFO       ACCESS:   15158880  HIT:   15079258  MISS:      79622  HIT %:    99.4748  MISS %:    0.52525   MPKI: 0.338593
L1D PREFETCH  ACCESS:    6986597  HIT:    5345428  MISS:    1641169  HIT %:    76.5098  MISS %:    23.4902   MPKI: 6.97909
L1D WRITEBACK ACCESS:          0  HIT:          0  MISS:          0  HIT %:       -nan  MISS %:       -nan   MPKI: 0
L1I TOTAL     ACCESS:   57447420  HIT:   57430080  MISS:      17340  HIT %:    99.9698  MISS %:  0.0301841   MPKI: 0.0737385
L1I LOAD      ACCESS:   57447420  HIT:   57430080  MISS:      17340  HIT %:    99.9698  MISS %:  0.0301841   MPKI: 0.0737385
L1I RFO       ACCESS:          0  HIT:          0  MISS:          0  HIT %:       -nan  MISS %:       -nan   MPKI: 0
L1I PREFETCH  ACCESS:          0  HIT:          0  MISS:          0  HIT %:       -nan  MISS %:       -nan   MPKI: 0
L1I WRITEBACK ACCESS:          0  HIT:          0  MISS:          0  HIT %:       -nan  MISS %:       -nan   MPKI: 0
L2C TOTAL     ACCESS:   26620689  HIT:   24962947  MISS:    1657742  HIT %:    93.7727  MISS %:    6.22727   MPKI: 7.04956
L2C LOAD      ACCESS:    1090437  HIT:     488048  MISS:     602389  HIT %:    44.7571  MISS %:    55.2429   MPKI: 2.56166
L2C RFO       ACCESS:      77276  HIT:      20134  MISS:      57142  HIT %:    26.0547  MISS %:    73.9453   MPKI: 0.242997
L2C PREFETCH  ACCESS:    1654872  HIT:     717403  MISS:     937469  HIT %:     43.351  MISS %:     56.649   MPKI: 3.98659
L2C WRITEBACK ACCESS:    1115546  HIT:    1072348  MISS:      43198  HIT %:    96.1276  MISS %:    3.87236   MPKI: 0.1837
PSCL5 TOTAL     ACCESS:   22589634  HIT:   22589634  MISS:          0  HIT %:        100  MISS %:          0   MPKI: 0
PSCL5 LOAD      ACCESS:          0  HIT:          0  MISS:          0  HIT %:       -nan  MISS %:       -nan   MPKI: 0
PSCL5 RFO       ACCESS:          0  HIT:          0  MISS:          0  HIT %:       -nan  MISS %:       -nan   MPKI: 0
PSCL5 PREFETCH  ACCESS:          0  HIT:          0  MISS:          0  HIT %:       -nan  MISS %:       -nan   MPKI: 0
PSCL5 WRITEBACK ACCESS:          0  HIT:          0  MISS:          0  HIT %:       -nan  MISS %:       -nan   MPKI: 0
PSCL4 TOTAL     ACCESS:   22589634  HIT:   22589634  MISS:          0  HIT %:        100  MISS %:          0   MPKI: 0
PSCL4 LOAD      ACCESS:          0  HIT:          0  MISS:          0  HIT %:       -nan  MISS %:       -nan   MPKI: 0
PSCL4 RFO       ACCESS:          0  HIT:          0  MISS:          0  HIT %:       -nan  MISS %:       -nan   MPKI: 0
PSCL4 PREFETCH  ACCESS:          0  HIT:          0  MISS:          0  HIT %:       -nan  MISS %:       -nan   MPKI: 0
PSCL4 WRITEBACK ACCESS:          0  HIT:          0  MISS:          0  HIT %:       -nan  MISS %:       -nan   MPKI: 0
PSCL3 TOTAL     ACCESS:   22589463  HIT:   22589408  MISS:         55  HIT %:    99.9998  MISS %: 0.000243476   MPKI: 0.000233888
PSCL3 LOAD      ACCESS:          0  HIT:          0  MISS:          0  HIT %:       -nan  MISS %:       -nan   MPKI: 0
PSCL3 RFO       ACCESS:          0  HIT:          0  MISS:          0  HIT %:       -nan  MISS %:       -nan   MPKI: 0
PSCL3 PREFETCH  ACCESS:          0  HIT:          0  MISS:          0  HIT %:       -nan  MISS %:       -nan   MPKI: 0
PSCL3 WRITEBACK ACCESS:          0  HIT:          0  MISS:          0  HIT %:       -nan  MISS %:       -nan   MPKI: 0
PSCL2 TOTAL     ACCESS:   22589634  HIT:   22496753  MISS:      92881  HIT %:    99.5888  MISS %:   0.411166   MPKI: 0.394977
PSCL2 LOAD      ACCESS:          0  HIT:          0  MISS:          0  HIT %:       -nan  MISS %:       -nan   MPKI: 0
PSCL2 RFO       ACCESS:          0  HIT:          0  MISS:          0  HIT %:       -nan  MISS %:       -nan   MPKI: 0
PSCL2 PREFETCH  ACCESS:          0  HIT:          0  MISS:          0  HIT %:       -nan  MISS %:       -nan   MPKI: 0
PSCL2 WRITEBACK ACCESS:          0  HIT:          0  MISS:          0  HIT %:       -nan  MISS %:       -nan   MPKI: 0

stream: 
stream:times selected: 11011114
stream:pref_filled: 1278499
stream:pref_useful: 396175
stream:pref_late: 10446
stream:misses: 364870
stream:misses_by_poll: 0

CS: 
CS:times selected: 584371
CS:pref_filled: 311006
CS:pref_useful: 300012
CS:pref_late: 147
CS:misses: 5203
CS:misses_by_poll: 753

CPLX: 
CPLX:times selected: 10357646
CPLX:pref_filled: 393796
CPLX:pref_useful: 124784
CPLX:pref_late: 659
CPLX:misses: 976344
CPLX:misses_by_poll: 960

NL_L1: 
NL:times selected: 61297
NL:pref_filled: 14574
NL:pref_useful: 3886
NL:pref_late: 31
NL:misses: 11704
NL:misses_by_poll: 0

total selections: 22014428
total_filled: 1641169
total_useful: 682334
total_late: 11498
total_polluted: 1713
total_misses_after_warmup: 1158397
conflicts: 1965320
Degree Incremented Times: 425614
Degree Decremented Times: 1432502

L1 IP Table Write Accesses: 86275765
L1 IP Table Read Accesses: 84310445
L1 RST Write Accesses: 30788770
L1 RST Read Accesses: 61577540
L1 CSPT Write Accesses: 30788770
L1 CSPT Read Accesses: 60026616
L1 RR Filter Tag Write Accesses: 24675235
L1 RR Filter Tag Read Accesses: 1058461598
L1 IP Table Tag Write Accesses: 94428195
L1 IP Table Tag Read Accesses: 94428195
L1 RST Tag Write Accesses: 0
L1 RST Tag Read Accesses: 300896589
L1 RR Filter Write Accesses: 0
L1 RR Filter Read Accesses: 38044635
test: 20117062
LLC TOTAL     ACCESS:    2387008  HIT:    1672523  MISS:     714485  HIT %:    70.0678  MISS %:    29.9322   MPKI: 3.03835
LLC LOAD      ACCESS:     602389  HIT:     365666  MISS:     236723  HIT %:    60.7026  MISS %:    39.2974   MPKI: 1.00667
LLC RFO       ACCESS:      57142  HIT:      23447  MISS:      33695  HIT %:    41.0329  MISS %:    58.9671   MPKI: 0.143288
LLC PREFETCH  ACCESS:     937466  HIT:     516251  MISS:     421215  HIT %:    55.0688  MISS %:    44.9312   MPKI: 1.79122
LLC WRITEBACK ACCESS:     772467  HIT:     753516  MISS:      18951  HIT %:    97.5467  MISS %:    2.45331   MPKI: 0.0805893

RAW hits: 8533939
Loads Generated: 43930918
Loads sent to L1D: 35396978
Stores Generated: 17674929
Stores sent to L1D: 17674929

CPU 2 cumulative IPC: 0.606345 instructions: 238968303 cycles: 394112623
ITLB TOTAL     ACCESS:   47259204  HIT:   36048667  MISS:   11210537  HIT %:    76.2786  MISS %:    23.7214   MPKI: 46.9122
ITLB LOAD      ACCESS:          0  HIT:          0  MISS:          0  HIT %:       -nan  MISS %:       -nan   MPKI: 0
ITLB RFO       ACCESS:          0  HIT:          0  MISS:          0  HIT %:       -nan  MISS %:       -nan   MPKI: 0
ITLB PREFETCH  ACCESS:          0  HIT:          0  MISS:          0  HIT %:       -nan  MISS %:       -nan   MPKI: 0
ITLB WRITEBACK ACCESS:          0  HIT:          0  MISS:          0  HIT %:       -nan  MISS %:       -nan   MPKI: 0
DTLB TOTAL     ACCESS:   32818511  HIT:   19600494  MISS:   13218017  HIT %:    59.7239  MISS %:    40.2761   MPKI: 55.3128
DTLB LOAD      ACCESS:          0  HIT:          0  MISS:          0  HIT %:       -nan  MISS %:       -nan   MPKI: 0
DTLB RFO       ACCESS:          0  HIT:          0  MISS:          0  HIT %:       -nan  MISS %:       -nan   MPKI: 0
DTLB PREFETCH  ACCESS:          0  HIT:          0  MISS:          0  HIT %:       -nan  MISS %:       -nan   MPKI: 0
DTLB WRITEBACK ACCESS:          0  HIT:          0  MISS:          0  HIT %:       -nan  MISS %:       -nan   MPKI: 0
STLB TOTAL     ACCESS:   29276406  HIT:    7806222  MISS:   21470184  HIT %:    26.6639  MISS %:    73.3361   MPKI: 89.8453
STLB LOAD      ACCESS:          0  HIT:          0  MISS:          0  HIT %:       -nan  MISS %:       -nan   MPKI: 0
STLB RFO       ACCESS:          0  HIT:          0  MISS:          0  HIT %:       -nan  MISS %:       -nan   MPKI: 0
STLB PREFETCH  ACCESS:          0  HIT:          0  MISS:          0  HIT %:       -nan  MISS %:       -nan   MPKI: 0
STLB WRITEBACK ACCESS:          0  HIT:          0  MISS:          0  HIT %:       -nan  MISS %:       -nan   MPKI: 0
L1D TOTAL     ACCESS:   44871884  HIT:   42242865  MISS:    2629019  HIT %:    94.1411  MISS %:    5.85894   MPKI: 11.0015
L1D LOAD      ACCESS:   23528848  HIT:   22462842  MISS:    1066006  HIT %:    95.4694  MISS %:    4.53063   MPKI: 4.46087
L1D RFO       ACCESS:   15173462  HIT:   15082615  MISS:      90847  HIT %:    99.4013  MISS %:   0.598723   MPKI: 0.380163
L1D PREFETCH  ACCESS:    6169574  HIT:    4697408  MISS:    1472166  HIT %:    76.1383  MISS %:    23.8617   MPKI: 6.16051
L1D WRITEBACK ACCESS:          0  HIT:          0  MISS:          0  HIT %:       -nan  MISS %:       -nan   MPKI: 0
L1I TOTAL     ACCESS:   56878160  HIT:   56794074  MISS:      84086  HIT %:    99.8522  MISS %:   0.147835   MPKI: 0.351871
L1I LOAD      ACCESS:   56878160  HIT:   56794074  MISS:      84086  HIT %:    99.8522  MISS %:   0.147835   MPKI: 0.351871
L1I RFO       ACCESS:          0  HIT:          0  MISS:          0  HIT %:       -nan  MISS %:       -nan   MPKI: 0
L1I PREFETCH  ACCESS:          0  HIT:          0  MISS:          0  HIT %:       -nan  MISS %:       -nan   MPKI: 0
L1I WRITEBACK ACCESS:          0  HIT:          0  MISS:          0  HIT %:       -nan  MISS %:       -nan   MPKI: 0
L2C TOTAL     ACCESS:   25373318  HIT:   23873401  MISS:    1499917  HIT %:    94.0886  MISS %:    5.91139   MPKI: 6.27664
L2C LOAD      ACCESS:    1138456  HIT:     552951  MISS:     585505  HIT %:    48.5703  MISS %:    51.4297   MPKI: 2.45014
L2C RFO       ACCESS:      88165  HIT:      39435  MISS:      48730  HIT %:    44.7286  MISS %:    55.2714   MPKI: 0.203918
L2C PREFETCH  ACCESS:    1486456  HIT:     677633  MISS:     808823  HIT %:    45.5872  MISS %:    54.4128   MPKI: 3.38465
L2C WRITEBACK ACCESS:    1008455  HIT:     971173  MISS:      37282  HIT %:    96.3031  MISS %:    3.69694   MPKI: 0.156012
PSCL5 TOTAL     ACCESS:   21470186  HIT:   21470186  MISS:          0  HIT %:        100  MISS %:          0   MPKI: 0
PSCL5 LOAD      ACCESS:          0  HIT:          0  MISS:          0  HIT %:       -nan  MISS %:       -nan   MPKI: 0
PSCL5 RFO       ACCESS:          0  HIT:          0  MISS:          0  HIT %:       -nan  MISS %:       -nan   MPKI: 0
PSCL5 PREFETCH  ACCESS:          0  HIT:          0  MISS:          0  HIT %:       -nan  MISS %:       -nan   MPKI: 0
PSCL5 WRITEBACK ACCESS:          0  HIT:          0  MISS:          0  HIT %:       -nan  MISS %:       -nan   MPKI: 0
PSCL4 TOTAL     ACCESS:   21470186  HIT:   21470186  MISS:          0  HIT %:        100  MISS %:          0   MPKI: 0
PSCL4 LOAD      ACCESS:          0  HIT:          0  MISS:          0  HIT %:       -nan  MISS %:       -nan   MPKI: 0
PSCL4 RFO       ACCESS:          0  HIT:          0  MISS:          0  HIT %:       -nan  MISS %:       -nan   MPKI: 0
PSCL4 PREFETCH  ACCESS:          0  HIT:          0  MISS:          0  HIT %:       -nan  MISS %:       -nan   MPKI: 0
PSCL4 WRITEBACK ACCESS:          0  HIT:          0  MISS:          0  HIT %:       -nan  MISS %:       -nan   MPKI: 0
PSCL3 TOTAL     ACCESS:   21469247  HIT:   21469177  MISS:         70  HIT %:    99.9997  MISS %: 0.000326048   MPKI: 0.000292926
PSCL3 LOAD      ACCESS:          0  HIT:          0  MISS:          0  HIT %:       -nan  MISS %:       -nan   MPKI: 0
PSCL3 RFO       ACCESS:          0  HIT:          0  MISS:          0  HIT %:       -nan  MISS %:       -nan   MPKI: 0
PSCL3 PREFETCH  ACCESS:          0  HIT:          0  MISS:          0  HIT %:       -nan  MISS %:       -nan   MPKI: 0
PSCL3 WRITEBACK ACCESS:          0  HIT:          0  MISS:          0  HIT %:       -nan  MISS %:       -nan   MPKI: 0
PSCL2 TOTAL     ACCESS:   21470186  HIT:   21288638  MISS:     181548  HIT %:    99.1544  MISS %:   0.845582   MPKI: 0.759716
PSCL2 LOAD      ACCESS:          0  HIT:          0  MISS:          0  HIT %:       -nan  MISS %:       -nan   MPKI: 0
PSCL2 RFO       ACCESS:          0  HIT:          0  MISS:          0  HIT %:       -nan  MISS %:       -nan   MPKI: 0
PSCL2 PREFETCH  ACCESS:          0  HIT:          0  MISS:          0  HIT %:       -nan  MISS %:       -nan   MPKI: 0
PSCL2 WRITEBACK ACCESS:          0  HIT:          0  MISS:          0  HIT %:       -nan  MISS %:       -nan   MPKI: 0

stream: 
stream:times selected: 10295839
stream:pref_filled: 1211566
stream:pref_useful: 337269
stream:pref_late: 10616
stream:misses: 319931
stream:misses_by_poll: 0

CS: 
CS:times selected: 545616
CS:pref_filled: 261373
CS:pref_useful: 247156
CS:pref_late: 99
CS:misses: 4979
CS:misses_by_poll: 549

CPLX: 
CPLX:times selected: 9685994
CPLX:pref_filled: 358921
CPLX:pref_useful: 94538
CPLX:pref_late: 620
CPLX:misses: 956695
CPLX:misses_by_poll: 765

NL_L1: 
NL:times selected: 48219
NL:pref_filled: 12854
NL:pref_useful: 2742
NL:pref_late: 47
NL:misses: 10594
NL:misses_by_poll: 1

total selections: 20575668
total_filled: 1472166
total_useful: 532377
total_late: 11728
total_polluted: 1315
total_misses_after_warmup: 1144698
conflicts: 1965320
Degree Incremented Times: 425614
Degree Decremented Times: 1432502

L1 IP Table Write Accesses: 86275765
L1 IP Table Read Accesses: 84310445
L1 RST Write Accesses: 30788770
L1 RST Read Accesses: 61577540
L1 CSPT Write Accesses: 30788770
L1 CSPT Read Accesses: 60026616
L1 RR Filter Tag Write Accesses: 24675235
L1 RR Filter Tag Read Accesses: 1058461598
L1 IP Table Tag Write Accesses: 94428195
L1 IP Table Tag Read Accesses: 94428195
L1 RST Tag Write Accesses: 0
L1 RST Tag Read Accesses: 300896589
L1 RR Filter Write Accesses: 0
L1 RR Filter Read Accesses: 38044635
test: 20117062
LLC TOTAL     ACCESS:    2143955  HIT:    1455365  MISS:     688590  HIT %:    67.8823  MISS %:    32.1177   MPKI: 2.88151
LLC LOAD      ACCESS:     585503  HIT:     333622  MISS:     251881  HIT %:    56.9804  MISS %:    43.0196   MPKI: 1.05404
LLC RFO       ACCESS:      48730  HIT:      17121  MISS:      31609  HIT %:    35.1344  MISS %:    64.8656   MPKI: 0.132273
LLC PREFETCH  ACCESS:     808821  HIT:     428546  MISS:     380275  HIT %:     52.984  MISS %:     47.016   MPKI: 1.59132
LLC WRITEBACK ACCESS:     681324  HIT:     661549  MISS:      19775  HIT %:    97.0976  MISS %:    2.90244   MPKI: 0.0827516

RAW hits: 7356680
Loads Generated: 42872474
Loads sent to L1D: 35515793
Stores Generated: 17294936
Stores sent to L1D: 17294936

CPU 3 cumulative IPC: 0.69275 instructions: 273021305 cycles: 394112623
ITLB TOTAL     ACCESS:   51651532  HIT:   39613842  MISS:   12037690  HIT %:    76.6944  MISS %:    23.3056   MPKI: 44.0907
ITLB LOAD      ACCESS:          0  HIT:          0  MISS:          0  HIT %:       -nan  MISS %:       -nan   MPKI: 0
ITLB RFO       ACCESS:          0  HIT:          0  MISS:          0  HIT %:       -nan  MISS %:       -nan   MPKI: 0
ITLB PREFETCH  ACCESS:          0  HIT:          0  MISS:          0  HIT %:       -nan  MISS %:       -nan   MPKI: 0
ITLB WRITEBACK ACCESS:          0  HIT:          0  MISS:          0  HIT %:       -nan  MISS %:       -nan   MPKI: 0
DTLB TOTAL     ACCESS:   32610183  HIT:   18543539  MISS:   14066644  HIT %:    56.8643  MISS %:    43.1357   MPKI: 51.5221
DTLB LOAD      ACCESS:          0  HIT:          0  MISS:          0  HIT %:       -nan  MISS %:       -nan   MPKI: 0
DTLB RFO       ACCESS:          0  HIT:          0  MISS:          0  HIT %:       -nan  MISS %:       -nan   MPKI: 0
DTLB PREFETCH  ACCESS:          0  HIT:          0  MISS:          0  HIT %:       -nan  MISS %:       -nan   MPKI: 0
DTLB WRITEBACK ACCESS:          0  HIT:          0  MISS:          0  HIT %:       -nan  MISS %:       -nan   MPKI: 0
STLB TOTAL     ACCESS:   30510693  HIT:    8893986  MISS:   21616707  HIT %:    29.1504  MISS %:    70.8496   MPKI: 79.1759
STLB LOAD      ACCESS:          0  HIT:          0  MISS:          0  HIT %:       -nan  MISS %:       -nan   MPKI: 0
STLB RFO       ACCESS:          0  HIT:          0  MISS:          0  HIT %:       -nan  MISS %:       -nan   MPKI: 0
STLB PREFETCH  ACCESS:          0  HIT:          0  MISS:          0  HIT %:       -nan  MISS %:       -nan   MPKI: 0
STLB WRITEBACK ACCESS:          0  HIT:          0  MISS:          0  HIT %:       -nan  MISS %:       -nan   MPKI: 0
L1D TOTAL     ACCESS:   45386053  HIT:   44137936  MISS:    1248117  HIT %:      97.25  MISS %:       2.75   MPKI: 4.5715
L1D LOAD      ACCESS:   24485072  HIT:   23962481  MISS:     522591  HIT %:    97.8657  MISS %:    2.13432   MPKI: 1.9141
L1D RFO       ACCESS:   15164344  HIT:   15163602  MISS:        742  HIT %:    99.9951  MISS %: 0.00489306   MPKI: 0.00271774
L1D PREFETCH  ACCESS:    5736637  HIT:    5011853  MISS:     724784  HIT %:    87.3657  MISS %:    12.6343   MPKI: 2.65468
L1D WRITEBACK ACCESS:          0  HIT:          0  MISS:          0  HIT %:       -nan  MISS %:       -nan   MPKI: 0
L1I TOTAL     ACCESS:   62679606  HIT:   62675915  MISS:       3691  HIT %:    99.9941  MISS %: 0.00588868   MPKI: 0.0135191
L1I LOAD      ACCESS:   62679606  HIT:   62675915  MISS:       3691  HIT %:    99.9941  MISS %: 0.00588868   MPKI: 0.0135191
L1I RFO       ACCESS:          0  HIT:          0  MISS:          0  HIT %:       -nan  MISS %:       -nan   MPKI: 0
L1I PREFETCH  ACCESS:          0  HIT:          0  MISS:          0  HIT %:       -nan  MISS %:       -nan   MPKI: 0
L1I WRITEBACK ACCESS:          0  HIT:          0  MISS:          0  HIT %:       -nan  MISS %:       -nan   MPKI: 0
L2C TOTAL     ACCESS:   23205906  HIT:   22198526  MISS:    1007380  HIT %:    95.6589  MISS %:    4.34105   MPKI: 3.68975
L2C LOAD      ACCESS:     522126  HIT:     109570  MISS:     412556  HIT %:    20.9854  MISS %:    79.0146   MPKI: 1.51108
L2C RFO       ACCESS:        741  HIT:        105  MISS:        636  HIT %:      14.17  MISS %:      85.83   MPKI: 0.00232949
L2C PREFETCH  ACCESS:     728940  HIT:     193573  MISS:     535367  HIT %:    26.5554  MISS %:    73.4446   MPKI: 1.9609
L2C WRITEBACK ACCESS:     268638  HIT:     246546  MISS:      22092  HIT %:    91.7763  MISS %:    8.22371   MPKI: 0.0809168
PSCL5 TOTAL     ACCESS:   21616707  HIT:   21616707  MISS:          0  HIT %:        100  MISS %:          0   MPKI: 0
PSCL5 LOAD      ACCESS:          0  HIT:          0  MISS:          0  HIT %:       -nan  MISS %:       -nan   MPKI: 0
PSCL5 RFO       ACCESS:          0  HIT:          0  MISS:          0  HIT %:       -nan  MISS %:       -nan   MPKI: 0
PSCL5 PREFETCH  ACCESS:          0  HIT:          0  MISS:          0  HIT %:       -nan  MISS %:       -nan   MPKI: 0
PSCL5 WRITEBACK ACCESS:          0  HIT:          0  MISS:          0  HIT %:       -nan  MISS %:       -nan   MPKI: 0
PSCL4 TOTAL     ACCESS:   21616707  HIT:   21616707  MISS:          0  HIT %:        100  MISS %:          0   MPKI: 0
PSCL4 LOAD      ACCESS:          0  HIT:          0  MISS:          0  HIT %:       -nan  MISS %:       -nan   MPKI: 0
PSCL4 RFO       ACCESS:          0  HIT:          0  MISS:          0  HIT %:       -nan  MISS %:       -nan   MPKI: 0
PSCL4 PREFETCH  ACCESS:          0  HIT:          0  MISS:          0  HIT %:       -nan  MISS %:       -nan   MPKI: 0
PSCL4 WRITEBACK ACCESS:          0  HIT:          0  MISS:          0  HIT %:       -nan  MISS %:       -nan   MPKI: 0
PSCL3 TOTAL     ACCESS:   21616075  HIT:   21615955  MISS:        120  HIT %:    99.9994  MISS %: 0.000555142   MPKI: 0.000439526
PSCL3 LOAD      ACCESS:          0  HIT:          0  MISS:          0  HIT %:       -nan  MISS %:       -nan   MPKI: 0
PSCL3 RFO       ACCESS:          0  HIT:          0  MISS:          0  HIT %:       -nan  MISS %:       -nan   MPKI: 0
PSCL3 PREFETCH  ACCESS:          0  HIT:          0  MISS:          0  HIT %:       -nan  MISS %:       -nan   MPKI: 0
PSCL3 WRITEBACK ACCESS:          0  HIT:          0  MISS:          0  HIT %:       -nan  MISS %:       -nan   MPKI: 0
PSCL2 TOTAL     ACCESS:   21616707  HIT:   21548072  MISS:      68635  HIT %:    99.6825  MISS %:   0.317509   MPKI: 0.251391
PSCL2 LOAD      ACCESS:          0  HIT:          0  MISS:          0  HIT %:       -nan  MISS %:       -nan   MPKI: 0
PSCL2 RFO       ACCESS:          0  HIT:          0  MISS:          0  HIT %:       -nan  MISS %:       -nan   MPKI: 0
PSCL2 PREFETCH  ACCESS:          0  HIT:          0  MISS:          0  HIT %:       -nan  MISS %:       -nan   MPKI: 0
PSCL2 WRITEBACK ACCESS:          0  HIT:          0  MISS:          0  HIT %:       -nan  MISS %:       -nan   MPKI: 0

stream: 
stream:times selected: 8843921
stream:pref_filled: 565453
stream:pref_useful: 109100
stream:pref_late: 3405
stream:misses: 97365
stream:misses_by_poll: 0

CS: 
CS:times selected: 154595
CS:pref_filled: 76846
CS:pref_useful: 74253
CS:pref_late: 1056
CS:misses: 141
CS:misses_by_poll: 88

CPLX: 
CPLX:times selected: 8636983
CPLX:pref_filled: 240875
CPLX:pref_useful: 49751
CPLX:pref_late: 319
CPLX:misses: 273599
CPLX:misses_by_poll: 474

NL_L1: 
NL:times selected: 20941
NL:pref_filled: 5653
NL:pref_useful: 539
NL:pref_late: 1
NL:misses: 3154
NL:misses_by_poll: 0

total selections: 17656440
total_filled: 724784
total_useful: 191356
total_late: 4807
total_polluted: 562
total_misses_after_warmup: 572097
conflicts: 1965320
Degree Incremented Times: 425614
Degree Decremented Times: 1432502

L1 IP Table Write Accesses: 86275765
L1 IP Table Read Accesses: 84310445
L1 RST Write Accesses: 30788770
L1 RST Read Accesses: 61577540
L1 CSPT Write Accesses: 30788770
L1 CSPT Read Accesses: 60026616
L1 RR Filter Tag Write Accesses: 24675235
L1 RR Filter Tag Read Accesses: 1058461598
L1 IP Table Tag Write Accesses: 94428195
L1 IP Table Tag Read Accesses: 94428195
L1 RST Tag Write Accesses: 0
L1 RST Tag Read Accesses: 300896589
L1 RR Filter Write Accesses: 0
L1 RR Filter Read Accesses: 38044635
test: 20117062
LLC TOTAL     ACCESS:    1243796  HIT:     541092  MISS:     702704  HIT %:    43.5033  MISS %:    56.4967   MPKI: 2.57381
LLC LOAD      ACCESS:     412556  HIT:     128644  MISS:     283912  HIT %:    31.1822  MISS %:    68.8178   MPKI: 1.03989
LLC RFO       ACCESS:        636  HIT:         75  MISS:        561  HIT %:    11.7925  MISS %:    88.2075   MPKI: 0.00205478
LLC PREFETCH  ACCESS:     535367  HIT:     153160  MISS:     382207  HIT %:    28.6084  MISS %:    71.3916   MPKI: 1.39992
LLC WRITEBACK ACCESS:     258508  HIT:     228762  MISS:      29746  HIT %:    88.4932  MISS %:    11.5068   MPKI: 0.108951

RAW hits: 9536737
Loads Generated: 46605767
Loads sent to L1D: 37069022
Stores Generated: 16527832
Stores sent to L1D: 16527832

Region of Interest Statistics

CPU 0 cumulative IPC: 0.507469 instructions: 200000000 cycles: 394112622
ITLB TOTAL     ACCESS:   36609536  HIT:   28653237  MISS:    7956299  HIT %:    78.2671  MISS %:    21.7329   MPKI: 39.7815
ITLB LOAD TRANSLATION ACCESS:   36609536  HIT:   28653237  MISS:    7956299  HIT %:    78.2671  MISS %:    21.7329   MPKI: 39.7815
ITLB PREFETCH  REQUESTED:          0  ISSUED:          0  USEFUL:          0  USELESS:          0
ITLB USEFUL LOAD PREFETCHES:          0 PREFETCH ISSUED TO LOWER LEVEL:          0  ACCURACY: -nan
ITLB TIMELY PREFETCHES:          0 LATE PREFETCHES: 0 DROPPED PREFETCHES: 0
ITLB PREFETCHES SAME FILL-ORIGIN LEVEL: 0 DIFFERENT FILL-ORIGIN LEVEL: 0
ITLB AVERAGE MISS LATENCY: 36.2573 cycles
ITLB RQ	ACCESS:   44809154	FORWARD:          0	MERGED:    5887031	TO_CACHE:   38922123

DTLB TOTAL     ACCESS:   26575609  HIT:   15057087  MISS:   11518522  HIT %:    56.6575  MISS %:    43.3425   MPKI: 57.5926
DTLB LOAD TRANSLATION ACCESS:   26575609  HIT:   15057087  MISS:   11518522  HIT %:    56.6575  MISS %:    43.3425   MPKI: 57.5926
DTLB PREFETCH  REQUESTED:          0  ISSUED:          0  USEFUL:          0  USELESS:          0
DTLB USEFUL LOAD PREFETCHES:          0 PREFETCH ISSUED TO LOWER LEVEL:          0  ACCURACY: -nan
DTLB TIMELY PREFETCHES:          0 LATE PREFETCHES: 0 DROPPED PREFETCHES: 0
DTLB PREFETCHES SAME FILL-ORIGIN LEVEL: 0 DIFFERENT FILL-ORIGIN LEVEL: 0
DTLB AVERAGE MISS LATENCY: 33.5264 cycles
DTLB RQ	ACCESS:   33622051	FORWARD:          0	MERGED:    5864767	TO_CACHE:   27757284

STLB TOTAL     ACCESS:   23416969  HIT:    7295438  MISS:   16121531  HIT %:    31.1545  MISS %:    68.8455   MPKI: 80.6077
STLB LOAD TRANSLATION ACCESS:   19474821  HIT:    4957449  MISS:   14517372  HIT %:    25.4557  MISS %:    74.5443   MPKI: 72.5869
STLB TRANSLATION FROM L1D PREFETCHER ACCESS:    3942148  HIT:    2337989  MISS:    1604159  HIT %:    59.3075  MISS %:    40.6925   MPKI: 8.02079
STLB PREFETCH  REQUESTED:          0  ISSUED:          0  USEFUL:     551085  USELESS:    1053076
STLB USEFUL LOAD PREFETCHES:     551085 PREFETCH ISSUED TO LOWER LEVEL:          0  ACCURACY: inf
STLB TIMELY PREFETCHES:     551085 LATE PREFETCHES: 0 DROPPED PREFETCHES: 0
STLB PREFETCHES SAME FILL-ORIGIN LEVEL: 0 DIFFERENT FILL-ORIGIN LEVEL: 0
STLB AVERAGE MISS LATENCY: 34.8299 cycles
STLB RQ	ACCESS:   24500374	FORWARD:          0	MERGED:    1045538	TO_CACHE:   23454836

STLB Hit, L1D data hit: 0
STLB Hit, L2C data hit: 0
STLB Hit, LLC data hit: 0
STLB Hit, LLC data miss: 0
STLB STLB hints to L2: 0
L1D TOTAL     ACCESS:   37374258  HIT:   33034474  MISS:    4339784  HIT %:    88.3883  MISS %:    11.6117   MPKI: 21.6989
L1D LOAD      ACCESS:   19525451  HIT:   17669729  MISS:    1855722  HIT %:    90.4959  MISS %:    9.50412   MPKI: 9.27861
L1D RFO       ACCESS:   12955104  HIT:   12441625  MISS:     513479  HIT %:    96.0365  MISS %:    3.96353   MPKI: 2.56739
L1D PREFETCH  ACCESS:    4893703  HIT:    2923120  MISS:    1970583  HIT %:    59.7323  MISS %:    40.2677   MPKI: 9.85291
L1D PREFETCH  REQUESTED:   10055889  ISSUED:   10055847  USEFUL:     386654  USELESS:    1583934
L1D USEFUL LOAD PREFETCHES:     386654 PREFETCH ISSUED TO LOWER LEVEL:    1996034  ACCURACY: 19.3711
L1D TIMELY PREFETCHES:     386654 LATE PREFETCHES: 24712 DROPPED PREFETCHES: 0
L1D PREFETCHES SAME FILL-ORIGIN LEVEL: 1996034 DIFFERENT FILL-ORIGIN LEVEL: 0
L1D AVERAGE MISS LATENCY: 90.1741 cycles
L1D RQ	ACCESS:   30701929	FORWARD:          0	MERGED:   10818985	TO_CACHE:   19723346
L1D WQ	ACCESS:   14503186	FORWARD:     164333	MERGED:     604481	TO_CACHE:   13898705
L1D PQ	ACCESS:    5030293	FORWARD:          0	MERGED:          4	TO_CACHE:    5025554

L1D UNIQUE REGIONS ACCESSED: 0
L1D REGIONS CONFLICTS: 0
L1D Cross Page Prefetch Requests: 0
L1D Same Page Prefetch Requests: 6600520
L1D ROI Sum of L1D PQ occupancy: 136692553
L1D PREFETCHES PUSHED FROM L2C: 0
L1I TOTAL     ACCESS:   44786430  HIT:   44706584  MISS:      79846  HIT %:    99.8217  MISS %:   0.178282   MPKI: 0.39923
L1I LOAD      ACCESS:   44786430  HIT:   44706584  MISS:      79846  HIT %:    99.8217  MISS %:   0.178282   MPKI: 0.39923
L1I PREFETCH  REQUESTED:          0  ISSUED:          0  USEFUL:          0  USELESS:          0
L1I USEFUL LOAD PREFETCHES:          0 PREFETCH ISSUED TO LOWER LEVEL:          0  ACCURACY: -nan
L1I TIMELY PREFETCHES:          0 LATE PREFETCHES: 0 DROPPED PREFETCHES: 0
L1I PREFETCHES SAME FILL-ORIGIN LEVEL: 0 DIFFERENT FILL-ORIGIN LEVEL: 0
L1I AVERAGE MISS LATENCY: 40.2155 cycles
L1I RQ	ACCESS:   82673302	FORWARD:          0	MERGED:   37864148	TO_CACHE:   44809154

BTB BRANCH_DIRECT_JUMP	ACCESS:          0  HIT:          0  MISS:          0
BTB BRANCH_INDIRECT	ACCESS:          0  HIT:          0  MISS:          0
BTB BRANCH_CONDITIONAL	ACCESS:          0  HIT:          0  MISS:          0
BTB BRANCH_DIRECT_CALL	ACCESS:          0  HIT:          0  MISS:          0
BTB BRANCH_INDIRECT_CALL	ACCESS:          0  HIT:          0  MISS:          0
BTB BRANCH_RETURN	ACCESS:          0  HIT:          0  MISS:          0
BTB BRANCH_OTHER ACCESS:          0  HIT:          0  MISS:          0

L2C TOTAL     ACCESS:   23270280  HIT:   20686168  MISS:    2584112  HIT %:    88.8952  MISS %:    11.1048   MPKI: 12.9206
L2C LOAD      ACCESS:    1910831  HIT:     821178  MISS:    1089653  HIT %:    42.9749  MISS %:    57.0251   MPKI: 5.44827
L2C DATA LOAD MPKI: 5.39604
L2C INSTRUCTION LOAD MPKI: 0.05222
L2C RFO       ACCESS:     512709  HIT:     367247  MISS:     145462  HIT %:    71.6287  MISS %:    28.3713   MPKI: 0.72731
L2C PREFETCH  ACCESS:    1996026  HIT:     804543  MISS:    1191483  HIT %:    40.3072  MISS %:    59.6928   MPKI: 5.95742
L2C DATA PREFETCH MPKI: 5.95742
L2C INSTRUCTION PREFETCH MPKI: 0
L2C WRITEBACK ACCESS:    1791268  HIT:    1735270  MISS:      55998  HIT %:    96.8738  MISS %:    3.12617   MPKI: 0.27999
L2C LOAD TRANSLATION ACCESS:   15426963  HIT:   15325667  MISS:     101296  HIT %:    99.3434  MISS %:   0.656617   MPKI: 0.50648
L2C TRANSLATION FROM L1D PREFETCHER ACCESS:    1632483  HIT:    1632263  MISS:        220  HIT %:    99.9865  MISS %:  0.0134764   MPKI: 0.0011
L2C PREFETCH  REQUESTED:          0  ISSUED:          0  USEFUL:      97829  USELESS:    1094073
L2C USEFUL LOAD PREFETCHES:      97829 PREFETCH ISSUED TO LOWER LEVEL:    1191483  ACCURACY: 8.21069
L2C TIMELY PREFETCHES:      97829 LATE PREFETCHES: 0 DROPPED PREFETCHES: 0
L2C PREFETCHES SAME FILL-ORIGIN LEVEL: 0 DIFFERENT FILL-ORIGIN LEVEL: 0
L2C AVERAGE MISS LATENCY: 134.123 cycles
L2C RQ	ACCESS:   19483042	FORWARD:          0	MERGED:          0	TO_CACHE:   19482986
L2C WQ	ACCESS:    1791268	FORWARD:         64	MERGED:          0	TO_CACHE:    1791268
L2C PQ	ACCESS:    1996034	FORWARD:          0	MERGED:          0	TO_CACHE:    1996026

L2C Instructions Evicting Data 9611
L2C Translations Evicting Data 96674
L2C Data Evicting Data 2312867
L2C Instructions Evicting Instructions 417
L2C Translations Evicting Instructions 426
L2C Data Evicting Instructions 9311
L2C Instructions Evicting Translations 416
L2C Translations Evicting Translations 4416
L2C Data Evicting Translations 93968
L2C Dense regions hint from L2: 0
PSCL5 TOTAL     ACCESS:   16121530  HIT:   16121530  MISS:          0  HIT %:        100  MISS %:          0   MPKI: 0
PSCL5 LOAD TRANSLATION ACCESS:   14517371  HIT:   14517371  MISS:          0  HIT %:        100  MISS %:          0   MPKI: 0
PSCL5 TRANSLATION FROM L1D PREFETCHER ACCESS:    1604159  HIT:    1604159  MISS:          0  HIT %:        100  MISS %:          0   MPKI: 0
PSCL5 PREFETCH  REQUESTED:          0  ISSUED:          0  USEFUL:          0  USELESS:          0
PSCL5 USEFUL LOAD PREFETCHES:          0 PREFETCH ISSUED TO LOWER LEVEL:          0  ACCURACY: -nan
PSCL5 TIMELY PREFETCHES:          0 LATE PREFETCHES: 0 DROPPED PREFETCHES: 0
PSCL5 PREFETCHES SAME FILL-ORIGIN LEVEL: 0 DIFFERENT FILL-ORIGIN LEVEL: 0

PSCL4 TOTAL     ACCESS:   11431916  HIT:   11431916  MISS:          0  HIT %:        100  MISS %:          0   MPKI: 0
PSCL4 LOAD TRANSLATION ACCESS:    9871015  HIT:    9871015  MISS:          0  HIT %:        100  MISS %:          0   MPKI: 0
PSCL4 TRANSLATION FROM L1D PREFETCHER ACCESS:    1560901  HIT:    1560901  MISS:          0  HIT %:        100  MISS %:          0   MPKI: 0
PSCL4 PREFETCH  REQUESTED:          0  ISSUED:          0  USEFUL:          0  USELESS:          0
PSCL4 USEFUL LOAD PREFETCHES:          0 PREFETCH ISSUED TO LOWER LEVEL:          0  ACCURACY: -nan
PSCL4 TIMELY PREFETCHES:          0 LATE PREFETCHES: 0 DROPPED PREFETCHES: 0
PSCL4 PREFETCHES SAME FILL-ORIGIN LEVEL: 0 DIFFERENT FILL-ORIGIN LEVEL: 0

PSCL3 TOTAL     ACCESS:   16119805  HIT:   16119150  MISS:        655  HIT %:    99.9959  MISS %: 0.00406332   MPKI: 0.003275
PSCL3 LOAD TRANSLATION ACCESS:   14515779  HIT:   14515124  MISS:        655  HIT %:    99.9955  MISS %: 0.00451233   MPKI: 0.003275
PSCL3 TRANSLATION FROM L1D PREFETCHER ACCESS:    1604026  HIT:    1604026  MISS:          0  HIT %:        100  MISS %:          0   MPKI: 0
PSCL3 PREFETCH  REQUESTED:          0  ISSUED:          0  USEFUL:          0  USELESS:          0
PSCL3 USEFUL LOAD PREFETCHES:          0 PREFETCH ISSUED TO LOWER LEVEL:          0  ACCURACY: -nan
PSCL3 TIMELY PREFETCHES:          0 LATE PREFETCHES: 0 DROPPED PREFETCHES: 0
PSCL3 PREFETCHES SAME FILL-ORIGIN LEVEL: 0 DIFFERENT FILL-ORIGIN LEVEL: 0

PSCL2 TOTAL     ACCESS:   16121530  HIT:   15184259  MISS:     937271  HIT %:    94.1862  MISS %:    5.81378   MPKI: 4.68635
PSCL2 LOAD TRANSLATION ACCESS:   14545650  HIT:   13608379  MISS:     937271  HIT %:    93.5563  MISS %:    6.44365   MPKI: 4.68635
PSCL2 TRANSLATION FROM L1D PREFETCHER ACCESS:    1575880  HIT:    1575880  MISS:          0  HIT %:        100  MISS %:          0   MPKI: 0
PSCL2 PREFETCH  REQUESTED:          0  ISSUED:          0  USEFUL:          0  USELESS:          0
PSCL2 USEFUL LOAD PREFETCHES:          0 PREFETCH ISSUED TO LOWER LEVEL:          0  ACCURACY: -nan
PSCL2 TIMELY PREFETCHES:          0 LATE PREFETCHES: 0 DROPPED PREFETCHES: 0
PSCL2 PREFETCHES SAME FILL-ORIGIN LEVEL: 0 DIFFERENT FILL-ORIGIN LEVEL: 0

LLC TOTAL     ACCESS:    3639594  HIT:    2196226  MISS:    1443368  HIT %:    60.3426  MISS %:    39.6574   MPKI: 7.21684
LLC LOAD      ACCESS:    1089652  HIT:     439332  MISS:     650320  HIT %:    40.3186  MISS %:    59.6814   MPKI: 3.2516
LLC RFO       ACCESS:     145461  HIT:      71333  MISS:      74128  HIT %:    49.0393  MISS %:    50.9607   MPKI: 0.37064
LLC PREFETCH  ACCESS:    1191480  HIT:     497978  MISS:     693502  HIT %:    41.7949  MISS %:    58.2051   MPKI: 3.46751
LLC WRITEBACK ACCESS:    1111485  HIT:    1096279  MISS:      15206  HIT %:    98.6319  MISS %:    1.36808   MPKI: 0.07603
LLC LOAD TRANSLATION ACCESS:     101296  HIT:      91108  MISS:      10188  HIT %:    89.9423  MISS %:    10.0577   MPKI: 0.05094
LLC TRANSLATION FROM L1D PREFETCHER ACCESS:        220  HIT:        196  MISS:         24  HIT %:    89.0909  MISS %:    10.9091   MPKI: 0.00012
LLC PREFETCH  REQUESTED:          0  ISSUED:          0  USEFUL:     240437  USELESS:    1635568
LLC USEFUL LOAD PREFETCHES:     240437 PREFETCH ISSUED TO LOWER LEVEL:    1877199  ACCURACY: 12.8083
LLC TIMELY PREFETCHES:     240437 LATE PREFETCHES: 0 DROPPED PREFETCHES: 0
LLC PREFETCHES SAME FILL-ORIGIN LEVEL: 0 DIFFERENT FILL-ORIGIN LEVEL: 0
LLC AVERAGE MISS LATENCY: 462.771 cycles
LLC RQ	ACCESS:    3117440	FORWARD:          0	MERGED:          0	TO_CACHE:    3117436
LLC WQ	ACCESS:    2823784	FORWARD:         12	MERGED:          0	TO_CACHE:    2823784
LLC PQ	ACCESS:    3473142	FORWARD:          0	MERGED:          0	TO_CACHE:    3473134

LLC Dense regions hint to LLC: 0

RAW hits: 3568958
Loads Generated: 34270891
Loads sent to L1D: 30701929
Stores Generated: 14503187
Stores sent to L1D: 14503186
Major fault: 0 Minor fault: 10087
Allocated PAGES: 17338

CPU 1 cumulative IPC: 0.596359 instructions: 200000002 cycles: 335368574
ITLB TOTAL     ACCESS:   40799650  HIT:   30982198  MISS:    9817452  HIT %:    75.9374  MISS %:    24.0626   MPKI: 49.0873
ITLB LOAD TRANSLATION ACCESS:   40799650  HIT:   30982198  MISS:    9817452  HIT %:    75.9374  MISS %:    24.0626   MPKI: 49.0873
ITLB PREFETCH  REQUESTED:          0  ISSUED:          0  USEFUL:          0  USELESS:          0
ITLB USEFUL LOAD PREFETCHES:          0 PREFETCH ISSUED TO LOWER LEVEL:          0  ACCURACY: -nan
ITLB TIMELY PREFETCHES:          0 LATE PREFETCHES: 0 DROPPED PREFETCHES: 0
ITLB PREFETCHES SAME FILL-ORIGIN LEVEL: 0 DIFFERENT FILL-ORIGIN LEVEL: 0
ITLB AVERAGE MISS LATENCY: 41.6026 cycles
ITLB RQ	ACCESS:   57452454	FORWARD:          0	MERGED:    5104146	TO_CACHE:   52348308

DTLB TOTAL     ACCESS:   28608363  HIT:   16947201  MISS:   11661162  HIT %:    59.2386  MISS %:    40.7614   MPKI: 58.3058
DTLB LOAD TRANSLATION ACCESS:   28608363  HIT:   16947201  MISS:   11661162  HIT %:    59.2386  MISS %:    40.7614   MPKI: 58.3058
DTLB PREFETCH  REQUESTED:          0  ISSUED:          0  USEFUL:          0  USELESS:          0
DTLB USEFUL LOAD PREFETCHES:          0 PREFETCH ISSUED TO LOWER LEVEL:          0  ACCURACY: -nan
DTLB TIMELY PREFETCHES:          0 LATE PREFETCHES: 0 DROPPED PREFETCHES: 0
DTLB PREFETCHES SAME FILL-ORIGIN LEVEL: 0 DIFFERENT FILL-ORIGIN LEVEL: 0
DTLB AVERAGE MISS LATENCY: 40.5447 cycles
DTLB RQ	ACCESS:   39358198	FORWARD:          0	MERGED:    4238657	TO_CACHE:   35119541

STLB TOTAL     ACCESS:   26060741  HIT:    6843307  MISS:   19217434  HIT %:    26.2591  MISS %:    73.7409   MPKI: 96.0872
STLB LOAD TRANSLATION ACCESS:   21478613  HIT:    4462731  MISS:   17015882  HIT %:    20.7776  MISS %:    79.2224   MPKI: 85.0794
STLB TRANSLATION FROM L1D PREFETCHER ACCESS:    4582128  HIT:    2380576  MISS:    2201552  HIT %:    51.9535  MISS %:    48.0465   MPKI: 11.0078
STLB PREFETCH  REQUESTED:          0  ISSUED:          0  USEFUL:     758910  USELESS:    1828615
STLB USEFUL LOAD PREFETCHES:     758910 PREFETCH ISSUED TO LOWER LEVEL:          0  ACCURACY: inf
STLB TIMELY PREFETCHES:     758910 LATE PREFETCHES: 0 DROPPED PREFETCHES: 0
STLB PREFETCHES SAME FILL-ORIGIN LEVEL: 0 DIFFERENT FILL-ORIGIN LEVEL: 0
STLB AVERAGE MISS LATENCY: 39.1611 cycles
STLB RQ	ACCESS:   32266217	FORWARD:          0	MERGED:    1592447	TO_CACHE:   30673770

STLB Hit, L1D data hit: 0
STLB Hit, L2C data hit: 0
STLB Hit, LLC data hit: 0
STLB Hit, LLC data miss: 0
STLB STLB hints to L2: 0
L1D TOTAL     ACCESS:   39091774  HIT:   36696822  MISS:    2394952  HIT %:    93.8735  MISS %:    6.12649   MPKI: 11.9748
L1D LOAD      ACCESS:   20238519  HIT:   19311595  MISS:     926924  HIT %:      95.42  MISS %:       4.58   MPKI: 4.63462
L1D RFO       ACCESS:   12903100  HIT:   12835326  MISS:      67774  HIT %:    99.4747  MISS %:   0.525254   MPKI: 0.33887
L1D PREFETCH  ACCESS:    5950155  HIT:    4549901  MISS:    1400254  HIT %:    76.4669  MISS %:    23.5331   MPKI: 7.00127
L1D PREFETCH  REQUESTED:   14049861  ISSUED:   14049850  USEFUL:     682334  USELESS:     958805
L1D USEFUL LOAD PREFETCHES:     682334 PREFETCH ISSUED TO LOWER LEVEL:    1654906  ACCURACY: 41.231
L1D TIMELY PREFETCHES:     682334 LATE PREFETCHES: 11395 DROPPED PREFETCHES: 0
L1D PREFETCHES SAME FILL-ORIGIN LEVEL: 1654906 DIFFERENT FILL-ORIGIN LEVEL: 0
L1D AVERAGE MISS LATENCY: 90.0768 cycles
L1D RQ	ACCESS:   35396978	FORWARD:          0	MERGED:   10790519	TO_CACHE:   23856357
L1D WQ	ACCESS:   17674929	FORWARD:     754420	MERGED:    2173088	TO_CACHE:   15501841
L1D PQ	ACCESS:    7027084	FORWARD:          0	MERGED:          0	TO_CACHE:    7022766

L1D UNIQUE REGIONS ACCESSED: 0
L1D REGIONS CONFLICTS: 0
L1D Cross Page Prefetch Requests: 0
L1D Same Page Prefetch Requests: 8728055
L1D ROI Sum of L1D PQ occupancy: 231295904
L1D PREFETCHES PUSHED FROM L2C: 0
L1I TOTAL     ACCESS:   48817936  HIT:   48802690  MISS:      15246  HIT %:    99.9688  MISS %:  0.0312303   MPKI: 0.07623
L1I LOAD      ACCESS:   48817936  HIT:   48802690  MISS:      15246  HIT %:    99.9688  MISS %:  0.0312303   MPKI: 0.07623
L1I PREFETCH  REQUESTED:          0  ISSUED:          0  USEFUL:          0  USELESS:          0
L1I USEFUL LOAD PREFETCHES:          0 PREFETCH ISSUED TO LOWER LEVEL:          0  ACCURACY: -nan
L1I TIMELY PREFETCHES:          0 LATE PREFETCHES: 0 DROPPED PREFETCHES: 0
L1I PREFETCHES SAME FILL-ORIGIN LEVEL: 0 DIFFERENT FILL-ORIGIN LEVEL: 0
L1I AVERAGE MISS LATENCY: 100.619 cycles
L1I RQ	ACCESS:  111749818	FORWARD:          0	MERGED:   54297364	TO_CACHE:   57452454

BTB BRANCH_DIRECT_JUMP	ACCESS:          0  HIT:          0  MISS:          0
BTB BRANCH_INDIRECT	ACCESS:          0  HIT:          0  MISS:          0
BTB BRANCH_CONDITIONAL	ACCESS:          0  HIT:          0  MISS:          0
BTB BRANCH_DIRECT_CALL	ACCESS:          0  HIT:          0  MISS:          0
BTB BRANCH_INDIRECT_CALL	ACCESS:          0  HIT:          0  MISS:          0
BTB BRANCH_RETURN	ACCESS:          0  HIT:          0  MISS:          0
BTB BRANCH_OTHER ACCESS:          0  HIT:          0  MISS:          0

L2C TOTAL     ACCESS:   22661301  HIT:   21244831  MISS:    1416470  HIT %:    93.7494  MISS %:    6.25061   MPKI: 7.08235
L2C LOAD      ACCESS:     932599  HIT:     416282  MISS:     516317  HIT %:    44.6368  MISS %:    55.3632   MPKI: 2.58158
L2C DATA LOAD MPKI: 2.55503
L2C INSTRUCTION LOAD MPKI: 0.02655
L2C RFO       ACCESS:      65790  HIT:      17489  MISS:      48301  HIT %:    26.5831  MISS %:    73.4169   MPKI: 0.241505
L2C PREFETCH  ACCESS:    1411768  HIT:     611557  MISS:     800211  HIT %:    43.3185  MISS %:    56.6815   MPKI: 4.00105
L2C DATA PREFETCH MPKI: 4.00105
L2C INSTRUCTION PREFETCH MPKI: 0
L2C WRITEBACK ACCESS:     952376  HIT:     915797  MISS:      36579  HIT %:    96.1592  MISS %:    3.84081   MPKI: 0.182895
L2C LOAD TRANSLATION ACCESS:   17094826  HIT:   17079852  MISS:      14974  HIT %:    99.9124  MISS %:  0.0875938   MPKI: 0.07487
L2C TRANSLATION FROM L1D PREFETCHER ACCESS:    2203942  HIT:    2203854  MISS:         88  HIT %:     99.996  MISS %: 0.00399285   MPKI: 0.00044
L2C PREFETCH  REQUESTED:          0  ISSUED:          0  USEFUL:     134651  USELESS:     802074
L2C USEFUL LOAD PREFETCHES:     134651 PREFETCH ISSUED TO LOWER LEVEL:     937469  ACCURACY: 14.3632
L2C TIMELY PREFETCHES:     134651 LATE PREFETCHES: 0 DROPPED PREFETCHES: 0
L2C PREFETCHES SAME FILL-ORIGIN LEVEL: 0 DIFFERENT FILL-ORIGIN LEVEL: 0
L2C AVERAGE MISS LATENCY: 129.901 cycles
L2C RQ	ACCESS:   23850281	FORWARD:          0	MERGED:          0	TO_CACHE:   23850272
L2C WQ	ACCESS:    1115546	FORWARD:         43	MERGED:          0	TO_CACHE:    1115546
L2C PQ	ACCESS:    1654906	FORWARD:          0	MERGED:          0	TO_CACHE:    1654872

L2C Instructions Evicting Data 5889
L2C Translations Evicting Data 17362
L2C Data Evicting Data 1568080
L2C Instructions Evicting Instructions 69
L2C Translations Evicting Instructions 66
L2C Data Evicting Instructions 5846
L2C Instructions Evicting Translations 45
L2C Translations Evicting Translations 116
L2C Data Evicting Translations 17062
L2C Dense regions hint from L2: 0
PSCL5 TOTAL     ACCESS:   19217434  HIT:   19217434  MISS:          0  HIT %:        100  MISS %:          0   MPKI: 0
PSCL5 LOAD TRANSLATION ACCESS:   17015882  HIT:   17015882  MISS:          0  HIT %:        100  MISS %:          0   MPKI: 0
PSCL5 TRANSLATION FROM L1D PREFETCHER ACCESS:    2201552  HIT:    2201552  MISS:          0  HIT %:        100  MISS %:          0   MPKI: 0
PSCL5 PREFETCH  REQUESTED:          0  ISSUED:          0  USEFUL:          0  USELESS:          0
PSCL5 USEFUL LOAD PREFETCHES:          0 PREFETCH ISSUED TO LOWER LEVEL:          0  ACCURACY: -nan
PSCL5 TIMELY PREFETCHES:          0 LATE PREFETCHES: 0 DROPPED PREFETCHES: 0
PSCL5 PREFETCHES SAME FILL-ORIGIN LEVEL: 0 DIFFERENT FILL-ORIGIN LEVEL: 0

PSCL4 TOTAL     ACCESS:   19217434  HIT:   19217434  MISS:          0  HIT %:        100  MISS %:          0   MPKI: 0
PSCL4 LOAD TRANSLATION ACCESS:   17015882  HIT:   17015882  MISS:          0  HIT %:        100  MISS %:          0   MPKI: 0
PSCL4 TRANSLATION FROM L1D PREFETCHER ACCESS:    2201552  HIT:    2201552  MISS:          0  HIT %:        100  MISS %:          0   MPKI: 0
PSCL4 PREFETCH  REQUESTED:          0  ISSUED:          0  USEFUL:          0  USELESS:          0
PSCL4 USEFUL LOAD PREFETCHES:          0 PREFETCH ISSUED TO LOWER LEVEL:          0  ACCURACY: -nan
PSCL4 TIMELY PREFETCHES:          0 LATE PREFETCHES: 0 DROPPED PREFETCHES: 0
PSCL4 PREFETCHES SAME FILL-ORIGIN LEVEL: 0 DIFFERENT FILL-ORIGIN LEVEL: 0

PSCL3 TOTAL     ACCESS:   19217264  HIT:   19217214  MISS:         50  HIT %:    99.9997  MISS %: 0.000260183   MPKI: 0.00025
PSCL3 LOAD TRANSLATION ACCESS:   17015767  HIT:   17015717  MISS:         50  HIT %:    99.9997  MISS %: 0.000293845   MPKI: 0.00025
PSCL3 TRANSLATION FROM L1D PREFETCHER ACCESS:    2201497  HIT:    2201497  MISS:          0  HIT %:        100  MISS %:          0   MPKI: 0
PSCL3 PREFETCH  REQUESTED:          0  ISSUED:          0  USEFUL:          0  USELESS:          0
PSCL3 USEFUL LOAD PREFETCHES:          0 PREFETCH ISSUED TO LOWER LEVEL:          0  ACCURACY: -nan
PSCL3 TIMELY PREFETCHES:          0 LATE PREFETCHES: 0 DROPPED PREFETCHES: 0
PSCL3 PREFETCHES SAME FILL-ORIGIN LEVEL: 0 DIFFERENT FILL-ORIGIN LEVEL: 0

PSCL2 TOTAL     ACCESS:   19217434  HIT:   19136138  MISS:      81296  HIT %:     99.577  MISS %:   0.423033   MPKI: 0.40648
PSCL2 LOAD TRANSLATION ACCESS:   17018266  HIT:   16936970  MISS:      81296  HIT %:    99.5223  MISS %:   0.477698   MPKI: 0.40648
PSCL2 TRANSLATION FROM L1D PREFETCHER ACCESS:    2199168  HIT:    2199168  MISS:          0  HIT %:        100  MISS %:          0   MPKI: 0
PSCL2 PREFETCH  REQUESTED:          0  ISSUED:          0  USEFUL:          0  USELESS:          0
PSCL2 USEFUL LOAD PREFETCHES:          0 PREFETCH ISSUED TO LOWER LEVEL:          0  ACCURACY: -nan
PSCL2 TIMELY PREFETCHES:          0 LATE PREFETCHES: 0 DROPPED PREFETCHES: 0
PSCL2 PREFETCHES SAME FILL-ORIGIN LEVEL: 0 DIFFERENT FILL-ORIGIN LEVEL: 0

LLC TOTAL     ACCESS:    2041035  HIT:    1436159  MISS:     604876  HIT %:    70.3643  MISS %:    29.6357   MPKI: 3.02438
LLC LOAD      ACCESS:     516317  HIT:     314731  MISS:     201586  HIT %:    60.9569  MISS %:    39.0431   MPKI: 1.00793
LLC RFO       ACCESS:      48301  HIT:      19922  MISS:      28379  HIT %:    41.2455  MISS %:    58.7545   MPKI: 0.141895
LLC PREFETCH  ACCESS:     800210  HIT:     444378  MISS:     355832  HIT %:    55.5327  MISS %:    44.4673   MPKI: 1.77916
LLC WRITEBACK ACCESS:     661145  HIT:     645383  MISS:      15762  HIT %:     97.616  MISS %:    2.38405   MPKI: 0.07881
LLC LOAD TRANSLATION ACCESS:      14974  HIT:      11681  MISS:       3293  HIT %:    78.0085  MISS %:    21.9915   MPKI: 0.016465
LLC TRANSLATION FROM L1D PREFETCHER ACCESS:         88  HIT:         64  MISS:         24  HIT %:    72.7273  MISS %:    27.2727   MPKI: 0.00012
LLC PREFETCH  REQUESTED:          0  ISSUED:          0  USEFUL:     240437  USELESS:    1635568
LLC USEFUL LOAD PREFETCHES:     240437 PREFETCH ISSUED TO LOWER LEVEL:    1877199  ACCURACY: 12.8083
LLC TIMELY PREFETCHES:     240437 LATE PREFETCHES: 0 DROPPED PREFETCHES: 0
LLC PREFETCHES SAME FILL-ORIGIN LEVEL: 0 DIFFERENT FILL-ORIGIN LEVEL: 0
LLC AVERAGE MISS LATENCY: 1104.27 cycles
LLC RQ	ACCESS:    3117440	FORWARD:          0	MERGED:          0	TO_CACHE:    3117436
LLC WQ	ACCESS:    2823784	FORWARD:         12	MERGED:          0	TO_CACHE:    2823784
LLC PQ	ACCESS:    3473142	FORWARD:          0	MERGED:          0	TO_CACHE:    3473134

LLC Dense regions hint to LLC: 0

RAW hits: 7230492
Loads Generated: 37347484
Loads sent to L1D: 30116990
Stores Generated: 15031254
Stores sent to L1D: 15031254
Major fault: 0 Minor fault: 1694
Allocated PAGES: 17338

CPU 2 cumulative IPC: 0.603432 instructions: 200000002 cycles: 331437723
ITLB TOTAL     ACCESS:   39624070  HIT:   30218057  MISS:    9406013  HIT %:    76.2619  MISS %:    23.7381   MPKI: 47.0301
ITLB LOAD TRANSLATION ACCESS:   39624070  HIT:   30218057  MISS:    9406013  HIT %:    76.2619  MISS %:    23.7381   MPKI: 47.0301
ITLB PREFETCH  REQUESTED:          0  ISSUED:          0  USEFUL:          0  USELESS:          0
ITLB USEFUL LOAD PREFETCHES:          0 PREFETCH ISSUED TO LOWER LEVEL:          0  ACCURACY: -nan
ITLB TIMELY PREFETCHES:          0 LATE PREFETCHES: 0 DROPPED PREFETCHES: 0
ITLB PREFETCHES SAME FILL-ORIGIN LEVEL: 0 DIFFERENT FILL-ORIGIN LEVEL: 0
ITLB AVERAGE MISS LATENCY: 41.5952 cycles
ITLB RQ	ACCESS:   56900629	FORWARD:          0	MERGED:    5491888	TO_CACHE:   51408741

DTLB TOTAL     ACCESS:   27588421  HIT:   16472597  MISS:   11115824  HIT %:    59.7084  MISS %:    40.2916   MPKI: 55.5791
DTLB LOAD TRANSLATION ACCESS:   27588421  HIT:   16472597  MISS:   11115824  HIT %:    59.7084  MISS %:    40.2916   MPKI: 55.5791
DTLB PREFETCH  REQUESTED:          0  ISSUED:          0  USEFUL:          0  USELESS:          0
DTLB USEFUL LOAD PREFETCHES:          0 PREFETCH ISSUED TO LOWER LEVEL:          0  ACCURACY: -nan
DTLB TIMELY PREFETCHES:          0 LATE PREFETCHES: 0 DROPPED PREFETCHES: 0
DTLB PREFETCHES SAME FILL-ORIGIN LEVEL: 0 DIFFERENT FILL-ORIGIN LEVEL: 0
DTLB AVERAGE MISS LATENCY: 40.0324 cycles
DTLB RQ	ACCESS:   39070746	FORWARD:          0	MERGED:    4816516	TO_CACHE:   34254230

STLB TOTAL     ACCESS:   24615849  HIT:    6576412  MISS:   18039437  HIT %:    26.7162  MISS %:    73.2838   MPKI: 90.1972
STLB LOAD TRANSLATION ACCESS:   20521837  HIT:    4289946  MISS:   16231891  HIT %:    20.9043  MISS %:    79.0957   MPKI: 81.1595
STLB TRANSLATION FROM L1D PREFETCHER ACCESS:    4094012  HIT:    2286466  MISS:    1807546  HIT %:     55.849  MISS %:     44.151   MPKI: 9.03773
STLB PREFETCH  REQUESTED:          0  ISSUED:          0  USEFUL:     702410  USELESS:    1427529
STLB USEFUL LOAD PREFETCHES:     702410 PREFETCH ISSUED TO LOWER LEVEL:          0  ACCURACY: inf
STLB TIMELY PREFETCHES:     702410 LATE PREFETCHES: 0 DROPPED PREFETCHES: 0
STLB PREFETCHES SAME FILL-ORIGIN LEVEL: 0 DIFFERENT FILL-ORIGIN LEVEL: 0
STLB AVERAGE MISS LATENCY: 38.4052 cycles
STLB RQ	ACCESS:   30637491	FORWARD:          0	MERGED:    1322379	TO_CACHE:   29315112

STLB Hit, L1D data hit: 0
STLB Hit, L2C data hit: 0
STLB Hit, LLC data hit: 0
STLB Hit, LLC data miss: 0
STLB STLB hints to L2: 0
L1D TOTAL     ACCESS:   37697841  HIT:   35460463  MISS:    2237378  HIT %:     94.065  MISS %:    5.93503   MPKI: 11.1869
L1D LOAD      ACCESS:   19744897  HIT:   18838563  MISS:     906334  HIT %:    95.4098  MISS %:    4.59022   MPKI: 4.53167
L1D RFO       ACCESS:   12731508  HIT:   12653656  MISS:      77852  HIT %:    99.3885  MISS %:   0.611491   MPKI: 0.38926
L1D PREFETCH  ACCESS:    5221436  HIT:    3968244  MISS:    1253192  HIT %:    75.9991  MISS %:    24.0009   MPKI: 6.26596
L1D PREFETCH  REQUESTED:   12420065  ISSUED:   12420059  USEFUL:     532377  USELESS:     939795
L1D USEFUL LOAD PREFETCHES:     532377 PREFETCH ISSUED TO LOWER LEVEL:    1486473  ACCURACY: 35.8148
L1D TIMELY PREFETCHES:     532377 LATE PREFETCHES: 11630 DROPPED PREFETCHES: 0
L1D PREFETCHES SAME FILL-ORIGIN LEVEL: 1486473 DIFFERENT FILL-ORIGIN LEVEL: 0
L1D AVERAGE MISS LATENCY: 91.0685 cycles
L1D RQ	ACCESS:   35515793	FORWARD:          0	MERGED:   11325442	TO_CACHE:   23607217
L1D WQ	ACCESS:   17294936	FORWARD:     585323	MERGED:    1831407	TO_CACHE:   15463529
L1D PQ	ACCESS:    6211124	FORWARD:          0	MERGED:          0	TO_CACHE:    6208935

L1D UNIQUE REGIONS ACCESSED: 0
L1D REGIONS CONFLICTS: 0
L1D Cross Page Prefetch Requests: 0
L1D Same Page Prefetch Requests: 7989539
L1D ROI Sum of L1D PQ occupancy: 185165861
L1D PREFETCHES PUSHED FROM L2C: 0
L1I TOTAL     ACCESS:   47673433  HIT:   47608211  MISS:      65222  HIT %:    99.8632  MISS %:    0.13681   MPKI: 0.32611
L1I LOAD      ACCESS:   47673433  HIT:   47608211  MISS:      65222  HIT %:    99.8632  MISS %:    0.13681   MPKI: 0.32611
L1I PREFETCH  REQUESTED:          0  ISSUED:          0  USEFUL:          0  USELESS:          0
L1I USEFUL LOAD PREFETCHES:          0 PREFETCH ISSUED TO LOWER LEVEL:          0  ACCURACY: -nan
L1I TIMELY PREFETCHES:          0 LATE PREFETCHES: 0 DROPPED PREFETCHES: 0
[...]
LLC RQ	ACCESS:    3117440	FORWARD:          0	MERGED:          0	TO_CACHE:    3117436
LLC WQ	ACCESS:    2823784	FORWARD:         12	MERGED:          0	TO_CACHE:    2823784
LLC PQ	ACCESS:    3473142	FORWARD:          0	MERGED:          0	TO_CACHE:    3473134

LLC Dense regions hint to LLC: 0

RAW hits: 6211639
Loads Generated: 35988490
Loads sent to L1D: 29776841
Stores Generated: 14532984
Stores sent to L1D: 14532985
Major fault: 0 Minor fault: 2379
Allocated PAGES: 17338

CPU 3 cumulative IPC: 0.694471 instructions: 200000003 cycles: 287988878
ITLB TOTAL     ACCESS:   37829931  HIT:   29012267  MISS:    8817664  HIT %:    76.6913  MISS %:    23.3087   MPKI: 44.0883
ITLB LOAD TRANSLATION ACCESS:   37829931  HIT:   29012267  MISS:    8817664  HIT %:    76.6913  MISS %:    23.3087   MPKI: 44.0883
ITLB PREFETCH  REQUESTED:          0  ISSUED:          0  USEFUL:          0  USELESS:          0
ITLB USEFUL LOAD PREFETCHES:          0 PREFETCH ISSUED TO LOWER LEVEL:          0  ACCURACY: -nan
ITLB TIMELY PREFETCHES:          0 LATE PREFETCHES: 0 DROPPED PREFETCHES: 0
ITLB PREFETCHES SAME FILL-ORIGIN LEVEL: 0 DIFFERENT FILL-ORIGIN LEVEL: 0
ITLB AVERAGE MISS LATENCY: 46.1263 cycles
ITLB RQ	ACCESS:   62680822	FORWARD:          0	MERGED:    7670594	TO_CACHE:   55010228

DTLB TOTAL     ACCESS:   23904047  HIT:   13622660  MISS:   10281387  HIT %:    56.9889  MISS %:    43.0111   MPKI: 51.4069
DTLB LOAD TRANSLATION ACCESS:   23904047  HIT:   13622660  MISS:   10281387  HIT %:    56.9889  MISS %:    43.0111   MPKI: 51.4069
DTLB PREFETCH  REQUESTED:          0  ISSUED:          0  USEFUL:          0  USELESS:          0
DTLB USEFUL LOAD PREFETCHES:          0 PREFETCH ISSUED TO LOWER LEVEL:          0  ACCURACY: -nan
DTLB TIMELY PREFETCHES:          0 LATE PREFETCHES: 0 DROPPED PREFETCHES: 0
DTLB PREFETCHES SAME FILL-ORIGIN LEVEL: 0 DIFFERENT FILL-ORIGIN LEVEL: 0
DTLB AVERAGE MISS LATENCY: 43.8929 cycles
DTLB RQ	ACCESS:   39689421	FORWARD:          0	MERGED:    5184959	TO_CACHE:   34504462

STLB TOTAL     ACCESS:   22340196  HIT:    6511045  MISS:   15829151  HIT %:     29.145  MISS %:     70.855   MPKI: 79.1458
STLB LOAD TRANSLATION ACCESS:   19099051  HIT:    4384505  MISS:   14714546  HIT %:    22.9567  MISS %:    77.0433   MPKI: 73.5727
STLB TRANSLATION FROM L1D PREFETCHER ACCESS:    3241145  HIT:    2126540  MISS:    1114605  HIT %:    65.6108  MISS %:    34.3892   MPKI: 5.57302
STLB PREFETCH  REQUESTED:          0  ISSUED:          0  USEFUL:     632799  USELESS:     878257
STLB USEFUL LOAD PREFETCHES:     632799 PREFETCH ISSUED TO LOWER LEVEL:          0  ACCURACY: inf
STLB TIMELY PREFETCHES:     632799 LATE PREFETCHES: 0 DROPPED PREFETCHES: 0
STLB PREFETCHES SAME FILL-ORIGIN LEVEL: 0 DIFFERENT FILL-ORIGIN LEVEL: 0
STLB AVERAGE MISS LATENCY: 42.3938 cycles
STLB RQ	ACCESS:   31849747	FORWARD:          0	MERGED:    1172987	TO_CACHE:   30676760

STLB Hit, L1D data hit: 0
STLB Hit, L2C data hit: 0
STLB Hit, LLC data hit: 0
STLB Hit, LLC data miss: 0
STLB STLB hints to L2: 0
L1D TOTAL     ACCESS:   33283740  HIT:   32357349  MISS:     926391  HIT %:    97.2167  MISS %:    2.78331   MPKI: 4.63195
L1D LOAD      ACCESS:   17954391  HIT:   17571153  MISS:     383238  HIT %:    97.8655  MISS %:    2.13451   MPKI: 1.91619
L1D RFO       ACCESS:   11109537  HIT:   11108965  MISS:        572  HIT %:    99.9949  MISS %: 0.00514873   MPKI: 0.00286
L1D PREFETCH  ACCESS:    4219812  HIT:    3677231  MISS:     542581  HIT %:    87.1421  MISS %:    12.8579   MPKI: 2.7129
L1D PREFETCH  REQUESTED:   11496993  ISSUED:   11496993  USEFUL:     191356  USELESS:     533434
L1D USEFUL LOAD PREFETCHES:     191356 PREFETCH ISSUED TO LOWER LEVEL:     728941  ACCURACY: 26.2512
L1D TIMELY PREFETCHES:     191356 LATE PREFETCHES: 4156 DROPPED PREFETCHES: 0
L1D PREFETCHES SAME FILL-ORIGIN LEVEL: 728941 DIFFERENT FILL-ORIGIN LEVEL: 0
L1D AVERAGE MISS LATENCY: 185.452 cycles
L1D RQ	ACCESS:   37069022	FORWARD:          0	MERGED:   12052377	TO_CACHE:   24523667
L1D WQ	ACCESS:   16527832	FORWARD:     499145	MERGED:    1362078	TO_CACHE:   15165754
L1D PQ	ACCESS:    5751580	FORWARD:          0	MERGED:          0	TO_CACHE:    5745413

L1D UNIQUE REGIONS ACCESSED: 0
L1D REGIONS CONFLICTS: 0
L1D Cross Page Prefetch Requests: 0
L1D Same Page Prefetch Requests: 7280616
L1D ROI Sum of L1D PQ occupancy: 134285553
L1D PREFETCHES PUSHED FROM L2C: 0
L1I TOTAL     ACCESS:   45908956  HIT:   45906032  MISS:       2924  HIT %:    99.9936  MISS %: 0.00636913   MPKI: 0.01462
L1I LOAD      ACCESS:   45908956  HIT:   45906032  MISS:       2924  HIT %:    99.9936  MISS %: 0.00636913   MPKI: 0.01462
L1I PREFETCH  REQUESTED:          0  ISSUED:          0  USEFUL:          0  USELESS:          0
L1I USEFUL LOAD PREFETCHES:          0 PREFETCH ISSUED TO LOWER LEVEL:          0  ACCURACY: -nan
L1I TIMELY PREFETCHES:          0 LATE PREFETCHES: 0 DROPPED PREFETCHES: 0
L1I PREFETCHES SAME FILL-ORIGIN LEVEL: 0 DIFFERENT FILL-ORIGIN LEVEL: 0
L1I AVERAGE MISS LATENCY: 338.365 cycles
L1I RQ	ACCESS:  123507980	FORWARD:          0	MERGED:   60827158	TO_CACHE:   62680822

BTB BRANCH_DIRECT_JUMP	ACCESS:          0  HIT:          0  MISS:          0
BTB BRANCH_INDIRECT	ACCESS:          0  HIT:          0  MISS:          0
BTB BRANCH_CONDITIONAL	ACCESS:          0  HIT:          0  MISS:          0
BTB BRANCH_DIRECT_CALL	ACCESS:          0  HIT:          0  MISS:          0
BTB BRANCH_INDIRECT_CALL	ACCESS:          0  HIT:          0  MISS:          0
BTB BRANCH_RETURN	ACCESS:          0  HIT:          0  MISS:          0
BTB BRANCH_OTHER ACCESS:          0  HIT:          0  MISS:          0

L2C TOTAL     ACCESS:   17006036  HIT:   16258908  MISS:     747128  HIT %:    95.6067  MISS %:    4.39331   MPKI: 3.73564
L2C LOAD      ACCESS:     383143  HIT:      81111  MISS:     302032  HIT %:    21.1699  MISS %:    78.8301   MPKI: 1.51016
L2C DATA LOAD MPKI: 1.49581
L2C INSTRUCTION LOAD MPKI: 0.01435
L2C RFO       ACCESS:        571  HIT:         77  MISS:        494  HIT %:    13.4851  MISS %:    86.5149   MPKI: 0.00247
L2C PREFETCH  ACCESS:     545601  HIT:     144145  MISS:     401456  HIT %:    26.4195  MISS %:    73.5805   MPKI: 2.00728
L2C DATA PREFETCH MPKI: 2.00728
L2C INSTRUCTION PREFETCH MPKI: 0
L2C WRITEBACK ACCESS:     196867  HIT:     180821  MISS:      16046  HIT %:    91.8493  MISS %:    8.15068   MPKI: 0.08023
L2C LOAD TRANSLATION ACCESS:   14763021  HIT:   14735931  MISS:      27090  HIT %:    99.8165  MISS %:   0.183499   MPKI: 0.13545
L2C TRANSLATION FROM L1D PREFETCHER ACCESS:    1116833  HIT:    1116823  MISS:         10  HIT %:    99.9991  MISS %: 0.000895389   MPKI: 5e-05
L2C PREFETCH  REQUESTED:          0  ISSUED:          0  USEFUL:      35994  USELESS:     499507
L2C USEFUL LOAD PREFETCHES:      35994 PREFETCH ISSUED TO LOWER LEVEL:     535367  ACCURACY: 6.72324
L2C TIMELY PREFETCHES:      35994 LATE PREFETCHES: 0 DROPPED PREFETCHES: 0
L2C PREFETCHES SAME FILL-ORIGIN LEVEL: 0 DIFFERENT FILL-ORIGIN LEVEL: 0
L2C AVERAGE MISS LATENCY: 213.862 cycles
L2C RQ	ACCESS:   22208329	FORWARD:          0	MERGED:          0	TO_CACHE:   22208329
L2C WQ	ACCESS:     268638	FORWARD:          1	MERGED:          0	TO_CACHE:     268638
L2C PQ	ACCESS:     728941	FORWARD:          0	MERGED:          0	TO_CACHE:     728940

L2C Instructions Evicting Data 3462
L2C Translations Evicting Data 34672
L2C Data Evicting Data 907579
L2C Instructions Evicting Instructions 58
L2C Translations Evicting Instructions 130
L2C Data Evicting Instructions 3421
L2C Instructions Evicting Translations 116
L2C Translations Evicting Translations 1927
L2C Data Evicting Translations 33919
L2C Dense regions hint from L2: 0
PSCL5 TOTAL     ACCESS:   15829151  HIT:   15829151  MISS:          0  HIT %:        100  MISS %:          0   MPKI: 0
PSCL5 LOAD TRANSLATION ACCESS:   14714546  HIT:   14714546  MISS:          0  HIT %:        100  MISS %:          0   MPKI: 0
PSCL5 TRANSLATION FROM L1D PREFETCHER ACCESS:    1114605  HIT:    1114605  MISS:          0  HIT %:        100  MISS %:          0   MPKI: 0
PSCL5 PREFETCH  REQUESTED:          0  ISSUED:          0  USEFUL:          0  USELESS:          0
PSCL5 USEFUL LOAD PREFETCHES:          0 PREFETCH ISSUED TO LOWER LEVEL:          0  ACCURACY: -nan
PSCL5 TIMELY PREFETCHES:          0 LATE PREFETCHES: 0 DROPPED PREFETCHES: 0
PSCL5 PREFETCHES SAME FILL-ORIGIN LEVEL: 0 DIFFERENT FILL-ORIGIN LEVEL: 0

PSCL4 TOTAL     ACCESS:   15829151  HIT:   15829151  MISS:          0  HIT %:        100  MISS %:          0   MPKI: 0
PSCL4 LOAD TRANSLATION ACCESS:   14714546  HIT:   14714546  MISS:          0  HIT %:        100  MISS %:          0   MPKI: 0
PSCL4 TRANSLATION FROM L1D PREFETCHER ACCESS:    1114605  HIT:    1114605  MISS:          0  HIT %:        100  MISS %:          0   MPKI: 0
PSCL4 PREFETCH  REQUESTED:          0  ISSUED:          0  USEFUL:          0  USELESS:          0
PSCL4 USEFUL LOAD PREFETCHES:          0 PREFETCH ISSUED TO LOWER LEVEL:          0  ACCURACY: -nan
PSCL4 TIMELY PREFETCHES:          0 LATE PREFETCHES: 0 DROPPED PREFETCHES: 0
PSCL4 PREFETCHES SAME FILL-ORIGIN LEVEL: 0 DIFFERENT FILL-ORIGIN LEVEL: 0

PSCL3 TOTAL     ACCESS:   15828641  HIT:   15828551  MISS:         90  HIT %:    99.9994  MISS %: 0.00056859   MPKI: 0.00045
PSCL3 LOAD TRANSLATION ACCESS:   14714187  HIT:   14714097  MISS:         90  HIT %:    99.9994  MISS %: 0.000611655   MPKI: 0.00045
PSCL3 TRANSLATION FROM L1D PREFETCHER ACCESS:    1114454  HIT:    1114454  MISS:          0  HIT %:        100  MISS %:          0   MPKI: 0
PSCL3 PREFETCH  REQUESTED:          0  ISSUED:          0  USEFUL:          0  USELESS:          0
PSCL3 USEFUL LOAD PREFETCHES:          0 PREFETCH ISSUED TO LOWER LEVEL:          0  ACCURACY: -nan
PSCL3 TIMELY PREFETCHES:          0 LATE PREFETCHES: 0 DROPPED PREFETCHES: 0
PSCL3 PREFETCHES SAME FILL-ORIGIN LEVEL: 0 DIFFERENT FILL-ORIGIN LEVEL: 0

PSCL2 TOTAL     ACCESS:   15829151  HIT:   15778537  MISS:      50614  HIT %:    99.6802  MISS %:   0.319752   MPKI: 0.25307
PSCL2 LOAD TRANSLATION ACCESS:   14716769  HIT:   14666155  MISS:      50614  HIT %:    99.6561  MISS %:   0.343921   MPKI: 0.25307
PSCL2 TRANSLATION FROM L1D PREFETCHER ACCESS:    1112382  HIT:    1112382  MISS:          0  HIT %:        100  MISS %:          0   MPKI: 0
PSCL2 PREFETCH  REQUESTED:          0  ISSUED:          0  USEFUL:          0  USELESS:          0
PSCL2 USEFUL LOAD PREFETCHES:          0 PREFETCH ISSUED TO LOWER LEVEL:          0  ACCURACY: -nan
PSCL2 TIMELY PREFETCHES:          0 LATE PREFETCHES: 0 DROPPED PREFETCHES: 0
PSCL2 PREFETCHES SAME FILL-ORIGIN LEVEL: 0 DIFFERENT FILL-ORIGIN LEVEL: 0

LLC TOTAL     ACCESS:     920532  HIT:     408320  MISS:     512212  HIT %:     44.357  MISS %:     55.643   MPKI: 2.56106
LLC LOAD      ACCESS:     302032  HIT:      97650  MISS:     204382  HIT %:     32.331  MISS %:     67.669   MPKI: 1.02191
LLC RFO       ACCESS:        494  HIT:         66  MISS:        428  HIT %:    13.3603  MISS %:    86.6397   MPKI: 0.00214
LLC PREFETCH  ACCESS:     401456  HIT:     118592  MISS:     282864  HIT %:    29.5405  MISS %:    70.4595   MPKI: 1.41432
LLC WRITEBACK ACCESS:     189450  HIT:     169443  MISS:      20007  HIT %:    89.4394  MISS %:    10.5606   MPKI: 0.100035
LLC LOAD TRANSLATION ACCESS:      27090  HIT:      22568  MISS:       4522  HIT %:    83.3075  MISS %:    16.6925   MPKI: 0.02261
LLC TRANSLATION FROM L1D PREFETCHER ACCESS:         10  HIT:          1  MISS:          9  HIT %:         10  MISS %:         90   MPKI: 4.5e-05
LLC PREFETCH  REQUESTED:          0  ISSUED:          0  USEFUL:     240437  USELESS:    1635568
LLC USEFUL LOAD PREFETCHES:     240437 PREFETCH ISSUED TO LOWER LEVEL:    1877199  ACCURACY: 12.8083
LLC TIMELY PREFETCHES:     240437 LATE PREFETCHES: 0 DROPPED PREFETCHES: 0
LLC PREFETCHES SAME FILL-ORIGIN LEVEL: 0 DIFFERENT FILL-ORIGIN LEVEL: 0
LLC AVERAGE MISS LATENCY: 1304.05 cycles
LLC RQ	ACCESS:    3117440	FORWARD:          0	MERGED:          0	TO_CACHE:    3117436
LLC WQ	ACCESS:    2823784	FORWARD:         12	MERGED:          0	TO_CACHE:    2823784
LLC PQ	ACCESS:    3473142	FORWARD:          0	MERGED:          0	TO_CACHE:    3473134

LLC Dense regions hint to LLC: 0

RAW hits: 6979865
Loads Generated: 34141425
Loads sent to L1D: 27161556
Stores Generated: 12107252
Stores sent to L1D: 12107252
Major fault: 0 Minor fault: 3178
Allocated PAGES: 17338

stream: 
stream:times selected: 8358713
stream:pref_filled: 2052252
stream:pref_useful: 272716
stream:pref_late: 16140
stream:misses: 548025
stream:misses_by_poll: 0

CS: 
CS:times selected: 484657
CS:pref_filled: 251387
CS:pref_useful: 211094
CS:pref_late: 9088
CS:misses: 52834
CS:misses_by_poll: 990

CPLX: 
CPLX:times selected: 7795501
CPLX:pref_filled: 370438
CPLX:pref_useful: 49530
CPLX:pref_late: 626
CPLX:misses: 1559103
CPLX:misses_by_poll: 452

NL_L1: 
NL:times selected: 60302
NL:pref_filled: 21789
NL:pref_useful: 2457
NL:pref_late: 120
NL:misses: 18871
NL:misses_by_poll: 1

total selections: 16699173
total_filled: 1970583
total_useful: 386654
total_late: 26753
total_polluted: 1443
total_misses_after_warmup: 2120559
conflicts: 1965320
Degree Incremented Times: 425614
Degree Decremented Times: 1432502

L1 IP Table Write Accesses: 86275765
L1 IP Table Read Accesses: 84310445
L1 RST Write Accesses: 30788770
L1 RST Read Accesses: 61577540
L1 CSPT Write Accesses: 30788770
L1 CSPT Read Accesses: 60026616
L1 RR Filter Tag Write Accesses: 24675235
L1 RR Filter Tag Read Accesses: 1058461598
L1 IP Table Tag Write Accesses: 94428195
L1 IP Table Tag Read Accesses: 94428195
L1 RST Tag Write Accesses: 0
L1 RST Tag Read Accesses: 300896589
L1 RR Filter Write Accesses: 0
L1 RR Filter Read Accesses: 38044635
test: 20117062

stream: 
stream:times selected: 11011114
stream:pref_filled: 1278499
stream:pref_useful: 396175
stream:pref_late: 10446
stream:misses: 364870
stream:misses_by_poll: 0

CS: 
CS:times selected: 584371
CS:pref_filled: 311006
CS:pref_useful: 300012
CS:pref_late: 147
CS:misses: 5203
CS:misses_by_poll: 753

CPLX: 
CPLX:times selected: 10357646
CPLX:pref_filled: 393796
CPLX:pref_useful: 124784
CPLX:pref_late: 659
CPLX:misses: 976344
CPLX:misses_by_poll: 960

NL_L1: 
NL:times selected: 61297
NL:pref_filled: 14574
NL:pref_useful: 3886
NL:pref_late: 31
NL:misses: 11704
NL:misses_by_poll: 0

total selections: 22014428
total_filled: 1641169
total_useful: 682334
total_late: 11498
total_polluted: 1713
total_misses_after_warmup: 1158397
conflicts: 1965320
Degree Incremented Times: 425614
Degree Decremented Times: 1432502

L1 IP Table Write Accesses: 86275765
L1 IP Table Read Accesses: 84310445
L1 RST Write Accesses: 30788770
L1 RST Read Accesses: 61577540
L1 CSPT Write Accesses: 30788770
L1 CSPT Read Accesses: 60026616
L1 RR Filter Tag Write Accesses: 24675235
L1 RR Filter Tag Read Accesses: 1058461598
L1 IP Table Tag Write Accesses: 94428195
L1 IP Table Tag Read Accesses: 94428195
L1 RST Tag Write Accesses: 0
L1 RST Tag Read Accesses: 300896589
L1 RR Filter Write Accesses: 0
L1 RR Filter Read Accesses: 38044635
test: 20117062

stream: 
stream:times selected: 10295839
stream:pref_filled: 1211566
stream:pref_useful: 337269
stream:pref_late: 10616
stream:misses: 319931
stream:misses_by_poll: 0

CS: 
CS:times selected: 545616
CS:pref_filled: 261373
CS:pref_useful: 247156
CS:pref_late: 99
CS:misses: 4979
CS:misses_by_poll: 549

CPLX: 
CPLX:times selected: 9685994
CPLX:pref_filled: 358921
CPLX:pref_useful: 94538
CPLX:pref_late: 620
CPLX:misses: 956695
CPLX:misses_by_poll: 765

NL_L1: 
NL:times selected: 48219
NL:pref_filled: 12854
NL:pref_useful: 2742
NL:pref_late: 47
NL:misses: 10594
NL:misses_by_poll: 1

total selections: 20575668
total_filled: 1472166
total_useful: 532377
total_late: 11728
total_polluted: 1315
total_misses_after_warmup: 1144698
conflicts: 1965320
Degree Incremented Times: 425614
Degree Decremented Times: 1432502

L1 IP Table Write Accesses: 86275765
L1 IP Table Read Accesses: 84310445
L1 RST Write Accesses: 30788770
L1 RST Read Accesses: 61577540
L1 CSPT Write Accesses: 30788770
L1 CSPT Read Accesses: 60026616
L1 RR Filter Tag Write Accesses: 24675235
L1 RR Filter Tag Read Accesses: 1058461598
L1 IP Table Tag Write Accesses: 94428195
L1 IP Table Tag Read Accesses: 94428195
L1 RST Tag Write Accesses: 0
L1 RST Tag Read Accesses: 300896589
L1 RR Filter Write Accesses: 0
L1 RR Filter Read Accesses: 38044635
test: 20117062

stream: 
stream:times selected: 8843921
stream:pref_filled: 565453
stream:pref_useful: 109100
stream:pref_late: 3405
stream:misses: 97365
stream:misses_by_poll: 0

CS: 
CS:times selected: 154595
CS:pref_filled: 76846
CS:pref_useful: 74253
CS:pref_late: 1056
CS:misses: 141
CS:misses_by_poll: 88

CPLX: 
CPLX:times selected: 8636983
CPLX:pref_filled: 240875
CPLX:pref_useful: 49751
CPLX:pref_late: 319
CPLX:misses: 273599
CPLX:misses_by_poll: 474

NL_L1: 
NL:times selected: 20941
NL:pref_filled: 5653
NL:pref_useful: 539
NL:pref_late: 1
NL:misses: 3154
NL:misses_by_poll: 0

total selections: 17656440
total_filled: 724784
total_useful: 191356
total_late: 4807
total_polluted: 562
total_misses_after_warmup: 572097
conflicts: 1965320
Degree Incremented Times: 425614
Degree Decremented Times: 1432502

L1 IP Table Write Accesses: 86275765
L1 IP Table Read Accesses: 84310445
L1 RST Write Accesses: 30788770
L1 RST Read Accesses: 61577540
L1 CSPT Write Accesses: 30788770
L1 CSPT Read Accesses: 60026616
L1 RR Filter Tag Write Accesses: 24675235
L1 RR Filter Tag Read Accesses: 1058461598
L1 IP Table Tag Write Accesses: 94428195
L1 IP Table Tag Read Accesses: 94428195
L1 RST Tag Write Accesses: 0
L1 RST Tag Read Accesses: 300896589
L1 RR Filter Write Accesses: 0
L1 RR Filter Read Accesses: 38044635
test: 20117062

DRAM Statistics
 CHANNEL 0
 RQ ROW_BUFFER_HIT:     104074  ROW_BUFFER_MISS:    3361012
 DBUS_CONGESTED:        354
 WQ ROW_BUFFER_HIT:     400378  ROW_BUFFER_MISS:    1402577  FULL:          0

 AVG_CONGESTED_CYCLE: 4
 All warmup complete: 5
Channel 0 Bank busy for read cycles: 0
Channel 0 Bank busy for write cycles: 0
Channel 0
Rank 0
0banks busy for read cycles: 40048746
0banks busy for write cycles: 130330
1banks busy for read cycles: 110909901
1banks busy for write cycles: 17348184
2banks busy for read cycles: 76761625
2banks busy for write cycles: 13309845
3banks busy for read cycles: 40782330
3banks busy for write cycles: 11572903
4banks busy for read cycles: 17850386
4banks busy for write cycles: 10599111
5banks busy for read cycles: 6432307
5banks busy for write cycles: 10168508
6banks busy for read cycles: 1982563
6banks busy for write cycles: 10297687
7banks busy for read cycles: 657677
7banks busy for write cycles: 11372622
8banks busy for read cycles: 507232
8banks busy for write cycles: 13380666

CPU 0 Branch Prediction Accuracy: 99.1595% MPKI: 1.65185 Average ROB Occupancy at Mispredict: 146.078
Branch types
NOT_BRANCH: 0 0%
BRANCH_DIRECT_JUMP: 0 0%
BRANCH_INDIRECT: 0 0%
BRANCH_CONDITIONAL: 0 0%
BRANCH_DIRECT_CALL: 0 0%
BRANCH_INDIRECT_CALL: 0 0%
BRANCH_RETURN: 0 0%
BRANCH_OTHER: 0 0%


CPU 1 Branch Prediction Accuracy: 99.7996% MPKI: 0.458905 Average ROB Occupancy at Mispredict: 139.157
Branch types
NOT_BRANCH: 0 0%
BRANCH_DIRECT_JUMP: 0 0%
BRANCH_INDIRECT: 0 0%
BRANCH_CONDITIONAL: 0 0%
BRANCH_DIRECT_CALL: 0 0%
BRANCH_INDIRECT_CALL: 0 0%
BRANCH_RETURN: 0 0%
BRANCH_OTHER: 0 0%


CPU 2 Branch Prediction Accuracy: 99.6807% MPKI: 0.712892 Average ROB Occupancy at Mispredict: 123.29
Branch types
NOT_BRANCH: 0 0%
BRANCH_DIRECT_JUMP: 0 0%
BRANCH_INDIRECT: 0 0%
BRANCH_CONDITIONAL: 0 0%
BRANCH_DIRECT_CALL: 0 0%
BRANCH_INDIRECT_CALL: 0 0%
BRANCH_RETURN: 0 0%
BRANCH_OTHER: 0 0%


CPU 3 Branch Prediction Accuracy: 99.8054% MPKI: 0.415788 Average ROB Occupancy at Mispredict: 108.973
Branch types
NOT_BRANCH: 0 0%
BRANCH_DIRECT_JUMP: 0 0%
BRANCH_INDIRECT: 0 0%
BRANCH_CONDITIONAL: 0 0%
BRANCH_DIRECT_CALL: 0 0%
BRANCH_INDIRECT_CALL: 0 0%
BRANCH_RETURN: 0 0%
BRANCH_OTHER: 0 0%

DRAM PAGES: 1048576
Allocated PAGES: 17338
