
*** ChampSim Multicore Out-of-Order Simulator ***

Warmup Instructions: 50000000
Simulation Instructions: 200000000
Number of CPUs: 4
LLC sets: 8192
LLC ways: 16
Off-chip DRAM Size: 4096 MB Channels: 1 Width: 64-bit Data Rate: 6400 MT/s
CPU 0 runs ./traces/ligra/ligra_Radii.com-lj.ungraph.gcc_6.3.0_O3.drop_36000M.length_250M.champsimtrace.xz
.xz
CPU 1 runs ./traces/ligra/ligra_Radii.com-lj.ungraph.gcc_6.3.0_O3.drop_36000M.length_250M.champsimtrace.xz
.xz
CPU 2 runs ./traces/ligra/ligra_Radii.com-lj.ungraph.gcc_6.3.0_O3.drop_36000M.length_250M.champsimtrace.xz
.xz
CPU 3 runs ./traces/ligra/ligra_Radii.com-lj.ungraph.gcc_6.3.0_O3.drop_36000M.length_250M.champsimtrace.xz
.xz
BTB has LRU replacement policy
ITLB has LRU replacement policy
DTLB has LRU replacement policy
STLB has LRU replacement policy
L1I has LRU replacement policy
IP Table Entries: 1024
CSPT Entries: 128
RR_ENTRIES: 32
RST_ENTRIES: 8
L1D has LRU replacement policy
Initialize SRRIP state for L2C
Initialize DRRIP state for LLC
BTB has LRU replacement policy
ITLB has LRU replacement policy
DTLB has LRU replacement policy
STLB has LRU replacement policy
L1I has LRU replacement policy
IP Table Entries: 1024
CSPT Entries: 128
RR_ENTRIES: 32
RST_ENTRIES: 8
L1D has LRU replacement policy
Initialize SRRIP state for L2C
Initialize DRRIP state for LLC
BTB has LRU replacement policy
ITLB has LRU replacement policy
DTLB has LRU replacement policy
STLB has LRU replacement policy
L1I has LRU replacement policy
IP Table Entries: 1024
CSPT Entries: 128
RR_ENTRIES: 32
RST_ENTRIES: 8
L1D has LRU replacement policy
Initialize SRRIP state for L2C
Initialize DRRIP state for LLC
BTB has LRU replacement policy
ITLB has LRU replacement policy
DTLB has LRU replacement policy
STLB has LRU replacement policy
L1I has LRU replacement policy
IP Table Entries: 1024
CSPT Entries: 128
RR_ENTRIES: 32
RST_ENTRIES: 8
L1D has LRU replacement policy
Initialize SRRIP state for L2C
Initialize DRRIP state for LLC
Heartbeat CPU 0 instructions: 10000001 cycles: 3213777 heartbeat IPC: 3.1116 cumulative IPC: 3.1116 (Simulation time: 0 hr 4 min 59 sec) 
Heartbeat CPU 2 instructions: 10000001 cycles: 3214907 heartbeat IPC: 3.11051 cumulative IPC: 3.11051 (Simulation time: 0 hr 4 min 59 sec) 
Heartbeat CPU 1 instructions: 10000001 cycles: 3214967 heartbeat IPC: 3.11045 cumulative IPC: 3.11045 (Simulation time: 0 hr 4 min 59 sec) 
Heartbeat CPU 3 instructions: 10000001 cycles: 3215105 heartbeat IPC: 3.11032 cumulative IPC: 3.11032 (Simulation time: 0 hr 4 min 59 sec) 
Heartbeat CPU 0 instructions: 20000001 cycles: 6412899 heartbeat IPC: 3.12586 cumulative IPC: 3.11871 (Simulation time: 0 hr 9 min 40 sec) 
Heartbeat CPU 1 instructions: 20000001 cycles: 6413933 heartbeat IPC: 3.12601 cumulative IPC: 3.11821 (Simulation time: 0 hr 9 min 40 sec) 
Heartbeat CPU 2 instructions: 20000001 cycles: 6414096 heartbeat IPC: 3.12579 cumulative IPC: 3.11813 (Simulation time: 0 hr 9 min 40 sec) 
Heartbeat CPU 3 instructions: 20000001 cycles: 6415216 heartbeat IPC: 3.12489 cumulative IPC: 3.11759 (Simulation time: 0 hr 9 min 40 sec) 
Heartbeat CPU 0 instructions: 30000000 cycles: 9613109 heartbeat IPC: 3.12479 cumulative IPC: 3.12074 (Simulation time: 0 hr 14 min 39 sec) 
Heartbeat CPU 1 instructions: 30000000 cycles: 9614866 heartbeat IPC: 3.12409 cumulative IPC: 3.12017 (Simulation time: 0 hr 14 min 39 sec) 
Heartbeat CPU 2 instructions: 30000000 cycles: 9614927 heartbeat IPC: 3.12419 cumulative IPC: 3.12015 (Simulation time: 0 hr 14 min 39 sec) 
Heartbeat CPU 3 instructions: 30000000 cycles: 9617127 heartbeat IPC: 3.12313 cumulative IPC: 3.11943 (Simulation time: 0 hr 14 min 39 sec) 
Heartbeat CPU 0 instructions: 40000003 cycles: 12820819 heartbeat IPC: 3.11749 cumulative IPC: 3.11993 (Simulation time: 0 hr 19 min 34 sec) 
Heartbeat CPU 1 instructions: 40000003 cycles: 12823320 heartbeat IPC: 3.11677 cumulative IPC: 3.11932 (Simulation time: 0 hr 19 min 34 sec) 
Heartbeat CPU 2 instructions: 40000003 cycles: 12823394 heartbeat IPC: 3.11675 cumulative IPC: 3.1193 (Simulation time: 0 hr 19 min 34 sec) 
Heartbeat CPU 3 instructions: 40000003 cycles: 12826941 heartbeat IPC: 3.11545 cumulative IPC: 3.11844 (Simulation time: 0 hr 19 min 35 sec) 
Heartbeat CPU 0 instructions: 50000000 cycles: 16002366 heartbeat IPC: 3.14312 cumulative IPC: 3.12454 (Simulation time: 0 hr 24 min 6 sec) 
Heartbeat CPU 2 instructions: 50000000 cycles: 16005493 heartbeat IPC: 3.14258 cumulative IPC: 3.12393 (Simulation time: 0 hr 24 min 7 sec) 
Heartbeat CPU 1 instructions: 50000000 cycles: 16005570 heartbeat IPC: 3.14243 cumulative IPC: 3.12391 (Simulation time: 0 hr 24 min 7 sec) 
Heartbeat CPU 3 instructions: 50000000 cycles: 16010365 heartbeat IPC: 3.14127 cumulative IPC: 3.12298 (Simulation time: 0 hr 24 min 7 sec) 

Warmup complete CPU 0 instructions: 50012547 cycles: 16010366 (Simulation time: 0 hr 24 min 7 sec) 
Warmup complete CPU 1 instructions: 50007586 cycles: 16010366 (Simulation time: 0 hr 24 min 7 sec) 
Warmup complete CPU 2 instructions: 50007735 cycles: 16010366 (Simulation time: 0 hr 24 min 7 sec) 
Warmup complete CPU 3 instructions: 50000003 cycles: 16010366 (Simulation time: 0 hr 24 min 7 sec) 

Heartbeat CPU 2 instructions: 60000000 cycles: 68193192 heartbeat IPC: 0.191616 cumulative IPC: 0.191486 (Simulation time: 0 hr 28 min 30 sec) 
Heartbeat CPU 1 instructions: 60000000 cycles: 68452962 heartbeat IPC: 0.190667 cumulative IPC: 0.19054 (Simulation time: 0 hr 28 min 34 sec) 
Heartbeat CPU 0 instructions: 60000000 cycles: 68494980 heartbeat IPC: 0.190503 cumulative IPC: 0.190293 (Simulation time: 0 hr 28 min 34 sec) 
Heartbeat CPU 3 instructions: 60000003 cycles: 68605432 heartbeat IPC: 0.190132 cumulative IPC: 0.190132 (Simulation time: 0 hr 28 min 36 sec) 
Heartbeat CPU 2 instructions: 70000000 cycles: 128559912 heartbeat IPC: 0.165654 cumulative IPC: 0.177631 (Simulation time: 0 hr 33 min 35 sec) 
Heartbeat CPU 0 instructions: 70000000 cycles: 129208445 heartbeat IPC: 0.164708 cumulative IPC: 0.176571 (Simulation time: 0 hr 33 min 38 sec) 
Heartbeat CPU 1 instructions: 70000000 cycles: 129378878 heartbeat IPC: 0.164134 cumulative IPC: 0.176349 (Simulation time: 0 hr 33 min 39 sec) 
Heartbeat CPU 3 instructions: 70000000 cycles: 129654728 heartbeat IPC: 0.163802 cumulative IPC: 0.175988 (Simulation time: 0 hr 33 min 41 sec) 
Heartbeat CPU 2 instructions: 80000003 cycles: 195473072 heartbeat IPC: 0.149447 cumulative IPC: 0.167123 (Simulation time: 0 hr 38 min 54 sec) 
Heartbeat CPU 0 instructions: 80000003 cycles: 196464740 heartbeat IPC: 0.148685 cumulative IPC: 0.166177 (Simulation time: 0 hr 38 min 58 sec) 
Heartbeat CPU 1 instructions: 80000003 cycles: 196663608 heartbeat IPC: 0.148622 cumulative IPC: 0.166022 (Simulation time: 0 hr 38 min 59 sec) 
Heartbeat CPU 3 instructions: 80000003 cycles: 196997584 heartbeat IPC: 0.148494 cumulative IPC: 0.165758 (Simulation time: 0 hr 39 min 1 sec) 
Heartbeat CPU 2 instructions: 90000003 cycles: 265061160 heartbeat IPC: 0.143703 cumulative IPC: 0.160579 (Simulation time: 0 hr 44 min 0 sec) 
Heartbeat CPU 1 instructions: 90000003 cycles: 266433838 heartbeat IPC: 0.143328 cumulative IPC: 0.159699 (Simulation time: 0 hr 44 min 6 sec) 
Heartbeat CPU 0 instructions: 90000003 cycles: 266458333 heartbeat IPC: 0.14287 cumulative IPC: 0.159664 (Simulation time: 0 hr 44 min 6 sec) 
Heartbeat CPU 3 instructions: 90000003 cycles: 266949501 heartbeat IPC: 0.142955 cumulative IPC: 0.159401 (Simulation time: 0 hr 44 min 8 sec) 
Heartbeat CPU 2 instructions: 100000001 cycles: 333265973 heartbeat IPC: 0.146617 cumulative IPC: 0.157577 (Simulation time: 0 hr 48 min 58 sec) 
Heartbeat CPU 1 instructions: 100000001 cycles: 334551163 heartbeat IPC: 0.146805 cumulative IPC: 0.156942 (Simulation time: 0 hr 49 min 3 sec) 
Heartbeat CPU 0 instructions: 100000001 cycles: 334760388 heartbeat IPC: 0.146408 cumulative IPC: 0.156823 (Simulation time: 0 hr 49 min 3 sec) 
Heartbeat CPU 3 instructions: 100000001 cycles: 335281979 heartbeat IPC: 0.146343 cumulative IPC: 0.156606 (Simulation time: 0 hr 49 min 5 sec) 
Heartbeat CPU 2 instructions: 110000000 cycles: 402214015 heartbeat IPC: 0.145037 cumulative IPC: 0.155338 (Simulation time: 0 hr 53 min 51 sec) 
Heartbeat CPU 1 instructions: 110000000 cycles: 403541824 heartbeat IPC: 0.144947 cumulative IPC: 0.154807 (Simulation time: 0 hr 53 min 57 sec) 
Heartbeat CPU 0 instructions: 110000000 cycles: 403891726 heartbeat IPC: 0.144652 cumulative IPC: 0.154654 (Simulation time: 0 hr 53 min 59 sec) 
Heartbeat CPU 3 instructions: 110000000 cycles: 404330235 heartbeat IPC: 0.144826 cumulative IPC: 0.154512 (Simulation time: 0 hr 54 min 1 sec) 
Heartbeat CPU 2 instructions: 120000002 cycles: 468547860 heartbeat IPC: 0.150753 cumulative IPC: 0.154666 (Simulation time: 0 hr 58 min 45 sec) 
Heartbeat CPU 1 instructions: 120000002 cycles: 470105578 heartbeat IPC: 0.150232 cumulative IPC: 0.154136 (Simulation time: 0 hr 58 min 53 sec) 
Heartbeat CPU 0 instructions: 120000002 cycles: 470610170 heartbeat IPC: 0.149884 cumulative IPC: 0.153954 (Simulation time: 0 hr 58 min 56 sec) 
Heartbeat CPU 3 instructions: 120000002 cycles: 470909628 heartbeat IPC: 0.150197 cumulative IPC: 0.15388 (Simulation time: 0 hr 58 min 57 sec) 
Heartbeat CPU 2 instructions: 130000000 cycles: 532347932 heartbeat IPC: 0.15674 cumulative IPC: 0.154922 (Simulation time: 1 hr 3 min 37 sec) 
Heartbeat CPU 1 instructions: 130000000 cycles: 533979248 heartbeat IPC: 0.156559 cumulative IPC: 0.154435 (Simulation time: 1 hr 3 min 46 sec) 
Heartbeat CPU 0 instructions: 130000000 cycles: 534806294 heartbeat IPC: 0.155773 cumulative IPC: 0.154179 (Simulation time: 1 hr 3 min 51 sec) 
Heartbeat CPU 3 instructions: 130000000 cycles: 535036276 heartbeat IPC: 0.155941 cumulative IPC: 0.154135 (Simulation time: 1 hr 3 min 52 sec) 
Heartbeat CPU 2 instructions: 140000001 cycles: 551926513 heartbeat IPC: 0.510762 cumulative IPC: 0.167922 (Simulation time: 1 hr 6 min 12 sec) 
Heartbeat CPU 1 instructions: 140000001 cycles: 553355035 heartbeat IPC: 0.516108 cumulative IPC: 0.167476 (Simulation time: 1 hr 6 min 32 sec) 
Heartbeat CPU 0 instructions: 140000001 cycles: 554099549 heartbeat IPC: 0.518316 cumulative IPC: 0.167235 (Simulation time: 1 hr 6 min 41 sec) 
Heartbeat CPU 3 instructions: 140000001 cycles: 554209386 heartbeat IPC: 0.521564 cumulative IPC: 0.167224 (Simulation time: 1 hr 6 min 42 sec) 
Heartbeat CPU 2 instructions: 150000003 cycles: 560284352 heartbeat IPC: 1.19648 cumulative IPC: 0.183717 (Simulation time: 1 hr 8 min 6 sec) 
Heartbeat CPU 1 instructions: 150000003 cycles: 561710749 heartbeat IPC: 1.19679 cumulative IPC: 0.183237 (Simulation time: 1 hr 8 min 25 sec) 
Heartbeat CPU 0 instructions: 150000003 cycles: 562454949 heartbeat IPC: 1.19683 cumulative IPC: 0.182978 (Simulation time: 1 hr 8 min 34 sec) 
Heartbeat CPU 3 instructions: 150000003 cycles: 562564478 heartbeat IPC: 1.19688 cumulative IPC: 0.182965 (Simulation time: 1 hr 8 min 36 sec) 
Heartbeat CPU 2 instructions: 160000002 cycles: 570828108 heartbeat IPC: 0.948429 cumulative IPC: 0.198249 (Simulation time: 1 hr 10 min 41 sec) 
Heartbeat CPU 1 instructions: 160000002 cycles: 573317415 heartbeat IPC: 0.861574 cumulative IPC: 0.197364 (Simulation time: 1 hr 11 min 1 sec) 
Heartbeat CPU 0 instructions: 160000002 cycles: 574569619 heartbeat IPC: 0.825445 cumulative IPC: 0.196913 (Simulation time: 1 hr 11 min 10 sec) 
Heartbeat CPU 3 instructions: 160000002 cycles: 574703207 heartbeat IPC: 0.823809 cumulative IPC: 0.196888 (Simulation time: 1 hr 11 min 11 sec) 
Heartbeat CPU 2 instructions: 170000000 cycles: 610674957 heartbeat IPC: 0.250961 cumulative IPC: 0.201781 (Simulation time: 1 hr 15 min 20 sec) 
Heartbeat CPU 1 instructions: 170000000 cycles: 614263215 heartbeat IPC: 0.244225 cumulative IPC: 0.200571 (Simulation time: 1 hr 15 min 41 sec) 
Heartbeat CPU 0 instructions: 170000000 cycles: 615911163 heartbeat IPC: 0.241887 cumulative IPC: 0.200012 (Simulation time: 1 hr 15 min 51 sec) 
Heartbeat CPU 3 instructions: 170000000 cycles: 616303035 heartbeat IPC: 0.240386 cumulative IPC: 0.199902 (Simulation time: 1 hr 15 min 53 sec) 
Heartbeat CPU 2 instructions: 180000000 cycles: 648406103 heartbeat IPC: 0.265033 cumulative IPC: 0.205555 (Simulation time: 1 hr 19 min 12 sec) 
Heartbeat CPU 1 instructions: 180000000 cycles: 651085655 heartbeat IPC: 0.271574 cumulative IPC: 0.204688 (Simulation time: 1 hr 19 min 41 sec) 
Heartbeat CPU 0 instructions: 180000001 cycles: 652084939 heartbeat IPC: 0.276443 cumulative IPC: 0.204359 (Simulation time: 1 hr 19 min 55 sec) 
Heartbeat CPU 3 instructions: 180000001 cycles: 652210374 heartbeat IPC: 0.278495 cumulative IPC: 0.204338 (Simulation time: 1 hr 19 min 57 sec) 
Heartbeat CPU 2 instructions: 190000000 cycles: 656948331 heartbeat IPC: 1.17065 cumulative IPC: 0.218418 (Simulation time: 1 hr 21 min 6 sec) 
Heartbeat CPU 1 instructions: 190000000 cycles: 659447133 heartbeat IPC: 1.19596 cumulative IPC: 0.21757 (Simulation time: 1 hr 21 min 43 sec) 
Heartbeat CPU 0 instructions: 190000000 cycles: 660447236 heartbeat IPC: 1.19584 cumulative IPC: 0.217224 (Simulation time: 1 hr 21 min 55 sec) 
Heartbeat CPU 3 instructions: 190000000 cycles: 660575174 heartbeat IPC: 1.19549 cumulative IPC: 0.217201 (Simulation time: 1 hr 21 min 56 sec) 
Heartbeat CPU 2 instructions: 200000001 cycles: 665310934 heartbeat IPC: 1.1958 cumulative IPC: 0.231006 (Simulation time: 1 hr 23 min 2 sec) 
Heartbeat CPU 1 instructions: 200000001 cycles: 667810750 heartbeat IPC: 1.19566 cumulative IPC: 0.23012 (Simulation time: 1 hr 23 min 35 sec) 
Heartbeat CPU 0 instructions: 200000001 cycles: 668807645 heartbeat IPC: 1.19611 cumulative IPC: 0.229761 (Simulation time: 1 hr 23 min 52 sec) 
Heartbeat CPU 3 instructions: 200000001 cycles: 668934127 heartbeat IPC: 1.19632 cumulative IPC: 0.229736 (Simulation time: 1 hr 23 min 55 sec) 
Heartbeat CPU 2 instructions: 210000000 cycles: 677008719 heartbeat IPC: 0.854863 cumulative IPC: 0.242046 (Simulation time: 1 hr 25 min 33 sec) 
Heartbeat CPU 1 instructions: 210000000 cycles: 679518195 heartbeat IPC: 0.854157 cumulative IPC: 0.241131 (Simulation time: 1 hr 25 min 56 sec) 
Heartbeat CPU 0 instructions: 210000000 cycles: 680495443 heartbeat IPC: 0.855593 cumulative IPC: 0.240769 (Simulation time: 1 hr 26 min 5 sec) 
Heartbeat CPU 3 instructions: 210000000 cycles: 680622270 heartbeat IPC: 0.855568 cumulative IPC: 0.240742 (Simulation time: 1 hr 26 min 6 sec) 
Heartbeat CPU 2 instructions: 220000000 cycles: 693733411 heartbeat IPC: 0.597918 cumulative IPC: 0.250829 (Simulation time: 1 hr 28 min 0 sec) 
Heartbeat CPU 1 instructions: 220000000 cycles: 696243380 heartbeat IPC: 0.597901 cumulative IPC: 0.249903 (Simulation time: 1 hr 28 min 21 sec) 
Heartbeat CPU 0 instructions: 220000000 cycles: 697222687 heartbeat IPC: 0.597827 cumulative IPC: 0.249537 (Simulation time: 1 hr 28 min 29 sec) 
Heartbeat CPU 3 instructions: 220000000 cycles: 697348555 heartbeat IPC: 0.597861 cumulative IPC: 0.249509 (Simulation time: 1 hr 28 min 30 sec) 
Heartbeat CPU 2 instructions: 230000001 cycles: 750351277 heartbeat IPC: 0.176623 cumulative IPC: 0.245107 (Simulation time: 1 hr 34 min 49 sec) 
Heartbeat CPU 1 instructions: 230000000 cycles: 754169184 heartbeat IPC: 0.172635 cumulative IPC: 0.24384 (Simulation time: 1 hr 35 min 13 sec) 
Heartbeat CPU 0 instructions: 230000001 cycles: 755289342 heartbeat IPC: 0.172216 cumulative IPC: 0.243464 (Simulation time: 1 hr 35 min 20 sec) 
Heartbeat CPU 3 instructions: 230000001 cycles: 755430226 heartbeat IPC: 0.172171 cumulative IPC: 0.243434 (Simulation time: 1 hr 35 min 21 sec) 
Heartbeat CPU 2 instructions: 240000001 cycles: 812301200 heartbeat IPC: 0.161421 cumulative IPC: 0.238597 (Simulation time: 1 hr 42 min 19 sec) 
Heartbeat CPU 1 instructions: 240000001 cycles: 813306712 heartbeat IPC: 0.169097 cumulative IPC: 0.238296 (Simulation time: 1 hr 42 min 38 sec) 
Heartbeat CPU 0 instructions: 240000001 cycles: 813609134 heartbeat IPC: 0.171468 cumulative IPC: 0.238199 (Simulation time: 1 hr 42 min 43 sec) 
Heartbeat CPU 3 instructions: 240000001 cycles: 813670625 heartbeat IPC: 0.171702 cumulative IPC: 0.238197 (Simulation time: 1 hr 42 min 45 sec) 
*** Reached end of trace for Core: 2 Repeating trace: ./traces/ligra/ligra_Radii.com-lj.ungraph.gcc_6.3.0_O3.drop_36000M.length_250M.champsimtrace.xz
Heartbeat CPU 2 instructions: 250000000 cycles: 822116444 heartbeat IPC: 1.01882 cumulative IPC: 0.248097 (Simulation time: 1 hr 45 min 34 sec) 
Finished CPU 2 instructions: 200000001 cycles: 806185877 cumulative IPC: 0.248082 (Simulation time: 1 hr 45 min 35 sec) 
*** Reached end of trace for Core: 1 Repeating trace: ./traces/ligra/ligra_Radii.com-lj.ungraph.gcc_6.3.0_O3.drop_36000M.length_250M.champsimtrace.xz
Heartbeat CPU 1 instructions: 250000000 cycles: 823200498 heartbeat IPC: 1.01074 cumulative IPC: 0.247764 (Simulation time: 1 hr 45 min 50 sec) 
Finished CPU 1 instructions: 200000001 cycles: 807279656 cumulative IPC: 0.247746 (Simulation time: 1 hr 45 min 51 sec) 
*** Reached end of trace for Core: 0 Repeating trace: ./traces/ligra/ligra_Radii.com-lj.ungraph.gcc_6.3.0_O3.drop_36000M.length_250M.champsimtrace.xz
Heartbeat CPU 0 instructions: 250000000 cycles: 823549981 heartbeat IPC: 1.00595 cumulative IPC: 0.24765 (Simulation time: 1 hr 45 min 54 sec) 
*** Reached end of trace for Core: 3 Repeating trace: ./traces/ligra/ligra_Radii.com-lj.ungraph.gcc_6.3.0_O3.drop_36000M.length_250M.champsimtrace.xz
Heartbeat CPU 3 instructions: 250000000 cycles: 823613995 heartbeat IPC: 1.0057 cumulative IPC: 0.247646 (Simulation time: 1 hr 45 min 54 sec) 
Finished CPU 3 instructions: 200000000 cycles: 807603630 cumulative IPC: 0.247646 (Simulation time: 1 hr 45 min 54 sec) 
Finished CPU 0 instructions: 200000000 cycles: 807701416 cumulative IPC: 0.247616 (Simulation time: 1 hr 45 min 55 sec) 

ChampSim completed all CPUs

Total Simulation Statistics (not including warmup)

CPU 0 cumulative IPC: 0.247616 instructions: 200000000 cycles: 807701416
ITLB TOTAL     ACCESS:   36040794  HIT:   36040784  MISS:         10  HIT %:        100  MISS %: 2.77463e-05   MPKI: 5e-05
ITLB LOAD      ACCESS:          0  HIT:          0  MISS:          0  HIT %:       -nan  MISS %:       -nan   MPKI: 0
ITLB RFO       ACCESS:          0  HIT:          0  MISS:          0  HIT %:       -nan  MISS %:       -nan   MPKI: 0
ITLB PREFETCH  ACCESS:          0  HIT:          0  MISS:          0  HIT %:       -nan  MISS %:       -nan   MPKI: 0
ITLB WRITEBACK ACCESS:          0  HIT:          0  MISS:          0  HIT %:       -nan  MISS %:       -nan   MPKI: 0
DTLB TOTAL     ACCESS:   38429409  HIT:   36028465  MISS:    2400944  HIT %:    93.7523  MISS %:    6.24767   MPKI: 12.0047
DTLB LOAD      ACCESS:          0  HIT:          0  MISS:          0  HIT %:       -nan  MISS %:       -nan   MPKI: 0
DTLB RFO       ACCESS:          0  HIT:          0  MISS:          0  HIT %:       -nan  MISS %:       -nan   MPKI: 0
DTLB PREFETCH  ACCESS:          0  HIT:          0  MISS:          0  HIT %:       -nan  MISS %:       -nan   MPKI: 0
DTLB WRITEBACK ACCESS:          0  HIT:          0  MISS:          0  HIT %:       -nan  MISS %:       -nan   MPKI: 0
STLB TOTAL     ACCESS:    9333170  HIT:    8932352  MISS:     400818  HIT %:    95.7054  MISS %:    4.29455   MPKI: 2.00409
STLB LOAD      ACCESS:          0  HIT:          0  MISS:          0  HIT %:       -nan  MISS %:       -nan   MPKI: 0
STLB RFO       ACCESS:          0  HIT:          0  MISS:          0  HIT %:       -nan  MISS %:       -nan   MPKI: 0
STLB PREFETCH  ACCESS:          0  HIT:          0  MISS:          0  HIT %:       -nan  MISS %:       -nan   MPKI: 0
STLB WRITEBACK ACCESS:          0  HIT:          0  MISS:          0  HIT %:       -nan  MISS %:       -nan   MPKI: 0
L1D TOTAL     ACCESS:   50669305  HIT:   41852559  MISS:    8816746  HIT %:    82.5994  MISS %:    17.4006   MPKI: 44.0837
L1D LOAD      ACCESS:   33871239  HIT:   30604760  MISS:    3266479  HIT %:    90.3562  MISS %:    9.64381   MPKI: 16.3324
L1D RFO       ACCESS:    6192743  HIT:    5581935  MISS:     610808  HIT %:    90.1367  MISS %:    9.86329   MPKI: 3.05404
L1D PREFETCH  ACCESS:   10605323  HIT:    5665864  MISS:    4939459  HIT %:    53.4247  MISS %:    46.5753   MPKI: 24.6973
L1D WRITEBACK ACCESS:          0  HIT:          0  MISS:          0  HIT %:       -nan  MISS %:       -nan   MPKI: 0
L1I TOTAL     ACCESS:   43504579  HIT:   43504435  MISS:        144  HIT %:    99.9997  MISS %:   0.000331   MPKI: 0.00072
L1I LOAD      ACCESS:   43504579  HIT:   43504435  MISS:        144  HIT %:    99.9997  MISS %:   0.000331   MPKI: 0.00072
L1I RFO       ACCESS:          0  HIT:          0  MISS:          0  HIT %:       -nan  MISS %:       -nan   MPKI: 0
L1I PREFETCH  ACCESS:          0  HIT:          0  MISS:          0  HIT %:       -nan  MISS %:       -nan   MPKI: 0
L1I WRITEBACK ACCESS:          0  HIT:          0  MISS:          0  HIT %:       -nan  MISS %:       -nan   MPKI: 0
L2C TOTAL     ACCESS:   10065744  HIT:    1640346  MISS:    8425398  HIT %:    16.2963  MISS %:    83.7037   MPKI: 42.127
L2C LOAD      ACCESS:    2956260  HIT:     301272  MISS:    2654988  HIT %:     10.191  MISS %:     89.809   MPKI: 13.2749
L2C RFO       ACCESS:     610808  HIT:         19  MISS:     610789  HIT %: 0.00311063  MISS %:    99.9969   MPKI: 3.05395
L2C PREFETCH  ACCESS:    5249822  HIT:     311600  MISS:    4938222  HIT %:    5.93544  MISS %:    94.0646   MPKI: 24.6911
L2C WRITEBACK ACCESS:     847911  HIT:     814016  MISS:      33895  HIT %:    96.0025  MISS %:    3.99747   MPKI: 0.169475
PSCL5 TOTAL     ACCESS:     400818  HIT:     400818  MISS:          0  HIT %:        100  MISS %:          0   MPKI: 0
PSCL5 LOAD      ACCESS:          0  HIT:          0  MISS:          0  HIT %:       -nan  MISS %:       -nan   MPKI: 0
PSCL5 RFO       ACCESS:          0  HIT:          0  MISS:          0  HIT %:       -nan  MISS %:       -nan   MPKI: 0
PSCL5 PREFETCH  ACCESS:          0  HIT:          0  MISS:          0  HIT %:       -nan  MISS %:       -nan   MPKI: 0
PSCL5 WRITEBACK ACCESS:          0  HIT:          0  MISS:          0  HIT %:       -nan  MISS %:       -nan   MPKI: 0
PSCL4 TOTAL     ACCESS:     400818  HIT:     400818  MISS:          0  HIT %:        100  MISS %:          0   MPKI: 0
PSCL4 LOAD      ACCESS:          0  HIT:          0  MISS:          0  HIT %:       -nan  MISS %:       -nan   MPKI: 0
PSCL4 RFO       ACCESS:          0  HIT:          0  MISS:          0  HIT %:       -nan  MISS %:       -nan   MPKI: 0
PSCL4 PREFETCH  ACCESS:          0  HIT:          0  MISS:          0  HIT %:       -nan  MISS %:       -nan   MPKI: 0
PSCL4 WRITEBACK ACCESS:          0  HIT:          0  MISS:          0  HIT %:       -nan  MISS %:       -nan   MPKI: 0
PSCL3 TOTAL     ACCESS:     400818  HIT:     400818  MISS:          0  HIT %:        100  MISS %:          0   MPKI: 0
PSCL3 LOAD      ACCESS:          0  HIT:          0  MISS:          0  HIT %:       -nan  MISS %:       -nan   MPKI: 0
PSCL3 RFO       ACCESS:          0  HIT:          0  MISS:          0  HIT %:       -nan  MISS %:       -nan   MPKI: 0
PSCL3 PREFETCH  ACCESS:          0  HIT:          0  MISS:          0  HIT %:       -nan  MISS %:       -nan   MPKI: 0
PSCL3 WRITEBACK ACCESS:          0  HIT:          0  MISS:          0  HIT %:       -nan  MISS %:       -nan   MPKI: 0
PSCL2 TOTAL     ACCESS:     400818  HIT:     400605  MISS:        213  HIT %:    99.9469  MISS %:  0.0531413   MPKI: 0.001065
PSCL2 LOAD      ACCESS:          0  HIT:          0  MISS:          0  HIT %:       -nan  MISS %:       -nan   MPKI: 0
PSCL2 RFO       ACCESS:          0  HIT:          0  MISS:          0  HIT %:       -nan  MISS %:       -nan   MPKI: 0
PSCL2 PREFETCH  ACCESS:          0  HIT:          0  MISS:          0  HIT %:       -nan  MISS %:       -nan   MPKI: 0
PSCL2 WRITEBACK ACCESS:          0  HIT:          0  MISS:          0  HIT %:       -nan  MISS %:       -nan   MPKI: 0

stream: 
stream:times selected: 14619856
stream:pref_filled: 4650084
stream:pref_useful: 227354
stream:pref_late: 92129
stream:misses: 1106518
stream:misses_by_poll: 0

CS: 
CS:times selected: 3779829
CS:pref_filled: 2811313
CS:pref_useful: 2548324
CS:pref_late: 217505
CS:misses: 657146
CS:misses_by_poll: 9756

CPLX: 
CPLX:times selected: 10745151
CPLX:pref_filled: 255597
CPLX:pref_useful: 17503
CPLX:pref_late: 3061
CPLX:misses: 3968897
CPLX:misses_by_poll: 251

NL_L1: 
NL:times selected: 71488
NL:pref_filled: 38020
NL:pref_useful: 2098
NL:pref_late: 117
NL:misses: 34971
NL:misses_by_poll: 2

total selections: 29216324
total_filled: 4939459
total_useful: 2009929
total_late: 314526
total_polluted: 10009
total_misses_after_warmup: 3685870
conflicts: 1253
Degree Incremented Times: 703846
Degree Decremented Times: 1948576

L1 IP Table Write Accesses: 137214267
L1 IP Table Read Accesses: 137213014
L1 RST Write Accesses: 38386099
L1 RST Read Accesses: 76772198
L1 CSPT Write Accesses: 38386099
L1 CSPT Read Accesses: 65061789
L1 RR Filter Tag Write Accesses: 45220097
L1 RR Filter Tag Read Accesses: 2137384481
L1 IP Table Tag Write Accesses: 137214617
L1 IP Table Tag Read Accesses: 137214617
L1 RST Tag Write Accesses: 0
L1 RST Tag Read Accesses: 345894968
L1 RR Filter Write Accesses: 0
L1 RR Filter Read Accesses: 74420522
test: 26191837
LLC TOTAL     ACCESS:    9239684  HIT:    2771932  MISS:    6467752  HIT %:    30.0003  MISS %:    69.9997   MPKI: 32.3388
LLC LOAD      ACCESS:    2654988  HIT:     887939  MISS:    1767049  HIT %:    33.4442  MISS %:    66.5558   MPKI: 8.83525
LLC RFO       ACCESS:     610789  HIT:          4  MISS:     610785  HIT %: 0.000654891  MISS %:    99.9993   MPKI: 3.05393
LLC PREFETCH  ACCESS:    4938222  HIT:     907468  MISS:    4030754  HIT %:    18.3764  MISS %:    81.6236   MPKI: 20.1538
LLC WRITEBACK ACCESS:     848181  HIT:     807488  MISS:      40693  HIT %:    95.2023  MISS %:    4.79768   MPKI: 0.203465

RAW hits: 311096
Loads Generated: 54453181
Loads sent to L1D: 54142084
Stores Generated: 9212195
Stores sent to L1D: 9212194

CPU 1 cumulative IPC: 0.247676 instructions: 200048223 cycles: 807701416
ITLB TOTAL     ACCESS:   36047213  HIT:   36047203  MISS:         10  HIT %:        100  MISS %: 2.77414e-05   MPKI: 4.99879e-05
ITLB LOAD      ACCESS:          0  HIT:          0  MISS:          0  HIT %:       -nan  MISS %:       -nan   MPKI: 0
ITLB RFO       ACCESS:          0  HIT:          0  MISS:          0  HIT %:       -nan  MISS %:       -nan   MPKI: 0
ITLB PREFETCH  ACCESS:          0  HIT:          0  MISS:          0  HIT %:       -nan  MISS %:       -nan   MPKI: 0
ITLB WRITEBACK ACCESS:          0  HIT:          0  MISS:          0  HIT %:       -nan  MISS %:       -nan   MPKI: 0
DTLB TOTAL     ACCESS:   38440595  HIT:   36037670  MISS:    2402925  HIT %:     93.749  MISS %:    6.25101   MPKI: 12.0117
DTLB LOAD      ACCESS:          0  HIT:          0  MISS:          0  HIT %:       -nan  MISS %:       -nan   MPKI: 0
DTLB RFO       ACCESS:          0  HIT:          0  MISS:          0  HIT %:       -nan  MISS %:       -nan   MPKI: 0
DTLB PREFETCH  ACCESS:          0  HIT:          0  MISS:          0  HIT %:       -nan  MISS %:       -nan   MPKI: 0
DTLB WRITEBACK ACCESS:          0  HIT:          0  MISS:          0  HIT %:       -nan  MISS %:       -nan   MPKI: 0
STLB TOTAL     ACCESS:    9338528  HIT:    8937431  MISS:     401097  HIT %:    95.7049  MISS %:    4.29508   MPKI: 2.005
STLB LOAD      ACCESS:          0  HIT:          0  MISS:          0  HIT %:       -nan  MISS %:       -nan   MPKI: 0
STLB RFO       ACCESS:          0  HIT:          0  MISS:          0  HIT %:       -nan  MISS %:       -nan   MPKI: 0
STLB PREFETCH  ACCESS:          0  HIT:          0  MISS:          0  HIT %:       -nan  MISS %:       -nan   MPKI: 0
STLB WRITEBACK ACCESS:          0  HIT:          0  MISS:          0  HIT %:       -nan  MISS %:       -nan   MPKI: 0
L1D TOTAL     ACCESS:   50688479  HIT:   41866822  MISS:    8821657  HIT %:    82.5963  MISS %:    17.4037   MPKI: 44.0977
L1D LOAD      ACCESS:   33874176  HIT:   30604826  MISS:    3269350  HIT %:    90.3485  MISS %:    9.65145   MPKI: 16.3428
L1D RFO       ACCESS:    6204089  HIT:    5593270  MISS:     610819  HIT %:    90.1546  MISS %:    9.84543   MPKI: 3.05336
L1D PREFETCH  ACCESS:   10610214  HIT:    5668726  MISS:    4941488  HIT %:    53.4271  MISS %:    46.5729   MPKI: 24.7015
L1D WRITEBACK ACCESS:          0  HIT:          0  MISS:          0  HIT %:       -nan  MISS %:       -nan   MPKI: 0
L1I TOTAL     ACCESS:   43516204  HIT:   43516060  MISS:        144  HIT %:    99.9997  MISS %: 0.000330911   MPKI: 0.000719826
L1I LOAD      ACCESS:   43516204  HIT:   43516060  MISS:        144  HIT %:    99.9997  MISS %: 0.000330911   MPKI: 0.000719826
L1I RFO       ACCESS:          0  HIT:          0  MISS:          0  HIT %:       -nan  MISS %:       -nan   MPKI: 0
L1I PREFETCH  ACCESS:          0  HIT:          0  MISS:          0  HIT %:       -nan  MISS %:       -nan   MPKI: 0
L1I WRITEBACK ACCESS:          0  HIT:          0  MISS:          0  HIT %:       -nan  MISS %:       -nan   MPKI: 0
L2C TOTAL     ACCESS:   10071041  HIT:    1640507  MISS:    8430534  HIT %:    16.2893  MISS %:    83.7107   MPKI: 42.1425
L2C LOAD      ACCESS:    2959482  HIT:     300676  MISS:    2658806  HIT %:    10.1598  MISS %:    89.8402   MPKI: 13.2908
L2C RFO       ACCESS:     610819  HIT:         19  MISS:     610800  HIT %: 0.00311058  MISS %:    99.9969   MPKI: 3.05326
L2C PREFETCH  ACCESS:    5251500  HIT:     311654  MISS:    4939846  HIT %:    5.93457  MISS %:    94.0654   MPKI: 24.6933
L2C WRITEBACK ACCESS:     848018  HIT:     814250  MISS:      33768  HIT %:     96.018  MISS %:    3.98199   MPKI: 0.168799
PSCL5 TOTAL     ACCESS:     401097  HIT:     401097  MISS:          0  HIT %:        100  MISS %:          0   MPKI: 0
PSCL5 LOAD      ACCESS:          0  HIT:          0  MISS:          0  HIT %:       -nan  MISS %:       -nan   MPKI: 0
PSCL5 RFO       ACCESS:          0  HIT:          0  MISS:          0  HIT %:       -nan  MISS %:       -nan   MPKI: 0
PSCL5 PREFETCH  ACCESS:          0  HIT:          0  MISS:          0  HIT %:       -nan  MISS %:       -nan   MPKI: 0
PSCL5 WRITEBACK ACCESS:          0  HIT:          0  MISS:          0  HIT %:       -nan  MISS %:       -nan   MPKI: 0
PSCL4 TOTAL     ACCESS:     401097  HIT:     401097  MISS:          0  HIT %:        100  MISS %:          0   MPKI: 0
PSCL4 LOAD      ACCESS:          0  HIT:          0  MISS:          0  HIT %:       -nan  MISS %:       -nan   MPKI: 0
PSCL4 RFO       ACCESS:          0  HIT:          0  MISS:          0  HIT %:       -nan  MISS %:       -nan   MPKI: 0
PSCL4 PREFETCH  ACCESS:          0  HIT:          0  MISS:          0  HIT %:       -nan  MISS %:       -nan   MPKI: 0
PSCL4 WRITEBACK ACCESS:          0  HIT:          0  MISS:          0  HIT %:       -nan  MISS %:       -nan   MPKI: 0
PSCL3 TOTAL     ACCESS:     401097  HIT:     401097  MISS:          0  HIT %:        100  MISS %:          0   MPKI: 0
PSCL3 LOAD      ACCESS:          0  HIT:          0  MISS:          0  HIT %:       -nan  MISS %:       -nan   MPKI: 0
PSCL3 RFO       ACCESS:          0  HIT:          0  MISS:          0  HIT %:       -nan  MISS %:       -nan   MPKI: 0
PSCL3 PREFETCH  ACCESS:          0  HIT:          0  MISS:          0  HIT %:       -nan  MISS %:       -nan   MPKI: 0
PSCL3 WRITEBACK ACCESS:          0  HIT:          0  MISS:          0  HIT %:       -nan  MISS %:       -nan   MPKI: 0
PSCL2 TOTAL     ACCESS:     401097  HIT:     400884  MISS:        213  HIT %:    99.9469  MISS %:  0.0531044   MPKI: 0.00106474
PSCL2 LOAD      ACCESS:          0  HIT:          0  MISS:          0  HIT %:       -nan  MISS %:       -nan   MPKI: 0
PSCL2 RFO       ACCESS:          0  HIT:          0  MISS:          0  HIT %:       -nan  MISS %:       -nan   MPKI: 0
PSCL2 PREFETCH  ACCESS:          0  HIT:          0  MISS:          0  HIT %:       -nan  MISS %:       -nan   MPKI: 0
PSCL2 WRITEBACK ACCESS:          0  HIT:          0  MISS:          0  HIT %:       -nan  MISS %:       -nan   MPKI: 0

stream: 
stream:times selected: 14623987
stream:pref_filled: 4639305
stream:pref_useful: 230235
stream:pref_late: 92473
stream:misses: 1107001
stream:misses_by_poll: 0

CS: 
CS:times selected: 3780644
CS:pref_filled: 2802718
CS:pref_useful: 2539992
CS:pref_late: 217227
CS:misses: 669211
CS:misses_by_poll: 9625

CPLX: 
CPLX:times selected: 10748575
CPLX:pref_filled: 255821
CPLX:pref_useful: 17527
CPLX:pref_late: 2954
CPLX:misses: 3970420
CPLX:misses_by_poll: 257

NL_L1: 
NL:times selected: 71882
NL:pref_filled: 38075
NL:pref_useful: 2157
NL:pref_late: 114
NL:misses: 35249
NL:misses_by_poll: 1

total selections: 29225088
total_filled: 4941488
total_useful: 2009994
total_late: 314467
total_polluted: 9883
total_misses_after_warmup: 3693717
conflicts: 1253
Degree Incremented Times: 703846
Degree Decremented Times: 1948576

L1 IP Table Write Accesses: 137214267
L1 IP Table Read Accesses: 137213014
L1 RST Write Accesses: 38386099
L1 RST Read Accesses: 76772198
L1 CSPT Write Accesses: 38386099
L1 CSPT Read Accesses: 65061789
L1 RR Filter Tag Write Accesses: 45220097
L1 RR Filter Tag Read Accesses: 2137384481
L1 IP Table Tag Write Accesses: 137214617
L1 IP Table Tag Read Accesses: 137214617
L1 RST Tag Write Accesses: 0
L1 RST Tag Read Accesses: 345894968
L1 RR Filter Write Accesses: 0
L1 RR Filter Read Accesses: 74420522
test: 26191837
LLC TOTAL     ACCESS:    9244987  HIT:    2780487  MISS:    6464500  HIT %:    30.0756  MISS %:    69.9244   MPKI: 32.3147
LLC LOAD      ACCESS:    2658806  HIT:     892034  MISS:    1766772  HIT %:    33.5502  MISS %:    66.4498   MPKI: 8.83173
LLC RFO       ACCESS:     610800  HIT:          1  MISS:     610799  HIT %: 0.00016372  MISS %:    99.9998   MPKI: 3.05326
LLC PREFETCH  ACCESS:    4939846  HIT:     910270  MISS:    4029576  HIT %:    18.4271  MISS %:    81.5729   MPKI: 20.143
LLC WRITEBACK ACCESS:     848221  HIT:     808583  MISS:      39638  HIT %:    95.3269  MISS %:    4.67307   MPKI: 0.198142

RAW hits: 310981
Loads Generated: 54470529
Loads sent to L1D: 54159548
Stores Generated: 9213996
Stores sent to L1D: 9213996

CPU 2 cumulative IPC: 0.247889 instructions: 200220383 cycles: 807701416
ITLB TOTAL     ACCESS:   36077059  HIT:   36077049  MISS:         10  HIT %:        100  MISS %: 2.77184e-05   MPKI: 4.9945e-05
ITLB LOAD      ACCESS:          0  HIT:          0  MISS:          0  HIT %:       -nan  MISS %:       -nan   MPKI: 0
ITLB RFO       ACCESS:          0  HIT:          0  MISS:          0  HIT %:       -nan  MISS %:       -nan   MPKI: 0
ITLB PREFETCH  ACCESS:          0  HIT:          0  MISS:          0  HIT %:       -nan  MISS %:       -nan   MPKI: 0
ITLB WRITEBACK ACCESS:          0  HIT:          0  MISS:          0  HIT %:       -nan  MISS %:       -nan   MPKI: 0
DTLB TOTAL     ACCESS:   38464996  HIT:   36053820  MISS:    2411176  HIT %:    93.7315  MISS %:    6.26849   MPKI: 12.0426
DTLB LOAD      ACCESS:          0  HIT:          0  MISS:          0  HIT %:       -nan  MISS %:       -nan   MPKI: 0
DTLB RFO       ACCESS:          0  HIT:          0  MISS:          0  HIT %:       -nan  MISS %:       -nan   MPKI: 0
DTLB PREFETCH  ACCESS:          0  HIT:          0  MISS:          0  HIT %:       -nan  MISS %:       -nan   MPKI: 0
DTLB WRITEBACK ACCESS:          0  HIT:          0  MISS:          0  HIT %:       -nan  MISS %:       -nan   MPKI: 0
STLB TOTAL     ACCESS:    9373833  HIT:    8972205  MISS:     401628  HIT %:    95.7154  MISS %:    4.28457   MPKI: 2.00593
STLB LOAD      ACCESS:          0  HIT:          0  MISS:          0  HIT %:       -nan  MISS %:       -nan   MPKI: 0
STLB RFO       ACCESS:          0  HIT:          0  MISS:          0  HIT %:       -nan  MISS %:       -nan   MPKI: 0
STLB PREFETCH  ACCESS:          0  HIT:          0  MISS:          0  HIT %:       -nan  MISS %:       -nan   MPKI: 0
STLB WRITEBACK ACCESS:          0  HIT:          0  MISS:          0  HIT %:       -nan  MISS %:       -nan   MPKI: 0
L1D TOTAL     ACCESS:   50751870  HIT:   41910249  MISS:    8841621  HIT %:    82.5787  MISS %:    17.4213   MPKI: 44.1594
L1D LOAD      ACCESS:   33882423  HIT:   30602642  MISS:    3279781  HIT %:    90.3201  MISS %:    9.67989   MPKI: 16.3809
L1D RFO       ACCESS:    6226143  HIT:    5615288  MISS:     610855  HIT %:    90.1889  MISS %:    9.81113   MPKI: 3.05091
L1D PREFETCH  ACCESS:   10643304  HIT:    5692319  MISS:    4950985  HIT %:    53.4826  MISS %:    46.5174   MPKI: 24.7277
L1D WRITEBACK ACCESS:          0  HIT:          0  MISS:          0  HIT %:       -nan  MISS %:       -nan   MPKI: 0
L1I TOTAL     ACCESS:   43561716  HIT:   43561572  MISS:        144  HIT %:    99.9997  MISS %: 0.000330565   MPKI: 0.000719207
L1I LOAD      ACCESS:   43561716  HIT:   43561572  MISS:        144  HIT %:    99.9997  MISS %: 0.000330565   MPKI: 0.000719207
L1I RFO       ACCESS:          0  HIT:          0  MISS:          0  HIT %:       -nan  MISS %:       -nan   MPKI: 0
L1I PREFETCH  ACCESS:          0  HIT:          0  MISS:          0  HIT %:       -nan  MISS %:       -nan   MPKI: 0
L1I WRITEBACK ACCESS:          0  HIT:          0  MISS:          0  HIT %:       -nan  MISS %:       -nan   MPKI: 0
L2C TOTAL     ACCESS:   10091894  HIT:    1649416  MISS:    8442478  HIT %:     16.344  MISS %:     83.656   MPKI: 42.1659
L2C LOAD      ACCESS:    2967723  HIT:     304258  MISS:    2663465  HIT %:    10.2522  MISS %:    89.7478   MPKI: 13.3027
L2C RFO       ACCESS:     610855  HIT:         21  MISS:     610834  HIT %:  0.0034378  MISS %:    99.9966   MPKI: 3.05081
L2C PREFETCH  ACCESS:    5263187  HIT:     315013  MISS:    4948174  HIT %:    5.98521  MISS %:    94.0148   MPKI: 24.7136
L2C WRITEBACK ACCESS:     848375  HIT:     814924  MISS:      33451  HIT %:    96.0571  MISS %:    3.94295   MPKI: 0.167071
PSCL5 TOTAL     ACCESS:     401628  HIT:     401628  MISS:          0  HIT %:        100  MISS %:          0   MPKI: 0
PSCL5 LOAD      ACCESS:          0  HIT:          0  MISS:          0  HIT %:       -nan  MISS %:       -nan   MPKI: 0
PSCL5 RFO       ACCESS:          0  HIT:          0  MISS:          0  HIT %:       -nan  MISS %:       -nan   MPKI: 0
PSCL5 PREFETCH  ACCESS:          0  HIT:          0  MISS:          0  HIT %:       -nan  MISS %:       -nan   MPKI: 0
PSCL5 WRITEBACK ACCESS:          0  HIT:          0  MISS:          0  HIT %:       -nan  MISS %:       -nan   MPKI: 0
PSCL4 TOTAL     ACCESS:     401628  HIT:     401628  MISS:          0  HIT %:        100  MISS %:          0   MPKI: 0
PSCL4 LOAD      ACCESS:          0  HIT:          0  MISS:          0  HIT %:       -nan  MISS %:       -nan   MPKI: 0
PSCL4 RFO       ACCESS:          0  HIT:          0  MISS:          0  HIT %:       -nan  MISS %:       -nan   MPKI: 0
PSCL4 PREFETCH  ACCESS:          0  HIT:          0  MISS:          0  HIT %:       -nan  MISS %:       -nan   MPKI: 0
PSCL4 WRITEBACK ACCESS:          0  HIT:          0  MISS:          0  HIT %:       -nan  MISS %:       -nan   MPKI: 0
PSCL3 TOTAL     ACCESS:     401628  HIT:     401628  MISS:          0  HIT %:        100  MISS %:          0   MPKI: 0
PSCL3 LOAD      ACCESS:          0  HIT:          0  MISS:          0  HIT %:       -nan  MISS %:       -nan   MPKI: 0
PSCL3 RFO       ACCESS:          0  HIT:          0  MISS:          0  HIT %:       -nan  MISS %:       -nan   MPKI: 0
PSCL3 PREFETCH  ACCESS:          0  HIT:          0  MISS:          0  HIT %:       -nan  MISS %:       -nan   MPKI: 0
PSCL3 WRITEBACK ACCESS:          0  HIT:          0  MISS:          0  HIT %:       -nan  MISS %:       -nan   MPKI: 0
PSCL2 TOTAL     ACCESS:     401628  HIT:     401414  MISS:        214  HIT %:    99.9467  MISS %:  0.0532831   MPKI: 0.00106882
PSCL2 LOAD      ACCESS:          0  HIT:          0  MISS:          0  HIT %:       -nan  MISS %:       -nan   MPKI: 0
PSCL2 RFO       ACCESS:          0  HIT:          0  MISS:          0  HIT %:       -nan  MISS %:       -nan   MPKI: 0
PSCL2 PREFETCH  ACCESS:          0  HIT:          0  MISS:          0  HIT %:       -nan  MISS %:       -nan   MPKI: 0
PSCL2 WRITEBACK ACCESS:          0  HIT:          0  MISS:          0  HIT %:       -nan  MISS %:       -nan   MPKI: 0

stream: 
stream:times selected: 14644011
stream:pref_filled: 4648037
stream:pref_useful: 243005
stream:pref_late: 92230
stream:misses: 1109744
stream:misses_by_poll: 0

CS: 
CS:times selected: 3782938
CS:pref_filled: 2781250
CS:pref_useful: 2518365
CS:pref_late: 219716
CS:misses: 696374
CS:misses_by_poll: 9788

CPLX: 
CPLX:times selected: 10766069
CPLX:pref_filled: 255101
CPLX:pref_useful: 17423
CPLX:pref_late: 3017
CPLX:misses: 3976656
CPLX:misses_by_poll: 256

NL_L1: 
NL:times selected: 71940
NL:pref_filled: 37989
NL:pref_useful: 2125
NL:pref_late: 125
NL:misses: 35124
NL:misses_by_poll: 2

total selections: 29264958
total_filled: 4950985
total_useful: 2011177
total_late: 316758
total_polluted: 10046
total_misses_after_warmup: 3716588
conflicts: 1253
Degree Incremented Times: 703846
Degree Decremented Times: 1948576

L1 IP Table Write Accesses: 137214267
L1 IP Table Read Accesses: 137213014
L1 RST Write Accesses: 38386099
L1 RST Read Accesses: 76772198
L1 CSPT Write Accesses: 38386099
L1 CSPT Read Accesses: 65061789
L1 RR Filter Tag Write Accesses: 45220097
L1 RR Filter Tag Read Accesses: 2137384481
L1 IP Table Tag Write Accesses: 137214617
L1 IP Table Tag Read Accesses: 137214617
L1 RST Tag Write Accesses: 0
L1 RST Tag Read Accesses: 345894968
L1 RR Filter Write Accesses: 0
L1 RR Filter Read Accesses: 74420522
test: 26191837
LLC TOTAL     ACCESS:    9257484  HIT:    2799818  MISS:    6457666  HIT %:    30.2438  MISS %:    69.7562   MPKI: 32.2528
LLC LOAD      ACCESS:    2663465  HIT:     902717  MISS:    1760748  HIT %:    33.8926  MISS %:    66.1074   MPKI: 8.79405
LLC RFO       ACCESS:     610834  HIT:          3  MISS:     610831  HIT %: 0.000491132  MISS %:    99.9995   MPKI: 3.05079
LLC PREFETCH  ACCESS:    4948174  HIT:     919588  MISS:    4028586  HIT %:    18.5844  MISS %:    81.4156   MPKI: 20.1208
LLC WRITEBACK ACCESS:     848457  HIT:     808866  MISS:      39591  HIT %:    95.3338  MISS %:    4.66624   MPKI: 0.197737

RAW hits: 311146
Loads Generated: 54530270
Loads sent to L1D: 54219124
Stores Generated: 9219864
Stores sent to L1D: 9219864

CPU 3 cumulative IPC: 0.247625 instructions: 200007279 cycles: 807701416
ITLB TOTAL     ACCESS:   36041145  HIT:   36041135  MISS:         10  HIT %:        100  MISS %: 2.77461e-05   MPKI: 4.99982e-05
ITLB LOAD      ACCESS:          0  HIT:          0  MISS:          0  HIT %:       -nan  MISS %:       -nan   MPKI: 0
ITLB RFO       ACCESS:          0  HIT:          0  MISS:          0  HIT %:       -nan  MISS %:       -nan   MPKI: 0
ITLB PREFETCH  ACCESS:          0  HIT:          0  MISS:          0  HIT %:       -nan  MISS %:       -nan   MPKI: 0
ITLB WRITEBACK ACCESS:          0  HIT:          0  MISS:          0  HIT %:       -nan  MISS %:       -nan   MPKI: 0
DTLB TOTAL     ACCESS:   38427691  HIT:   36026478  MISS:    2401213  HIT %:    93.7513  MISS %:    6.24865   MPKI: 12.0056
DTLB LOAD      ACCESS:          0  HIT:          0  MISS:          0  HIT %:       -nan  MISS %:       -nan   MPKI: 0
DTLB RFO       ACCESS:          0  HIT:          0  MISS:          0  HIT %:       -nan  MISS %:       -nan   MPKI: 0
DTLB PREFETCH  ACCESS:          0  HIT:          0  MISS:          0  HIT %:       -nan  MISS %:       -nan   MPKI: 0
DTLB WRITEBACK ACCESS:          0  HIT:          0  MISS:          0  HIT %:       -nan  MISS %:       -nan   MPKI: 0
STLB TOTAL     ACCESS:    9343539  HIT:    8942787  MISS:     400752  HIT %:    95.7109  MISS %:    4.28908   MPKI: 2.00369
STLB LOAD      ACCESS:          0  HIT:          0  MISS:          0  HIT %:       -nan  MISS %:       -nan   MPKI: 0
STLB RFO       ACCESS:          0  HIT:          0  MISS:          0  HIT %:       -nan  MISS %:       -nan   MPKI: 0
STLB PREFETCH  ACCESS:          0  HIT:          0  MISS:          0  HIT %:       -nan  MISS %:       -nan   MPKI: 0
STLB WRITEBACK ACCESS:          0  HIT:          0  MISS:          0  HIT %:       -nan  MISS %:       -nan   MPKI: 0
L1D TOTAL     ACCESS:   50681719  HIT:   41863661  MISS:    8818058  HIT %:    82.6011  MISS %:    17.3989   MPKI: 44.0887
L1D LOAD      ACCESS:   33868110  HIT:   30601134  MISS:    3266976  HIT %:    90.3538  MISS %:    9.64617   MPKI: 16.3343
L1D RFO       ACCESS:    6190592  HIT:    5579781  MISS:     610811  HIT %:    90.1332  MISS %:    9.86676   MPKI: 3.05394
L1D PREFETCH  ACCESS:   10623017  HIT:    5682746  MISS:    4940271  HIT %:    53.4947  MISS %:    46.5053   MPKI: 24.7005
L1D WRITEBACK ACCESS:          0  HIT:          0  MISS:          0  HIT %:       -nan  MISS %:       -nan   MPKI: 0
L1I TOTAL     ACCESS:   43505530  HIT:   43505386  MISS:        144  HIT %:    99.9997  MISS %: 0.000330992   MPKI: 0.000719974
L1I LOAD      ACCESS:   43505530  HIT:   43505386  MISS:        144  HIT %:    99.9997  MISS %: 0.000330992   MPKI: 0.000719974
L1I RFO       ACCESS:          0  HIT:          0  MISS:          0  HIT %:       -nan  MISS %:       -nan   MPKI: 0
L1I PREFETCH  ACCESS:          0  HIT:          0  MISS:          0  HIT %:       -nan  MISS %:       -nan   MPKI: 0
L1I WRITEBACK ACCESS:          0  HIT:          0  MISS:          0  HIT %:       -nan  MISS %:       -nan   MPKI: 0
L2C TOTAL     ACCESS:   10067017  HIT:    1636515  MISS:    8430502  HIT %:    16.2562  MISS %:    83.7438   MPKI: 42.151
L2C LOAD      ACCESS:    2956704  HIT:     297537  MISS:    2659167  HIT %:    10.0631  MISS %:    89.9369   MPKI: 13.2954
L2C RFO       ACCESS:     610811  HIT:         19  MISS:     610792  HIT %: 0.00311062  MISS %:    99.9969   MPKI: 3.05385
L2C PREFETCH  ACCESS:    5250687  HIT:     308562  MISS:    4942125  HIT %:     5.8766  MISS %:    94.1234   MPKI: 24.7097
L2C WRITEBACK ACCESS:     847938  HIT:     813711  MISS:      34227  HIT %:    95.9635  MISS %:     4.0365   MPKI: 0.171129
PSCL5 TOTAL     ACCESS:     400752  HIT:     400752  MISS:          0  HIT %:        100  MISS %:          0   MPKI: 0
PSCL5 LOAD      ACCESS:          0  HIT:          0  MISS:          0  HIT %:       -nan  MISS %:       -nan   MPKI: 0
PSCL5 RFO       ACCESS:          0  HIT:          0  MISS:          0  HIT %:       -nan  MISS %:       -nan   MPKI: 0
PSCL5 PREFETCH  ACCESS:          0  HIT:          0  MISS:          0  HIT %:       -nan  MISS %:       -nan   MPKI: 0
PSCL5 WRITEBACK ACCESS:          0  HIT:          0  MISS:          0  HIT %:       -nan  MISS %:       -nan   MPKI: 0
PSCL4 TOTAL     ACCESS:     400752  HIT:     400752  MISS:          0  HIT %:        100  MISS %:          0   MPKI: 0
PSCL4 LOAD      ACCESS:          0  HIT:          0  MISS:          0  HIT %:       -nan  MISS %:       -nan   MPKI: 0
PSCL4 RFO       ACCESS:          0  HIT:          0  MISS:          0  HIT %:       -nan  MISS %:       -nan   MPKI: 0
PSCL4 PREFETCH  ACCESS:          0  HIT:          0  MISS:          0  HIT %:       -nan  MISS %:       -nan   MPKI: 0
PSCL4 WRITEBACK ACCESS:          0  HIT:          0  MISS:          0  HIT %:       -nan  MISS %:       -nan   MPKI: 0
PSCL3 TOTAL     ACCESS:     400752  HIT:     400752  MISS:          0  HIT %:        100  MISS %:          0   MPKI: 0
PSCL3 LOAD      ACCESS:          0  HIT:          0  MISS:          0  HIT %:       -nan  MISS %:       -nan   MPKI: 0
PSCL3 RFO       ACCESS:          0  HIT:          0  MISS:          0  HIT %:       -nan  MISS %:       -nan   MPKI: 0
PSCL3 PREFETCH  ACCESS:          0  HIT:          0  MISS:          0  HIT %:       -nan  MISS %:       -nan   MPKI: 0
PSCL3 WRITEBACK ACCESS:          0  HIT:          0  MISS:          0  HIT %:       -nan  MISS %:       -nan   MPKI: 0
PSCL2 TOTAL     ACCESS:     400752  HIT:     400539  MISS:        213  HIT %:    99.9468  MISS %:  0.0531501   MPKI: 0.00106496
PSCL2 LOAD      ACCESS:          0  HIT:          0  MISS:          0  HIT %:       -nan  MISS %:       -nan   MPKI: 0
PSCL2 RFO       ACCESS:          0  HIT:          0  MISS:          0  HIT %:       -nan  MISS %:       -nan   MPKI: 0
PSCL2 PREFETCH  ACCESS:          0  HIT:          0  MISS:          0  HIT %:       -nan  MISS %:       -nan   MPKI: 0
PSCL2 WRITEBACK ACCESS:          0  HIT:          0  MISS:          0  HIT %:       -nan  MISS %:       -nan   MPKI: 0

stream: 
stream:times selected: 14619414
stream:pref_filled: 4649121
stream:pref_useful: 232375
stream:pref_late: 92329
stream:misses: 1107287
stream:misses_by_poll: 0

CS: 
CS:times selected: 3779603
CS:pref_filled: 2801397
CS:pref_useful: 2538507
CS:pref_late: 217666
CS:misses: 664866
CS:misses_by_poll: 9568

CPLX: 
CPLX:times selected: 10745019
CPLX:pref_filled: 255322
CPLX:pref_useful: 17198
CPLX:pref_late: 2987
CPLX:misses: 3968480
CPLX:misses_by_poll: 281

NL_L1: 
NL:times selected: 71832
NL:pref_filled: 38172
NL:pref_useful: 2095
NL:pref_late: 113
NL:misses: 35163
NL:misses_by_poll: 3

total selections: 29215868
total_filled: 4940271
total_useful: 2009788
total_late: 314844
total_polluted: 9852
total_misses_after_warmup: 3687807
conflicts: 1253
Degree Incremented Times: 703846
Degree Decremented Times: 1948576

L1 IP Table Write Accesses: 137214267
L1 IP Table Read Accesses: 137213014
L1 RST Write Accesses: 38386099
L1 RST Read Accesses: 76772198
L1 CSPT Write Accesses: 38386099
L1 CSPT Read Accesses: 65061789
L1 RR Filter Tag Write Accesses: 45220097
L1 RR Filter Tag Read Accesses: 2137384481
L1 IP Table Tag Write Accesses: 137214617
L1 IP Table Tag Read Accesses: 137214617
L1 RST Tag Write Accesses: 0
L1 RST Tag Read Accesses: 345894968
L1 RR Filter Write Accesses: 0
L1 RR Filter Read Accesses: 74420522
test: 26191837
LLC TOTAL     ACCESS:    9244470  HIT:    2770631  MISS:    6473839  HIT %:    29.9707  MISS %:    70.0293   MPKI: 32.368
LLC LOAD      ACCESS:    2659167  HIT:     890197  MISS:    1768970  HIT %:    33.4765  MISS %:    66.5235   MPKI: 8.84453
LLC RFO       ACCESS:     610792  HIT:          7  MISS:     610785  HIT %: 0.00114605  MISS %:    99.9989   MPKI: 3.05381
LLC PREFETCH  ACCESS:    4942126  HIT:     908169  MISS:    4033957  HIT %:    18.3761  MISS %:    81.6239   MPKI: 20.1691
LLC WRITEBACK ACCESS:     848194  HIT:     806939  MISS:      41255  HIT %:    95.1361  MISS %:    4.86386   MPKI: 0.206267

RAW hits: 311144
Loads Generated: 54455826
Loads sent to L1D: 54144682
Stores Generated: 9212513
Stores sent to L1D: 9212520

Region of Interest Statistics

CPU 0 cumulative IPC: 0.247616 instructions: 200000000 cycles: 807701416
ITLB TOTAL     ACCESS:   36040794  HIT:   36040784  MISS:         10  HIT %:        100  MISS %: 2.77463e-05   MPKI: 5e-05
ITLB LOAD TRANSLATION ACCESS:   36040794  HIT:   36040784  MISS:         10  HIT %:        100  MISS %: 2.77463e-05   MPKI: 5e-05
ITLB PREFETCH  REQUESTED:          0  ISSUED:          0  USEFUL:          0  USELESS:          0
ITLB USEFUL LOAD PREFETCHES:          0 PREFETCH ISSUED TO LOWER LEVEL:          0  ACCURACY: -nan
ITLB TIMELY PREFETCHES:          0 LATE PREFETCHES: 0 DROPPED PREFETCHES: 0
ITLB PREFETCHES SAME FILL-ORIGIN LEVEL: 0 DIFFERENT FILL-ORIGIN LEVEL: 0
ITLB AVERAGE MISS LATENCY: 466.5 cycles
ITLB RQ	ACCESS:   43504601	FORWARD:          0	MERGED:    7463804	TO_CACHE:   36040797

DTLB TOTAL     ACCESS:   38429409  HIT:   36028465  MISS:    2400944  HIT %:    93.7523  MISS %:    6.24767   MPKI: 12.0047
DTLB LOAD TRANSLATION ACCESS:   38429409  HIT:   36028465  MISS:    2400944  HIT %:    93.7523  MISS %:    6.24767   MPKI: 12.0047
DTLB PREFETCH  REQUESTED:          0  ISSUED:          0  USEFUL:          0  USELESS:          0
DTLB USEFUL LOAD PREFETCHES:          0 PREFETCH ISSUED TO LOWER LEVEL:          0  ACCURACY: -nan
DTLB TIMELY PREFETCHES:          0 LATE PREFETCHES: 0 DROPPED PREFETCHES: 0
DTLB PREFETCHES SAME FILL-ORIGIN LEVEL: 0 DIFFERENT FILL-ORIGIN LEVEL: 0
DTLB AVERAGE MISS LATENCY: 20.8762 cycles
DTLB RQ	ACCESS:   43448337	FORWARD:          0	MERGED:    4930663	TO_CACHE:   38517674

STLB TOTAL     ACCESS:    9333170  HIT:    8932352  MISS:     400818  HIT %:    95.7054  MISS %:    4.29455   MPKI: 2.00409
STLB LOAD TRANSLATION ACCESS:    2400955  HIT:    2000137  MISS:     400818  HIT %:    83.3059  MISS %:    16.6941   MPKI: 2.00409
STLB TRANSLATION FROM L1D PREFETCHER ACCESS:    6932215  HIT:    6932215  MISS:          0  HIT %:        100  MISS %:          0   MPKI: 0
STLB PREFETCH  REQUESTED:          0  ISSUED:          0  USEFUL:          0  USELESS:          0
STLB USEFUL LOAD PREFETCHES:          0 PREFETCH ISSUED TO LOWER LEVEL:          0  ACCURACY: -nan
STLB TIMELY PREFETCHES:          0 LATE PREFETCHES: 0 DROPPED PREFETCHES: 0
STLB PREFETCHES SAME FILL-ORIGIN LEVEL: 0 DIFFERENT FILL-ORIGIN LEVEL: 0
STLB AVERAGE MISS LATENCY: 69.5355 cycles
STLB RQ	ACCESS:   13685111	FORWARD:          0	MERGED:    4351938	TO_CACHE:    9333173

STLB Hit, L1D data hit: 0
STLB Hit, L2C data hit: 0
STLB Hit, LLC data hit: 0
STLB Hit, LLC data miss: 0
STLB STLB hints to L2: 0
L1D TOTAL     ACCESS:   50669305  HIT:   41852559  MISS:    8816746  HIT %:    82.5994  MISS %:    17.4006   MPKI: 44.0837
L1D LOAD      ACCESS:   33871239  HIT:   30604760  MISS:    3266479  HIT %:    90.3562  MISS %:    9.64381   MPKI: 16.3324
L1D RFO       ACCESS:    6192743  HIT:    5581935  MISS:     610808  HIT %:    90.1367  MISS %:    9.86329   MPKI: 3.05404
L1D PREFETCH  ACCESS:   10605323  HIT:    5665864  MISS:    4939459  HIT %:    53.4247  MISS %:    46.5753   MPKI: 24.6973
L1D PREFETCH  REQUESTED:   22573081  ISSUED:   22568373  USEFUL:    2009929  USELESS:    2929526
L1D USEFUL LOAD PREFETCHES:    2009929 PREFETCH ISSUED TO LOWER LEVEL:    5249823  ACCURACY: 38.2857
L1D TIMELY PREFETCHES:    2009929 LATE PREFETCHES: 310363 DROPPED PREFETCHES: 0
L1D PREFETCHES SAME FILL-ORIGIN LEVEL: 5249823 DIFFERENT FILL-ORIGIN LEVEL: 0
L1D AVERAGE MISS LATENCY: 317.357 cycles
L1D RQ	ACCESS:   54142084	FORWARD:          0	MERGED:   19847090	TO_CACHE:   34290133
L1D WQ	ACCESS:    9212194	FORWARD:       4861	MERGED:      53990	TO_CACHE:    9158204
L1D PQ	ACCESS:   11284220	FORWARD:          0	MERGED:         67	TO_CACHE:   11284153

L1D UNIQUE REGIONS ACCESSED: 0
L1D REGIONS CONFLICTS: 0
L1D Cross Page Prefetch Requests: 0
L1D Same Page Prefetch Requests: 17358714
L1D ROI Sum of L1D PQ occupancy: 161736872
L1D PREFETCHES PUSHED FROM L2C: 0
L1I TOTAL     ACCESS:   43504579  HIT:   43504435  MISS:        144  HIT %:    99.9997  MISS %:   0.000331   MPKI: 0.00072
L1I LOAD      ACCESS:   43504579  HIT:   43504435  MISS:        144  HIT %:    99.9997  MISS %:   0.000331   MPKI: 0.00072
L1I PREFETCH  REQUESTED:          0  ISSUED:          0  USEFUL:          0  USELESS:          0
L1I USEFUL LOAD PREFETCHES:          0 PREFETCH ISSUED TO LOWER LEVEL:          0  ACCURACY: -nan
L1I TIMELY PREFETCHES:          0 LATE PREFETCHES: 0 DROPPED PREFETCHES: 0
L1I PREFETCHES SAME FILL-ORIGIN LEVEL: 0 DIFFERENT FILL-ORIGIN LEVEL: 0
L1I AVERAGE MISS LATENCY: 322.417 cycles
L1I RQ	ACCESS:   68441404	FORWARD:          0	MERGED:   24936803	TO_CACHE:   43504601

BTB TOTAL     ACCESS:   49533498  HIT:   49533287  MISS:        211  HIT %:    99.9996  MISS %: 0.000425974   MPKI: 0.001055
BTB BRANCH_DIRECT_JUMP	ACCESS:    1688002  HIT:    1687969  MISS:         33
BTB BRANCH_INDIRECT	ACCESS:          0  HIT:          0  MISS:          0
BTB BRANCH_CONDITIONAL	ACCESS:   47845412  HIT:   47845297  MISS:        115
BTB BRANCH_DIRECT_CALL	ACCESS:         42  HIT:         12  MISS:         30
BTB BRANCH_INDIRECT_CALL	ACCESS:          0  HIT:          0  MISS:          0
BTB BRANCH_RETURN	ACCESS:         42  HIT:          9  MISS:         33
BTB BRANCH_OTHER ACCESS:          0  HIT:          0  MISS:          0

L2C TOTAL     ACCESS:   10065744  HIT:    1640346  MISS:    8425398  HIT %:    16.2963  MISS %:    83.7037   MPKI: 42.127
L2C LOAD      ACCESS:    2956260  HIT:     301272  MISS:    2654988  HIT %:     10.191  MISS %:     89.809   MPKI: 13.2749
L2C DATA LOAD MPKI: 13.2742
L2C INSTRUCTION LOAD MPKI: 0.00072
L2C RFO       ACCESS:     610808  HIT:         19  MISS:     610789  HIT %: 0.00311063  MISS %:    99.9969   MPKI: 3.05395
L2C PREFETCH  ACCESS:    5249822  HIT:     311600  MISS:    4938222  HIT %:    5.93544  MISS %:    94.0646   MPKI: 24.6911
L2C DATA PREFETCH MPKI: 24.6911
L2C INSTRUCTION PREFETCH MPKI: 0
L2C WRITEBACK ACCESS:     847911  HIT:     814016  MISS:      33895  HIT %:    96.0025  MISS %:    3.99747   MPKI: 0.169475
L2C LOAD TRANSLATION ACCESS:     400943  HIT:     213439  MISS:     187504  HIT %:    53.2343  MISS %:    46.7657   MPKI: 0.93752
L2C PREFETCH  REQUESTED:          0  ISSUED:          0  USEFUL:     113797  USELESS:    4822628
L2C USEFUL LOAD PREFETCHES:     113797 PREFETCH ISSUED TO LOWER LEVEL:    4938223  ACCURACY: 2.30441
L2C TIMELY PREFETCHES:     113797 LATE PREFETCHES: 0 DROPPED PREFETCHES: 0
L2C PREFETCHES SAME FILL-ORIGIN LEVEL: 0 DIFFERENT FILL-ORIGIN LEVEL: 0
L2C AVERAGE MISS LATENCY: 350.108 cycles
L2C RQ	ACCESS:    3968011	FORWARD:          0	MERGED:          0	TO_CACHE:    3968011
L2C WQ	ACCESS:     847911	FORWARD:          0	MERGED:          0	TO_CACHE:     847911
L2C PQ	ACCESS:    5249823	FORWARD:          0	MERGED:          0	TO_CACHE:    5249823

L2C Instructions Evicting Data 141
L2C Translations Evicting Data 178335
L2C Data Evicting Data 8025582
L2C Instructions Evicting Instructions 0
L2C Translations Evicting Instructions 1
L2C Data Evicting Instructions 143
L2C Instructions Evicting Translations 3
L2C Translations Evicting Translations 9168
L2C Data Evicting Translations 178130
L2C Dense regions hint from L2: 0
PSCL5 TOTAL     ACCESS:     400818  HIT:     400818  MISS:          0  HIT %:        100  MISS %:          0   MPKI: 0
PSCL5 LOAD TRANSLATION ACCESS:     400818  HIT:     400818  MISS:          0  HIT %:        100  MISS %:          0   MPKI: 0
PSCL5 PREFETCH  REQUESTED:          0  ISSUED:          0  USEFUL:          0  USELESS:          0
PSCL5 USEFUL LOAD PREFETCHES:          0 PREFETCH ISSUED TO LOWER LEVEL:          0  ACCURACY: -nan
PSCL5 TIMELY PREFETCHES:          0 LATE PREFETCHES: 0 DROPPED PREFETCHES: 0
PSCL5 PREFETCHES SAME FILL-ORIGIN LEVEL: 0 DIFFERENT FILL-ORIGIN LEVEL: 0

PSCL4 TOTAL     ACCESS:     400818  HIT:     400818  MISS:          0  HIT %:        100  MISS %:          0   MPKI: 0
PSCL4 LOAD TRANSLATION ACCESS:     400818  HIT:     400818  MISS:          0  HIT %:        100  MISS %:          0   MPKI: 0
PSCL4 PREFETCH  REQUESTED:          0  ISSUED:          0  USEFUL:          0  USELESS:          0
PSCL4 USEFUL LOAD PREFETCHES:          0 PREFETCH ISSUED TO LOWER LEVEL:          0  ACCURACY: -nan
PSCL4 TIMELY PREFETCHES:          0 LATE PREFETCHES: 0 DROPPED PREFETCHES: 0
PSCL4 PREFETCHES SAME FILL-ORIGIN LEVEL: 0 DIFFERENT FILL-ORIGIN LEVEL: 0

PSCL3 TOTAL     ACCESS:     400818  HIT:     400818  MISS:          0  HIT %:        100  MISS %:          0   MPKI: 0
PSCL3 LOAD TRANSLATION ACCESS:     400818  HIT:     400818  MISS:          0  HIT %:        100  MISS %:          0   MPKI: 0
PSCL3 PREFETCH  REQUESTED:          0  ISSUED:          0  USEFUL:          0  USELESS:          0
PSCL3 USEFUL LOAD PREFETCHES:          0 PREFETCH ISSUED TO LOWER LEVEL:          0  ACCURACY: -nan
PSCL3 TIMELY PREFETCHES:          0 LATE PREFETCHES: 0 DROPPED PREFETCHES: 0
PSCL3 PREFETCHES SAME FILL-ORIGIN LEVEL: 0 DIFFERENT FILL-ORIGIN LEVEL: 0

PSCL2 TOTAL     ACCESS:     400818  HIT:     400605  MISS:        213  HIT %:    99.9469  MISS %:  0.0531413   MPKI: 0.001065
PSCL2 LOAD TRANSLATION ACCESS:     400818  HIT:     400605  MISS:        213  HIT %:    99.9469  MISS %:  0.0531413   MPKI: 0.001065
PSCL2 PREFETCH  REQUESTED:          0  ISSUED:          0  USEFUL:          0  USELESS:          0
PSCL2 USEFUL LOAD PREFETCHES:          0 PREFETCH ISSUED TO LOWER LEVEL:          0  ACCURACY: -nan
PSCL2 TIMELY PREFETCHES:          0 LATE PREFETCHES: 0 DROPPED PREFETCHES: 0
PSCL2 PREFETCHES SAME FILL-ORIGIN LEVEL: 0 DIFFERENT FILL-ORIGIN LEVEL: 0

LLC TOTAL     ACCESS:    9239684  HIT:    2771932  MISS:    6467752  HIT %:    30.0003  MISS %:    69.9997   MPKI: 32.3388
LLC LOAD      ACCESS:    2654988  HIT:     887939  MISS:    1767049  HIT %:    33.4442  MISS %:    66.5558   MPKI: 8.83525
LLC RFO       ACCESS:     610789  HIT:          4  MISS:     610785  HIT %: 0.000654891  MISS %:    99.9993   MPKI: 3.05393
LLC PREFETCH  ACCESS:    4938222  HIT:     907468  MISS:    4030754  HIT %:    18.3764  MISS %:    81.6236   MPKI: 20.1538
LLC WRITEBACK ACCESS:     848181  HIT:     807488  MISS:      40693  HIT %:    95.2023  MISS %:    4.79768   MPKI: 0.203465
LLC LOAD TRANSLATION ACCESS:     187504  HIT:     169033  MISS:      18471  HIT %:     90.149  MISS %:    9.85099   MPKI: 0.092355
LLC PREFETCH  REQUESTED:          0  ISSUED:          0  USEFUL:     689981  USELESS:   15367376
LLC USEFUL LOAD PREFETCHES:     689981 PREFETCH ISSUED TO LOWER LEVEL:   16148611  ACCURACY: 4.2727
LLC TIMELY PREFETCHES:     689981 LATE PREFETCHES: 0 DROPPED PREFETCHES: 0
LLC PREFETCHES SAME FILL-ORIGIN LEVEL: 0 DIFFERENT FILL-ORIGIN LEVEL: 0
LLC AVERAGE MISS LATENCY: 1666.87 cycles
LLC RQ	ACCESS:   13825209	FORWARD:          0	MERGED:          0	TO_CACHE:   13825209
LLC WQ	ACCESS:    3393054	FORWARD:          0	MERGED:          0	TO_CACHE:    3393054
LLC PQ	ACCESS:   19768383	FORWARD:          0	MERGED:          0	TO_CACHE:   19768383

LLC Dense regions hint to LLC: 0

RAW hits: 311096
Loads Generated: 54453181
Loads sent to L1D: 54142084
Stores Generated: 9212195
Stores sent to L1D: 9212194
Major fault: 0 Minor fault: 55322
Allocated PAGES: 221288

CPU 1 cumulative IPC: 0.247746 instructions: 200000001 cycles: 807279656
ITLB TOTAL     ACCESS:   36038891  HIT:   36038881  MISS:         10  HIT %:        100  MISS %: 2.77478e-05   MPKI: 5e-05
ITLB LOAD TRANSLATION ACCESS:   36038891  HIT:   36038881  MISS:         10  HIT %:        100  MISS %: 2.77478e-05   MPKI: 5e-05
ITLB PREFETCH  REQUESTED:          0  ISSUED:          0  USEFUL:          0  USELESS:          0
ITLB USEFUL LOAD PREFETCHES:          0 PREFETCH ISSUED TO LOWER LEVEL:          0  ACCURACY: -nan
ITLB TIMELY PREFETCHES:          0 LATE PREFETCHES: 0 DROPPED PREFETCHES: 0
ITLB PREFETCHES SAME FILL-ORIGIN LEVEL: 0 DIFFERENT FILL-ORIGIN LEVEL: 0
ITLB AVERAGE MISS LATENCY: 549.6 cycles
ITLB RQ	ACCESS:   43516224	FORWARD:          0	MERGED:    7469008	TO_CACHE:   36047216

DTLB TOTAL     ACCESS:   38427109  HIT:   36026235  MISS:    2400874  HIT %:    93.7521  MISS %:    6.24787   MPKI: 12.0044
DTLB LOAD TRANSLATION ACCESS:   38427109  HIT:   36026235  MISS:    2400874  HIT %:    93.7521  MISS %:    6.24787   MPKI: 12.0044
DTLB PREFETCH  REQUESTED:          0  ISSUED:          0  USEFUL:          0  USELESS:          0
DTLB USEFUL LOAD PREFETCHES:          0 PREFETCH ISSUED TO LOWER LEVEL:          0  ACCURACY: -nan
DTLB TIMELY PREFETCHES:          0 LATE PREFETCHES: 0 DROPPED PREFETCHES: 0
DTLB PREFETCHES SAME FILL-ORIGIN LEVEL: 0 DIFFERENT FILL-ORIGIN LEVEL: 0
DTLB AVERAGE MISS LATENCY: 20.6294 cycles
DTLB RQ	ACCESS:   43458217	FORWARD:          0	MERGED:    4929619	TO_CACHE:   38528598

STLB TOTAL     ACCESS:    9331796  HIT:    8931064  MISS:     400732  HIT %:    95.7057  MISS %:    4.29426   MPKI: 2.00366
STLB LOAD TRANSLATION ACCESS:    2400884  HIT:    2000152  MISS:     400732  HIT %:     83.309  MISS %:     16.691   MPKI: 2.00366
STLB TRANSLATION FROM L1D PREFETCHER ACCESS:    6930912  HIT:    6930912  MISS:          0  HIT %:        100  MISS %:          0   MPKI: 0
STLB PREFETCH  REQUESTED:          0  ISSUED:          0  USEFUL:          0  USELESS:          0
STLB USEFUL LOAD PREFETCHES:          0 PREFETCH ISSUED TO LOWER LEVEL:          0  ACCURACY: -nan
STLB TIMELY PREFETCHES:          0 LATE PREFETCHES: 0 DROPPED PREFETCHES: 0
STLB PREFETCHES SAME FILL-ORIGIN LEVEL: 0 DIFFERENT FILL-ORIGIN LEVEL: 0
STLB AVERAGE MISS LATENCY: 68.0164 cycles
STLB RQ	ACCESS:   13691363	FORWARD:          0	MERGED:    4352835	TO_CACHE:    9338528

STLB Hit, L1D data hit: 0
STLB Hit, L2C data hit: 0
STLB Hit, LLC data hit: 0
STLB Hit, LLC data miss: 0
STLB STLB hints to L2: 0
L1D TOTAL     ACCESS:   50666941  HIT:   41850299  MISS:    8816642  HIT %:    82.5988  MISS %:    17.4012   MPKI: 44.0832
L1D LOAD      ACCESS:   33861278  HIT:   30594070  MISS:    3267208  HIT %:    90.3512  MISS %:     9.6488   MPKI: 16.336
L1D RFO       ACCESS:    6202256  HIT:    5591447  MISS:     610809  HIT %:    90.1518  MISS %:    9.84817   MPKI: 3.05404
L1D PREFETCH  ACCESS:   10603407  HIT:    5664782  MISS:    4938625  HIT %:    53.4242  MISS %:    46.5758   MPKI: 24.6931
L1D PREFETCH  REQUESTED:   22581628  ISSUED:   22576917  USEFUL:    2009994  USELESS:    2931505
L1D USEFUL LOAD PREFETCHES:    2009994 PREFETCH ISSUED TO LOWER LEVEL:    5251507  ACCURACY: 38.2746
L1D TIMELY PREFETCHES:    2009994 LATE PREFETCHES: 310012 DROPPED PREFETCHES: 0
L1D PREFETCHES SAME FILL-ORIGIN LEVEL: 5251507 DIFFERENT FILL-ORIGIN LEVEL: 0
L1D AVERAGE MISS LATENCY: 317.479 cycles
L1D RQ	ACCESS:   54159548	FORWARD:          0	MERGED:   19856511	TO_CACHE:   34298162
L1D WQ	ACCESS:    9213996	FORWARD:       4875	MERGED:      53941	TO_CACHE:    9160055
L1D PQ	ACCESS:   11288489	FORWARD:          0	MERGED:         61	TO_CACHE:   11288428

L1D UNIQUE REGIONS ACCESSED: 0
L1D REGIONS CONFLICTS: 0
L1D Cross Page Prefetch Requests: 0
L1D Same Page Prefetch Requests: 16856548
L1D ROI Sum of L1D PQ occupancy: 161226220
L1D PREFETCHES PUSHED FROM L2C: 0
L1I TOTAL     ACCESS:   43504074  HIT:   43503930  MISS:        144  HIT %:    99.9997  MISS %: 0.000331003   MPKI: 0.00072
L1I LOAD      ACCESS:   43504074  HIT:   43503930  MISS:        144  HIT %:    99.9997  MISS %: 0.000331003   MPKI: 0.00072
L1I PREFETCH  REQUESTED:          0  ISSUED:          0  USEFUL:          0  USELESS:          0
L1I USEFUL LOAD PREFETCHES:          0 PREFETCH ISSUED TO LOWER LEVEL:          0  ACCURACY: -nan
L1I TIMELY PREFETCHES:          0 LATE PREFETCHES: 0 DROPPED PREFETCHES: 0
L1I PREFETCHES SAME FILL-ORIGIN LEVEL: 0 DIFFERENT FILL-ORIGIN LEVEL: 0
L1I AVERAGE MISS LATENCY: 335.278 cycles
L1I RQ	ACCESS:   68473798	FORWARD:          0	MERGED:   24957574	TO_CACHE:   43516224

BTB TOTAL     ACCESS:   49533364  HIT:   49533153  MISS:        211  HIT %:    99.9996  MISS %: 0.000425976   MPKI: 0.001055
BTB BRANCH_DIRECT_JUMP	ACCESS:    1687987  HIT:    1687954  MISS:         33
BTB BRANCH_INDIRECT	ACCESS:          0  HIT:          0  MISS:          0
BTB BRANCH_CONDITIONAL	ACCESS:   47845293  HIT:   47845178  MISS:        115
BTB BRANCH_DIRECT_CALL	ACCESS:         42  HIT:         12  MISS:         30
BTB BRANCH_INDIRECT_CALL	ACCESS:          0  HIT:          0  MISS:          0
BTB BRANCH_RETURN	ACCESS:         42  HIT:          9  MISS:         33
BTB BRANCH_OTHER ACCESS:          0  HIT:          0  MISS:          0

L2C TOTAL     ACCESS:   10065552  HIT:    1639692  MISS:    8425860  HIT %:    16.2901  MISS %:    83.7099   MPKI: 42.1293
L2C LOAD      ACCESS:    2957344  HIT:     300443  MISS:    2656901  HIT %:    10.1592  MISS %:    89.8408   MPKI: 13.2845
L2C DATA LOAD MPKI: 13.2838
L2C INSTRUCTION LOAD MPKI: 0.00072
L2C RFO       ACCESS:     610809  HIT:         19  MISS:     610790  HIT %: 0.00311063  MISS %:    99.9969   MPKI: 3.05395
L2C PREFETCH  ACCESS:    5248633  HIT:     311409  MISS:    4937224  HIT %:    5.93314  MISS %:    94.0669   MPKI: 24.6861
L2C DATA PREFETCH MPKI: 24.6861
L2C INSTRUCTION PREFETCH MPKI: 0
L2C WRITEBACK ACCESS:     847909  HIT:     814149  MISS:      33760  HIT %:    96.0184  MISS %:    3.98156   MPKI: 0.1688
L2C LOAD TRANSLATION ACCESS:     400857  HIT:     213672  MISS:     187185  HIT %:    53.3038  MISS %:    46.6962   MPKI: 0.935925
L2C PREFETCH  REQUESTED:          0  ISSUED:          0  USEFUL:     113377  USELESS:    4825325
L2C USEFUL LOAD PREFETCHES:     113377 PREFETCH ISSUED TO LOWER LEVEL:    4939853  ACCURACY: 2.29515
L2C TIMELY PREFETCHES:     113377 LATE PREFETCHES: 0 DROPPED PREFETCHES: 0
L2C PREFETCHES SAME FILL-ORIGIN LEVEL: 0 DIFFERENT FILL-ORIGIN LEVEL: 0
L2C AVERAGE MISS LATENCY: 350.246 cycles
L2C RQ	ACCESS:    3971524	FORWARD:          0	MERGED:          0	TO_CACHE:    3971524
L2C WQ	ACCESS:     848018	FORWARD:          0	MERGED:          0	TO_CACHE:     848018
L2C PQ	ACCESS:    5251507	FORWARD:          0	MERGED:          0	TO_CACHE:    5251507

L2C Instructions Evicting Data 144
L2C Translations Evicting Data 182383
L2C Data Evicting Data 8027088
L2C Instructions Evicting Instructions 0
L2C Translations Evicting Instructions 1
L2C Data Evicting Instructions 143
L2C Instructions Evicting Translations 0
L2C Translations Evicting Translations 4930
L2C Data Evicting Translations 182077
L2C Dense regions hint from L2: 0
PSCL5 TOTAL     ACCESS:     400732  HIT:     400732  MISS:          0  HIT %:        100  MISS %:          0   MPKI: 0
PSCL5 LOAD TRANSLATION ACCESS:     400732  HIT:     400732  MISS:          0  HIT %:        100  MISS %:          0   MPKI: 0
PSCL5 PREFETCH  REQUESTED:          0  ISSUED:          0  USEFUL:          0  USELESS:          0
PSCL5 USEFUL LOAD PREFETCHES:          0 PREFETCH ISSUED TO LOWER LEVEL:          0  ACCURACY: -nan
PSCL5 TIMELY PREFETCHES:          0 LATE PREFETCHES: 0 DROPPED PREFETCHES: 0
PSCL5 PREFETCHES SAME FILL-ORIGIN LEVEL: 0 DIFFERENT FILL-ORIGIN LEVEL: 0

PSCL4 TOTAL     ACCESS:     400732  HIT:     400732  MISS:          0  HIT %:        100  MISS %:          0   MPKI: 0
PSCL4 LOAD TRANSLATION ACCESS:     400732  HIT:     400732  MISS:          0  HIT %:        100  MISS %:          0   MPKI: 0
PSCL4 PREFETCH  REQUESTED:          0  ISSUED:          0  USEFUL:          0  USELESS:          0
PSCL4 USEFUL LOAD PREFETCHES:          0 PREFETCH ISSUED TO LOWER LEVEL:          0  ACCURACY: -nan
PSCL4 TIMELY PREFETCHES:          0 LATE PREFETCHES: 0 DROPPED PREFETCHES: 0
PSCL4 PREFETCHES SAME FILL-ORIGIN LEVEL: 0 DIFFERENT FILL-ORIGIN LEVEL: 0

PSCL3 TOTAL     ACCESS:     400732  HIT:     400732  MISS:          0  HIT %:        100  MISS %:          0   MPKI: 0
PSCL3 LOAD TRANSLATION ACCESS:     400732  HIT:     400732  MISS:          0  HIT %:        100  MISS %:          0   MPKI: 0
PSCL3 PREFETCH  REQUESTED:          0  ISSUED:          0  USEFUL:          0  USELESS:          0
PSCL3 USEFUL LOAD PREFETCHES:          0 PREFETCH ISSUED TO LOWER LEVEL:          0  ACCURACY: -nan
PSCL3 TIMELY PREFETCHES:          0 LATE PREFETCHES: 0 DROPPED PREFETCHES: 0
PSCL3 PREFETCHES SAME FILL-ORIGIN LEVEL: 0 DIFFERENT FILL-ORIGIN LEVEL: 0

PSCL2 TOTAL     ACCESS:     400732  HIT:     400519  MISS:        213  HIT %:    99.9468  MISS %:  0.0531527   MPKI: 0.001065
PSCL2 LOAD TRANSLATION ACCESS:     400732  HIT:     400519  MISS:        213  HIT %:    99.9468  MISS %:  0.0531527   MPKI: 0.001065
PSCL2 PREFETCH  REQUESTED:          0  ISSUED:          0  USEFUL:          0  USELESS:          0
PSCL2 USEFUL LOAD PREFETCHES:          0 PREFETCH ISSUED TO LOWER LEVEL:          0  ACCURACY: -nan
PSCL2 TIMELY PREFETCHES:          0 LATE PREFETCHES: 0 DROPPED PREFETCHES: 0
PSCL2 PREFETCHES SAME FILL-ORIGIN LEVEL: 0 DIFFERENT FILL-ORIGIN LEVEL: 0

LLC TOTAL     ACCESS:    9240294  HIT:    2780309  MISS:    6459985  HIT %:     30.089  MISS %:     69.911   MPKI: 32.2999
LLC LOAD      ACCESS:    2656901  HIT:     891960  MISS:    1764941  HIT %:    33.5714  MISS %:    66.4286   MPKI: 8.8247
LLC RFO       ACCESS:     610790  HIT:          1  MISS:     610789  HIT %: 0.000163722  MISS %:    99.9998   MPKI: 3.05394
LLC PREFETCH  ACCESS:    4937224  HIT:     910200  MISS:    4027024  HIT %:    18.4355  MISS %:    81.5645   MPKI: 20.1351
LLC WRITEBACK ACCESS:     848194  HIT:     808557  MISS:      39637  HIT %:    95.3269  MISS %:    4.67311   MPKI: 0.198185
LLC LOAD TRANSLATION ACCESS:     187185  HIT:     169591  MISS:      17594  HIT %:    90.6007  MISS %:    9.39926   MPKI: 0.08797
LLC PREFETCH  REQUESTED:          0  ISSUED:          0  USEFUL:     689981  USELESS:   15367376
LLC USEFUL LOAD PREFETCHES:     689981 PREFETCH ISSUED TO LOWER LEVEL:   16148611  ACCURACY: 4.2727
LLC TIMELY PREFETCHES:     689981 LATE PREFETCHES: 0 DROPPED PREFETCHES: 0
LLC PREFETCHES SAME FILL-ORIGIN LEVEL: 0 DIFFERENT FILL-ORIGIN LEVEL: 0
LLC AVERAGE MISS LATENCY: 1668.88 cycles
LLC RQ	ACCESS:   13825209	FORWARD:          0	MERGED:          0	TO_CACHE:   13825209
LLC WQ	ACCESS:    3393054	FORWARD:          0	MERGED:          0	TO_CACHE:    3393054
LLC PQ	ACCESS:   19768383	FORWARD:          0	MERGED:          0	TO_CACHE:   19768383

LLC Dense regions hint to LLC: 0

RAW hits: 310972
Loads Generated: 54453282
Loads sent to L1D: 54142310
Stores Generated: 9212160
Stores sent to L1D: 9212160
Major fault: 0 Minor fault: 55322
Allocated PAGES: 221288

CPU 2 cumulative IPC: 0.248082 instructions: 200000001 cycles: 806185877
ITLB TOTAL     ACCESS:   36039521  HIT:   36039511  MISS:         10  HIT %:        100  MISS %: 2.77473e-05   MPKI: 5e-05
ITLB LOAD TRANSLATION ACCESS:   36039521  HIT:   36039511  MISS:         10  HIT %:        100  MISS %: 2.77473e-05   MPKI: 5e-05
ITLB PREFETCH  REQUESTED:          0  ISSUED:          0  USEFUL:          0  USELESS:          0
ITLB USEFUL LOAD PREFETCHES:          0 PREFETCH ISSUED TO LOWER LEVEL:          0  ACCURACY: -nan
ITLB TIMELY PREFETCHES:          0 LATE PREFETCHES: 0 DROPPED PREFETCHES: 0
ITLB PREFETCHES SAME FILL-ORIGIN LEVEL: 0 DIFFERENT FILL-ORIGIN LEVEL: 0
ITLB AVERAGE MISS LATENCY: 499.2 cycles
ITLB RQ	ACCESS:   43561738	FORWARD:          0	MERGED:    7484676	TO_CACHE:   36077062

DTLB TOTAL     ACCESS:   38406472  HIT:   36005630  MISS:    2400842  HIT %:    93.7489  MISS %:    6.25114   MPKI: 12.0042
DTLB LOAD TRANSLATION ACCESS:   38406472  HIT:   36005630  MISS:    2400842  HIT %:    93.7489  MISS %:    6.25114   MPKI: 12.0042
DTLB PREFETCH  REQUESTED:          0  ISSUED:          0  USEFUL:          0  USELESS:          0
DTLB USEFUL LOAD PREFETCHES:          0 PREFETCH ISSUED TO LOWER LEVEL:          0  ACCURACY: -nan
DTLB TIMELY PREFETCHES:          0 LATE PREFETCHES: 0 DROPPED PREFETCHES: 0
DTLB PREFETCHES SAME FILL-ORIGIN LEVEL: 0 DIFFERENT FILL-ORIGIN LEVEL: 0
DTLB AVERAGE MISS LATENCY: 20.4681 cycles
DTLB RQ	ACCESS:   43484818	FORWARD:          0	MERGED:    4931722	TO_CACHE:   38553096

STLB TOTAL     ACCESS:    9341562  HIT:    8940830  MISS:     400732  HIT %:    95.7102  MISS %:    4.28978   MPKI: 2.00366
STLB LOAD TRANSLATION ACCESS:    2400852  HIT:    2000120  MISS:     400732  HIT %:    83.3088  MISS %:    16.6912   MPKI: 2.00366
STLB TRANSLATION FROM L1D PREFETCHER ACCESS:    6940710  HIT:    6940710  MISS:          0  HIT %:        100  MISS %:          0   MPKI: 0
STLB PREFETCH  REQUESTED:          0  ISSUED:          0  USEFUL:          0  USELESS:          0
STLB USEFUL LOAD PREFETCHES:          0 PREFETCH ISSUED TO LOWER LEVEL:          0  ACCURACY: -nan
STLB TIMELY PREFETCHES:          0 LATE PREFETCHES: 0 DROPPED PREFETCHES: 0
STLB PREFETCHES SAME FILL-ORIGIN LEVEL: 0 DIFFERENT FILL-ORIGIN LEVEL: 0
STLB AVERAGE MISS LATENCY: 66.8618 cycles
STLB RQ	ACCESS:   13728713	FORWARD:          0	MERGED:    4354880	TO_CACHE:    9373833

STLB Hit, L1D data hit: 0
STLB Hit, L2C data hit: 0
STLB Hit, LLC data hit: 0
STLB Hit, LLC data miss: 0
STLB STLB hints to L2: 0
L1D TOTAL     ACCESS:   50656335  HIT:   41840025  MISS:    8816310  HIT %:    82.5958  MISS %:    17.4042   MPKI: 44.0815
L1D LOAD      ACCESS:   33826203  HIT:   30557445  MISS:    3268758  HIT %:    90.3366  MISS %:    9.66339   MPKI: 16.3438
L1D RFO       ACCESS:    6218464  HIT:    5607655  MISS:     610809  HIT %:    90.1775  MISS %:    9.82251   MPKI: 3.05404
L1D PREFETCH  ACCESS:   10611668  HIT:    5674925  MISS:    4936743  HIT %:    53.4782  MISS %:    46.5218   MPKI: 24.6837
L1D PREFETCH  REQUESTED:   22639263  ISSUED:   22635116  USEFUL:    2011177  USELESS:    2939817
L1D USEFUL LOAD PREFETCHES:    2011177 PREFETCH ISSUED TO LOWER LEVEL:    5263189  ACCURACY: 38.2121
L1D TIMELY PREFETCHES:    2011177 LATE PREFETCHES: 312202 DROPPED PREFETCHES: 0
L1D PREFETCHES SAME FILL-ORIGIN LEVEL: 5263189 DIFFERENT FILL-ORIGIN LEVEL: 0
L1D AVERAGE MISS LATENCY: 315.999 cycles
L1D RQ	ACCESS:   54219124	FORWARD:          0	MERGED:   19895394	TO_CACHE:   34318847
L1D WQ	ACCESS:    9219864	FORWARD:       4883	MERGED:      53893	TO_CACHE:    9165971
L1D PQ	ACCESS:   11317589	FORWARD:          0	MERGED:         62	TO_CACHE:   11317527

L1D UNIQUE REGIONS ACCESSED: 0
L1D REGIONS CONFLICTS: 0
L1D Cross Page Prefetch Requests: 0
L1D Same Page Prefetch Requests: 16804002
L1D ROI Sum of L1D PQ occupancy: 160964358
L1D PREFETCHES PUSHED FROM L2C: 0
L1I TOTAL     ACCESS:   43504966  HIT:   43504822  MISS:        144  HIT %:    99.9997  MISS %: 0.000330997   MPKI: 0.00072
L1I LOAD      ACCESS:   43504966  HIT:   43504822  MISS:        144  HIT %:    99.9997  MISS %: 0.000330997   MPKI: 0.00072
L1I PREFETCH  REQUESTED:          0  ISSUED:          0  USEFUL:          0  USELESS:          0
L1I USEFUL LOAD PREFETCHES:          0 PREFETCH ISSUED TO LOWER LEVEL:          0  ACCURACY: -nan
L1I TIMELY PREFETCHES:          0 LATE PREFETCHES: 0 DROPPED PREFETCHES: 0
L1I PREFETCHES SAME FILL-ORIGIN LEVEL: 0 DIFFERENT FILL-ORIGIN LEVEL: 0
L1I AVERAGE MISS LATENCY: 316.938 cycles
L1I RQ	ACCESS:   68568977	FORWARD:          0	MERGED:   25007239	TO_CACHE:   43561738

BTB TOTAL     ACCESS:   49533394  HIT:   49533183  MISS:        211  HIT %:    99.9996  MISS %: 0.000425975   MPKI: 0.001055
BTB BRANCH_DIRECT_JUMP	ACCESS:    1687987  HIT:    1687954  MISS:         33
BTB BRANCH_INDIRECT	ACCESS:          0  HIT:          0  MISS:          0
BTB BRANCH_CONDITIONAL	ACCESS:   47845323  HIT:   47845208  MISS:        115
BTB BRANCH_DIRECT_CALL	ACCESS:         42  HIT:         12  MISS:         30
BTB BRANCH_INDIRECT_CALL	ACCESS:          0  HIT:          0  MISS:          0
BTB BRANCH_RETURN	ACCESS:         42  HIT:          9  MISS:         33
BTB BRANCH_OTHER ACCESS:          0  HIT:          0  MISS:          0

L2C TOTAL     ACCESS:   10065222  HIT:    1643708  MISS:    8421514  HIT %:    16.3306  MISS %:    83.6694   MPKI: 42.1076
L2C LOAD      ACCESS:    2956725  HIT:     301891  MISS:    2654834  HIT %:    10.2103  MISS %:    89.7897   MPKI: 13.2742
L2C DATA LOAD MPKI: 13.2734
L2C INSTRUCTION LOAD MPKI: 0.00072
L2C RFO       ACCESS:     610809  HIT:         21  MISS:     610788  HIT %: 0.00343806  MISS %:    99.9966   MPKI: 3.05394
L2C PREFETCH  ACCESS:    5248920  HIT:     312661  MISS:    4936259  HIT %:    5.95667  MISS %:    94.0433   MPKI: 24.6813
L2C DATA PREFETCH MPKI: 24.6813
L2C INSTRUCTION PREFETCH MPKI: 0
L2C WRITEBACK ACCESS:     847911  HIT:     814470  MISS:      33441  HIT %:    96.0561  MISS %:    3.94393   MPKI: 0.167205
L2C LOAD TRANSLATION ACCESS:     400857  HIT:     214665  MISS:     186192  HIT %:    53.5515  MISS %:    46.4485   MPKI: 0.93096
L2C PREFETCH  REQUESTED:          0  ISSUED:          0  USEFUL:     114466  USELESS:    4833741
L2C USEFUL LOAD PREFETCHES:     114466 PREFETCH ISSUED TO LOWER LEVEL:    4948176  ACCURACY: 2.3133
L2C TIMELY PREFETCHES:     114466 LATE PREFETCHES: 0 DROPPED PREFETCHES: 0
L2C PREFETCHES SAME FILL-ORIGIN LEVEL: 0 DIFFERENT FILL-ORIGIN LEVEL: 0
L2C AVERAGE MISS LATENCY: 349.329 cycles
L2C RQ	ACCESS:    3980333	FORWARD:          0	MERGED:          0	TO_CACHE:    3980333
L2C WQ	ACCESS:     848375	FORWARD:          0	MERGED:          0	TO_CACHE:     848375
L2C PQ	ACCESS:    5263189	FORWARD:          0	MERGED:          0	TO_CACHE:    5263189

L2C Instructions Evicting Data 142
L2C Translations Evicting Data 181120
L2C Data Evicting Data 8041311
L2C Instructions Evicting Instructions 0
L2C Translations Evicting Instructions 0
[...]
LLC PREFETCH  REQUESTED:          0  ISSUED:          0  USEFUL:     689981  USELESS:   15367376
LLC USEFUL LOAD PREFETCHES:     689981 PREFETCH ISSUED TO LOWER LEVEL:   16148611  ACCURACY: 4.2727
LLC TIMELY PREFETCHES:     689981 LATE PREFETCHES: 0 DROPPED PREFETCHES: 0
LLC PREFETCHES SAME FILL-ORIGIN LEVEL: 0 DIFFERENT FILL-ORIGIN LEVEL: 0
LLC AVERAGE MISS LATENCY: 1673.99 cycles
LLC RQ	ACCESS:   13825209	FORWARD:          0	MERGED:          0	TO_CACHE:   13825209
LLC WQ	ACCESS:    3393054	FORWARD:          0	MERGED:          0	TO_CACHE:    3393054
LLC PQ	ACCESS:   19768383	FORWARD:          0	MERGED:          0	TO_CACHE:   19768383

LLC Dense regions hint to LLC: 0

RAW hits: 311114
Loads Generated: 54453297
Loads sent to L1D: 54142181
Stores Generated: 9212160
Stores sent to L1D: 9212160
Major fault: 0 Minor fault: 55322
Allocated PAGES: 221288

CPU 3 cumulative IPC: 0.247646 instructions: 200000000 cycles: 807603630
ITLB TOTAL     ACCESS:   36039961  HIT:   36039951  MISS:         10  HIT %:        100  MISS %: 2.7747e-05   MPKI: 5e-05
ITLB LOAD TRANSLATION ACCESS:   36039961  HIT:   36039951  MISS:         10  HIT %:        100  MISS %: 2.7747e-05   MPKI: 5e-05
ITLB PREFETCH  REQUESTED:          0  ISSUED:          0  USEFUL:          0  USELESS:          0
ITLB USEFUL LOAD PREFETCHES:          0 PREFETCH ISSUED TO LOWER LEVEL:          0  ACCURACY: -nan
ITLB TIMELY PREFETCHES:          0 LATE PREFETCHES: 0 DROPPED PREFETCHES: 0
ITLB PREFETCHES SAME FILL-ORIGIN LEVEL: 0 DIFFERENT FILL-ORIGIN LEVEL: 0
ITLB AVERAGE MISS LATENCY: 546.5 cycles
ITLB RQ	ACCESS:   43505550	FORWARD:          0	MERGED:    7464403	TO_CACHE:   36041147

DTLB TOTAL     ACCESS:   38425906  HIT:   36025048  MISS:    2400858  HIT %:     93.752  MISS %:    6.24802   MPKI: 12.0043
DTLB LOAD TRANSLATION ACCESS:   38425906  HIT:   36025048  MISS:    2400858  HIT %:     93.752  MISS %:    6.24802   MPKI: 12.0043
DTLB PREFETCH  REQUESTED:          0  ISSUED:          0  USEFUL:          0  USELESS:          0
DTLB USEFUL LOAD PREFETCHES:          0 PREFETCH ISSUED TO LOWER LEVEL:          0  ACCURACY: -nan
DTLB TIMELY PREFETCHES:          0 LATE PREFETCHES: 0 DROPPED PREFETCHES: 0
DTLB PREFETCHES SAME FILL-ORIGIN LEVEL: 0 DIFFERENT FILL-ORIGIN LEVEL: 0
DTLB AVERAGE MISS LATENCY: 20.8619 cycles
DTLB RQ	ACCESS:   43447375	FORWARD:          0	MERGED:    4931304	TO_CACHE:   38516071

STLB TOTAL     ACCESS:    9342511  HIT:    8942003  MISS:     400508  HIT %:    95.7131  MISS %:    4.28694   MPKI: 2.00254
STLB LOAD TRANSLATION ACCESS:    2400868  HIT:    2000360  MISS:     400508  HIT %:    83.3182  MISS %:    16.6818   MPKI: 2.00254
STLB TRANSLATION FROM L1D PREFETCHER ACCESS:    6941643  HIT:    6941643  MISS:          0  HIT %:        100  MISS %:          0   MPKI: 0
STLB PREFETCH  REQUESTED:          0  ISSUED:          0  USEFUL:          0  USELESS:          0
STLB USEFUL LOAD PREFETCHES:          0 PREFETCH ISSUED TO LOWER LEVEL:          0  ACCURACY: -nan
STLB TIMELY PREFETCHES:          0 LATE PREFETCHES: 0 DROPPED PREFETCHES: 0
STLB PREFETCHES SAME FILL-ORIGIN LEVEL: 0 DIFFERENT FILL-ORIGIN LEVEL: 0
STLB AVERAGE MISS LATENCY: 69.4889 cycles
STLB RQ	ACCESS:   13703739	FORWARD:          0	MERGED:    4360200	TO_CACHE:    9343539

STLB Hit, L1D data hit: 0
STLB Hit, L2C data hit: 0
STLB Hit, LLC data hit: 0
STLB Hit, LLC data miss: 0
STLB STLB hints to L2: 0
L1D TOTAL     ACCESS:   50678852  HIT:   41861698  MISS:    8817154  HIT %:    82.6019  MISS %:    17.3981   MPKI: 44.0858
L1D LOAD      ACCESS:   33866395  HIT:   30599807  MISS:    3266588  HIT %:    90.3545  MISS %:    9.64551   MPKI: 16.3329
L1D RFO       ACCESS:    6190365  HIT:    5579557  MISS:     610808  HIT %:    90.1329  MISS %:    9.86708   MPKI: 3.05404
L1D PREFETCH  ACCESS:   10622092  HIT:    5682334  MISS:    4939758  HIT %:    53.4954  MISS %:    46.5046   MPKI: 24.6988
L1D PREFETCH  REQUESTED:   22609795  ISSUED:   22605095  USEFUL:    2009788  USELESS:    2930480
L1D USEFUL LOAD PREFETCHES:    2009788 PREFETCH ISSUED TO LOWER LEVEL:    5250693  ACCURACY: 38.2766
L1D TIMELY PREFETCHES:    2009788 LATE PREFETCHES: 310416 DROPPED PREFETCHES: 0
L1D PREFETCHES SAME FILL-ORIGIN LEVEL: 5250693 DIFFERENT FILL-ORIGIN LEVEL: 0
L1D AVERAGE MISS LATENCY: 317.588 cycles
L1D RQ	ACCESS:   54144682	FORWARD:          0	MERGED:   19850915	TO_CACHE:   34288939
L1D WQ	ACCESS:    9212520	FORWARD:       4828	MERGED:      54084	TO_CACHE:    9158436
L1D PQ	ACCESS:   11302579	FORWARD:          0	MERGED:         63	TO_CACHE:   11302516

L1D UNIQUE REGIONS ACCESSED: 0
L1D REGIONS CONFLICTS: 0
L1D Cross Page Prefetch Requests: 0
L1D Same Page Prefetch Requests: 17216767
L1D ROI Sum of L1D PQ occupancy: 162060310
L1D PREFETCHES PUSHED FROM L2C: 0
L1I TOTAL     ACCESS:   43503602  HIT:   43503458  MISS:        144  HIT %:    99.9997  MISS %: 0.000331007   MPKI: 0.00072
L1I LOAD      ACCESS:   43503602  HIT:   43503458  MISS:        144  HIT %:    99.9997  MISS %: 0.000331007   MPKI: 0.00072
L1I PREFETCH  REQUESTED:          0  ISSUED:          0  USEFUL:          0  USELESS:          0
L1I USEFUL LOAD PREFETCHES:          0 PREFETCH ISSUED TO LOWER LEVEL:          0  ACCURACY: -nan
L1I TIMELY PREFETCHES:          0 LATE PREFETCHES: 0 DROPPED PREFETCHES: 0
L1I PREFETCHES SAME FILL-ORIGIN LEVEL: 0 DIFFERENT FILL-ORIGIN LEVEL: 0
L1I AVERAGE MISS LATENCY: 306.618 cycles
L1I RQ	ACCESS:   68429877	FORWARD:          0	MERGED:   24924327	TO_CACHE:   43505550

BTB TOTAL     ACCESS:   49532949  HIT:   49532730  MISS:        219  HIT %:    99.9996  MISS %: 0.00044213   MPKI: 0.001095
BTB BRANCH_DIRECT_JUMP	ACCESS:    1688014  HIT:    1687980  MISS:         34
BTB BRANCH_INDIRECT	ACCESS:          0  HIT:          0  MISS:          0
BTB BRANCH_CONDITIONAL	ACCESS:   47844851  HIT:   47844729  MISS:        122
BTB BRANCH_DIRECT_CALL	ACCESS:         42  HIT:         12  MISS:         30
BTB BRANCH_INDIRECT_CALL	ACCESS:          0  HIT:          0  MISS:          0
BTB BRANCH_RETURN	ACCESS:         42  HIT:          9  MISS:         33
BTB BRANCH_OTHER ACCESS:          0  HIT:          0  MISS:          0

L2C TOTAL     ACCESS:   10065850  HIT:    1636338  MISS:    8429512  HIT %:    16.2563  MISS %:    83.7437   MPKI: 42.1476
L2C LOAD      ACCESS:    2956318  HIT:     297537  MISS:    2658781  HIT %:    10.0644  MISS %:    89.9356   MPKI: 13.2939
L2C DATA LOAD MPKI: 13.2932
L2C INSTRUCTION LOAD MPKI: 0.00072
L2C RFO       ACCESS:     610808  HIT:         19  MISS:     610789  HIT %: 0.00311063  MISS %:    99.9969   MPKI: 3.05395
L2C PREFETCH  ACCESS:    5250172  HIT:     308560  MISS:    4941612  HIT %:    5.87714  MISS %:    94.1229   MPKI: 24.7081
L2C DATA PREFETCH MPKI: 24.7081
L2C INSTRUCTION PREFETCH MPKI: 0
L2C WRITEBACK ACCESS:     847931  HIT:     813705  MISS:      34226  HIT %:    95.9636  MISS %:    4.03641   MPKI: 0.17113
L2C LOAD TRANSLATION ACCESS:     400621  HIT:     216517  MISS:     184104  HIT %:    54.0453  MISS %:    45.9547   MPKI: 0.92052
L2C PREFETCH  REQUESTED:          0  ISSUED:          0  USEFUL:     112733  USELESS:    4827348
L2C USEFUL LOAD PREFETCHES:     112733 PREFETCH ISSUED TO LOWER LEVEL:    4942131  ACCURACY: 2.28106
L2C TIMELY PREFETCHES:     112733 LATE PREFETCHES: 0 DROPPED PREFETCHES: 0
L2C PREFETCHES SAME FILL-ORIGIN LEVEL: 0 DIFFERENT FILL-ORIGIN LEVEL: 0
L2C AVERAGE MISS LATENCY: 350.185 cycles
L2C RQ	ACCESS:    3968395	FORWARD:          0	MERGED:          0	TO_CACHE:    3968395
L2C WQ	ACCESS:     847938	FORWARD:          0	MERGED:          0	TO_CACHE:     847938
L2C PQ	ACCESS:    5250693	FORWARD:          0	MERGED:          0	TO_CACHE:    5250693

L2C Instructions Evicting Data 143
L2C Translations Evicting Data 179094
L2C Data Evicting Data 8032921
L2C Instructions Evicting Instructions 0
L2C Translations Evicting Instructions 1
L2C Data Evicting Instructions 143
L2C Instructions Evicting Translations 1
L2C Translations Evicting Translations 5096
L2C Data Evicting Translations 178876
L2C Dense regions hint from L2: 0
PSCL5 TOTAL     ACCESS:     400509  HIT:     400509  MISS:          0  HIT %:        100  MISS %:          0   MPKI: 0
PSCL5 LOAD TRANSLATION ACCESS:     400509  HIT:     400509  MISS:          0  HIT %:        100  MISS %:          0   MPKI: 0
PSCL5 PREFETCH  REQUESTED:          0  ISSUED:          0  USEFUL:          0  USELESS:          0
PSCL5 USEFUL LOAD PREFETCHES:          0 PREFETCH ISSUED TO LOWER LEVEL:          0  ACCURACY: -nan
PSCL5 TIMELY PREFETCHES:          0 LATE PREFETCHES: 0 DROPPED PREFETCHES: 0
PSCL5 PREFETCHES SAME FILL-ORIGIN LEVEL: 0 DIFFERENT FILL-ORIGIN LEVEL: 0

PSCL4 TOTAL     ACCESS:     400509  HIT:     400509  MISS:          0  HIT %:        100  MISS %:          0   MPKI: 0
PSCL4 LOAD TRANSLATION ACCESS:     400509  HIT:     400509  MISS:          0  HIT %:        100  MISS %:          0   MPKI: 0
PSCL4 PREFETCH  REQUESTED:          0  ISSUED:          0  USEFUL:          0  USELESS:          0
PSCL4 USEFUL LOAD PREFETCHES:          0 PREFETCH ISSUED TO LOWER LEVEL:          0  ACCURACY: -nan
PSCL4 TIMELY PREFETCHES:          0 LATE PREFETCHES: 0 DROPPED PREFETCHES: 0
PSCL4 PREFETCHES SAME FILL-ORIGIN LEVEL: 0 DIFFERENT FILL-ORIGIN LEVEL: 0

PSCL3 TOTAL     ACCESS:     400509  HIT:     400509  MISS:          0  HIT %:        100  MISS %:          0   MPKI: 0
PSCL3 LOAD TRANSLATION ACCESS:     400509  HIT:     400509  MISS:          0  HIT %:        100  MISS %:          0   MPKI: 0
PSCL3 PREFETCH  REQUESTED:          0  ISSUED:          0  USEFUL:          0  USELESS:          0
PSCL3 USEFUL LOAD PREFETCHES:          0 PREFETCH ISSUED TO LOWER LEVEL:          0  ACCURACY: -nan
PSCL3 TIMELY PREFETCHES:          0 LATE PREFETCHES: 0 DROPPED PREFETCHES: 0
PSCL3 PREFETCHES SAME FILL-ORIGIN LEVEL: 0 DIFFERENT FILL-ORIGIN LEVEL: 0

PSCL2 TOTAL     ACCESS:     400508  HIT:     400307  MISS:        201  HIT %:    99.9498  MISS %:  0.0501863   MPKI: 0.001005
PSCL2 LOAD TRANSLATION ACCESS:     400508  HIT:     400307  MISS:        201  HIT %:    99.9498  MISS %:  0.0501863   MPKI: 0.001005
PSCL2 PREFETCH  REQUESTED:          0  ISSUED:          0  USEFUL:          0  USELESS:          0
PSCL2 USEFUL LOAD PREFETCHES:          0 PREFETCH ISSUED TO LOWER LEVEL:          0  ACCURACY: -nan
PSCL2 TIMELY PREFETCHES:          0 LATE PREFETCHES: 0 DROPPED PREFETCHES: 0
PSCL2 PREFETCHES SAME FILL-ORIGIN LEVEL: 0 DIFFERENT FILL-ORIGIN LEVEL: 0

LLC TOTAL     ACCESS:    9243478  HIT:    2770629  MISS:    6472849  HIT %:    29.9739  MISS %:    70.0261   MPKI: 32.3642
LLC LOAD      ACCESS:    2658781  HIT:     890197  MISS:    1768584  HIT %:    33.4814  MISS %:    66.5186   MPKI: 8.84292
LLC RFO       ACCESS:     610789  HIT:          7  MISS:     610782  HIT %: 0.00114606  MISS %:    99.9989   MPKI: 3.05391
LLC PREFETCH  ACCESS:    4941612  HIT:     908169  MISS:    4033443  HIT %:     18.378  MISS %:     81.622   MPKI: 20.1672
LLC WRITEBACK ACCESS:     848192  HIT:     806937  MISS:      41255  HIT %:    95.1361  MISS %:    4.86388   MPKI: 0.206275
LLC LOAD TRANSLATION ACCESS:     184104  HIT:     165319  MISS:      18785  HIT %:    89.7965  MISS %:    10.2035   MPKI: 0.093925
LLC PREFETCH  REQUESTED:          0  ISSUED:          0  USEFUL:     689981  USELESS:   15367376
LLC USEFUL LOAD PREFETCHES:     689981 PREFETCH ISSUED TO LOWER LEVEL:   16148611  ACCURACY: 4.2727
LLC TIMELY PREFETCHES:     689981 LATE PREFETCHES: 0 DROPPED PREFETCHES: 0
LLC PREFETCHES SAME FILL-ORIGIN LEVEL: 0 DIFFERENT FILL-ORIGIN LEVEL: 0
LLC AVERAGE MISS LATENCY: 1665.56 cycles
LLC RQ	ACCESS:   13825209	FORWARD:          0	MERGED:          0	TO_CACHE:   13825209
LLC WQ	ACCESS:    3393054	FORWARD:          0	MERGED:          0	TO_CACHE:    3393054
LLC PQ	ACCESS:   19768383	FORWARD:          0	MERGED:          0	TO_CACHE:   19768383

LLC Dense regions hint to LLC: 0

RAW hits: 311143
Loads Generated: 54453354
Loads sent to L1D: 54142211
Stores Generated: 9212283
Stores sent to L1D: 9212290
Major fault: 0 Minor fault: 55322
Allocated PAGES: 221288

stream: 
stream:times selected: 14619856
stream:pref_filled: 4650084
stream:pref_useful: 227354
stream:pref_late: 92129
stream:misses: 1106518
stream:misses_by_poll: 0

CS: 
CS:times selected: 3779829
CS:pref_filled: 2811313
CS:pref_useful: 2548324
CS:pref_late: 217505
CS:misses: 657146
CS:misses_by_poll: 9756

CPLX: 
CPLX:times selected: 10745151
CPLX:pref_filled: 255597
CPLX:pref_useful: 17503
CPLX:pref_late: 3061
CPLX:misses: 3968897
CPLX:misses_by_poll: 251

NL_L1: 
NL:times selected: 71488
NL:pref_filled: 38020
NL:pref_useful: 2098
NL:pref_late: 117
NL:misses: 34971
NL:misses_by_poll: 2

total selections: 29216324
total_filled: 4939459
total_useful: 2009929
total_late: 314526
total_polluted: 10009
total_misses_after_warmup: 3685870
conflicts: 1253
Degree Incremented Times: 703846
Degree Decremented Times: 1948576

L1 IP Table Write Accesses: 137214267
L1 IP Table Read Accesses: 137213014
L1 RST Write Accesses: 38386099
L1 RST Read Accesses: 76772198
L1 CSPT Write Accesses: 38386099
L1 CSPT Read Accesses: 65061789
L1 RR Filter Tag Write Accesses: 45220097
L1 RR Filter Tag Read Accesses: 2137384481
L1 IP Table Tag Write Accesses: 137214617
L1 IP Table Tag Read Accesses: 137214617
L1 RST Tag Write Accesses: 0
L1 RST Tag Read Accesses: 345894968
L1 RR Filter Write Accesses: 0
L1 RR Filter Read Accesses: 74420522
test: 26191837

stream: 
stream:times selected: 14623987
stream:pref_filled: 4639305
stream:pref_useful: 230235
stream:pref_late: 92473
stream:misses: 1107001
stream:misses_by_poll: 0

CS: 
CS:times selected: 3780644
CS:pref_filled: 2802718
CS:pref_useful: 2539992
CS:pref_late: 217227
CS:misses: 669211
CS:misses_by_poll: 9625

CPLX: 
CPLX:times selected: 10748575
CPLX:pref_filled: 255821
CPLX:pref_useful: 17527
CPLX:pref_late: 2954
CPLX:misses: 3970420
CPLX:misses_by_poll: 257

NL_L1: 
NL:times selected: 71882
NL:pref_filled: 38075
NL:pref_useful: 2157
NL:pref_late: 114
NL:misses: 35249
NL:misses_by_poll: 1

total selections: 29225088
total_filled: 4941488
total_useful: 2009994
total_late: 314467
total_polluted: 9883
total_misses_after_warmup: 3693717
conflicts: 1253
Degree Incremented Times: 703846
Degree Decremented Times: 1948576

L1 IP Table Write Accesses: 137214267
L1 IP Table Read Accesses: 137213014
L1 RST Write Accesses: 38386099
L1 RST Read Accesses: 76772198
L1 CSPT Write Accesses: 38386099
L1 CSPT Read Accesses: 65061789
L1 RR Filter Tag Write Accesses: 45220097
L1 RR Filter Tag Read Accesses: 2137384481
L1 IP Table Tag Write Accesses: 137214617
L1 IP Table Tag Read Accesses: 137214617
L1 RST Tag Write Accesses: 0
L1 RST Tag Read Accesses: 345894968
L1 RR Filter Write Accesses: 0
L1 RR Filter Read Accesses: 74420522
test: 26191837

stream: 
stream:times selected: 14644011
stream:pref_filled: 4648037
stream:pref_useful: 243005
stream:pref_late: 92230
stream:misses: 1109744
stream:misses_by_poll: 0

CS: 
CS:times selected: 3782938
CS:pref_filled: 2781250
CS:pref_useful: 2518365
CS:pref_late: 219716
CS:misses: 696374
CS:misses_by_poll: 9788

CPLX: 
CPLX:times selected: 10766069
CPLX:pref_filled: 255101
CPLX:pref_useful: 17423
CPLX:pref_late: 3017
CPLX:misses: 3976656
CPLX:misses_by_poll: 256

NL_L1: 
NL:times selected: 71940
NL:pref_filled: 37989
NL:pref_useful: 2125
NL:pref_late: 125
NL:misses: 35124
NL:misses_by_poll: 2

total selections: 29264958
total_filled: 4950985
total_useful: 2011177
total_late: 316758
total_polluted: 10046
total_misses_after_warmup: 3716588
conflicts: 1253
Degree Incremented Times: 703846
Degree Decremented Times: 1948576

L1 IP Table Write Accesses: 137214267
L1 IP Table Read Accesses: 137213014
L1 RST Write Accesses: 38386099
L1 RST Read Accesses: 76772198
L1 CSPT Write Accesses: 38386099
L1 CSPT Read Accesses: 65061789
L1 RR Filter Tag Write Accesses: 45220097
L1 RR Filter Tag Read Accesses: 2137384481
L1 IP Table Tag Write Accesses: 137214617
L1 IP Table Tag Read Accesses: 137214617
L1 RST Tag Write Accesses: 0
L1 RST Tag Read Accesses: 345894968
L1 RR Filter Write Accesses: 0
L1 RR Filter Read Accesses: 74420522
test: 26191837

stream: 
stream:times selected: 14619414
stream:pref_filled: 4649121
stream:pref_useful: 232375
stream:pref_late: 92329
stream:misses: 1107287
stream:misses_by_poll: 0

CS: 
CS:times selected: 3779603
CS:pref_filled: 2801397
CS:pref_useful: 2538507
CS:pref_late: 217666
CS:misses: 664866
CS:misses_by_poll: 9568

CPLX: 
CPLX:times selected: 10745019
CPLX:pref_filled: 255322
CPLX:pref_useful: 17198
CPLX:pref_late: 2987
CPLX:misses: 3968480
CPLX:misses_by_poll: 281

NL_L1: 
NL:times selected: 71832
NL:pref_filled: 38172
NL:pref_useful: 2095
NL:pref_late: 113
NL:misses: 35163
NL:misses_by_poll: 3

total selections: 29215868
total_filled: 4940271
total_useful: 2009788
total_late: 314844
total_polluted: 9852
total_misses_after_warmup: 3687807
conflicts: 1253
Degree Incremented Times: 703846
Degree Decremented Times: 1948576

L1 IP Table Write Accesses: 137214267
L1 IP Table Read Accesses: 137213014
L1 RST Write Accesses: 38386099
L1 RST Read Accesses: 76772198
L1 CSPT Write Accesses: 38386099
L1 CSPT Read Accesses: 65061789
L1 RR Filter Tag Write Accesses: 45220097
L1 RR Filter Tag Read Accesses: 2137384481
L1 IP Table Tag Write Accesses: 137214617
L1 IP Table Tag Read Accesses: 137214617
L1 RST Tag Write Accesses: 0
L1 RST Tag Read Accesses: 345894968
L1 RR Filter Write Accesses: 0
L1 RR Filter Read Accesses: 74420522
test: 26191837

DRAM Statistics
 CHANNEL 0
 RQ ROW_BUFFER_HIT:    3624112  ROW_BUFFER_MISS:   22078437
 DBUS_CONGESTED:       1115
 WQ ROW_BUFFER_HIT:     313159  ROW_BUFFER_MISS:    3082028  FULL:          0

 AVG_CONGESTED_CYCLE: 5
 All warmup complete: 5
Channel 0 Bank busy for read cycles: 0
Channel 0 Bank busy for write cycles: 0
Channel 0
Rank 0
0banks busy for read cycles: 1822743
0banks busy for write cycles: 935
1banks busy for read cycles: 25504351
1banks busy for write cycles: 700574
2banks busy for read cycles: 56042282
2banks busy for write cycles: 585039
3banks busy for read cycles: 85623500
3banks busy for write cycles: 548805
4banks busy for read cycles: 114978409
4banks busy for write cycles: 543062
5banks busy for read cycles: 125620925
5banks busy for write cycles: 570493
6banks busy for read cycles: 108176905
6banks busy for write cycles: 1396197
7banks busy for read cycles: 83217983
7banks busy for write cycles: 13166811
8banks busy for read cycles: 113420008
8banks busy for write cycles: 75782395

CPU 0 Branch Prediction Accuracy: 92.1176% MPKI: 19.5284 Average ROB Occupancy at Mispredict: 20.1374
Branch types
NOT_BRANCH: 150447504 75.2238%
BRANCH_DIRECT_JUMP: 1688002 0.844001%
BRANCH_INDIRECT: 0 0%
BRANCH_CONDITIONAL: 47864431 23.9322%
BRANCH_DIRECT_CALL: 42 2.1e-05%
BRANCH_INDIRECT_CALL: 0 0%
BRANCH_RETURN: 42 2.1e-05%
BRANCH_OTHER: 0 0%


CPU 1 Branch Prediction Accuracy: 92.1165% MPKI: 19.532 Average ROB Occupancy at Mispredict: 20.1256
Branch types
NOT_BRANCH: 150482838 75.2233%
BRANCH_DIRECT_JUMP: 1688603 0.844098%
BRANCH_INDIRECT: 0 0%
BRANCH_CONDITIONAL: 47876777 23.9326%
BRANCH_DIRECT_CALL: 42 2.09949e-05%
BRANCH_INDIRECT_CALL: 0 0%
BRANCH_RETURN: 42 2.09949e-05%
BRANCH_OTHER: 0 0%


CPU 2 Branch Prediction Accuracy: 92.1154% MPKI: 19.5366 Average ROB Occupancy at Mispredict: 20.0841
Branch types
NOT_BRANCH: 150607123 75.2207%
BRANCH_DIRECT_JUMP: 1690933 0.844536%
BRANCH_INDIRECT: 0 0%
BRANCH_CONDITIONAL: 47922247 23.9347%
BRANCH_DIRECT_CALL: 42 2.09769e-05%
BRANCH_INDIRECT_CALL: 0 0%
BRANCH_RETURN: 42 2.09769e-05%
BRANCH_OTHER: 0 0%


CPU 3 Branch Prediction Accuracy: 92.1173% MPKI: 19.5302 Average ROB Occupancy at Mispredict: 20.1506
Branch types
NOT_BRANCH: 150452733 75.2236%
BRANCH_DIRECT_JUMP: 1688120 0.844029%
BRANCH_INDIRECT: 0 0%
BRANCH_CONDITIONAL: 47866013 23.9321%
BRANCH_DIRECT_CALL: 42 2.09992e-05%
BRANCH_INDIRECT_CALL: 0 0%
BRANCH_RETURN: 42 2.09992e-05%
BRANCH_OTHER: 0 0%

DRAM PAGES: 1048576
Allocated PAGES: 221288
