
*** ChampSim Multicore Out-of-Order Simulator ***

Warmup Instructions: 50000000
Simulation Instructions: 200000000
Number of CPUs: 4
LLC sets: 8192
LLC ways: 16
Off-chip DRAM Size: 4096 MB Channels: 1 Width: 64-bit Data Rate: 6400 MT/s
CPU 0 runs ./traces/ligra/ligra_PageRank.com-lj.ungraph.gcc_6.3.0_O3.drop_500M.length_250M.champsimtrace.xz
.xz
CPU 1 runs ./traces/ligra/ligra_PageRank.com-lj.ungraph.gcc_6.3.0_O3.drop_500M.length_250M.champsimtrace.xz
.xz
CPU 2 runs ./traces/ligra/ligra_PageRank.com-lj.ungraph.gcc_6.3.0_O3.drop_500M.length_250M.champsimtrace.xz
.xz
CPU 3 runs ./traces/ligra/ligra_PageRank.com-lj.ungraph.gcc_6.3.0_O3.drop_500M.length_250M.champsimtrace.xz
.xz
BTB has LRU replacement policy
ITLB has LRU replacement policy
DTLB has LRU replacement policy
STLB has LRU replacement policy
L1I has LRU replacement policy
IP Table Entries: 1024
CSPT Entries: 128
RR_ENTRIES: 32
RST_ENTRIES: 8
L1D has LRU replacement policy
Initialize SRRIP state for L2C
Initialize DRRIP state for LLC
BTB has LRU replacement policy
ITLB has LRU replacement policy
DTLB has LRU replacement policy
STLB has LRU replacement policy
L1I has LRU replacement policy
IP Table Entries: 1024
CSPT Entries: 128
RR_ENTRIES: 32
RST_ENTRIES: 8
L1D has LRU replacement policy
Initialize SRRIP state for L2C
Initialize DRRIP state for LLC
BTB has LRU replacement policy
ITLB has LRU replacement policy
DTLB has LRU replacement policy
STLB has LRU replacement policy
L1I has LRU replacement policy
IP Table Entries: 1024
CSPT Entries: 128
RR_ENTRIES: 32
RST_ENTRIES: 8
L1D has LRU replacement policy
Initialize SRRIP state for L2C
Initialize DRRIP state for LLC
BTB has LRU replacement policy
ITLB has LRU replacement policy
DTLB has LRU replacement policy
STLB has LRU replacement policy
L1I has LRU replacement policy
IP Table Entries: 1024
CSPT Entries: 128
RR_ENTRIES: 32
RST_ENTRIES: 8
L1D has LRU replacement policy
Initialize SRRIP state for L2C
Initialize DRRIP state for LLC
Heartbeat CPU 0 instructions: 10000002 cycles: 3333346 heartbeat IPC: 2.99999 cumulative IPC: 2.99999 (Simulation time: 0 hr 1 min 48 sec) 
Heartbeat CPU 1 instructions: 10000002 cycles: 3333347 heartbeat IPC: 2.99999 cumulative IPC: 2.99999 (Simulation time: 0 hr 1 min 48 sec) 
Heartbeat CPU 2 instructions: 10000002 cycles: 3333348 heartbeat IPC: 2.99999 cumulative IPC: 2.99999 (Simulation time: 0 hr 1 min 48 sec) 
Heartbeat CPU 3 instructions: 10000002 cycles: 3333349 heartbeat IPC: 2.99999 cumulative IPC: 2.99999 (Simulation time: 0 hr 1 min 48 sec) 
Heartbeat CPU 0 instructions: 20000001 cycles: 6666680 heartbeat IPC: 3 cumulative IPC: 2.99999 (Simulation time: 0 hr 3 min 41 sec) 
Heartbeat CPU 1 instructions: 20000001 cycles: 6666681 heartbeat IPC: 3 cumulative IPC: 2.99999 (Simulation time: 0 hr 3 min 41 sec) 
Heartbeat CPU 2 instructions: 20000001 cycles: 6666682 heartbeat IPC: 3 cumulative IPC: 2.99999 (Simulation time: 0 hr 3 min 41 sec) 
Heartbeat CPU 3 instructions: 20000001 cycles: 6666683 heartbeat IPC: 3 cumulative IPC: 2.99999 (Simulation time: 0 hr 3 min 41 sec) 
Heartbeat CPU 0 instructions: 30000001 cycles: 10000012 heartbeat IPC: 3 cumulative IPC: 3 (Simulation time: 0 hr 5 min 30 sec) 
Heartbeat CPU 1 instructions: 30000001 cycles: 10000013 heartbeat IPC: 3 cumulative IPC: 3 (Simulation time: 0 hr 5 min 30 sec) 
Heartbeat CPU 2 instructions: 30000001 cycles: 10000014 heartbeat IPC: 3 cumulative IPC: 3 (Simulation time: 0 hr 5 min 30 sec) 
Heartbeat CPU 3 instructions: 30000001 cycles: 10000015 heartbeat IPC: 3 cumulative IPC: 3 (Simulation time: 0 hr 5 min 30 sec) 
Heartbeat CPU 0 instructions: 40000002 cycles: 13333345 heartbeat IPC: 3 cumulative IPC: 3 (Simulation time: 0 hr 7 min 23 sec) 
Heartbeat CPU 1 instructions: 40000002 cycles: 13333346 heartbeat IPC: 3 cumulative IPC: 3 (Simulation time: 0 hr 7 min 23 sec) 
Heartbeat CPU 2 instructions: 40000002 cycles: 13333347 heartbeat IPC: 3 cumulative IPC: 3 (Simulation time: 0 hr 7 min 23 sec) 
Heartbeat CPU 3 instructions: 40000002 cycles: 13333348 heartbeat IPC: 3 cumulative IPC: 3 (Simulation time: 0 hr 7 min 23 sec) 
Heartbeat CPU 0 instructions: 50000002 cycles: 16666679 heartbeat IPC: 3 cumulative IPC: 3 (Simulation time: 0 hr 9 min 14 sec) 
Heartbeat CPU 1 instructions: 50000002 cycles: 16666680 heartbeat IPC: 3 cumulative IPC: 3 (Simulation time: 0 hr 9 min 14 sec) 
Heartbeat CPU 2 instructions: 50000002 cycles: 16666681 heartbeat IPC: 3 cumulative IPC: 3 (Simulation time: 0 hr 9 min 14 sec) 
Heartbeat CPU 3 instructions: 50000002 cycles: 16666682 heartbeat IPC: 3 cumulative IPC: 3 (Simulation time: 0 hr 9 min 14 sec) 

Warmup complete CPU 0 instructions: 50000011 cycles: 16666682 (Simulation time: 0 hr 9 min 14 sec) 
Warmup complete CPU 1 instructions: 50000008 cycles: 16666682 (Simulation time: 0 hr 9 min 14 sec) 
Warmup complete CPU 2 instructions: 50000005 cycles: 16666682 (Simulation time: 0 hr 9 min 14 sec) 
Warmup complete CPU 3 instructions: 50000002 cycles: 16666682 (Simulation time: 0 hr 9 min 14 sec) 

Heartbeat CPU 0 instructions: 60000000 cycles: 25237317 heartbeat IPC: 1.16677 cumulative IPC: 1.16677 (Simulation time: 0 hr 11 min 52 sec) 
Heartbeat CPU 1 instructions: 60000000 cycles: 25250944 heartbeat IPC: 1.16492 cumulative IPC: 1.16492 (Simulation time: 0 hr 11 min 53 sec) 
Heartbeat CPU 2 instructions: 60000000 cycles: 25257923 heartbeat IPC: 1.16398 cumulative IPC: 1.16398 (Simulation time: 0 hr 11 min 53 sec) 
Heartbeat CPU 3 instructions: 60000000 cycles: 25264876 heartbeat IPC: 1.16303 cumulative IPC: 1.16303 (Simulation time: 0 hr 11 min 53 sec) 
Heartbeat CPU 0 instructions: 70000000 cycles: 33827076 heartbeat IPC: 1.16418 cumulative IPC: 1.16547 (Simulation time: 0 hr 14 min 4 sec) 
Heartbeat CPU 1 instructions: 70000000 cycles: 33839058 heartbeat IPC: 1.1644 cumulative IPC: 1.16466 (Simulation time: 0 hr 14 min 4 sec) 
Heartbeat CPU 2 instructions: 70000000 cycles: 33846550 heartbeat IPC: 1.16433 cumulative IPC: 1.16415 (Simulation time: 0 hr 14 min 5 sec) 
Heartbeat CPU 3 instructions: 70000000 cycles: 33854149 heartbeat IPC: 1.16424 cumulative IPC: 1.16364 (Simulation time: 0 hr 14 min 5 sec) 
Heartbeat CPU 0 instructions: 80000003 cycles: 42425135 heartbeat IPC: 1.16305 cumulative IPC: 1.16467 (Simulation time: 0 hr 16 min 37 sec) 
Heartbeat CPU 1 instructions: 80000003 cycles: 42437839 heartbeat IPC: 1.16296 cumulative IPC: 1.16409 (Simulation time: 0 hr 16 min 37 sec) 
Heartbeat CPU 2 instructions: 80000003 cycles: 42444121 heartbeat IPC: 1.16312 cumulative IPC: 1.16381 (Simulation time: 0 hr 16 min 38 sec) 
Heartbeat CPU 3 instructions: 80000003 cycles: 42451624 heartbeat IPC: 1.16313 cumulative IPC: 1.16347 (Simulation time: 0 hr 16 min 38 sec) 
Heartbeat CPU 0 instructions: 90000001 cycles: 51037018 heartbeat IPC: 1.16119 cumulative IPC: 1.16379 (Simulation time: 0 hr 19 min 2 sec) 
Heartbeat CPU 1 instructions: 90000001 cycles: 51048778 heartbeat IPC: 1.16131 cumulative IPC: 1.1634 (Simulation time: 0 hr 19 min 2 sec) 
Heartbeat CPU 2 instructions: 90000001 cycles: 51056918 heartbeat IPC: 1.16106 cumulative IPC: 1.16312 (Simulation time: 0 hr 19 min 3 sec) 
Heartbeat CPU 3 instructions: 90000001 cycles: 51063291 heartbeat IPC: 1.16122 cumulative IPC: 1.16291 (Simulation time: 0 hr 19 min 3 sec) 
Heartbeat CPU 0 instructions: 100000001 cycles: 59582344 heartbeat IPC: 1.17023 cumulative IPC: 1.16508 (Simulation time: 0 hr 21 min 50 sec) 
Heartbeat CPU 1 instructions: 100000001 cycles: 59596191 heartbeat IPC: 1.16994 cumulative IPC: 1.1647 (Simulation time: 0 hr 21 min 50 sec) 
Heartbeat CPU 2 instructions: 100000001 cycles: 59602972 heartbeat IPC: 1.17013 cumulative IPC: 1.16452 (Simulation time: 0 hr 21 min 50 sec) 
Heartbeat CPU 3 instructions: 100000001 cycles: 59609594 heartbeat IPC: 1.1701 cumulative IPC: 1.16434 (Simulation time: 0 hr 21 min 51 sec) 
Heartbeat CPU 0 instructions: 110000000 cycles: 68107493 heartbeat IPC: 1.173 cumulative IPC: 1.16639 (Simulation time: 0 hr 24 min 26 sec) 
Heartbeat CPU 1 instructions: 110000000 cycles: 68123017 heartbeat IPC: 1.17277 cumulative IPC: 1.16604 (Simulation time: 0 hr 24 min 26 sec) 
Heartbeat CPU 2 instructions: 110000000 cycles: 68128934 heartbeat IPC: 1.17289 cumulative IPC: 1.1659 (Simulation time: 0 hr 24 min 26 sec) 
Heartbeat CPU 3 instructions: 110000000 cycles: 68138013 heartbeat IPC: 1.17255 cumulative IPC: 1.1657 (Simulation time: 0 hr 24 min 26 sec) 
Heartbeat CPU 0 instructions: 120000001 cycles: 76616281 heartbeat IPC: 1.17526 cumulative IPC: 1.16765 (Simulation time: 0 hr 26 min 56 sec) 
Heartbeat CPU 1 instructions: 120000001 cycles: 76629700 heartbeat IPC: 1.17555 cumulative IPC: 1.16739 (Simulation time: 0 hr 26 min 56 sec) 
Heartbeat CPU 2 instructions: 120000001 cycles: 76637028 heartbeat IPC: 1.17535 cumulative IPC: 1.16724 (Simulation time: 0 hr 26 min 56 sec) 
Heartbeat CPU 3 instructions: 120000001 cycles: 76646586 heartbeat IPC: 1.17529 cumulative IPC: 1.16706 (Simulation time: 0 hr 26 min 56 sec) 
Heartbeat CPU 0 instructions: 130000003 cycles: 85191485 heartbeat IPC: 1.16615 cumulative IPC: 1.16746 (Simulation time: 0 hr 29 min 44 sec) 
Heartbeat CPU 1 instructions: 130000003 cycles: 85203508 heartbeat IPC: 1.16634 cumulative IPC: 1.16726 (Simulation time: 0 hr 29 min 44 sec) 
Heartbeat CPU 2 instructions: 130000003 cycles: 85211142 heartbeat IPC: 1.1663 cumulative IPC: 1.16713 (Simulation time: 0 hr 29 min 44 sec) 
Heartbeat CPU 3 instructions: 130000003 cycles: 85220822 heartbeat IPC: 1.16628 cumulative IPC: 1.16696 (Simulation time: 0 hr 29 min 44 sec) 
Heartbeat CPU 0 instructions: 140000000 cycles: 93814463 heartbeat IPC: 1.15969 cumulative IPC: 1.16659 (Simulation time: 0 hr 32 min 13 sec) 
Heartbeat CPU 1 instructions: 140000000 cycles: 93828773 heartbeat IPC: 1.15938 cumulative IPC: 1.16638 (Simulation time: 0 hr 32 min 13 sec) 
Heartbeat CPU 2 instructions: 140000000 cycles: 93835678 heartbeat IPC: 1.15948 cumulative IPC: 1.16627 (Simulation time: 0 hr 32 min 13 sec) 
Heartbeat CPU 3 instructions: 140000000 cycles: 93846957 heartbeat IPC: 1.15927 cumulative IPC: 1.1661 (Simulation time: 0 hr 32 min 13 sec) 
Heartbeat CPU 0 instructions: 150000001 cycles: 102461561 heartbeat IPC: 1.15646 cumulative IPC: 1.16557 (Simulation time: 0 hr 34 min 42 sec) 
Heartbeat CPU 1 instructions: 150000001 cycles: 102477462 heartbeat IPC: 1.15624 cumulative IPC: 1.16535 (Simulation time: 0 hr 34 min 42 sec) 
Heartbeat CPU 2 instructions: 150000001 cycles: 102483379 heartbeat IPC: 1.15638 cumulative IPC: 1.16527 (Simulation time: 0 hr 34 min 42 sec) 
Heartbeat CPU 3 instructions: 150000001 cycles: 102495378 heartbeat IPC: 1.15628 cumulative IPC: 1.16511 (Simulation time: 0 hr 34 min 43 sec) 
Heartbeat CPU 0 instructions: 160000001 cycles: 111164529 heartbeat IPC: 1.14903 cumulative IPC: 1.16405 (Simulation time: 0 hr 37 min 19 sec) 
Heartbeat CPU 1 instructions: 160000001 cycles: 111179068 heartbeat IPC: 1.14921 cumulative IPC: 1.16387 (Simulation time: 0 hr 37 min 19 sec) 
Heartbeat CPU 2 instructions: 160000001 cycles: 111186490 heartbeat IPC: 1.14901 cumulative IPC: 1.16378 (Simulation time: 0 hr 37 min 19 sec) 
Heartbeat CPU 3 instructions: 160000001 cycles: 111199000 heartbeat IPC: 1.14895 cumulative IPC: 1.16362 (Simulation time: 0 hr 37 min 20 sec) 
Heartbeat CPU 0 instructions: 170000000 cycles: 119942635 heartbeat IPC: 1.1392 cumulative IPC: 1.16194 (Simulation time: 0 hr 39 min 50 sec) 
Heartbeat CPU 1 instructions: 170000000 cycles: 119956165 heartbeat IPC: 1.13933 cumulative IPC: 1.16178 (Simulation time: 0 hr 39 min 50 sec) 
Heartbeat CPU 2 instructions: 170000000 cycles: 119963288 heartbeat IPC: 1.13937 cumulative IPC: 1.1617 (Simulation time: 0 hr 39 min 50 sec) 
Heartbeat CPU 3 instructions: 170000000 cycles: 119976682 heartbeat IPC: 1.13925 cumulative IPC: 1.16155 (Simulation time: 0 hr 39 min 50 sec) 
Heartbeat CPU 0 instructions: 180000000 cycles: 128520708 heartbeat IPC: 1.16576 cumulative IPC: 1.16223 (Simulation time: 0 hr 42 min 34 sec) 
Heartbeat CPU 1 instructions: 180000000 cycles: 128533060 heartbeat IPC: 1.16592 cumulative IPC: 1.1621 (Simulation time: 0 hr 42 min 35 sec) 
Heartbeat CPU 2 instructions: 180000000 cycles: 128539559 heartbeat IPC: 1.16601 cumulative IPC: 1.16203 (Simulation time: 0 hr 42 min 35 sec) 
Heartbeat CPU 3 instructions: 180000000 cycles: 128552810 heartbeat IPC: 1.16603 cumulative IPC: 1.1619 (Simulation time: 0 hr 42 min 35 sec) 
Heartbeat CPU 0 instructions: 190000000 cycles: 137070043 heartbeat IPC: 1.16968 cumulative IPC: 1.16276 (Simulation time: 0 hr 44 min 57 sec) 
Heartbeat CPU 1 instructions: 190000000 cycles: 137081151 heartbeat IPC: 1.16985 cumulative IPC: 1.16265 (Simulation time: 0 hr 44 min 58 sec) 
Heartbeat CPU 2 instructions: 190000000 cycles: 137090407 heartbeat IPC: 1.16947 cumulative IPC: 1.16256 (Simulation time: 0 hr 44 min 58 sec) 
Heartbeat CPU 3 instructions: 190000000 cycles: 137100227 heartbeat IPC: 1.16994 cumulative IPC: 1.16247 (Simulation time: 0 hr 44 min 58 sec) 
Heartbeat CPU 0 instructions: 200000000 cycles: 145601982 heartbeat IPC: 1.17207 cumulative IPC: 1.16337 (Simulation time: 0 hr 47 min 48 sec) 
Heartbeat CPU 1 instructions: 200000000 cycles: 145611451 heartbeat IPC: 1.17229 cumulative IPC: 1.16329 (Simulation time: 0 hr 47 min 48 sec) 
Heartbeat CPU 2 instructions: 200000000 cycles: 145621492 heartbeat IPC: 1.17218 cumulative IPC: 1.1632 (Simulation time: 0 hr 47 min 48 sec) 
Heartbeat CPU 3 instructions: 200000000 cycles: 145628320 heartbeat IPC: 1.1726 cumulative IPC: 1.16314 (Simulation time: 0 hr 47 min 48 sec) 
Heartbeat CPU 0 instructions: 210000002 cycles: 154109558 heartbeat IPC: 1.17542 cumulative IPC: 1.16412 (Simulation time: 0 hr 50 min 20 sec) 
Heartbeat CPU 1 instructions: 210000002 cycles: 154118600 heartbeat IPC: 1.17548 cumulative IPC: 1.16404 (Simulation time: 0 hr 50 min 21 sec) 
Heartbeat CPU 2 instructions: 210000002 cycles: 154129574 heartbeat IPC: 1.17535 cumulative IPC: 1.16395 (Simulation time: 0 hr 50 min 21 sec) 
Heartbeat CPU 3 instructions: 210000002 cycles: 154137139 heartbeat IPC: 1.17525 cumulative IPC: 1.16389 (Simulation time: 0 hr 50 min 21 sec) 
Heartbeat CPU 0 instructions: 220000000 cycles: 162622250 heartbeat IPC: 1.17472 cumulative IPC: 1.16474 (Simulation time: 0 hr 53 min 3 sec) 
Heartbeat CPU 1 instructions: 220000000 cycles: 162629674 heartbeat IPC: 1.17494 cumulative IPC: 1.16468 (Simulation time: 0 hr 53 min 3 sec) 
Heartbeat CPU 2 instructions: 220000000 cycles: 162642638 heartbeat IPC: 1.17466 cumulative IPC: 1.16458 (Simulation time: 0 hr 53 min 3 sec) 
Heartbeat CPU 3 instructions: 220000000 cycles: 162650011 heartbeat IPC: 1.17469 cumulative IPC: 1.16452 (Simulation time: 0 hr 53 min 4 sec) 
Heartbeat CPU 0 instructions: 230000002 cycles: 171346288 heartbeat IPC: 1.14626 cumulative IPC: 1.1637 (Simulation time: 0 hr 55 min 44 sec) 
Heartbeat CPU 1 instructions: 230000002 cycles: 171353891 heartbeat IPC: 1.14623 cumulative IPC: 1.16364 (Simulation time: 0 hr 55 min 44 sec) 
Heartbeat CPU 2 instructions: 230000002 cycles: 171367116 heartbeat IPC: 1.1462 cumulative IPC: 1.16354 (Simulation time: 0 hr 55 min 44 sec) 
Heartbeat CPU 3 instructions: 230000002 cycles: 171374358 heartbeat IPC: 1.14622 cumulative IPC: 1.16348 (Simulation time: 0 hr 55 min 45 sec) 
Heartbeat CPU 0 instructions: 240000002 cycles: 180033886 heartbeat IPC: 1.15107 cumulative IPC: 1.16302 (Simulation time: 0 hr 58 min 29 sec) 
Heartbeat CPU 1 instructions: 240000002 cycles: 180040487 heartbeat IPC: 1.1512 cumulative IPC: 1.16298 (Simulation time: 0 hr 58 min 29 sec) 
Heartbeat CPU 2 instructions: 240000002 cycles: 180053405 heartbeat IPC: 1.15124 cumulative IPC: 1.16289 (Simulation time: 0 hr 58 min 30 sec) 
Heartbeat CPU 3 instructions: 240000002 cycles: 180059993 heartbeat IPC: 1.15133 cumulative IPC: 1.16284 (Simulation time: 0 hr 58 min 30 sec) 
*** Reached end of trace for Core: 0 Repeating trace: ./traces/ligra/ligra_PageRank.com-lj.ungraph.gcc_6.3.0_O3.drop_500M.length_250M.champsimtrace.xz
Heartbeat CPU 0 instructions: 250000003 cycles: 188611158 heartbeat IPC: 1.16587 cumulative IPC: 1.16317 (Simulation time: 1 hr 1 min 22 sec) 
Finished CPU 0 instructions: 200000001 cycles: 171945029 cumulative IPC: 1.16316 (Simulation time: 1 hr 1 min 22 sec) 
*** Reached end of trace for Core: 1 Repeating trace: ./traces/ligra/ligra_PageRank.com-lj.ungraph.gcc_6.3.0_O3.drop_500M.length_250M.champsimtrace.xz
Heartbeat CPU 1 instructions: 250000003 cycles: 188617267 heartbeat IPC: 1.16594 cumulative IPC: 1.16312 (Simulation time: 1 hr 1 min 22 sec) 
Finished CPU 1 instructions: 200000000 cycles: 171951112 cumulative IPC: 1.16312 (Simulation time: 1 hr 1 min 22 sec) 
*** Reached end of trace for Core: 2 Repeating trace: ./traces/ligra/ligra_PageRank.com-lj.ungraph.gcc_6.3.0_O3.drop_500M.length_250M.champsimtrace.xz
Heartbeat CPU 2 instructions: 250000003 cycles: 188630075 heartbeat IPC: 1.16595 cumulative IPC: 1.16304 (Simulation time: 1 hr 1 min 22 sec) 
Finished CPU 2 instructions: 200000003 cycles: 171964241 cumulative IPC: 1.16303 (Simulation time: 1 hr 1 min 22 sec) 
*** Reached end of trace for Core: 3 Repeating trace: ./traces/ligra/ligra_PageRank.com-lj.ungraph.gcc_6.3.0_O3.drop_500M.length_250M.champsimtrace.xz
Heartbeat CPU 3 instructions: 250000003 cycles: 188637936 heartbeat IPC: 1.16578 cumulative IPC: 1.16299 (Simulation time: 1 hr 1 min 22 sec) 
Finished CPU 3 instructions: 200000001 cycles: 171971254 cumulative IPC: 1.16299 (Simulation time: 1 hr 1 min 22 sec) 

ChampSim completed all CPUs

Total Simulation Statistics (not including warmup)

CPU 0 cumulative IPC: 1.16317 instructions: 200031422 cycles: 171971254
ITLB TOTAL     ACCESS:   33208089  HIT:   33208089  MISS:          0  HIT %:        100  MISS %:          0   MPKI: 0
ITLB LOAD      ACCESS:          0  HIT:          0  MISS:          0  HIT %:       -nan  MISS %:       -nan   MPKI: 0
ITLB RFO       ACCESS:          0  HIT:          0  MISS:          0  HIT %:       -nan  MISS %:       -nan   MPKI: 0
ITLB PREFETCH  ACCESS:          0  HIT:          0  MISS:          0  HIT %:       -nan  MISS %:       -nan   MPKI: 0
ITLB WRITEBACK ACCESS:          0  HIT:          0  MISS:          0  HIT %:       -nan  MISS %:       -nan   MPKI: 0
DTLB TOTAL     ACCESS:   18100690  HIT:   18093399  MISS:       7291  HIT %:    99.9597  MISS %:  0.0402802   MPKI: 0.0364493
DTLB LOAD      ACCESS:          0  HIT:          0  MISS:          0  HIT %:       -nan  MISS %:       -nan   MPKI: 0
DTLB RFO       ACCESS:          0  HIT:          0  MISS:          0  HIT %:       -nan  MISS %:       -nan   MPKI: 0
DTLB PREFETCH  ACCESS:          0  HIT:          0  MISS:          0  HIT %:       -nan  MISS %:       -nan   MPKI: 0
DTLB WRITEBACK ACCESS:          0  HIT:          0  MISS:          0  HIT %:       -nan  MISS %:       -nan   MPKI: 0
STLB TOTAL     ACCESS:     431897  HIT:     424606  MISS:       7291  HIT %:    98.3119  MISS %:    1.68813   MPKI: 0.0364493
STLB LOAD      ACCESS:          0  HIT:          0  MISS:          0  HIT %:       -nan  MISS %:       -nan   MPKI: 0
STLB RFO       ACCESS:          0  HIT:          0  MISS:          0  HIT %:       -nan  MISS %:       -nan   MPKI: 0
STLB PREFETCH  ACCESS:          0  HIT:          0  MISS:          0  HIT %:       -nan  MISS %:       -nan   MPKI: 0
STLB WRITEBACK ACCESS:          0  HIT:          0  MISS:          0  HIT %:       -nan  MISS %:       -nan   MPKI: 0
L1D TOTAL     ACCESS:   19087620  HIT:   18621068  MISS:     466552  HIT %:    97.5557  MISS %:    2.44426   MPKI: 2.33239
L1D LOAD      ACCESS:   14425415  HIT:   14417972  MISS:       7443  HIT %:    99.9484  MISS %:  0.0515964   MPKI: 0.0372092
L1D RFO       ACCESS:    4175546  HIT:    4175546  MISS:          0  HIT %:        100  MISS %:          0   MPKI: 0
L1D PREFETCH  ACCESS:     486659  HIT:      27550  MISS:     459109  HIT %:    5.66105  MISS %:     94.339   MPKI: 2.29518
L1D WRITEBACK ACCESS:          0  HIT:          0  MISS:          0  HIT %:       -nan  MISS %:       -nan   MPKI: 0
L1I TOTAL     ACCESS:   33208088  HIT:   33208088  MISS:          0  HIT %:        100  MISS %:          0   MPKI: 0
L1I LOAD      ACCESS:   33208088  HIT:   33208088  MISS:          0  HIT %:        100  MISS %:          0   MPKI: 0
L1I RFO       ACCESS:          0  HIT:          0  MISS:          0  HIT %:       -nan  MISS %:       -nan   MPKI: 0
L1I PREFETCH  ACCESS:          0  HIT:          0  MISS:          0  HIT %:       -nan  MISS %:       -nan   MPKI: 0
L1I WRITEBACK ACCESS:          0  HIT:          0  MISS:          0  HIT %:       -nan  MISS %:       -nan   MPKI: 0
L2C TOTAL     ACCESS:     940395  HIT:     245344  MISS:     695051  HIT %:    26.0895  MISS %:    73.9105   MPKI: 3.47471
L2C LOAD      ACCESS:       7291  HIT:          0  MISS:       7291  HIT %:          0  MISS %:        100   MPKI: 0.0364493
L2C RFO       ACCESS:          0  HIT:          0  MISS:          0  HIT %:       -nan  MISS %:       -nan   MPKI: 0
L2C PREFETCH  ACCESS:     459261  HIT:          0  MISS:     459261  HIT %:          0  MISS %:        100   MPKI: 2.29594
L2C WRITEBACK ACCESS:     466552  HIT:     238976  MISS:     227576  HIT %:    51.2217  MISS %:    48.7783   MPKI: 1.1377
PSCL5 TOTAL     ACCESS:       7291  HIT:       7291  MISS:          0  HIT %:        100  MISS %:          0   MPKI: 0
PSCL5 LOAD      ACCESS:          0  HIT:          0  MISS:          0  HIT %:       -nan  MISS %:       -nan   MPKI: 0
PSCL5 RFO       ACCESS:          0  HIT:          0  MISS:          0  HIT %:       -nan  MISS %:       -nan   MPKI: 0
PSCL5 PREFETCH  ACCESS:          0  HIT:          0  MISS:          0  HIT %:       -nan  MISS %:       -nan   MPKI: 0
PSCL5 WRITEBACK ACCESS:          0  HIT:          0  MISS:          0  HIT %:       -nan  MISS %:       -nan   MPKI: 0
PSCL4 TOTAL     ACCESS:       7291  HIT:       7291  MISS:          0  HIT %:        100  MISS %:          0   MPKI: 0
PSCL4 LOAD      ACCESS:          0  HIT:          0  MISS:          0  HIT %:       -nan  MISS %:       -nan   MPKI: 0
PSCL4 RFO       ACCESS:          0  HIT:          0  MISS:          0  HIT %:       -nan  MISS %:       -nan   MPKI: 0
PSCL4 PREFETCH  ACCESS:          0  HIT:          0  MISS:          0  HIT %:       -nan  MISS %:       -nan   MPKI: 0
PSCL4 WRITEBACK ACCESS:          0  HIT:          0  MISS:          0  HIT %:       -nan  MISS %:       -nan   MPKI: 0
PSCL3 TOTAL     ACCESS:       7291  HIT:       7291  MISS:          0  HIT %:        100  MISS %:          0   MPKI: 0
PSCL3 LOAD      ACCESS:          0  HIT:          0  MISS:          0  HIT %:       -nan  MISS %:       -nan   MPKI: 0
PSCL3 RFO       ACCESS:          0  HIT:          0  MISS:          0  HIT %:       -nan  MISS %:       -nan   MPKI: 0
PSCL3 PREFETCH  ACCESS:          0  HIT:          0  MISS:          0  HIT %:       -nan  MISS %:       -nan   MPKI: 0
PSCL3 WRITEBACK ACCESS:          0  HIT:          0  MISS:          0  HIT %:       -nan  MISS %:       -nan   MPKI: 0
PSCL2 TOTAL     ACCESS:       7291  HIT:       7276  MISS:         15  HIT %:    99.7943  MISS %:   0.205733   MPKI: 7.49882e-05
PSCL2 LOAD      ACCESS:          0  HIT:          0  MISS:          0  HIT %:       -nan  MISS %:       -nan   MPKI: 0
PSCL2 RFO       ACCESS:          0  HIT:          0  MISS:          0  HIT %:       -nan  MISS %:       -nan   MPKI: 0
PSCL2 PREFETCH  ACCESS:          0  HIT:          0  MISS:          0  HIT %:       -nan  MISS %:       -nan   MPKI: 0
PSCL2 WRITEBACK ACCESS:          0  HIT:          0  MISS:          0  HIT %:       -nan  MISS %:       -nan   MPKI: 0

stream: 
stream:times selected: 657283
stream:pref_filled: 571221
stream:pref_useful: 571210
stream:pref_late: 150
stream:misses: 21
stream:misses_by_poll: 0

CS: 
CS:times selected: 657276
CS:pref_filled: 2035
CS:pref_useful: 2035
CS:pref_late: 2
CS:misses: 47522
CS:misses_by_poll: 0

CPLX: 
CPLX:times selected: 5
CPLX:pref_filled: 0
CPLX:pref_useful: 0
CPLX:pref_late: 0
CPLX:misses: 0
CPLX:misses_by_poll: 0

NL_L1: 
NL:times selected: 0
NL:pref_filled: 0
NL:pref_useful: 0
NL:pref_late: 0
NL:misses: 0
NL:misses_by_poll: 0

total selections: 1314564
total_filled: 459109
total_useful: 459104
total_late: 152
total_polluted: 0
total_misses_after_warmup: 44194
conflicts: 0
Degree Incremented Times: 467530
Degree Decremented Times: 0

L1 IP Table Write Accesses: 57835381
L1 IP Table Read Accesses: 57835381
L1 RST Write Accesses: 2165326
L1 RST Read Accesses: 4330652
L1 CSPT Write Accesses: 2165326
L1 CSPT Read Accesses: 2165326
L1 RR Filter Tag Write Accesses: 1944362
L1 RR Filter Tag Read Accesses: 378753565
L1 IP Table Tag Write Accesses: 57835381
L1 IP Table Tag Read Accesses: 57835381
L1 RST Tag Write Accesses: 0
L1 RST Tag Read Accesses: 19492179
L1 RR Filter Write Accesses: 0
L1 RR Filter Read Accesses: 18576314
test: 36135
LLC TOTAL     ACCESS:     934124  HIT:     420094  MISS:     514030  HIT %:     44.972  MISS %:     55.028   MPKI: 2.56975
LLC LOAD      ACCESS:       7291  HIT:          0  MISS:       7291  HIT %:          0  MISS %:        100   MPKI: 0.0364493
LLC RFO       ACCESS:          0  HIT:          0  MISS:          0  HIT %:       -nan  MISS %:       -nan   MPKI: 0
LLC PREFETCH  ACCESS:     459261  HIT:          0  MISS:     459261  HIT %:          0  MISS %:        100   MPKI: 2.29594
LLC WRITEBACK ACCESS:     466649  HIT:     420094  MISS:      46555  HIT %:    90.0236  MISS %:    9.97645   MPKI: 0.232738

RAW hits: 0
Loads Generated: 29858952
Loads sent to L1D: 29858951
Stores Generated: 4175546
Stores sent to L1D: 4175546

CPU 1 cumulative IPC: 1.16313 instructions: 200024148 cycles: 171971254
ITLB TOTAL     ACCESS:   33206838  HIT:   33206838  MISS:          0  HIT %:        100  MISS %:          0   MPKI: 0
ITLB LOAD      ACCESS:          0  HIT:          0  MISS:          0  HIT %:       -nan  MISS %:       -nan   MPKI: 0
ITLB RFO       ACCESS:          0  HIT:          0  MISS:          0  HIT %:       -nan  MISS %:       -nan   MPKI: 0
ITLB PREFETCH  ACCESS:          0  HIT:          0  MISS:          0  HIT %:       -nan  MISS %:       -nan   MPKI: 0
ITLB WRITEBACK ACCESS:          0  HIT:          0  MISS:          0  HIT %:       -nan  MISS %:       -nan   MPKI: 0
DTLB TOTAL     ACCESS:   18098340  HIT:   18091049  MISS:       7291  HIT %:    99.9597  MISS %:  0.0402855   MPKI: 0.0364506
DTLB LOAD      ACCESS:          0  HIT:          0  MISS:          0  HIT %:       -nan  MISS %:       -nan   MPKI: 0
DTLB RFO       ACCESS:          0  HIT:          0  MISS:          0  HIT %:       -nan  MISS %:       -nan   MPKI: 0
DTLB PREFETCH  ACCESS:          0  HIT:          0  MISS:          0  HIT %:       -nan  MISS %:       -nan   MPKI: 0
DTLB WRITEBACK ACCESS:          0  HIT:          0  MISS:          0  HIT %:       -nan  MISS %:       -nan   MPKI: 0
STLB TOTAL     ACCESS:     430972  HIT:     423681  MISS:       7291  HIT %:    98.3082  MISS %:    1.69176   MPKI: 0.0364506
STLB LOAD      ACCESS:          0  HIT:          0  MISS:          0  HIT %:       -nan  MISS %:       -nan   MPKI: 0
STLB RFO       ACCESS:          0  HIT:          0  MISS:          0  HIT %:       -nan  MISS %:       -nan   MPKI: 0
STLB PREFETCH  ACCESS:          0  HIT:          0  MISS:          0  HIT %:       -nan  MISS %:       -nan   MPKI: 0
STLB WRITEBACK ACCESS:          0  HIT:          0  MISS:          0  HIT %:       -nan  MISS %:       -nan   MPKI: 0
L1D TOTAL     ACCESS:   19082900  HIT:   18616359  MISS:     466541  HIT %:    97.5552  MISS %:    2.44481   MPKI: 2.33242
L1D LOAD      ACCESS:   14421651  HIT:   14413939  MISS:       7712  HIT %:    99.9465  MISS %:  0.0534752   MPKI: 0.0385553
L1D RFO       ACCESS:    4175382  HIT:    4175382  MISS:          0  HIT %:        100  MISS %:          0   MPKI: 0
L1D PREFETCH  ACCESS:     485867  HIT:      27038  MISS:     458829  HIT %:     5.5649  MISS %:    94.4351   MPKI: 2.29387
L1D WRITEBACK ACCESS:          0  HIT:          0  MISS:          0  HIT %:       -nan  MISS %:       -nan   MPKI: 0
L1I TOTAL     ACCESS:   33206838  HIT:   33206838  MISS:          0  HIT %:        100  MISS %:          0   MPKI: 0
L1I LOAD      ACCESS:   33206838  HIT:   33206838  MISS:          0  HIT %:        100  MISS %:          0   MPKI: 0
L1I RFO       ACCESS:          0  HIT:          0  MISS:          0  HIT %:       -nan  MISS %:       -nan   MPKI: 0
L1I PREFETCH  ACCESS:          0  HIT:          0  MISS:          0  HIT %:       -nan  MISS %:       -nan   MPKI: 0
L1I WRITEBACK ACCESS:          0  HIT:          0  MISS:          0  HIT %:       -nan  MISS %:       -nan   MPKI: 0
L2C TOTAL     ACCESS:     940373  HIT:     244132  MISS:     696241  HIT %:    25.9612  MISS %:    74.0388   MPKI: 3.48078
L2C LOAD      ACCESS:       7571  HIT:          0  MISS:       7571  HIT %:          0  MISS %:        100   MPKI: 0.0378504
L2C RFO       ACCESS:          0  HIT:          0  MISS:          0  HIT %:       -nan  MISS %:       -nan   MPKI: 0
L2C PREFETCH  ACCESS:     458970  HIT:          0  MISS:     458970  HIT %:          0  MISS %:        100   MPKI: 2.29457
L2C WRITEBACK ACCESS:     466541  HIT:     237764  MISS:     228777  HIT %:    50.9632  MISS %:    49.0368   MPKI: 1.14375
PSCL5 TOTAL     ACCESS:       7291  HIT:       7291  MISS:          0  HIT %:        100  MISS %:          0   MPKI: 0
PSCL5 LOAD      ACCESS:          0  HIT:          0  MISS:          0  HIT %:       -nan  MISS %:       -nan   MPKI: 0
PSCL5 RFO       ACCESS:          0  HIT:          0  MISS:          0  HIT %:       -nan  MISS %:       -nan   MPKI: 0
PSCL5 PREFETCH  ACCESS:          0  HIT:          0  MISS:          0  HIT %:       -nan  MISS %:       -nan   MPKI: 0
PSCL5 WRITEBACK ACCESS:          0  HIT:          0  MISS:          0  HIT %:       -nan  MISS %:       -nan   MPKI: 0
PSCL4 TOTAL     ACCESS:       7291  HIT:       7291  MISS:          0  HIT %:        100  MISS %:          0   MPKI: 0
PSCL4 LOAD      ACCESS:          0  HIT:          0  MISS:          0  HIT %:       -nan  MISS %:       -nan   MPKI: 0
PSCL4 RFO       ACCESS:          0  HIT:          0  MISS:          0  HIT %:       -nan  MISS %:       -nan   MPKI: 0
PSCL4 PREFETCH  ACCESS:          0  HIT:          0  MISS:          0  HIT %:       -nan  MISS %:       -nan   MPKI: 0
PSCL4 WRITEBACK ACCESS:          0  HIT:          0  MISS:          0  HIT %:       -nan  MISS %:       -nan   MPKI: 0
PSCL3 TOTAL     ACCESS:       7291  HIT:       7291  MISS:          0  HIT %:        100  MISS %:          0   MPKI: 0
PSCL3 LOAD      ACCESS:          0  HIT:          0  MISS:          0  HIT %:       -nan  MISS %:       -nan   MPKI: 0
PSCL3 RFO       ACCESS:          0  HIT:          0  MISS:          0  HIT %:       -nan  MISS %:       -nan   MPKI: 0
PSCL3 PREFETCH  ACCESS:          0  HIT:          0  MISS:          0  HIT %:       -nan  MISS %:       -nan   MPKI: 0
PSCL3 WRITEBACK ACCESS:          0  HIT:          0  MISS:          0  HIT %:       -nan  MISS %:       -nan   MPKI: 0
PSCL2 TOTAL     ACCESS:       7291  HIT:       7276  MISS:         15  HIT %:    99.7943  MISS %:   0.205733   MPKI: 7.49909e-05
PSCL2 LOAD      ACCESS:          0  HIT:          0  MISS:          0  HIT %:       -nan  MISS %:       -nan   MPKI: 0
PSCL2 RFO       ACCESS:          0  HIT:          0  MISS:          0  HIT %:       -nan  MISS %:       -nan   MPKI: 0
PSCL2 PREFETCH  ACCESS:          0  HIT:          0  MISS:          0  HIT %:       -nan  MISS %:       -nan   MPKI: 0
PSCL2 WRITEBACK ACCESS:          0  HIT:          0  MISS:          0  HIT %:       -nan  MISS %:       -nan   MPKI: 0

stream: 
stream:times selected: 657300
stream:pref_filled: 456961
stream:pref_useful: 456950
stream:pref_late: 138
stream:misses: 27
stream:misses_by_poll: 0

CS: 
CS:times selected: 657293
CS:pref_filled: 1868
CS:pref_useful: 1868
CS:pref_late: 3
CS:misses: 262128
CS:misses_by_poll: 4

CPLX: 
CPLX:times selected: 5
CPLX:pref_filled: 0
CPLX:pref_useful: 0
CPLX:pref_late: 0
CPLX:misses: 10
CPLX:misses_by_poll: 0

NL_L1: 
NL:times selected: 0
NL:pref_filled: 0
NL:pref_useful: 0
NL:pref_late: 0
NL:misses: 0
NL:misses_by_poll: 0

total selections: 1314598
total_filled: 458829
total_useful: 458818
total_late: 141
total_polluted: 4
total_misses_after_warmup: 46219
conflicts: 0
Degree Incremented Times: 467530
Degree Decremented Times: 0

L1 IP Table Write Accesses: 57835381
L1 IP Table Read Accesses: 57835381
L1 RST Write Accesses: 2165326
L1 RST Read Accesses: 4330652
L1 CSPT Write Accesses: 2165326
L1 CSPT Read Accesses: 2165326
L1 RR Filter Tag Write Accesses: 1944362
L1 RR Filter Tag Read Accesses: 378753565
L1 IP Table Tag Write Accesses: 57835381
L1 IP Table Tag Read Accesses: 57835381
L1 RST Tag Write Accesses: 0
L1 RST Tag Read Accesses: 19492179
L1 RR Filter Write Accesses: 0
L1 RR Filter Read Accesses: 18576314
test: 36135
LLC TOTAL     ACCESS:     934232  HIT:     419895  MISS:     514337  HIT %:    44.9455  MISS %:    55.0545   MPKI: 2.57137
LLC LOAD      ACCESS:       7571  HIT:          0  MISS:       7571  HIT %:          0  MISS %:        100   MPKI: 0.0378504
LLC RFO       ACCESS:          0  HIT:          0  MISS:          0  HIT %:       -nan  MISS %:       -nan   MPKI: 0
LLC PREFETCH  ACCESS:     458970  HIT:          0  MISS:     458970  HIT %:          0  MISS %:        100   MPKI: 2.29457
LLC WRITEBACK ACCESS:     466768  HIT:     419895  MISS:      46873  HIT %:     89.958  MISS %:     10.042   MPKI: 0.234337

RAW hits: 0
Loads Generated: 29857876
Loads sent to L1D: 29857874
Stores Generated: 4175382
Stores sent to L1D: 4175382

CPU 2 cumulative IPC: 1.16303 instructions: 200008515 cycles: 171971254
ITLB TOTAL     ACCESS:   33204266  HIT:   33204266  MISS:          0  HIT %:        100  MISS %:          0   MPKI: 0
ITLB LOAD      ACCESS:          0  HIT:          0  MISS:          0  HIT %:       -nan  MISS %:       -nan   MPKI: 0
ITLB RFO       ACCESS:          0  HIT:          0  MISS:          0  HIT %:       -nan  MISS %:       -nan   MPKI: 0
ITLB PREFETCH  ACCESS:          0  HIT:          0  MISS:          0  HIT %:       -nan  MISS %:       -nan   MPKI: 0
ITLB WRITEBACK ACCESS:          0  HIT:          0  MISS:          0  HIT %:       -nan  MISS %:       -nan   MPKI: 0
DTLB TOTAL     ACCESS:   18094681  HIT:   18087390  MISS:       7291  HIT %:    99.9597  MISS %:  0.0402936   MPKI: 0.0364534
DTLB LOAD      ACCESS:          0  HIT:          0  MISS:          0  HIT %:       -nan  MISS %:       -nan   MPKI: 0
DTLB RFO       ACCESS:          0  HIT:          0  MISS:          0  HIT %:       -nan  MISS %:       -nan   MPKI: 0
DTLB PREFETCH  ACCESS:          0  HIT:          0  MISS:          0  HIT %:       -nan  MISS %:       -nan   MPKI: 0
DTLB WRITEBACK ACCESS:          0  HIT:          0  MISS:          0  HIT %:       -nan  MISS %:       -nan   MPKI: 0
STLB TOTAL     ACCESS:     428908  HIT:     421617  MISS:       7291  HIT %:    98.3001  MISS %:     1.6999   MPKI: 0.0364534
STLB LOAD      ACCESS:          0  HIT:          0  MISS:          0  HIT %:       -nan  MISS %:       -nan   MPKI: 0
STLB RFO       ACCESS:          0  HIT:          0  MISS:          0  HIT %:       -nan  MISS %:       -nan   MPKI: 0
STLB PREFETCH  ACCESS:          0  HIT:          0  MISS:          0  HIT %:       -nan  MISS %:       -nan   MPKI: 0
STLB WRITEBACK ACCESS:          0  HIT:          0  MISS:          0  HIT %:       -nan  MISS %:       -nan   MPKI: 0
L1D TOTAL     ACCESS:   19077018  HIT:   18610513  MISS:     466505  HIT %:    97.5546  MISS %:    2.44538   MPKI: 2.33243
L1D LOAD      ACCESS:   14416743  HIT:   14408737  MISS:       8006  HIT %:    99.9445  MISS %:  0.0555327   MPKI: 0.0400283
L1D RFO       ACCESS:    4175034  HIT:    4175034  MISS:          0  HIT %:        100  MISS %:          0   MPKI: 0
L1D PREFETCH  ACCESS:     485241  HIT:      26742  MISS:     458499  HIT %:    5.51108  MISS %:    94.4889   MPKI: 2.2924
L1D WRITEBACK ACCESS:          0  HIT:          0  MISS:          0  HIT %:       -nan  MISS %:       -nan   MPKI: 0
L1I TOTAL     ACCESS:   33204266  HIT:   33204266  MISS:          0  HIT %:        100  MISS %:          0   MPKI: 0
L1I LOAD      ACCESS:   33204266  HIT:   33204266  MISS:          0  HIT %:        100  MISS %:          0   MPKI: 0
L1I RFO       ACCESS:          0  HIT:          0  MISS:          0  HIT %:       -nan  MISS %:       -nan   MPKI: 0
L1I PREFETCH  ACCESS:          0  HIT:          0  MISS:          0  HIT %:       -nan  MISS %:       -nan   MPKI: 0
L1I WRITEBACK ACCESS:          0  HIT:          0  MISS:          0  HIT %:       -nan  MISS %:       -nan   MPKI: 0
L2C TOTAL     ACCESS:     940301  HIT:     244838  MISS:     695463  HIT %:    26.0383  MISS %:    73.9617   MPKI: 3.47717
L2C LOAD      ACCESS:       7836  HIT:          0  MISS:       7836  HIT %:          0  MISS %:        100   MPKI: 0.0391783
L2C RFO       ACCESS:          0  HIT:          0  MISS:          0  HIT %:       -nan  MISS %:       -nan   MPKI: 0
L2C PREFETCH  ACCESS:     458669  HIT:          0  MISS:     458669  HIT %:          0  MISS %:        100   MPKI: 2.29325
L2C WRITEBACK ACCESS:     466505  HIT:     238473  MISS:     228032  HIT %:    51.1191  MISS %:    48.8809   MPKI: 1.14011
PSCL5 TOTAL     ACCESS:       7291  HIT:       7291  MISS:          0  HIT %:        100  MISS %:          0   MPKI: 0
PSCL5 LOAD      ACCESS:          0  HIT:          0  MISS:          0  HIT %:       -nan  MISS %:       -nan   MPKI: 0
PSCL5 RFO       ACCESS:          0  HIT:          0  MISS:          0  HIT %:       -nan  MISS %:       -nan   MPKI: 0
PSCL5 PREFETCH  ACCESS:          0  HIT:          0  MISS:          0  HIT %:       -nan  MISS %:       -nan   MPKI: 0
PSCL5 WRITEBACK ACCESS:          0  HIT:          0  MISS:          0  HIT %:       -nan  MISS %:       -nan   MPKI: 0
PSCL4 TOTAL     ACCESS:       7291  HIT:       7291  MISS:          0  HIT %:        100  MISS %:          0   MPKI: 0
PSCL4 LOAD      ACCESS:          0  HIT:          0  MISS:          0  HIT %:       -nan  MISS %:       -nan   MPKI: 0
PSCL4 RFO       ACCESS:          0  HIT:          0  MISS:          0  HIT %:       -nan  MISS %:       -nan   MPKI: 0
PSCL4 PREFETCH  ACCESS:          0  HIT:          0  MISS:          0  HIT %:       -nan  MISS %:       -nan   MPKI: 0
PSCL4 WRITEBACK ACCESS:          0  HIT:          0  MISS:          0  HIT %:       -nan  MISS %:       -nan   MPKI: 0
PSCL3 TOTAL     ACCESS:       7291  HIT:       7291  MISS:          0  HIT %:        100  MISS %:          0   MPKI: 0
PSCL3 LOAD      ACCESS:          0  HIT:          0  MISS:          0  HIT %:       -nan  MISS %:       -nan   MPKI: 0
PSCL3 RFO       ACCESS:          0  HIT:          0  MISS:          0  HIT %:       -nan  MISS %:       -nan   MPKI: 0
PSCL3 PREFETCH  ACCESS:          0  HIT:          0  MISS:          0  HIT %:       -nan  MISS %:       -nan   MPKI: 0
PSCL3 WRITEBACK ACCESS:          0  HIT:          0  MISS:          0  HIT %:       -nan  MISS %:       -nan   MPKI: 0
PSCL2 TOTAL     ACCESS:       7291  HIT:       7276  MISS:         15  HIT %:    99.7943  MISS %:   0.205733   MPKI: 7.49968e-05
PSCL2 LOAD      ACCESS:          0  HIT:          0  MISS:          0  HIT %:       -nan  MISS %:       -nan   MPKI: 0
PSCL2 RFO       ACCESS:          0  HIT:          0  MISS:          0  HIT %:       -nan  MISS %:       -nan   MPKI: 0
PSCL2 PREFETCH  ACCESS:          0  HIT:          0  MISS:          0  HIT %:       -nan  MISS %:       -nan   MPKI: 0
PSCL2 WRITEBACK ACCESS:          0  HIT:          0  MISS:          0  HIT %:       -nan  MISS %:       -nan   MPKI: 0

stream: 
stream:times selected: 657280
stream:pref_filled: 456251
stream:pref_useful: 456240
stream:pref_late: 159
stream:misses: 27
stream:misses_by_poll: 0

CS: 
CS:times selected: 657273
CS:pref_filled: 2248
CS:pref_useful: 2248
CS:pref_late: 9
CS:misses: 266754
CS:misses_by_poll: 3

CPLX: 
CPLX:times selected: 5
CPLX:pref_filled: 0
CPLX:pref_useful: 0
CPLX:pref_late: 0
CPLX:misses: 10
CPLX:misses_by_poll: 0

NL_L1: 
NL:times selected: 0
NL:pref_filled: 0
NL:pref_useful: 0
NL:pref_late: 0
NL:misses: 0
NL:misses_by_poll: 0

total selections: 1314558
total_filled: 458499
total_useful: 458488
total_late: 170
total_polluted: 3
total_misses_after_warmup: 48318
conflicts: 0
Degree Incremented Times: 467530
Degree Decremented Times: 0

L1 IP Table Write Accesses: 57835381
L1 IP Table Read Accesses: 57835381
L1 RST Write Accesses: 2165326
L1 RST Read Accesses: 4330652
L1 CSPT Write Accesses: 2165326
L1 CSPT Read Accesses: 2165326
L1 RR Filter Tag Write Accesses: 1944362
L1 RR Filter Tag Read Accesses: 378753565
L1 IP Table Tag Write Accesses: 57835381
L1 IP Table Tag Read Accesses: 57835381
L1 RST Tag Write Accesses: 0
L1 RST Tag Read Accesses: 19492179
L1 RR Filter Write Accesses: 0
L1 RR Filter Read Accesses: 18576314
test: 36135
LLC TOTAL     ACCESS:     934111  HIT:     419578  MISS:     514533  HIT %:    44.9174  MISS %:    55.0826   MPKI: 2.57256
LLC LOAD      ACCESS:       7836  HIT:          0  MISS:       7836  HIT %:          0  MISS %:        100   MPKI: 0.0391783
LLC RFO       ACCESS:          0  HIT:          0  MISS:          0  HIT %:       -nan  MISS %:       -nan   MPKI: 0
LLC PREFETCH  ACCESS:     458669  HIT:          0  MISS:     458669  HIT %:          0  MISS %:        100   MPKI: 2.29325
LLC WRITEBACK ACCESS:     466680  HIT:     419578  MISS:      47102  HIT %:     89.907  MISS %:     10.093   MPKI: 0.2355

RAW hits: 0
Loads Generated: 29855559
Loads sent to L1D: 29855558
Stores Generated: 4175035
Stores sent to L1D: 4175034

CPU 3 cumulative IPC: 1.16299 instructions: 200000001 cycles: 171971254
ITLB TOTAL     ACCESS:   33202870  HIT:   33202870  MISS:          0  HIT %:        100  MISS %:          0   MPKI: 0
ITLB LOAD      ACCESS:          0  HIT:          0  MISS:          0  HIT %:       -nan  MISS %:       -nan   MPKI: 0
ITLB RFO       ACCESS:          0  HIT:          0  MISS:          0  HIT %:       -nan  MISS %:       -nan   MPKI: 0
ITLB PREFETCH  ACCESS:          0  HIT:          0  MISS:          0  HIT %:       -nan  MISS %:       -nan   MPKI: 0
ITLB WRITEBACK ACCESS:          0  HIT:          0  MISS:          0  HIT %:       -nan  MISS %:       -nan   MPKI: 0
DTLB TOTAL     ACCESS:   18093227  HIT:   18085938  MISS:       7289  HIT %:    99.9597  MISS %:  0.0402858   MPKI: 0.036445
DTLB LOAD      ACCESS:          0  HIT:          0  MISS:          0  HIT %:       -nan  MISS %:       -nan   MPKI: 0
DTLB RFO       ACCESS:          0  HIT:          0  MISS:          0  HIT %:       -nan  MISS %:       -nan   MPKI: 0
DTLB PREFETCH  ACCESS:          0  HIT:          0  MISS:          0  HIT %:       -nan  MISS %:       -nan   MPKI: 0
DTLB WRITEBACK ACCESS:          0  HIT:          0  MISS:          0  HIT %:       -nan  MISS %:       -nan   MPKI: 0
STLB TOTAL     ACCESS:     429567  HIT:     422278  MISS:       7289  HIT %:    98.3032  MISS %:    1.69682   MPKI: 0.036445
STLB LOAD      ACCESS:          0  HIT:          0  MISS:          0  HIT %:       -nan  MISS %:       -nan   MPKI: 0
STLB RFO       ACCESS:          0  HIT:          0  MISS:          0  HIT %:       -nan  MISS %:       -nan   MPKI: 0
STLB PREFETCH  ACCESS:          0  HIT:          0  MISS:          0  HIT %:       -nan  MISS %:       -nan   MPKI: 0
STLB WRITEBACK ACCESS:          0  HIT:          0  MISS:          0  HIT %:       -nan  MISS %:       -nan   MPKI: 0
L1D TOTAL     ACCESS:   19076321  HIT:   18609843  MISS:     466478  HIT %:    97.5547  MISS %:    2.44532   MPKI: 2.33239
L1D LOAD      ACCESS:   14415520  HIT:   14407510  MISS:       8010  HIT %:    99.9444  MISS %:  0.0555651   MPKI: 0.04005
L1D RFO       ACCESS:    4174845  HIT:    4174845  MISS:          0  HIT %:        100  MISS %:          0   MPKI: 0
L1D PREFETCH  ACCESS:     485956  HIT:      27488  MISS:     458468  HIT %:    5.65648  MISS %:    94.3435   MPKI: 2.29234
L1D WRITEBACK ACCESS:          0  HIT:          0  MISS:          0  HIT %:       -nan  MISS %:       -nan   MPKI: 0
L1I TOTAL     ACCESS:   33202870  HIT:   33202870  MISS:          0  HIT %:        100  MISS %:          0   MPKI: 0
L1I LOAD      ACCESS:   33202870  HIT:   33202870  MISS:          0  HIT %:        100  MISS %:          0   MPKI: 0
L1I RFO       ACCESS:          0  HIT:          0  MISS:          0  HIT %:       -nan  MISS %:       -nan   MPKI: 0
L1I PREFETCH  ACCESS:          0  HIT:          0  MISS:          0  HIT %:       -nan  MISS %:       -nan   MPKI: 0
L1I WRITEBACK ACCESS:          0  HIT:          0  MISS:          0  HIT %:       -nan  MISS %:       -nan   MPKI: 0
L2C TOTAL     ACCESS:     940245  HIT:     241373  MISS:     698872  HIT %:    25.6713  MISS %:    74.3287   MPKI: 3.49436
L2C LOAD      ACCESS:       7866  HIT:          0  MISS:       7866  HIT %:          0  MISS %:        100   MPKI: 0.03933
L2C RFO       ACCESS:          0  HIT:          0  MISS:          0  HIT %:       -nan  MISS %:       -nan   MPKI: 0
L2C PREFETCH  ACCESS:     458612  HIT:          0  MISS:     458612  HIT %:          0  MISS %:        100   MPKI: 2.29306
L2C WRITEBACK ACCESS:     466478  HIT:     235009  MISS:     231469  HIT %:    50.3794  MISS %:    49.6206   MPKI: 1.15734
PSCL5 TOTAL     ACCESS:       7289  HIT:       7289  MISS:          0  HIT %:        100  MISS %:          0   MPKI: 0
PSCL5 LOAD      ACCESS:          0  HIT:          0  MISS:          0  HIT %:       -nan  MISS %:       -nan   MPKI: 0
PSCL5 RFO       ACCESS:          0  HIT:          0  MISS:          0  HIT %:       -nan  MISS %:       -nan   MPKI: 0
PSCL5 PREFETCH  ACCESS:          0  HIT:          0  MISS:          0  HIT %:       -nan  MISS %:       -nan   MPKI: 0
PSCL5 WRITEBACK ACCESS:          0  HIT:          0  MISS:          0  HIT %:       -nan  MISS %:       -nan   MPKI: 0
PSCL4 TOTAL     ACCESS:       7289  HIT:       7289  MISS:          0  HIT %:        100  MISS %:          0   MPKI: 0
PSCL4 LOAD      ACCESS:          0  HIT:          0  MISS:          0  HIT %:       -nan  MISS %:       -nan   MPKI: 0
PSCL4 RFO       ACCESS:          0  HIT:          0  MISS:          0  HIT %:       -nan  MISS %:       -nan   MPKI: 0
PSCL4 PREFETCH  ACCESS:          0  HIT:          0  MISS:          0  HIT %:       -nan  MISS %:       -nan   MPKI: 0
PSCL4 WRITEBACK ACCESS:          0  HIT:          0  MISS:          0  HIT %:       -nan  MISS %:       -nan   MPKI: 0
PSCL3 TOTAL     ACCESS:       7289  HIT:       7289  MISS:          0  HIT %:        100  MISS %:          0   MPKI: 0
PSCL3 LOAD      ACCESS:          0  HIT:          0  MISS:          0  HIT %:       -nan  MISS %:       -nan   MPKI: 0
PSCL3 RFO       ACCESS:          0  HIT:          0  MISS:          0  HIT %:       -nan  MISS %:       -nan   MPKI: 0
PSCL3 PREFETCH  ACCESS:          0  HIT:          0  MISS:          0  HIT %:       -nan  MISS %:       -nan   MPKI: 0
PSCL3 WRITEBACK ACCESS:          0  HIT:          0  MISS:          0  HIT %:       -nan  MISS %:       -nan   MPKI: 0
PSCL2 TOTAL     ACCESS:       7289  HIT:       7274  MISS:         15  HIT %:    99.7942  MISS %:    0.20579   MPKI: 7.5e-05
PSCL2 LOAD      ACCESS:          0  HIT:          0  MISS:          0  HIT %:       -nan  MISS %:       -nan   MPKI: 0
PSCL2 RFO       ACCESS:          0  HIT:          0  MISS:          0  HIT %:       -nan  MISS %:       -nan   MPKI: 0
PSCL2 PREFETCH  ACCESS:          0  HIT:          0  MISS:          0  HIT %:       -nan  MISS %:       -nan   MPKI: 0
PSCL2 WRITEBACK ACCESS:          0  HIT:          0  MISS:          0  HIT %:       -nan  MISS %:       -nan   MPKI: 0

stream: 
stream:times selected: 657279
stream:pref_filled: 456544
stream:pref_useful: 456539
stream:pref_late: 133
stream:misses: 25
stream:misses_by_poll: 0

CS: 
CS:times selected: 657272
CS:pref_filled: 1924
CS:pref_useful: 1924
CS:pref_late: 7
CS:misses: 267047
CS:misses_by_poll: 2

CPLX: 
CPLX:times selected: 5
CPLX:pref_filled: 0
CPLX:pref_useful: 0
CPLX:pref_late: 0
CPLX:misses: 10
CPLX:misses_by_poll: 0

NL_L1: 
NL:times selected: 0
NL:pref_filled: 0
NL:pref_useful: 0
NL:pref_late: 0
NL:misses: 0
NL:misses_by_poll: 0

total selections: 1314556
total_filled: 458468
total_useful: 458463
total_late: 144
total_polluted: 2
total_misses_after_warmup: 48487
conflicts: 0
Degree Incremented Times: 467530
Degree Decremented Times: 0

L1 IP Table Write Accesses: 57835381
L1 IP Table Read Accesses: 57835381
L1 RST Write Accesses: 2165326
L1 RST Read Accesses: 4330652
L1 CSPT Write Accesses: 2165326
L1 CSPT Read Accesses: 2165326
L1 RR Filter Tag Write Accesses: 1944362
L1 RR Filter Tag Read Accesses: 378753565
L1 IP Table Tag Write Accesses: 57835381
L1 IP Table Tag Read Accesses: 57835381
L1 RST Tag Write Accesses: 0
L1 RST Tag Read Accesses: 19492179
L1 RR Filter Write Accesses: 0
L1 RR Filter Read Accesses: 18576314
test: 36135
LLC TOTAL     ACCESS:     934029  HIT:     420556  MISS:     513473  HIT %:     45.026  MISS %:     54.974   MPKI: 2.56736
LLC LOAD      ACCESS:       7866  HIT:          0  MISS:       7866  HIT %:          0  MISS %:        100   MPKI: 0.03933
LLC RFO       ACCESS:          0  HIT:          0  MISS:          0  HIT %:       -nan  MISS %:       -nan   MPKI: 0
LLC PREFETCH  ACCESS:     458612  HIT:          0  MISS:     458612  HIT %:          0  MISS %:        100   MPKI: 2.29306
LLC WRITEBACK ACCESS:     466626  HIT:     420556  MISS:      46070  HIT %:     90.127  MISS %:      9.873   MPKI: 0.23035

RAW hits: 0
Loads Generated: 29854296
Loads sent to L1D: 29854296
Stores Generated: 4174846
Stores sent to L1D: 4174845

Region of Interest Statistics

CPU 0 cumulative IPC: 1.16316 instructions: 200000001 cycles: 171945029
ITLB TOTAL     ACCESS:   33202882  HIT:   33202882  MISS:          0  HIT %:        100  MISS %:          0   MPKI: 0
ITLB LOAD TRANSLATION ACCESS:   33202882  HIT:   33202882  MISS:          0  HIT %:        100  MISS %:          0   MPKI: 0
ITLB PREFETCH  REQUESTED:          0  ISSUED:          0  USEFUL:          0  USELESS:          0
ITLB USEFUL LOAD PREFETCHES:          0 PREFETCH ISSUED TO LOWER LEVEL:          0  ACCURACY: -nan
ITLB TIMELY PREFETCHES:          0 LATE PREFETCHES: 0 DROPPED PREFETCHES: 0
ITLB PREFETCHES SAME FILL-ORIGIN LEVEL: 0 DIFFERENT FILL-ORIGIN LEVEL: 0
ITLB AVERAGE MISS LATENCY: -nan cycles
ITLB RQ	ACCESS:   33208089	FORWARD:          0	MERGED:          0	TO_CACHE:   33208089

DTLB TOTAL     ACCESS:   18097867  HIT:   18090577  MISS:       7290  HIT %:    99.9597  MISS %:   0.040281   MPKI: 0.03645
DTLB LOAD TRANSLATION ACCESS:   18097867  HIT:   18090577  MISS:       7290  HIT %:    99.9597  MISS %:   0.040281   MPKI: 0.03645
DTLB PREFETCH  REQUESTED:          0  ISSUED:          0  USEFUL:          0  USELESS:          0
DTLB USEFUL LOAD PREFETCHES:          0 PREFETCH ISSUED TO LOWER LEVEL:          0  ACCURACY: -nan
DTLB TIMELY PREFETCHES:          0 LATE PREFETCHES: 0 DROPPED PREFETCHES: 0
DTLB PREFETCHES SAME FILL-ORIGIN LEVEL: 0 DIFFERENT FILL-ORIGIN LEVEL: 0
DTLB AVERAGE MISS LATENCY: 148.154 cycles
DTLB RQ	ACCESS:   18637712	FORWARD:          0	MERGED:     537022	TO_CACHE:   18100690

STLB TOTAL     ACCESS:     431829  HIT:     424539  MISS:       7290  HIT %:    98.3118  MISS %:    1.68817   MPKI: 0.03645
STLB LOAD TRANSLATION ACCESS:       7290  HIT:          0  MISS:       7290  HIT %:          0  MISS %:        100   MPKI: 0.03645
STLB TRANSLATION FROM L1D PREFETCHER ACCESS:     424539  HIT:     424539  MISS:          0  HIT %:        100  MISS %:          0   MPKI: 0
STLB PREFETCH  REQUESTED:          0  ISSUED:          0  USEFUL:          0  USELESS:          0
STLB USEFUL LOAD PREFETCHES:          0 PREFETCH ISSUED TO LOWER LEVEL:          0  ACCURACY: -nan
STLB TIMELY PREFETCHES:          0 LATE PREFETCHES: 0 DROPPED PREFETCHES: 0
STLB PREFETCHES SAME FILL-ORIGIN LEVEL: 0 DIFFERENT FILL-ORIGIN LEVEL: 0
STLB AVERAGE MISS LATENCY: 139.153 cycles
STLB RQ	ACCESS:     494103	FORWARD:          0	MERGED:      62206	TO_CACHE:     431897

STLB Hit, L1D data hit: 0
STLB Hit, L2C data hit: 0
STLB Hit, LLC data hit: 0
STLB Hit, LLC data miss: 0
STLB STLB hints to L2: 0
L1D TOTAL     ACCESS:   19084601  HIT:   18618127  MISS:     466474  HIT %:    97.5558  MISS %:    2.44424   MPKI: 2.33237
L1D LOAD      ACCESS:   14423183  HIT:   14415741  MISS:       7442  HIT %:    99.9484  MISS %:  0.0515975   MPKI: 0.03721
L1D RFO       ACCESS:    4174845  HIT:    4174845  MISS:          0  HIT %:        100  MISS %:          0   MPKI: 0
L1D PREFETCH  ACCESS:     486573  HIT:      27541  MISS:     459032  HIT %:     5.6602  MISS %:    94.3398   MPKI: 2.29516
L1D PREFETCH  REQUESTED:     973624  ISSUED:     973624  USEFUL:     459104  USELESS:          0
L1D USEFUL LOAD PREFETCHES:     459104 PREFETCH ISSUED TO LOWER LEVEL:     459262  ACCURACY: 99.9656
L1D TIMELY PREFETCHES:     459104 LATE PREFETCHES: 152 DROPPED PREFETCHES: 0
L1D PREFETCHES SAME FILL-ORIGIN LEVEL: 459262 DIFFERENT FILL-ORIGIN LEVEL: 0
L1D AVERAGE MISS LATENCY: 231.107 cycles
L1D RQ	ACCESS:   29858951	FORWARD:          0	MERGED:   15396785	TO_CACHE:   14462166
L1D WQ	ACCESS:    4175546	FORWARD:          0	MERGED:          0	TO_CACHE:    4175546
L1D PQ	ACCESS:     486812	FORWARD:          0	MERGED:          0	TO_CACHE:     486812

L1D UNIQUE REGIONS ACCESSED: 0
L1D REGIONS CONFLICTS: 0
L1D Cross Page Prefetch Requests: 0
L1D Same Page Prefetch Requests: 600988
L1D ROI Sum of L1D PQ occupancy: 5394057
L1D PREFETCHES PUSHED FROM L2C: 0
L1I TOTAL     ACCESS:   33202882  HIT:   33202882  MISS:          0  HIT %:        100  MISS %:          0   MPKI: 0
L1I LOAD      ACCESS:   33202882  HIT:   33202882  MISS:          0  HIT %:        100  MISS %:          0   MPKI: 0
L1I PREFETCH  REQUESTED:          0  ISSUED:          0  USEFUL:          0  USELESS:          0
L1I USEFUL LOAD PREFETCHES:          0 PREFETCH ISSUED TO LOWER LEVEL:          0  ACCURACY: -nan
L1I TIMELY PREFETCHES:          0 LATE PREFETCHES: 0 DROPPED PREFETCHES: 0
L1I PREFETCHES SAME FILL-ORIGIN LEVEL: 0 DIFFERENT FILL-ORIGIN LEVEL: 0
L1I AVERAGE MISS LATENCY: -nan cycles
L1I RQ	ACCESS:   80081504	FORWARD:          0	MERGED:   46873415	TO_CACHE:   33208089

BTB TOTAL     ACCESS:   59708646  HIT:   59708645  MISS:          1  HIT %:        100  MISS %: 1.6748e-06   MPKI: 5e-06
BTB BRANCH_DIRECT_JUMP	ACCESS:          0  HIT:          0  MISS:          0
BTB BRANCH_INDIRECT	ACCESS:          0  HIT:          0  MISS:          0
BTB BRANCH_CONDITIONAL	ACCESS:   59708646  HIT:   59708645  MISS:          1
BTB BRANCH_DIRECT_CALL	ACCESS:          0  HIT:          0  MISS:          0
BTB BRANCH_INDIRECT_CALL	ACCESS:          0  HIT:          0  MISS:          0
BTB BRANCH_RETURN	ACCESS:          0  HIT:          0  MISS:          0
BTB BRANCH_OTHER ACCESS:          0  HIT:          0  MISS:          0

L2C TOTAL     ACCESS:     940237  HIT:     245264  MISS:     694973  HIT %:    26.0853  MISS %:    73.9147   MPKI: 3.47486
L2C LOAD      ACCESS:       7290  HIT:          0  MISS:       7290  HIT %:          0  MISS %:        100   MPKI: 0.03645
L2C DATA LOAD MPKI: 0.03645
L2C INSTRUCTION LOAD MPKI: 0
L2C PREFETCH  ACCESS:     459184  HIT:          0  MISS:     459184  HIT %:          0  MISS %:        100   MPKI: 2.29592
L2C DATA PREFETCH MPKI: 2.29592
L2C INSTRUCTION PREFETCH MPKI: 0
L2C WRITEBACK ACCESS:     466473  HIT:     238897  MISS:     227576  HIT %:    51.2135  MISS %:    48.7865   MPKI: 1.13788
L2C LOAD TRANSLATION ACCESS:       7290  HIT:       6367  MISS:        923  HIT %:    87.3388  MISS %:    12.6612   MPKI: 0.004615
L2C PREFETCH  REQUESTED:          0  ISSUED:          0  USEFUL:          0  USELESS:     459012
L2C USEFUL LOAD PREFETCHES:          0 PREFETCH ISSUED TO LOWER LEVEL:     459262  ACCURACY: 0
L2C TIMELY PREFETCHES:          0 LATE PREFETCHES: 0 DROPPED PREFETCHES: 0
L2C PREFETCHES SAME FILL-ORIGIN LEVEL: 0 DIFFERENT FILL-ORIGIN LEVEL: 0
L2C AVERAGE MISS LATENCY: 146.733 cycles
L2C RQ	ACCESS:      14582	FORWARD:          0	MERGED:          0	TO_CACHE:      14582
L2C WQ	ACCESS:     466552	FORWARD:          0	MERGED:          0	TO_CACHE:     466552
L2C PQ	ACCESS:     459262	FORWARD:          0	MERGED:          0	TO_CACHE:     459262

L2C Instructions Evicting Data 0
L2C Translations Evicting Data 923
L2C Data Evicting Data 465819
L2C Instructions Evicting Instructions 0
L2C Translations Evicting Instructions 0
L2C Data Evicting Instructions 0
L2C Instructions Evicting Translations 0
L2C Translations Evicting Translations 0
L2C Data Evicting Translations 733
L2C Dense regions hint from L2: 0
PSCL5 TOTAL     ACCESS:       7290  HIT:       7290  MISS:          0  HIT %:        100  MISS %:          0   MPKI: 0
PSCL5 LOAD TRANSLATION ACCESS:       7290  HIT:       7290  MISS:          0  HIT %:        100  MISS %:          0   MPKI: 0
PSCL5 PREFETCH  REQUESTED:          0  ISSUED:          0  USEFUL:          0  USELESS:          0
PSCL5 USEFUL LOAD PREFETCHES:          0 PREFETCH ISSUED TO LOWER LEVEL:          0  ACCURACY: -nan
PSCL5 TIMELY PREFETCHES:          0 LATE PREFETCHES: 0 DROPPED PREFETCHES: 0
PSCL5 PREFETCHES SAME FILL-ORIGIN LEVEL: 0 DIFFERENT FILL-ORIGIN LEVEL: 0

PSCL4 TOTAL     ACCESS:       7290  HIT:       7290  MISS:          0  HIT %:        100  MISS %:          0   MPKI: 0
PSCL4 LOAD TRANSLATION ACCESS:       7290  HIT:       7290  MISS:          0  HIT %:        100  MISS %:          0   MPKI: 0
PSCL4 PREFETCH  REQUESTED:          0  ISSUED:          0  USEFUL:          0  USELESS:          0
PSCL4 USEFUL LOAD PREFETCHES:          0 PREFETCH ISSUED TO LOWER LEVEL:          0  ACCURACY: -nan
PSCL4 TIMELY PREFETCHES:          0 LATE PREFETCHES: 0 DROPPED PREFETCHES: 0
PSCL4 PREFETCHES SAME FILL-ORIGIN LEVEL: 0 DIFFERENT FILL-ORIGIN LEVEL: 0

PSCL3 TOTAL     ACCESS:       7290  HIT:       7290  MISS:          0  HIT %:        100  MISS %:          0   MPKI: 0
PSCL3 LOAD TRANSLATION ACCESS:       7290  HIT:       7290  MISS:          0  HIT %:        100  MISS %:          0   MPKI: 0
PSCL3 PREFETCH  REQUESTED:          0  ISSUED:          0  USEFUL:          0  USELESS:          0
PSCL3 USEFUL LOAD PREFETCHES:          0 PREFETCH ISSUED TO LOWER LEVEL:          0  ACCURACY: -nan
PSCL3 TIMELY PREFETCHES:          0 LATE PREFETCHES: 0 DROPPED PREFETCHES: 0
PSCL3 PREFETCHES SAME FILL-ORIGIN LEVEL: 0 DIFFERENT FILL-ORIGIN LEVEL: 0

PSCL2 TOTAL     ACCESS:       7290  HIT:       7275  MISS:         15  HIT %:    99.7942  MISS %:   0.205761   MPKI: 7.5e-05
PSCL2 LOAD TRANSLATION ACCESS:       7290  HIT:       7275  MISS:         15  HIT %:    99.7942  MISS %:   0.205761   MPKI: 7.5e-05
PSCL2 PREFETCH  REQUESTED:          0  ISSUED:          0  USEFUL:          0  USELESS:          0
PSCL2 USEFUL LOAD PREFETCHES:          0 PREFETCH ISSUED TO LOWER LEVEL:          0  ACCURACY: -nan
PSCL2 TIMELY PREFETCHES:          0 LATE PREFETCHES: 0 DROPPED PREFETCHES: 0
PSCL2 PREFETCHES SAME FILL-ORIGIN LEVEL: 0 DIFFERENT FILL-ORIGIN LEVEL: 0

LLC TOTAL     ACCESS:     933991  HIT:     420035  MISS:     513956  HIT %:    44.9721  MISS %:    55.0279   MPKI: 2.56978
LLC LOAD      ACCESS:       7290  HIT:          0  MISS:       7290  HIT %:          0  MISS %:        100   MPKI: 0.03645
LLC PREFETCH  ACCESS:     459190  HIT:          0  MISS:     459190  HIT %:          0  MISS %:        100   MPKI: 2.29595
LLC WRITEBACK ACCESS:     466588  HIT:     420035  MISS:      46553  HIT %:    90.0227  MISS %:    9.97732   MPKI: 0.232765
LLC LOAD TRANSLATION ACCESS:        923  HIT:          0  MISS:        923  HIT %:          0  MISS %:        100   MPKI: 0.004615
LLC PREFETCH  REQUESTED:          0  ISSUED:          0  USEFUL:          0  USELESS:    1749825
LLC USEFUL LOAD PREFETCHES:          0 PREFETCH ISSUED TO LOWER LEVEL:    1835516  ACCURACY: 0
LLC TIMELY PREFETCHES:          0 LATE PREFETCHES: 0 DROPPED PREFETCHES: 0
LLC PREFETCHES SAME FILL-ORIGIN LEVEL: 0 DIFFERENT FILL-ORIGIN LEVEL: 0
LLC AVERAGE MISS LATENCY: 686.524 cycles
LLC RQ	ACCESS:      34261	FORWARD:          0	MERGED:          0	TO_CACHE:      34261
LLC WQ	ACCESS:    1866723	FORWARD:          0	MERGED:          0	TO_CACHE:    1866723
LLC PQ	ACCESS:    1835516	FORWARD:          0	MERGED:          0	TO_CACHE:    1835516

LLC Dense regions hint to LLC: 0

RAW hits: 0
Loads Generated: 29854313
Loads sent to L1D: 29854313
Stores Generated: 4174849
Stores sent to L1D: 4174846
Major fault: 0 Minor fault: 9127
Allocated PAGES: 36508

CPU 1 cumulative IPC: 1.16312 instructions: 200000000 cycles: 171951112
ITLB TOTAL     ACCESS:   33202844  HIT:   33202844  MISS:          0  HIT %:        100  MISS %:          0   MPKI: 0
ITLB LOAD TRANSLATION ACCESS:   33202844  HIT:   33202844  MISS:          0  HIT %:        100  MISS %:          0   MPKI: 0
ITLB PREFETCH  REQUESTED:          0  ISSUED:          0  USEFUL:          0  USELESS:          0
ITLB USEFUL LOAD PREFETCHES:          0 PREFETCH ISSUED TO LOWER LEVEL:          0  ACCURACY: -nan
ITLB TIMELY PREFETCHES:          0 LATE PREFETCHES: 0 DROPPED PREFETCHES: 0
ITLB PREFETCHES SAME FILL-ORIGIN LEVEL: 0 DIFFERENT FILL-ORIGIN LEVEL: 0
ITLB AVERAGE MISS LATENCY: -nan cycles
ITLB RQ	ACCESS:   33206838	FORWARD:          0	MERGED:          0	TO_CACHE:   33206838

DTLB TOTAL     ACCESS:   18096181  HIT:   18088891  MISS:       7290  HIT %:    99.9597  MISS %:  0.0402847   MPKI: 0.03645
DTLB LOAD TRANSLATION ACCESS:   18096181  HIT:   18088891  MISS:       7290  HIT %:    99.9597  MISS %:  0.0402847   MPKI: 0.03645
DTLB PREFETCH  REQUESTED:          0  ISSUED:          0  USEFUL:          0  USELESS:          0
DTLB USEFUL LOAD PREFETCHES:          0 PREFETCH ISSUED TO LOWER LEVEL:          0  ACCURACY: -nan
DTLB TIMELY PREFETCHES:          0 LATE PREFETCHES: 0 DROPPED PREFETCHES: 0
DTLB PREFETCHES SAME FILL-ORIGIN LEVEL: 0 DIFFERENT FILL-ORIGIN LEVEL: 0
DTLB AVERAGE MISS LATENCY: 147.817 cycles
DTLB RQ	ACCESS:   18635541	FORWARD:          0	MERGED:     537201	TO_CACHE:   18098340

STLB TOTAL     ACCESS:     430923  HIT:     423633  MISS:       7290  HIT %:    98.3083  MISS %:    1.69172   MPKI: 0.03645
STLB LOAD TRANSLATION ACCESS:       7290  HIT:          0  MISS:       7290  HIT %:          0  MISS %:        100   MPKI: 0.03645
STLB TRANSLATION FROM L1D PREFETCHER ACCESS:     423633  HIT:     423633  MISS:          0  HIT %:        100  MISS %:          0   MPKI: 0
STLB PREFETCH  REQUESTED:          0  ISSUED:          0  USEFUL:          0  USELESS:          0
STLB USEFUL LOAD PREFETCHES:          0 PREFETCH ISSUED TO LOWER LEVEL:          0  ACCURACY: -nan
STLB TIMELY PREFETCHES:          0 LATE PREFETCHES: 0 DROPPED PREFETCHES: 0
STLB PREFETCHES SAME FILL-ORIGIN LEVEL: 0 DIFFERENT FILL-ORIGIN LEVEL: 0
STLB AVERAGE MISS LATENCY: 138.816 cycles
STLB RQ	ACCESS:     493301	FORWARD:          0	MERGED:      62329	TO_CACHE:     430972

STLB Hit, L1D data hit: 0
STLB Hit, L2C data hit: 0
STLB Hit, LLC data hit: 0
STLB Hit, LLC data miss: 0
STLB STLB hints to L2: 0
L1D TOTAL     ACCESS:   19080598  HIT:   18614117  MISS:     466481  HIT %:    97.5552  MISS %:    2.44479   MPKI: 2.33241
L1D LOAD      ACCESS:   14419947  HIT:   14412236  MISS:       7711  HIT %:    99.9465  MISS %:  0.0534745   MPKI: 0.038555
L1D RFO       ACCESS:    4174845  HIT:    4174845  MISS:          0  HIT %:        100  MISS %:          0   MPKI: 0
L1D PREFETCH  ACCESS:     485806  HIT:      27036  MISS:     458770  HIT %:    5.56518  MISS %:    94.4348   MPKI: 2.29385
L1D PREFETCH  REQUESTED:     972020  ISSUED:     972020  USEFUL:     458818  USELESS:          0
L1D USEFUL LOAD PREFETCHES:     458818 PREFETCH ISSUED TO LOWER LEVEL:     458971  ACCURACY: 99.9667
L1D TIMELY PREFETCHES:     458818 LATE PREFETCHES: 141 DROPPED PREFETCHES: 0
L1D PREFETCHES SAME FILL-ORIGIN LEVEL: 458971 DIFFERENT FILL-ORIGIN LEVEL: 0
L1D AVERAGE MISS LATENCY: 232.369 cycles
L1D RQ	ACCESS:   29857874	FORWARD:          0	MERGED:   15397715	TO_CACHE:   14460159
L1D WQ	ACCESS:    4175382	FORWARD:          0	MERGED:          0	TO_CACHE:    4175382
L1D PQ	ACCESS:     486010	FORWARD:          0	MERGED:          0	TO_CACHE:     486010

L1D UNIQUE REGIONS ACCESSED: 0
L1D REGIONS CONFLICTS: 0
L1D Cross Page Prefetch Requests: 0
L1D Same Page Prefetch Requests: 486010
L1D ROI Sum of L1D PQ occupancy: 5385736
L1D PREFETCHES PUSHED FROM L2C: 0
L1I TOTAL     ACCESS:   33202844  HIT:   33202844  MISS:          0  HIT %:        100  MISS %:          0   MPKI: 0
L1I LOAD      ACCESS:   33202844  HIT:   33202844  MISS:          0  HIT %:        100  MISS %:          0   MPKI: 0
L1I PREFETCH  REQUESTED:          0  ISSUED:          0  USEFUL:          0  USELESS:          0
L1I USEFUL LOAD PREFETCHES:          0 PREFETCH ISSUED TO LOWER LEVEL:          0  ACCURACY: -nan
L1I TIMELY PREFETCHES:          0 LATE PREFETCHES: 0 DROPPED PREFETCHES: 0
L1I PREFETCHES SAME FILL-ORIGIN LEVEL: 0 DIFFERENT FILL-ORIGIN LEVEL: 0
L1I AVERAGE MISS LATENCY: -nan cycles
L1I RQ	ACCESS:   80078651	FORWARD:          0	MERGED:   46871813	TO_CACHE:   33206838

BTB TOTAL     ACCESS:   59708646  HIT:   59708645  MISS:          1  HIT %:        100  MISS %: 1.6748e-06   MPKI: 5e-06
BTB BRANCH_DIRECT_JUMP	ACCESS:          0  HIT:          0  MISS:          0
BTB BRANCH_INDIRECT	ACCESS:          0  HIT:          0  MISS:          0
BTB BRANCH_CONDITIONAL	ACCESS:   59708646  HIT:   59708645  MISS:          1
BTB BRANCH_DIRECT_CALL	ACCESS:          0  HIT:          0  MISS:          0
BTB BRANCH_INDIRECT_CALL	ACCESS:          0  HIT:          0  MISS:          0
BTB BRANCH_RETURN	ACCESS:          0  HIT:          0  MISS:          0
BTB BRANCH_OTHER ACCESS:          0  HIT:          0  MISS:          0

L2C TOTAL     ACCESS:     940253  HIT:     244074  MISS:     696179  HIT %:    25.9583  MISS %:    74.0417   MPKI: 3.48089
L2C LOAD      ACCESS:       7570  HIT:          0  MISS:       7570  HIT %:          0  MISS %:        100   MPKI: 0.03785
L2C DATA LOAD MPKI: 0.03785
L2C INSTRUCTION LOAD MPKI: 0
L2C PREFETCH  ACCESS:     458914  HIT:          0  MISS:     458914  HIT %:          0  MISS %:        100   MPKI: 2.29457
L2C DATA PREFETCH MPKI: 2.29457
L2C INSTRUCTION PREFETCH MPKI: 0
L2C WRITEBACK ACCESS:     466479  HIT:     237707  MISS:     228772  HIT %:    50.9577  MISS %:    49.0423   MPKI: 1.14386
L2C LOAD TRANSLATION ACCESS:       7290  HIT:       6367  MISS:        923  HIT %:    87.3388  MISS %:    12.6612   MPKI: 0.004615
L2C PREFETCH  REQUESTED:          0  ISSUED:          0  USEFUL:          0  USELESS:     453213
L2C USEFUL LOAD PREFETCHES:          0 PREFETCH ISSUED TO LOWER LEVEL:     458971  ACCURACY: 0
L2C TIMELY PREFETCHES:          0 LATE PREFETCHES: 0 DROPPED PREFETCHES: 0
L2C PREFETCHES SAME FILL-ORIGIN LEVEL: 0 DIFFERENT FILL-ORIGIN LEVEL: 0
L2C AVERAGE MISS LATENCY: 147.309 cycles
L2C RQ	ACCESS:      14862	FORWARD:          0	MERGED:          0	TO_CACHE:      14862
L2C WQ	ACCESS:     466541	FORWARD:          0	MERGED:          0	TO_CACHE:     466541
L2C PQ	ACCESS:     458971	FORWARD:          0	MERGED:          0	TO_CACHE:     458971

L2C Instructions Evicting Data 0
L2C Translations Evicting Data 923
L2C Data Evicting Data 465766
L2C Instructions Evicting Instructions 0
L2C Translations Evicting Instructions 0
L2C Data Evicting Instructions 0
L2C Instructions Evicting Translations 0
L2C Translations Evicting Translations 0
L2C Data Evicting Translations 775
L2C Dense regions hint from L2: 0
PSCL5 TOTAL     ACCESS:       7290  HIT:       7290  MISS:          0  HIT %:        100  MISS %:          0   MPKI: 0
PSCL5 LOAD TRANSLATION ACCESS:       7290  HIT:       7290  MISS:          0  HIT %:        100  MISS %:          0   MPKI: 0
PSCL5 PREFETCH  REQUESTED:          0  ISSUED:          0  USEFUL:          0  USELESS:          0
PSCL5 USEFUL LOAD PREFETCHES:          0 PREFETCH ISSUED TO LOWER LEVEL:          0  ACCURACY: -nan
PSCL5 TIMELY PREFETCHES:          0 LATE PREFETCHES: 0 DROPPED PREFETCHES: 0
PSCL5 PREFETCHES SAME FILL-ORIGIN LEVEL: 0 DIFFERENT FILL-ORIGIN LEVEL: 0

PSCL4 TOTAL     ACCESS:       7290  HIT:       7290  MISS:          0  HIT %:        100  MISS %:          0   MPKI: 0
PSCL4 LOAD TRANSLATION ACCESS:       7290  HIT:       7290  MISS:          0  HIT %:        100  MISS %:          0   MPKI: 0
PSCL4 PREFETCH  REQUESTED:          0  ISSUED:          0  USEFUL:          0  USELESS:          0
PSCL4 USEFUL LOAD PREFETCHES:          0 PREFETCH ISSUED TO LOWER LEVEL:          0  ACCURACY: -nan
PSCL4 TIMELY PREFETCHES:          0 LATE PREFETCHES: 0 DROPPED PREFETCHES: 0
PSCL4 PREFETCHES SAME FILL-ORIGIN LEVEL: 0 DIFFERENT FILL-ORIGIN LEVEL: 0

PSCL3 TOTAL     ACCESS:       7290  HIT:       7290  MISS:          0  HIT %:        100  MISS %:          0   MPKI: 0
PSCL3 LOAD TRANSLATION ACCESS:       7290  HIT:       7290  MISS:          0  HIT %:        100  MISS %:          0   MPKI: 0
PSCL3 PREFETCH  REQUESTED:          0  ISSUED:          0  USEFUL:          0  USELESS:          0
PSCL3 USEFUL LOAD PREFETCHES:          0 PREFETCH ISSUED TO LOWER LEVEL:          0  ACCURACY: -nan
PSCL3 TIMELY PREFETCHES:          0 LATE PREFETCHES: 0 DROPPED PREFETCHES: 0
PSCL3 PREFETCHES SAME FILL-ORIGIN LEVEL: 0 DIFFERENT FILL-ORIGIN LEVEL: 0

PSCL2 TOTAL     ACCESS:       7290  HIT:       7275  MISS:         15  HIT %:    99.7942  MISS %:   0.205761   MPKI: 7.5e-05
PSCL2 LOAD TRANSLATION ACCESS:       7290  HIT:       7275  MISS:         15  HIT %:    99.7942  MISS %:   0.205761   MPKI: 7.5e-05
PSCL2 PREFETCH  REQUESTED:          0  ISSUED:          0  USEFUL:          0  USELESS:          0
PSCL2 USEFUL LOAD PREFETCHES:          0 PREFETCH ISSUED TO LOWER LEVEL:          0  ACCURACY: -nan
PSCL2 TIMELY PREFETCHES:          0 LATE PREFETCHES: 0 DROPPED PREFETCHES: 0
PSCL2 PREFETCHES SAME FILL-ORIGIN LEVEL: 0 DIFFERENT FILL-ORIGIN LEVEL: 0

LLC TOTAL     ACCESS:     934110  HIT:     419830  MISS:     514280  HIT %:    44.9444  MISS %:    55.0556   MPKI: 2.5714
LLC LOAD      ACCESS:       7570  HIT:          0  MISS:       7570  HIT %:          0  MISS %:        100   MPKI: 0.03785
LLC PREFETCH  ACCESS:     458916  HIT:          0  MISS:     458916  HIT %:          0  MISS %:        100   MPKI: 2.29458
LLC WRITEBACK ACCESS:     466701  HIT:     419830  MISS:      46871  HIT %:     89.957  MISS %:     10.043   MPKI: 0.234355
LLC LOAD TRANSLATION ACCESS:        923  HIT:          0  MISS:        923  HIT %:          0  MISS %:        100   MPKI: 0.004615
LLC PREFETCH  REQUESTED:          0  ISSUED:          0  USEFUL:          0  USELESS:    1749825
LLC USEFUL LOAD PREFETCHES:          0 PREFETCH ISSUED TO LOWER LEVEL:    1835516  ACCURACY: 0
LLC TIMELY PREFETCHES:          0 LATE PREFETCHES: 0 DROPPED PREFETCHES: 0
LLC PREFETCHES SAME FILL-ORIGIN LEVEL: 0 DIFFERENT FILL-ORIGIN LEVEL: 0
LLC AVERAGE MISS LATENCY: 686.091 cycles
LLC RQ	ACCESS:      34261	FORWARD:          0	MERGED:          0	TO_CACHE:      34261
LLC WQ	ACCESS:    1866723	FORWARD:          0	MERGED:          0	TO_CACHE:    1866723
LLC PQ	ACCESS:    1835516	FORWARD:          0	MERGED:          0	TO_CACHE:    1835516

LLC Dense regions hint to LLC: 0

RAW hits: 0
Loads Generated: 29854313
Loads sent to L1D: 29854313
Stores Generated: 4174849
Stores sent to L1D: 4174845
Major fault: 0 Minor fault: 9127
Allocated PAGES: 36508

CPU 2 cumulative IPC: 1.16303 instructions: 200000003 cycles: 171964241
ITLB TOTAL     ACCESS:   33202876  HIT:   33202876  MISS:          0  HIT %:        100  MISS %:          0   MPKI: 0
ITLB LOAD TRANSLATION ACCESS:   33202876  HIT:   33202876  MISS:          0  HIT %:        100  MISS %:          0   MPKI: 0
ITLB PREFETCH  REQUESTED:          0  ISSUED:          0  USEFUL:          0  USELESS:          0
ITLB USEFUL LOAD PREFETCHES:          0 PREFETCH ISSUED TO LOWER LEVEL:          0  ACCURACY: -nan
ITLB TIMELY PREFETCHES:          0 LATE PREFETCHES: 0 DROPPED PREFETCHES: 0
ITLB PREFETCHES SAME FILL-ORIGIN LEVEL: 0 DIFFERENT FILL-ORIGIN LEVEL: 0
ITLB AVERAGE MISS LATENCY: -nan cycles
ITLB RQ	ACCESS:   33204266	FORWARD:          0	MERGED:          0	TO_CACHE:   33204266

DTLB TOTAL     ACCESS:   18093942  HIT:   18086652  MISS:       7290  HIT %:    99.9597  MISS %:  0.0402897   MPKI: 0.03645
DTLB LOAD TRANSLATION ACCESS:   18093942  HIT:   18086652  MISS:       7290  HIT %:    99.9597  MISS %:  0.0402897   MPKI: 0.03645
DTLB PREFETCH  REQUESTED:          0  ISSUED:          0  USEFUL:          0  USELESS:          0
DTLB USEFUL LOAD PREFETCHES:          0 PREFETCH ISSUED TO LOWER LEVEL:          0  ACCURACY: -nan
DTLB TIMELY PREFETCHES:          0 LATE PREFETCHES: 0 DROPPED PREFETCHES: 0
DTLB PREFETCHES SAME FILL-ORIGIN LEVEL: 0 DIFFERENT FILL-ORIGIN LEVEL: 0
DTLB AVERAGE MISS LATENCY: 148.649 cycles
DTLB RQ	ACCESS:   18632090	FORWARD:          0	MERGED:     537408	TO_CACHE:   18094682

STLB TOTAL     ACCESS:     428893  HIT:     421603  MISS:       7290  HIT %:    98.3003  MISS %:    1.69972   MPKI: 0.03645
STLB LOAD TRANSLATION ACCESS:       7290  HIT:          0  MISS:       7290  HIT %:          0  MISS %:        100   MPKI: 0.03645
STLB TRANSLATION FROM L1D PREFETCHER ACCESS:     421603  HIT:     421603  MISS:          0  HIT %:        100  MISS %:          0   MPKI: 0
STLB PREFETCH  REQUESTED:          0  ISSUED:          0  USEFUL:          0  USELESS:          0
STLB USEFUL LOAD PREFETCHES:          0 PREFETCH ISSUED TO LOWER LEVEL:          0  ACCURACY: -nan
STLB TIMELY PREFETCHES:          0 LATE PREFETCHES: 0 DROPPED PREFETCHES: 0
STLB PREFETCHES SAME FILL-ORIGIN LEVEL: 0 DIFFERENT FILL-ORIGIN LEVEL: 0
STLB AVERAGE MISS LATENCY: 139.648 cycles
STLB RQ	ACCESS:     492718	FORWARD:          0	MERGED:      63810	TO_CACHE:     428908

STLB Hit, L1D data hit: 0
STLB Hit, L2C data hit: 0
STLB Hit, LLC data hit: 0
STLB Hit, LLC data miss: 0
STLB STLB hints to L2: 0
L1D TOTAL     ACCESS:   19076231  HIT:   18609747  MISS:     466484  HIT %:    97.5546  MISS %:    2.44537   MPKI: 2.33242
L1D LOAD      ACCESS:   14416165  HIT:   14408160  MISS:       8005  HIT %:    99.9445  MISS %:  0.0555279   MPKI: 0.040025
L1D RFO       ACCESS:    4174845  HIT:    4174845  MISS:          0  HIT %:        100  MISS %:          0   MPKI: 0
L1D PREFETCH  ACCESS:     485221  HIT:      26742  MISS:     458479  HIT %:     5.5113  MISS %:    94.4887   MPKI: 2.29239
L1D PREFETCH  REQUESTED:     970854  ISSUED:     970854  USEFUL:     458488  USELESS:          0
L1D USEFUL LOAD PREFETCHES:     458488 PREFETCH ISSUED TO LOWER LEVEL:     458670  ACCURACY: 99.9603
L1D TIMELY PREFETCHES:     458488 LATE PREFETCHES: 170 DROPPED PREFETCHES: 0
L1D PREFETCHES SAME FILL-ORIGIN LEVEL: 458670 DIFFERENT FILL-ORIGIN LEVEL: 0
L1D AVERAGE MISS LATENCY: 231.044 cycles
L1D RQ	ACCESS:   29855558	FORWARD:          0	MERGED:   15398502	TO_CACHE:   14457056
L1D WQ	ACCESS:    4175034	FORWARD:          0	MERGED:          0	TO_CACHE:    4175034
L1D PQ	ACCESS:     485427	FORWARD:          0	MERGED:          0	TO_CACHE:     485427

L1D UNIQUE REGIONS ACCESSED: 0
L1D REGIONS CONFLICTS: 0
L1D Cross Page Prefetch Requests: 0
L1D Same Page Prefetch Requests: 485427
L1D ROI Sum of L1D PQ occupancy: 5381184
L1D PREFETCHES PUSHED FROM L2C: 0
L1I TOTAL     ACCESS:   33202876  HIT:   33202876  MISS:          0  HIT %:        100  MISS %:          0   MPKI: 0
L1I LOAD      ACCESS:   33202876  HIT:   33202876  MISS:          0  HIT %:        100  MISS %:          0   MPKI: 0
L1I PREFETCH  REQUESTED:          0  ISSUED:          0  USEFUL:          0  USELESS:          0
L1I USEFUL LOAD PREFETCHES:          0 PREFETCH ISSUED TO LOWER LEVEL:          0  ACCURACY: -nan
L1I TIMELY PREFETCHES:          0 LATE PREFETCHES: 0 DROPPED PREFETCHES: 0
L1I PREFETCHES SAME FILL-ORIGIN LEVEL: 0 DIFFERENT FILL-ORIGIN LEVEL: 0
L1I AVERAGE MISS LATENCY: -nan cycles
L1I RQ	ACCESS:   80072431	FORWARD:          0	MERGED:   46868165	TO_CACHE:   33204266

BTB TOTAL     ACCESS:   59708646  HIT:   59708645  MISS:          1  HIT %:        100  MISS %: 1.6748e-06   MPKI: 5e-06
BTB BRANCH_DIRECT_JUMP	ACCESS:          0  HIT:          0  MISS:          0
BTB BRANCH_INDIRECT	ACCESS:          0  HIT:          0  MISS:          0
BTB BRANCH_CONDITIONAL	ACCESS:   59708646  HIT:   59708645  MISS:          1
BTB BRANCH_DIRECT_CALL	ACCESS:          0  HIT:          0  MISS:          0
BTB BRANCH_INDIRECT_CALL	ACCESS:          0  HIT:          0  MISS:          0
BTB BRANCH_RETURN	ACCESS:          0  HIT:          0  MISS:          0
BTB BRANCH_OTHER ACCESS:          0  HIT:          0  MISS:          0

L2C TOTAL     ACCESS:     940258  HIT:     244814  MISS:     695444  HIT %:    26.0369  MISS %:    73.9631   MPKI: 3.47722
L2C LOAD      ACCESS:       7835  HIT:          0  MISS:       7835  HIT %:          0  MISS %:        100   MPKI: 0.039175
L2C DATA LOAD MPKI: 0.039175
L2C INSTRUCTION LOAD MPKI: 0
L2C PREFETCH  ACCESS:     458651  HIT:          0  MISS:     458651  HIT %:          0  MISS %:        100   MPKI: 2.29325
L2C DATA PREFETCH MPKI: 2.29325
L2C INSTRUCTION PREFETCH MPKI: 0
L2C WRITEBACK ACCESS:     466482  HIT:     238450  MISS:     228032  HIT %:    51.1167  MISS %:    48.8833   MPKI: 1.14016
L2C LOAD TRANSLATION ACCESS:       7290  HIT:       6364  MISS:        926  HIT %:    87.2977  MISS %:    12.7023   MPKI: 0.00463
L2C PREFETCH  REQUESTED:          0  ISSUED:          0  USEFUL:          0  USELESS:     452552
L2C USEFUL LOAD PREFETCHES:          0 PREFETCH ISSUED TO LOWER LEVEL:     458670  ACCURACY: 0
L2C TIMELY PREFETCHES:          0 LATE PREFETCHES: 0 DROPPED PREFETCHES: 0
L2C PREFETCHES SAME FILL-ORIGIN LEVEL: 0 DIFFERENT FILL-ORIGIN LEVEL: 0
L2C AVERAGE MISS LATENCY: 146.61 cycles
L2C RQ	ACCESS:      15127	FORWARD:          0	MERGED:          0	TO_CACHE:      15127
L2C WQ	ACCESS:     466505	FORWARD:          0	MERGED:          0	TO_CACHE:     466505
L2C PQ	ACCESS:     458670	FORWARD:          0	MERGED:          0	TO_CACHE:     458670

L2C Instructions Evicting Data 0
L2C Translations Evicting Data 919
L2C Data Evicting Data 465740
L2C Instructions Evicting Instructions 0
L2C Translations Evicting Instructions 0
L2C Data Evicting Instructions 0
L2C Instructions Evicting Translations 0
L2C Translations Evicting Translations 7
L2C Data Evicting Translations 765
L2C Dense regions hint from L2: 0
PSCL5 TOTAL     ACCESS:       7290  HIT:       7290  MISS:          0  HIT %:        100  MISS %:          0   MPKI: 0
PSCL5 LOAD TRANSLATION ACCESS:       7290  HIT:       7290  MISS:          0  HIT %:        100  MISS %:          0   MPKI: 0
PSCL5 PREFETCH  REQUESTED:          0  ISSUED:          0  USEFUL:          0  USELESS:          0
PSCL5 USEFUL LOAD PREFETCHES:          0 PREFETCH ISSUED TO LOWER LEVEL:          0  ACCURACY: -nan
PSCL5 TIMELY PREFETCHES:          0 LATE PREFETCHES: 0 DROPPED PREFETCHES: 0
PSCL5 PREFETCHES SAME FILL-ORIGIN LEVEL: 0 DIFFERENT FILL-ORIGIN LEVEL: 0

PSCL4 TOTAL     ACCESS:       7290  HIT:       7290  MISS:          0  HIT %:        100  MISS %:          0   MPKI: 0
PSCL4 LOAD TRANSLATION ACCESS:       7290  HIT:       7290  MISS:          0  HIT %:        100  MISS %:          0   MPKI: 0
PSCL4 PREFETCH  REQUESTED:          0  ISSUED:          0  USEFUL:          0  USELESS:          0
PSCL4 USEFUL LOAD PREFETCHES:          0 PREFETCH ISSUED TO LOWER LEVEL:          0  ACCURACY: -nan
PSCL4 TIMELY PREFETCHES:          0 LATE PREFETCHES: 0 DROPPED PREFETCHES: 0
PSCL4 PREFETCHES SAME FILL-ORIGIN LEVEL: 0 DIFFERENT FILL-ORIGIN LEVEL: 0

PSCL3 TOTAL     ACCESS:       7290  HIT:       7290  MISS:          0  HIT %:        100  MISS %:          0   MPKI: 0
PSCL3 LOAD TRANSLATION ACCESS:       7290  HIT:       7290  MISS:          0  HIT %:        100  MISS %:          0   MPKI: 0
PSCL3 PREFETCH  REQUESTED:          0  ISSUED:          0  USEFUL:          0  USELESS:          0
[...]
PSCL2 PREFETCH  REQUESTED:          0  ISSUED:          0  USEFUL:          0  USELESS:          0
PSCL2 USEFUL LOAD PREFETCHES:          0 PREFETCH ISSUED TO LOWER LEVEL:          0  ACCURACY: -nan
PSCL2 TIMELY PREFETCHES:          0 LATE PREFETCHES: 0 DROPPED PREFETCHES: 0
PSCL2 PREFETCHES SAME FILL-ORIGIN LEVEL: 0 DIFFERENT FILL-ORIGIN LEVEL: 0

LLC TOTAL     ACCESS:     934069  HIT:     419555  MISS:     514514  HIT %:    44.9169  MISS %:    55.0831   MPKI: 2.57257
LLC LOAD      ACCESS:       7835  HIT:          0  MISS:       7835  HIT %:          0  MISS %:        100   MPKI: 0.039175
LLC PREFETCH  ACCESS:     458651  HIT:          0  MISS:     458651  HIT %:          0  MISS %:        100   MPKI: 2.29325
LLC WRITEBACK ACCESS:     466657  HIT:     419555  MISS:      47102  HIT %:    89.9065  MISS %:    10.0935   MPKI: 0.23551
LLC LOAD TRANSLATION ACCESS:        926  HIT:          0  MISS:        926  HIT %:          0  MISS %:        100   MPKI: 0.00463
LLC PREFETCH  REQUESTED:          0  ISSUED:          0  USEFUL:          0  USELESS:    1749825
LLC USEFUL LOAD PREFETCHES:          0 PREFETCH ISSUED TO LOWER LEVEL:    1835516  ACCURACY: 0
LLC TIMELY PREFETCHES:          0 LATE PREFETCHES: 0 DROPPED PREFETCHES: 0
LLC PREFETCHES SAME FILL-ORIGIN LEVEL: 0 DIFFERENT FILL-ORIGIN LEVEL: 0
LLC AVERAGE MISS LATENCY: 685.779 cycles
LLC RQ	ACCESS:      34261	FORWARD:          0	MERGED:          0	TO_CACHE:      34261
LLC WQ	ACCESS:    1866723	FORWARD:          0	MERGED:          0	TO_CACHE:    1866723
LLC PQ	ACCESS:    1835516	FORWARD:          0	MERGED:          0	TO_CACHE:    1835516

LLC Dense regions hint to LLC: 0

RAW hits: 0
Loads Generated: 29854313
Loads sent to L1D: 29854313
Stores Generated: 4174849
Stores sent to L1D: 4174845
Major fault: 0 Minor fault: 9127
Allocated PAGES: 36508

CPU 3 cumulative IPC: 1.16299 instructions: 200000001 cycles: 171971254
ITLB TOTAL     ACCESS:   33202870  HIT:   33202870  MISS:          0  HIT %:        100  MISS %:          0   MPKI: 0
ITLB LOAD TRANSLATION ACCESS:   33202870  HIT:   33202870  MISS:          0  HIT %:        100  MISS %:          0   MPKI: 0
ITLB PREFETCH  REQUESTED:          0  ISSUED:          0  USEFUL:          0  USELESS:          0
ITLB USEFUL LOAD PREFETCHES:          0 PREFETCH ISSUED TO LOWER LEVEL:          0  ACCURACY: -nan
ITLB TIMELY PREFETCHES:          0 LATE PREFETCHES: 0 DROPPED PREFETCHES: 0
ITLB PREFETCHES SAME FILL-ORIGIN LEVEL: 0 DIFFERENT FILL-ORIGIN LEVEL: 0
ITLB AVERAGE MISS LATENCY: -nan cycles
ITLB RQ	ACCESS:   33202869	FORWARD:          0	MERGED:          0	TO_CACHE:   33202869

DTLB TOTAL     ACCESS:   18093227  HIT:   18085938  MISS:       7289  HIT %:    99.9597  MISS %:  0.0402858   MPKI: 0.036445
DTLB LOAD TRANSLATION ACCESS:   18093227  HIT:   18085938  MISS:       7289  HIT %:    99.9597  MISS %:  0.0402858   MPKI: 0.036445
DTLB PREFETCH  REQUESTED:          0  ISSUED:          0  USEFUL:          0  USELESS:          0
DTLB USEFUL LOAD PREFETCHES:          0 PREFETCH ISSUED TO LOWER LEVEL:          0  ACCURACY: -nan
DTLB TIMELY PREFETCHES:          0 LATE PREFETCHES: 0 DROPPED PREFETCHES: 0
DTLB PREFETCHES SAME FILL-ORIGIN LEVEL: 0 DIFFERENT FILL-ORIGIN LEVEL: 0
DTLB AVERAGE MISS LATENCY: 148.136 cycles
DTLB RQ	ACCESS:   18630843	FORWARD:          0	MERGED:     537615	TO_CACHE:   18093228

STLB TOTAL     ACCESS:     429567  HIT:     422278  MISS:       7289  HIT %:    98.3032  MISS %:    1.69682   MPKI: 0.036445
STLB LOAD TRANSLATION ACCESS:       7289  HIT:          0  MISS:       7289  HIT %:          0  MISS %:        100   MPKI: 0.036445
STLB TRANSLATION FROM L1D PREFETCHER ACCESS:     422278  HIT:     422278  MISS:          0  HIT %:        100  MISS %:          0   MPKI: 0
STLB PREFETCH  REQUESTED:          0  ISSUED:          0  USEFUL:          0  USELESS:          0
STLB USEFUL LOAD PREFETCHES:          0 PREFETCH ISSUED TO LOWER LEVEL:          0  ACCURACY: -nan
STLB TIMELY PREFETCHES:          0 LATE PREFETCHES: 0 DROPPED PREFETCHES: 0
STLB PREFETCHES SAME FILL-ORIGIN LEVEL: 0 DIFFERENT FILL-ORIGIN LEVEL: 0
STLB AVERAGE MISS LATENCY: 139.136 cycles
STLB RQ	ACCESS:     493403	FORWARD:          0	MERGED:      63835	TO_CACHE:     429568

STLB Hit, L1D data hit: 0
STLB Hit, L2C data hit: 0
STLB Hit, LLC data hit: 0
STLB Hit, LLC data miss: 0
STLB STLB hints to L2: 0
L1D TOTAL     ACCESS:   19076321  HIT:   18609843  MISS:     466478  HIT %:    97.5547  MISS %:    2.44532   MPKI: 2.33239
L1D LOAD      ACCESS:   14415520  HIT:   14407510  MISS:       8010  HIT %:    99.9444  MISS %:  0.0555651   MPKI: 0.04005
L1D RFO       ACCESS:    4174845  HIT:    4174845  MISS:          0  HIT %:        100  MISS %:          0   MPKI: 0
L1D PREFETCH  ACCESS:     485956  HIT:      27488  MISS:     458468  HIT %:    5.65648  MISS %:    94.3435   MPKI: 2.29234
L1D PREFETCH  REQUESTED:     972226  ISSUED:     972226  USEFUL:     458463  USELESS:          0
L1D USEFUL LOAD PREFETCHES:     458463 PREFETCH ISSUED TO LOWER LEVEL:     458613  ACCURACY: 99.9673
L1D TIMELY PREFETCHES:     458463 LATE PREFETCHES: 144 DROPPED PREFETCHES: 0
L1D PREFETCHES SAME FILL-ORIGIN LEVEL: 458613 DIFFERENT FILL-ORIGIN LEVEL: 0
L1D AVERAGE MISS LATENCY: 232.133 cycles
L1D RQ	ACCESS:   29854296	FORWARD:          0	MERGED:   15398298	TO_CACHE:   14455998
L1D WQ	ACCESS:    4174845	FORWARD:          0	MERGED:          0	TO_CACHE:    4174845
L1D PQ	ACCESS:     486113	FORWARD:          0	MERGED:          0	TO_CACHE:     486113

L1D UNIQUE REGIONS ACCESSED: 0
L1D REGIONS CONFLICTS: 0
L1D Cross Page Prefetch Requests: 0
L1D Same Page Prefetch Requests: 486113
L1D ROI Sum of L1D PQ occupancy: 5387705
L1D PREFETCHES PUSHED FROM L2C: 0
L1I TOTAL     ACCESS:   33202870  HIT:   33202870  MISS:          0  HIT %:        100  MISS %:          0   MPKI: 0
L1I LOAD      ACCESS:   33202870  HIT:   33202870  MISS:          0  HIT %:        100  MISS %:          0   MPKI: 0
L1I PREFETCH  REQUESTED:          0  ISSUED:          0  USEFUL:          0  USELESS:          0
L1I USEFUL LOAD PREFETCHES:          0 PREFETCH ISSUED TO LOWER LEVEL:          0  ACCURACY: -nan
L1I TIMELY PREFETCHES:          0 LATE PREFETCHES: 0 DROPPED PREFETCHES: 0
L1I PREFETCHES SAME FILL-ORIGIN LEVEL: 0 DIFFERENT FILL-ORIGIN LEVEL: 0
L1I AVERAGE MISS LATENCY: -nan cycles
L1I RQ	ACCESS:   80069021	FORWARD:          0	MERGED:   46866152	TO_CACHE:   33202869

BTB TOTAL     ACCESS:   59708596  HIT:   59708594  MISS:          2  HIT %:        100  MISS %: 3.3496e-06   MPKI: 1e-05
BTB BRANCH_DIRECT_JUMP	ACCESS:          0  HIT:          0  MISS:          0
BTB BRANCH_INDIRECT	ACCESS:          0  HIT:          0  MISS:          0
BTB BRANCH_CONDITIONAL	ACCESS:   59708596  HIT:   59708594  MISS:          2
BTB BRANCH_DIRECT_CALL	ACCESS:          0  HIT:          0  MISS:          0
BTB BRANCH_INDIRECT_CALL	ACCESS:          0  HIT:          0  MISS:          0
BTB BRANCH_RETURN	ACCESS:          0  HIT:          0  MISS:          0
BTB BRANCH_OTHER ACCESS:          0  HIT:          0  MISS:          0

L2C TOTAL     ACCESS:     940245  HIT:     241373  MISS:     698872  HIT %:    25.6713  MISS %:    74.3287   MPKI: 3.49436
L2C LOAD      ACCESS:       7866  HIT:          0  MISS:       7866  HIT %:          0  MISS %:        100   MPKI: 0.03933
L2C DATA LOAD MPKI: 0.03933
L2C INSTRUCTION LOAD MPKI: 0
L2C PREFETCH  ACCESS:     458612  HIT:          0  MISS:     458612  HIT %:          0  MISS %:        100   MPKI: 2.29306
L2C DATA PREFETCH MPKI: 2.29306
L2C INSTRUCTION PREFETCH MPKI: 0
L2C WRITEBACK ACCESS:     466478  HIT:     235009  MISS:     231469  HIT %:    50.3794  MISS %:    49.6206   MPKI: 1.15734
L2C LOAD TRANSLATION ACCESS:       7289  HIT:       6364  MISS:        925  HIT %:    87.3096  MISS %:    12.6904   MPKI: 0.004625
L2C PREFETCH  REQUESTED:          0  ISSUED:          0  USEFUL:          0  USELESS:     452706
L2C USEFUL LOAD PREFETCHES:          0 PREFETCH ISSUED TO LOWER LEVEL:     458613  ACCURACY: 0
L2C TIMELY PREFETCHES:          0 LATE PREFETCHES: 0 DROPPED PREFETCHES: 0
L2C PREFETCHES SAME FILL-ORIGIN LEVEL: 0 DIFFERENT FILL-ORIGIN LEVEL: 0
L2C AVERAGE MISS LATENCY: 146.591 cycles
L2C RQ	ACCESS:      15155	FORWARD:          0	MERGED:          0	TO_CACHE:      15155
L2C WQ	ACCESS:     466478	FORWARD:          0	MERGED:          0	TO_CACHE:     466478
L2C PQ	ACCESS:     458613	FORWARD:          0	MERGED:          0	TO_CACHE:     458613

L2C Instructions Evicting Data 0
L2C Translations Evicting Data 922
L2C Data Evicting Data 465743
L2C Instructions Evicting Instructions 0
L2C Translations Evicting Instructions 0
L2C Data Evicting Instructions 0
L2C Instructions Evicting Translations 0
L2C Translations Evicting Translations 3
L2C Data Evicting Translations 735
L2C Dense regions hint from L2: 0
PSCL5 TOTAL     ACCESS:       7289  HIT:       7289  MISS:          0  HIT %:        100  MISS %:          0   MPKI: 0
PSCL5 LOAD TRANSLATION ACCESS:       7289  HIT:       7289  MISS:          0  HIT %:        100  MISS %:          0   MPKI: 0
PSCL5 PREFETCH  REQUESTED:          0  ISSUED:          0  USEFUL:          0  USELESS:          0
PSCL5 USEFUL LOAD PREFETCHES:          0 PREFETCH ISSUED TO LOWER LEVEL:          0  ACCURACY: -nan
PSCL5 TIMELY PREFETCHES:          0 LATE PREFETCHES: 0 DROPPED PREFETCHES: 0
PSCL5 PREFETCHES SAME FILL-ORIGIN LEVEL: 0 DIFFERENT FILL-ORIGIN LEVEL: 0

PSCL4 TOTAL     ACCESS:       7289  HIT:       7289  MISS:          0  HIT %:        100  MISS %:          0   MPKI: 0
PSCL4 LOAD TRANSLATION ACCESS:       7289  HIT:       7289  MISS:          0  HIT %:        100  MISS %:          0   MPKI: 0
PSCL4 PREFETCH  REQUESTED:          0  ISSUED:          0  USEFUL:          0  USELESS:          0
PSCL4 USEFUL LOAD PREFETCHES:          0 PREFETCH ISSUED TO LOWER LEVEL:          0  ACCURACY: -nan
PSCL4 TIMELY PREFETCHES:          0 LATE PREFETCHES: 0 DROPPED PREFETCHES: 0
PSCL4 PREFETCHES SAME FILL-ORIGIN LEVEL: 0 DIFFERENT FILL-ORIGIN LEVEL: 0

PSCL3 TOTAL     ACCESS:       7289  HIT:       7289  MISS:          0  HIT %:        100  MISS %:          0   MPKI: 0
PSCL3 LOAD TRANSLATION ACCESS:       7289  HIT:       7289  MISS:          0  HIT %:        100  MISS %:          0   MPKI: 0
PSCL3 PREFETCH  REQUESTED:          0  ISSUED:          0  USEFUL:          0  USELESS:          0
PSCL3 USEFUL LOAD PREFETCHES:          0 PREFETCH ISSUED TO LOWER LEVEL:          0  ACCURACY: -nan
PSCL3 TIMELY PREFETCHES:          0 LATE PREFETCHES: 0 DROPPED PREFETCHES: 0
PSCL3 PREFETCHES SAME FILL-ORIGIN LEVEL: 0 DIFFERENT FILL-ORIGIN LEVEL: 0

PSCL2 TOTAL     ACCESS:       7289  HIT:       7274  MISS:         15  HIT %:    99.7942  MISS %:    0.20579   MPKI: 7.5e-05
PSCL2 LOAD TRANSLATION ACCESS:       7289  HIT:       7274  MISS:         15  HIT %:    99.7942  MISS %:    0.20579   MPKI: 7.5e-05
PSCL2 PREFETCH  REQUESTED:          0  ISSUED:          0  USEFUL:          0  USELESS:          0
PSCL2 USEFUL LOAD PREFETCHES:          0 PREFETCH ISSUED TO LOWER LEVEL:          0  ACCURACY: -nan
PSCL2 TIMELY PREFETCHES:          0 LATE PREFETCHES: 0 DROPPED PREFETCHES: 0
PSCL2 PREFETCHES SAME FILL-ORIGIN LEVEL: 0 DIFFERENT FILL-ORIGIN LEVEL: 0

LLC TOTAL     ACCESS:     934029  HIT:     420556  MISS:     513473  HIT %:     45.026  MISS %:     54.974   MPKI: 2.56736
LLC LOAD      ACCESS:       7866  HIT:          0  MISS:       7866  HIT %:          0  MISS %:        100   MPKI: 0.03933
LLC PREFETCH  ACCESS:     458612  HIT:          0  MISS:     458612  HIT %:          0  MISS %:        100   MPKI: 2.29306
LLC WRITEBACK ACCESS:     466626  HIT:     420556  MISS:      46070  HIT %:     90.127  MISS %:      9.873   MPKI: 0.23035
LLC LOAD TRANSLATION ACCESS:        925  HIT:          0  MISS:        925  HIT %:          0  MISS %:        100   MPKI: 0.004625
LLC PREFETCH  REQUESTED:          0  ISSUED:          0  USEFUL:          0  USELESS:    1749825
LLC USEFUL LOAD PREFETCHES:          0 PREFETCH ISSUED TO LOWER LEVEL:    1835516  ACCURACY: 0
LLC TIMELY PREFETCHES:          0 LATE PREFETCHES: 0 DROPPED PREFETCHES: 0
LLC PREFETCHES SAME FILL-ORIGIN LEVEL: 0 DIFFERENT FILL-ORIGIN LEVEL: 0
LLC AVERAGE MISS LATENCY: 687.169 cycles
LLC RQ	ACCESS:      34261	FORWARD:          0	MERGED:          0	TO_CACHE:      34261
LLC WQ	ACCESS:    1866723	FORWARD:          0	MERGED:          0	TO_CACHE:    1866723
LLC PQ	ACCESS:    1835516	FORWARD:          0	MERGED:          0	TO_CACHE:    1835516

LLC Dense regions hint to LLC: 0

RAW hits: 0
Loads Generated: 29854296
Loads sent to L1D: 29854296
Stores Generated: 4174846
Stores sent to L1D: 4174845
Major fault: 0 Minor fault: 9127
Allocated PAGES: 36508

stream: 
stream:times selected: 657283
stream:pref_filled: 571221
stream:pref_useful: 571210
stream:pref_late: 150
stream:misses: 21
stream:misses_by_poll: 0

CS: 
CS:times selected: 657276
CS:pref_filled: 2035
CS:pref_useful: 2035
CS:pref_late: 2
CS:misses: 47522
CS:misses_by_poll: 0

CPLX: 
CPLX:times selected: 5
CPLX:pref_filled: 0
CPLX:pref_useful: 0
CPLX:pref_late: 0
CPLX:misses: 0
CPLX:misses_by_poll: 0

NL_L1: 
NL:times selected: 0
NL:pref_filled: 0
NL:pref_useful: 0
NL:pref_late: 0
NL:misses: 0
NL:misses_by_poll: 0

total selections: 1314564
total_filled: 459109
total_useful: 459104
total_late: 152
total_polluted: 0
total_misses_after_warmup: 44194
conflicts: 0
Degree Incremented Times: 467530
Degree Decremented Times: 0

L1 IP Table Write Accesses: 57835381
L1 IP Table Read Accesses: 57835381
L1 RST Write Accesses: 2165326
L1 RST Read Accesses: 4330652
L1 CSPT Write Accesses: 2165326
L1 CSPT Read Accesses: 2165326
L1 RR Filter Tag Write Accesses: 1944362
L1 RR Filter Tag Read Accesses: 378753565
L1 IP Table Tag Write Accesses: 57835381
L1 IP Table Tag Read Accesses: 57835381
L1 RST Tag Write Accesses: 0
L1 RST Tag Read Accesses: 19492179
L1 RR Filter Write Accesses: 0
L1 RR Filter Read Accesses: 18576314
test: 36135

stream: 
stream:times selected: 657300
stream:pref_filled: 456961
stream:pref_useful: 456950
stream:pref_late: 138
stream:misses: 27
stream:misses_by_poll: 0

CS: 
CS:times selected: 657293
CS:pref_filled: 1868
CS:pref_useful: 1868
CS:pref_late: 3
CS:misses: 262128
CS:misses_by_poll: 4

CPLX: 
CPLX:times selected: 5
CPLX:pref_filled: 0
CPLX:pref_useful: 0
CPLX:pref_late: 0
CPLX:misses: 10
CPLX:misses_by_poll: 0

NL_L1: 
NL:times selected: 0
NL:pref_filled: 0
NL:pref_useful: 0
NL:pref_late: 0
NL:misses: 0
NL:misses_by_poll: 0

total selections: 1314598
total_filled: 458829
total_useful: 458818
total_late: 141
total_polluted: 4
total_misses_after_warmup: 46219
conflicts: 0
Degree Incremented Times: 467530
Degree Decremented Times: 0

L1 IP Table Write Accesses: 57835381
L1 IP Table Read Accesses: 57835381
L1 RST Write Accesses: 2165326
L1 RST Read Accesses: 4330652
L1 CSPT Write Accesses: 2165326
L1 CSPT Read Accesses: 2165326
L1 RR Filter Tag Write Accesses: 1944362
L1 RR Filter Tag Read Accesses: 378753565
L1 IP Table Tag Write Accesses: 57835381
L1 IP Table Tag Read Accesses: 57835381
L1 RST Tag Write Accesses: 0
L1 RST Tag Read Accesses: 19492179
L1 RR Filter Write Accesses: 0
L1 RR Filter Read Accesses: 18576314
test: 36135

stream: 
stream:times selected: 657280
stream:pref_filled: 456251
stream:pref_useful: 456240
stream:pref_late: 159
stream:misses: 27
stream:misses_by_poll: 0

CS: 
CS:times selected: 657273
CS:pref_filled: 2248
CS:pref_useful: 2248
CS:pref_late: 9
CS:misses: 266754
CS:misses_by_poll: 3

CPLX: 
CPLX:times selected: 5
CPLX:pref_filled: 0
CPLX:pref_useful: 0
CPLX:pref_late: 0
CPLX:misses: 10
CPLX:misses_by_poll: 0

NL_L1: 
NL:times selected: 0
NL:pref_filled: 0
NL:pref_useful: 0
NL:pref_late: 0
NL:misses: 0
NL:misses_by_poll: 0

total selections: 1314558
total_filled: 458499
total_useful: 458488
total_late: 170
total_polluted: 3
total_misses_after_warmup: 48318
conflicts: 0
Degree Incremented Times: 467530
Degree Decremented Times: 0

L1 IP Table Write Accesses: 57835381
L1 IP Table Read Accesses: 57835381
L1 RST Write Accesses: 2165326
L1 RST Read Accesses: 4330652
L1 CSPT Write Accesses: 2165326
L1 CSPT Read Accesses: 2165326
L1 RR Filter Tag Write Accesses: 1944362
L1 RR Filter Tag Read Accesses: 378753565
L1 IP Table Tag Write Accesses: 57835381
L1 IP Table Tag Read Accesses: 57835381
L1 RST Tag Write Accesses: 0
L1 RST Tag Read Accesses: 19492179
L1 RR Filter Write Accesses: 0
L1 RR Filter Read Accesses: 18576314
test: 36135

stream: 
stream:times selected: 657279
stream:pref_filled: 456544
stream:pref_useful: 456539
stream:pref_late: 133
stream:misses: 25
stream:misses_by_poll: 0

CS: 
CS:times selected: 657272
CS:pref_filled: 1924
CS:pref_useful: 1924
CS:pref_late: 7
CS:misses: 267047
CS:misses_by_poll: 2

CPLX: 
CPLX:times selected: 5
CPLX:pref_filled: 0
CPLX:pref_useful: 0
CPLX:pref_late: 0
CPLX:misses: 10
CPLX:misses_by_poll: 0

NL_L1: 
NL:times selected: 0
NL:pref_filled: 0
NL:pref_useful: 0
NL:pref_late: 0
NL:misses: 0
NL:misses_by_poll: 0

total selections: 1314556
total_filled: 458468
total_useful: 458463
total_late: 144
total_polluted: 2
total_misses_after_warmup: 48487
conflicts: 0
Degree Incremented Times: 467530
Degree Decremented Times: 0

L1 IP Table Write Accesses: 57835381
L1 IP Table Read Accesses: 57835381
L1 RST Write Accesses: 2165326
L1 RST Read Accesses: 4330652
L1 CSPT Write Accesses: 2165326
L1 CSPT Read Accesses: 2165326
L1 RR Filter Tag Write Accesses: 1944362
L1 RR Filter Tag Read Accesses: 378753565
L1 IP Table Tag Write Accesses: 57835381
L1 IP Table Tag Read Accesses: 57835381
L1 RST Tag Write Accesses: 0
L1 RST Tag Read Accesses: 19492179
L1 RR Filter Write Accesses: 0
L1 RR Filter Read Accesses: 18576314
test: 36135

DRAM Statistics
 CHANNEL 0
 RQ ROW_BUFFER_HIT:     331376  ROW_BUFFER_MISS:    1538397
 DBUS_CONGESTED:       1951
 WQ ROW_BUFFER_HIT:    1151464  ROW_BUFFER_MISS:     721928  FULL:      22819

 AVG_CONGESTED_CYCLE: 5
 All warmup complete: 5
Channel 0 Bank busy for read cycles: 0
Channel 0 Bank busy for write cycles: 0
Channel 0
Rank 0
0banks busy for read cycles: 525778
0banks busy for write cycles: 815
1banks busy for read cycles: 46283984
1banks busy for write cycles: 489808
2banks busy for read cycles: 42246150
2banks busy for write cycles: 545026
3banks busy for read cycles: 21200955
3banks busy for write cycles: 635516
4banks busy for read cycles: 5811242
4banks busy for write cycles: 697292
5banks busy for read cycles: 1170080
5banks busy for write cycles: 813425
6banks busy for read cycles: 799283
6banks busy for write cycles: 1073444
7banks busy for read cycles: 2403727
7banks busy for write cycles: 3669449
8banks busy for read cycles: 515335
8banks busy for write cycles: 43089946

CPU 0 Branch Prediction Accuracy: 99.6666% MPKI: 1.06483 Average ROB Occupancy at Mispredict: 26.6867
Branch types
NOT_BRANCH: 136137995 68.0583%
BRANCH_DIRECT_JUMP: 0 0%
BRANCH_INDIRECT: 0 0%
BRANCH_CONDITIONAL: 63893452 31.9417%
BRANCH_DIRECT_CALL: 0 0%
BRANCH_INDIRECT_CALL: 0 0%
BRANCH_RETURN: 0 0%
BRANCH_OTHER: 0 0%


CPU 1 Branch Prediction Accuracy: 99.6666% MPKI: 1.06486 Average ROB Occupancy at Mispredict: 26.7562
Branch types
NOT_BRANCH: 136133036 68.0583%
BRANCH_DIRECT_JUMP: 0 0%
BRANCH_INDIRECT: 0 0%
BRANCH_CONDITIONAL: 63891136 31.9417%
BRANCH_DIRECT_CALL: 0 0%
BRANCH_INDIRECT_CALL: 0 0%
BRANCH_RETURN: 0 0%
BRANCH_OTHER: 0 0%


CPU 2 Branch Prediction Accuracy: 99.6666% MPKI: 1.06492 Average ROB Occupancy at Mispredict: 26.8052
Branch types
NOT_BRANCH: 136122378 68.0583%
BRANCH_DIRECT_JUMP: 0 0%
BRANCH_INDIRECT: 0 0%
BRANCH_CONDITIONAL: 63886155 31.9417%
BRANCH_DIRECT_CALL: 0 0%
BRANCH_INDIRECT_CALL: 0 0%
BRANCH_RETURN: 0 0%
BRANCH_OTHER: 0 0%


CPU 3 Branch Prediction Accuracy: 99.6666% MPKI: 1.06494 Average ROB Occupancy at Mispredict: 26.8424
Branch types
NOT_BRANCH: 136116572 68.0583%
BRANCH_DIRECT_JUMP: 0 0%
BRANCH_INDIRECT: 0 0%
BRANCH_CONDITIONAL: 63883441 31.9417%
BRANCH_DIRECT_CALL: 0 0%
BRANCH_INDIRECT_CALL: 0 0%
BRANCH_RETURN: 0 0%
BRANCH_OTHER: 0 0%

DRAM PAGES: 1048576
Allocated PAGES: 36508
