
*** ChampSim Multicore Out-of-Order Simulator ***

Warmup Instructions: 50000000
Simulation Instructions: 200000000
Number of CPUs: 4
LLC sets: 8192
LLC ways: 16
Off-chip DRAM Size: 4096 MB Channels: 1 Width: 64-bit Data Rate: 6400 MT/s
CPU 0 runs ./traces/cs/cloud9_phase4_core0.trace.xz
.xz
CPU 1 runs ./traces/cs/cloud9_phase4_core1.trace.xz
.xz
CPU 2 runs ./traces/cs/cloud9_phase4_core2.trace.xz
.xz
CPU 3 runs ./traces/cs/cloud9_phase4_core3.trace.xz
.xz
BTB has LRU replacement policy
ITLB has LRU replacement policy
DTLB has LRU replacement policy
STLB has LRU replacement policy
L1I has LRU replacement policy
IP Table Entries: 1024
CSPT Entries: 128
RR_ENTRIES: 32
RST_ENTRIES: 8
L1D has LRU replacement policy
Initialize SRRIP state for L2C
Initialize DRRIP state for LLC
BTB has LRU replacement policy
ITLB has LRU replacement policy
DTLB has LRU replacement policy
STLB has LRU replacement policy
L1I has LRU replacement policy
IP Table Entries: 1024
CSPT Entries: 128
RR_ENTRIES: 32
RST_ENTRIES: 8
L1D has LRU replacement policy
Initialize SRRIP state for L2C
Initialize DRRIP state for LLC
BTB has LRU replacement policy
ITLB has LRU replacement policy
DTLB has LRU replacement policy
STLB has LRU replacement policy
L1I has LRU replacement policy
IP Table Entries: 1024
CSPT Entries: 128
RR_ENTRIES: 32
RST_ENTRIES: 8
L1D has LRU replacement policy
Initialize SRRIP state for L2C
Initialize DRRIP state for LLC
BTB has LRU replacement policy
ITLB has LRU replacement policy
DTLB has LRU replacement policy
STLB has LRU replacement policy
L1I has LRU replacement policy
IP Table Entries: 1024
CSPT Entries: 128
RR_ENTRIES: 32
RST_ENTRIES: 8
L1D has LRU replacement policy
Initialize SRRIP state for L2C
Initialize DRRIP state for LLC
UNIQUE_ASID[0] = €
UNIQUE_ASID[1] = 
Heartbeat CPU 2 instructions: 10000002 cycles: 3239910 heartbeat IPC: 3.08651 cumulative IPC: 3.08651 (Simulation time: 0 hr 2 min 32 sec) 
Heartbeat CPU 3 instructions: 10000002 cycles: 3373365 heartbeat IPC: 2.9644 cumulative IPC: 2.9644 (Simulation time: 0 hr 2 min 38 sec) 
Heartbeat CPU 0 instructions: 10000003 cycles: 3761996 heartbeat IPC: 2.65816 cumulative IPC: 2.65816 (Simulation time: 0 hr 2 min 57 sec) 
Heartbeat CPU 1 instructions: 10000002 cycles: 3777778 heartbeat IPC: 2.64706 cumulative IPC: 2.64706 (Simulation time: 0 hr 2 min 57 sec) 
Heartbeat CPU 2 instructions: 20000001 cycles: 6477661 heartbeat IPC: 3.08856 cumulative IPC: 3.08753 (Simulation time: 0 hr 4 min 55 sec) 
Heartbeat CPU 3 instructions: 20000003 cycles: 6745849 heartbeat IPC: 2.96517 cumulative IPC: 2.96479 (Simulation time: 0 hr 5 min 8 sec) 
Heartbeat CPU 0 instructions: 20000000 cycles: 7486061 heartbeat IPC: 2.68524 cumulative IPC: 2.67163 (Simulation time: 0 hr 5 min 42 sec) 
Heartbeat CPU 1 instructions: 20000001 cycles: 7499833 heartbeat IPC: 2.68669 cumulative IPC: 2.66673 (Simulation time: 0 hr 5 min 43 sec) 
Heartbeat CPU 2 instructions: 30000001 cycles: 9717195 heartbeat IPC: 3.08686 cumulative IPC: 3.08731 (Simulation time: 0 hr 6 min 59 sec) 
Heartbeat CPU 3 instructions: 30000003 cycles: 10116050 heartbeat IPC: 2.96718 cumulative IPC: 2.96558 (Simulation time: 0 hr 7 min 12 sec) 
Heartbeat CPU 0 instructions: 30000000 cycles: 11202116 heartbeat IPC: 2.69103 cumulative IPC: 2.67807 (Simulation time: 0 hr 7 min 48 sec) 
Heartbeat CPU 1 instructions: 30000002 cycles: 11232630 heartbeat IPC: 2.67896 cumulative IPC: 2.67079 (Simulation time: 0 hr 7 min 49 sec) 
Heartbeat CPU 2 instructions: 40000003 cycles: 12955308 heartbeat IPC: 3.08822 cumulative IPC: 3.08754 (Simulation time: 0 hr 9 min 3 sec) 
Heartbeat CPU 3 instructions: 40000003 cycles: 13460338 heartbeat IPC: 2.99017 cumulative IPC: 2.97169 (Simulation time: 0 hr 9 min 24 sec) 
Heartbeat CPU 0 instructions: 40000003 cycles: 14926565 heartbeat IPC: 2.68496 cumulative IPC: 2.67979 (Simulation time: 0 hr 10 min 19 sec) 
Heartbeat CPU 1 instructions: 40000001 cycles: 15005298 heartbeat IPC: 2.65064 cumulative IPC: 2.66573 (Simulation time: 0 hr 10 min 22 sec) 
Heartbeat CPU 2 instructions: 50000003 cycles: 16193406 heartbeat IPC: 3.08823 cumulative IPC: 3.08768 (Simulation time: 0 hr 11 min 6 sec) 
Heartbeat CPU 3 instructions: 50000003 cycles: 16803914 heartbeat IPC: 2.99081 cumulative IPC: 2.9755 (Simulation time: 0 hr 11 min 25 sec) 
Heartbeat CPU 0 instructions: 50000002 cycles: 18680578 heartbeat IPC: 2.66382 cumulative IPC: 2.67658 (Simulation time: 0 hr 12 min 19 sec) 
Heartbeat CPU 1 instructions: 50000003 cycles: 18722446 heartbeat IPC: 2.69024 cumulative IPC: 2.67059 (Simulation time: 0 hr 12 min 20 sec) 

Warmup complete CPU 0 instructions: 50114951 cycles: 18722446 (Simulation time: 0 hr 12 min 20 sec) 
Warmup complete CPU 1 instructions: 50000003 cycles: 18722446 (Simulation time: 0 hr 12 min 20 sec) 
Warmup complete CPU 2 instructions: 57661738 cycles: 18722445 (Simulation time: 0 hr 12 min 20 sec) 
Warmup complete CPU 3 instructions: 55673656 cycles: 18722445 (Simulation time: 0 hr 12 min 20 sec) 

Heartbeat CPU 2 instructions: 60000000 cycles: 21685609 heartbeat IPC: 1.82076 cumulative IPC: 0.78911 (Simulation time: 0 hr 13 min 5 sec) 
Heartbeat CPU 3 instructions: 60000002 cycles: 24675739 heartbeat IPC: 1.27035 cumulative IPC: 0.726715 (Simulation time: 0 hr 13 min 40 sec) 
Heartbeat CPU 2 instructions: 70000001 cycles: 34474391 heartbeat IPC: 0.781935 cumulative IPC: 0.783285 (Simulation time: 0 hr 15 min 44 sec) 
Heartbeat CPU 0 instructions: 60000000 cycles: 35074327 heartbeat IPC: 0.609988 cumulative IPC: 0.604521 (Simulation time: 0 hr 15 min 52 sec) 
Heartbeat CPU 1 instructions: 60000001 cycles: 35538944 heartbeat IPC: 0.594654 cumulative IPC: 0.594654 (Simulation time: 0 hr 15 min 57 sec) 
Heartbeat CPU 3 instructions: 70000001 cycles: 38411303 heartbeat IPC: 0.728037 cumulative IPC: 0.727637 (Simulation time: 0 hr 16 min 32 sec) 
Heartbeat CPU 2 instructions: 80000000 cycles: 47168591 heartbeat IPC: 0.787761 cumulative IPC: 0.785283 (Simulation time: 0 hr 18 min 37 sec) 
Heartbeat CPU 1 instructions: 70000001 cycles: 51852944 heartbeat IPC: 0.61297 cumulative IPC: 0.603673 (Simulation time: 0 hr 19 min 59 sec) 
Heartbeat CPU 0 instructions: 70000002 cycles: 51855250 heartbeat IPC: 0.595915 cumulative IPC: 0.600162 (Simulation time: 0 hr 19 min 59 sec) 
Heartbeat CPU 3 instructions: 80000001 cycles: 52263518 heartbeat IPC: 0.721906 cumulative IPC: 0.72527 (Simulation time: 0 hr 20 min 6 sec) 
Heartbeat CPU 2 instructions: 90000003 cycles: 59858830 heartbeat IPC: 0.788007 cumulative IPC: 0.786123 (Simulation time: 0 hr 22 min 15 sec) 
Heartbeat CPU 3 instructions: 90000001 cycles: 66113956 heartbeat IPC: 0.721999 cumulative IPC: 0.724314 (Simulation time: 0 hr 23 min 43 sec) 
Heartbeat CPU 0 instructions: 80000002 cycles: 68057012 heartbeat IPC: 0.617217 cumulative IPC: 0.605763 (Simulation time: 0 hr 24 min 12 sec) 
Heartbeat CPU 1 instructions: 80000000 cycles: 68381521 heartbeat IPC: 0.605013 cumulative IPC: 0.604119 (Simulation time: 0 hr 24 min 18 sec) 
Heartbeat CPU 2 instructions: 100000001 cycles: 72632433 heartbeat IPC: 0.782864 cumulative IPC: 0.785351 (Simulation time: 0 hr 25 min 16 sec) 
Heartbeat CPU 3 instructions: 100000000 cycles: 79980891 heartbeat IPC: 0.72114 cumulative IPC: 0.723596 (Simulation time: 0 hr 27 min 24 sec) 
Heartbeat CPU 0 instructions: 90000001 cycles: 84623477 heartbeat IPC: 0.603629 cumulative IPC: 0.605227 (Simulation time: 0 hr 28 min 43 sec) 
Heartbeat CPU 2 instructions: 110000000 cycles: 85030326 heartbeat IPC: 0.806589 cumulative IPC: 0.789322 (Simulation time: 0 hr 28 min 50 sec) 
Heartbeat CPU 1 instructions: 90000002 cycles: 85285820 heartbeat IPC: 0.591566 cumulative IPC: 0.600931 (Simulation time: 0 hr 28 min 54 sec) 
Heartbeat CPU 3 instructions: 110000000 cycles: 94059813 heartbeat IPC: 0.710282 cumulative IPC: 0.721108 (Simulation time: 0 hr 30 min 42 sec) 
Heartbeat CPU 2 instructions: 120000002 cycles: 97519244 heartbeat IPC: 0.80071 cumulative IPC: 0.791127 (Simulation time: 0 hr 31 min 22 sec) 
Heartbeat CPU 0 instructions: 100000000 cycles: 101333137 heartbeat IPC: 0.598456 cumulative IPC: 0.603857 (Simulation time: 0 hr 32 min 10 sec) 
Heartbeat CPU 1 instructions: 100000003 cycles: 101600953 heartbeat IPC: 0.612928 cumulative IPC: 0.603293 (Simulation time: 0 hr 32 min 14 sec) 
Heartbeat CPU 3 instructions: 120000003 cycles: 108196503 heartbeat IPC: 0.707379 cumulative IPC: 0.718939 (Simulation time: 0 hr 34 min 6 sec) 
Heartbeat CPU 2 instructions: 130000001 cycles: 110108498 heartbeat IPC: 0.794328 cumulative IPC: 0.791568 (Simulation time: 0 hr 34 min 38 sec) 
Heartbeat CPU 1 instructions: 110000000 cycles: 117916146 heartbeat IPC: 0.612925 cumulative IPC: 0.604877 (Simulation time: 0 hr 36 min 14 sec) 
Heartbeat CPU 0 instructions: 110000000 cycles: 118174813 heartbeat IPC: 0.593765 cumulative IPC: 0.602148 (Simulation time: 0 hr 36 min 17 sec) 
Heartbeat CPU 3 instructions: 130000001 cycles: 122512242 heartbeat IPC: 0.698532 cumulative IPC: 0.716124 (Simulation time: 0 hr 37 min 7 sec) 
Heartbeat CPU 2 instructions: 140000001 cycles: 122707899 heartbeat IPC: 0.793689 cumulative IPC: 0.791825 (Simulation time: 0 hr 37 min 10 sec) 
Heartbeat CPU 0 instructions: 120000000 cycles: 134125123 heartbeat IPC: 0.626947 cumulative IPC: 0.605576 (Simulation time: 0 hr 39 min 34 sec) 
Heartbeat CPU 1 instructions: 120000001 cycles: 134455484 heartbeat IPC: 0.604619 cumulative IPC: 0.60484 (Simulation time: 0 hr 39 min 39 sec) 
Heartbeat CPU 2 instructions: 150000001 cycles: 135348350 heartbeat IPC: 0.791111 cumulative IPC: 0.791747 (Simulation time: 0 hr 39 min 54 sec) 
Heartbeat CPU 3 instructions: 140000000 cycles: 136467692 heartbeat IPC: 0.716566 cumulative IPC: 0.716176 (Simulation time: 0 hr 40 min 13 sec) 
Heartbeat CPU 2 instructions: 160000003 cycles: 148132819 heartbeat IPC: 0.782199 cumulative IPC: 0.790804 (Simulation time: 0 hr 43 min 25 sec) 
Heartbeat CPU 3 instructions: 150000003 cycles: 150460187 heartbeat IPC: 0.714669 cumulative IPC: 0.716016 (Simulation time: 0 hr 44 min 6 sec) 
Heartbeat CPU 0 instructions: 130000003 cycles: 150759634 heartbeat IPC: 0.60116 cumulative IPC: 0.605019 (Simulation time: 0 hr 44 min 11 sec) 
Heartbeat CPU 1 instructions: 130000003 cycles: 151221006 heartbeat IPC: 0.596462 cumulative IPC: 0.60378 (Simulation time: 0 hr 44 min 18 sec) 
Heartbeat CPU 2 instructions: 170000000 cycles: 160873392 heartbeat IPC: 0.784894 cumulative IPC: 0.790274 (Simulation time: 0 hr 47 min 1 sec) 
Heartbeat CPU 3 instructions: 160000002 cycles: 164332223 heartbeat IPC: 0.720875 cumulative IPC: 0.716479 (Simulation time: 0 hr 48 min 1 sec) 
Heartbeat CPU 1 instructions: 140000003 cycles: 167430945 heartbeat IPC: 0.616905 cumulative IPC: 0.605211 (Simulation time: 0 hr 48 min 52 sec) 
Heartbeat CPU 0 instructions: 140000002 cycles: 167462364 heartbeat IPC: 0.598704 cumulative IPC: 0.60431 (Simulation time: 0 hr 48 min 53 sec) 
Heartbeat CPU 2 instructions: 180000003 cycles: 173523740 heartbeat IPC: 0.790492 cumulative IPC: 0.790292 (Simulation time: 0 hr 50 min 28 sec) 
Heartbeat CPU 3 instructions: 170000003 cycles: 178063467 heartbeat IPC: 0.728266 cumulative IPC: 0.717495 (Simulation time: 0 hr 51 min 37 sec) 
Heartbeat CPU 0 instructions: 150000001 cycles: 183753809 heartbeat IPC: 0.613819 cumulative IPC: 0.605249 (Simulation time: 0 hr 52 min 58 sec) 
Heartbeat CPU 1 instructions: 150000003 cycles: 183925735 heartbeat IPC: 0.606252 cumulative IPC: 0.605315 (Simulation time: 0 hr 53 min 0 sec) 
Heartbeat CPU 2 instructions: 190000001 cycles: 186166122 heartbeat IPC: 0.79099 cumulative IPC: 0.790345 (Simulation time: 0 hr 53 min 32 sec) 
Heartbeat CPU 3 instructions: 180000001 cycles: 191898478 heartbeat IPC: 0.722804 cumulative IPC: 0.717919 (Simulation time: 0 hr 54 min 53 sec) 
Heartbeat CPU 2 instructions: 200000003 cycles: 198898721 heartbeat IPC: 0.785386 cumulative IPC: 0.789994 (Simulation time: 0 hr 56 min 18 sec) 
Heartbeat CPU 0 instructions: 160000000 cycles: 200205139 heartbeat IPC: 0.607854 cumulative IPC: 0.605485 (Simulation time: 0 hr 56 min 33 sec) 
Heartbeat CPU 1 instructions: 160000001 cycles: 200659631 heartbeat IPC: 0.597589 cumulative IPC: 0.604604 (Simulation time: 0 hr 56 min 39 sec) 
Heartbeat CPU 3 instructions: 190000001 cycles: 205783752 heartbeat IPC: 0.720187 cumulative IPC: 0.718087 (Simulation time: 0 hr 57 min 53 sec) 
Heartbeat CPU 2 instructions: 210000001 cycles: 211270883 heartbeat IPC: 0.808266 cumulative IPC: 0.791169 (Simulation time: 0 hr 59 min 23 sec) 
Heartbeat CPU 0 instructions: 170000001 cycles: 216848492 heartbeat IPC: 0.600841 cumulative IPC: 0.605095 (Simulation time: 1 hr 0 min 44 sec) 
Heartbeat CPU 1 instructions: 170000000 cycles: 216920095 heartbeat IPC: 0.614989 cumulative IPC: 0.605456 (Simulation time: 1 hr 0 min 45 sec) 
Heartbeat CPU 3 instructions: 200000001 cycles: 219559548 heartbeat IPC: 0.725911 cumulative IPC: 0.718624 (Simulation time: 1 hr 1 min 19 sec) 
Heartbeat CPU 2 instructions: 220000000 cycles: 223746682 heartbeat IPC: 0.801552 cumulative IPC: 0.7918 (Simulation time: 1 hr 2 min 17 sec) 
Heartbeat CPU 0 instructions: 180000003 cycles: 233017913 heartbeat IPC: 0.618451 cumulative IPC: 0.606103 (Simulation time: 1 hr 4 min 6 sec) 
Heartbeat CPU 1 instructions: 180000002 cycles: 233353087 heartbeat IPC: 0.608532 cumulative IPC: 0.605692 (Simulation time: 1 hr 4 min 10 sec) 
Heartbeat CPU 3 instructions: 210000003 cycles: 233642009 heartbeat IPC: 0.710103 cumulative IPC: 0.718066 (Simulation time: 1 hr 4 min 13 sec) 
Heartbeat CPU 2 instructions: 230000000 cycles: 236316130 heartbeat IPC: 0.79558 cumulative IPC: 0.792019 (Simulation time: 1 hr 4 min 49 sec) 
Heartbeat CPU 3 instructions: 220000000 cycles: 247799765 heartbeat IPC: 0.706326 cumulative IPC: 0.71734 (Simulation time: 1 hr 7 min 38 sec) 
Heartbeat CPU 2 instructions: 240000000 cycles: 248908716 heartbeat IPC: 0.794118 cumulative IPC: 0.792134 (Simulation time: 1 hr 7 min 50 sec) 
Heartbeat CPU 0 instructions: 190000001 cycles: 249502377 heartbeat IPC: 0.606632 cumulative IPC: 0.60614 (Simulation time: 1 hr 7 min 57 sec) 
Heartbeat CPU 1 instructions: 190000003 cycles: 250154459 heartbeat IPC: 0.59519 cumulative IPC: 0.604929 (Simulation time: 1 hr 8 min 4 sec) 
Heartbeat CPU 2 instructions: 250000000 cycles: 261540028 heartbeat IPC: 0.791683 cumulative IPC: 0.79211 (Simulation time: 1 hr 10 min 9 sec) 
Heartbeat CPU 3 instructions: 230000001 cycles: 262127387 heartbeat IPC: 0.697953 cumulative IPC: 0.716199 (Simulation time: 1 hr 10 min 16 sec) 
Heartbeat CPU 0 instructions: 200000000 cycles: 266167729 heartbeat IPC: 0.600047 cumulative IPC: 0.60573 (Simulation time: 1 hr 11 min 2 sec) 
Heartbeat CPU 1 instructions: 200000000 cycles: 266455929 heartbeat IPC: 0.613441 cumulative IPC: 0.605489 (Simulation time: 1 hr 11 min 5 sec) 
Finished CPU 2 instructions: 200000000 cycles: 252643046 cumulative IPC: 0.791631 (Simulation time: 1 hr 12 min 1 sec) 
Heartbeat CPU 2 instructions: 260000002 cycles: 274313865 heartbeat IPC: 0.78285 cumulative IPC: 0.791647 (Simulation time: 1 hr 12 min 35 sec) 
Heartbeat CPU 3 instructions: 240000000 cycles: 276095206 heartbeat IPC: 0.715931 cumulative IPC: 0.716184 (Simulation time: 1 hr 12 min 55 sec) 
Heartbeat CPU 1 instructions: 210000001 cycles: 282761153 heartbeat IPC: 0.6133 cumulative IPC: 0.605972 (Simulation time: 1 hr 14 min 10 sec) 
Heartbeat CPU 0 instructions: 210000003 cycles: 282969257 heartbeat IPC: 0.595184 cumulative IPC: 0.60506 (Simulation time: 1 hr 14 min 13 sec) 
Heartbeat CPU 2 instructions: 270000002 cycles: 287043188 heartbeat IPC: 0.785588 cumulative IPC: 0.79136 (Simulation time: 1 hr 14 min 59 sec) 
Heartbeat CPU 3 instructions: 250000003 cycles: 290088483 heartbeat IPC: 0.714629 cumulative IPC: 0.716104 (Simulation time: 1 hr 15 min 34 sec) 
Finished CPU 3 instructions: 200000003 cycles: 279289418 cumulative IPC: 0.716103 (Simulation time: 1 hr 17 min 14 sec) 
Heartbeat CPU 0 instructions: 220000000 cycles: 298898261 heartbeat IPC: 0.627785 cumulative IPC: 0.606352 (Simulation time: 1 hr 17 min 26 sec) 
Heartbeat CPU 1 instructions: 220000000 cycles: 299284713 heartbeat IPC: 0.605196 cumulative IPC: 0.605926 (Simulation time: 1 hr 17 min 31 sec) 
Heartbeat CPU 2 instructions: 280000001 cycles: 299680647 heartbeat IPC: 0.791298 cumulative IPC: 0.791357 (Simulation time: 1 hr 17 min 36 sec) 
Heartbeat CPU 3 instructions: 260000002 cycles: 303953470 heartbeat IPC: 0.721241 cumulative IPC: 0.716354 (Simulation time: 1 hr 18 min 50 sec) 
Heartbeat CPU 2 instructions: 290000000 cycles: 312319428 heartbeat IPC: 0.791215 cumulative IPC: 0.791351 (Simulation time: 1 hr 21 min 13 sec) 
Heartbeat CPU 0 instructions: 230000000 cycles: 315520115 heartbeat IPC: 0.601618 cumulative IPC: 0.606086 (Simulation time: 1 hr 22 min 7 sec) 
Heartbeat CPU 1 instructions: 230000000 cycles: 316028582 heartbeat IPC: 0.597234 cumulative IPC: 0.605437 (Simulation time: 1 hr 22 min 16 sec) 
Heartbeat CPU 3 instructions: 270000000 cycles: 317677309 heartbeat IPC: 0.728659 cumulative IPC: 0.716919 (Simulation time: 1 hr 22 min 44 sec) 
Heartbeat CPU 2 instructions: 300000002 cycles: 325035613 heartbeat IPC: 0.7864 cumulative IPC: 0.791145 (Simulation time: 1 hr 24 min 41 sec) 
Heartbeat CPU 3 instructions: 280000001 cycles: 331494344 heartbeat IPC: 0.723744 cumulative IPC: 0.71722 (Simulation time: 1 hr 26 min 2 sec) 
Heartbeat CPU 0 instructions: 240000000 cycles: 332172042 heartbeat IPC: 0.600531 cumulative IPC: 0.605791 (Simulation time: 1 hr 26 min 10 sec) 
Heartbeat CPU 1 instructions: 240000000 cycles: 332202974 heartbeat IPC: 0.618261 cumulative IPC: 0.606098 (Simulation time: 1 hr 26 min 11 sec) 
Heartbeat CPU 2 instructions: 310000000 cycles: 337413587 heartbeat IPC: 0.807886 cumulative IPC: 0.791796 (Simulation time: 1 hr 27 min 10 sec) 
Heartbeat CPU 3 instructions: 290000000 cycles: 345359783 heartbeat IPC: 0.721218 cumulative IPC: 0.71739 (Simulation time: 1 hr 28 min 46 sec) 
Heartbeat CPU 0 instructions: 250000001 cycles: 348445407 heartbeat IPC: 0.614501 cumulative IPC: 0.606221 (Simulation time: 1 hr 29 min 24 sec) 
Heartbeat CPU 1 instructions: 250000001 cycles: 348621540 heartbeat IPC: 0.609067 cumulative IPC: 0.606246 (Simulation time: 1 hr 29 min 26 sec) 
Finished CPU 1 instructions: 200000002 cycles: 329899095 cumulative IPC: 0.606246 (Simulation time: 1 hr 29 min 26 sec) 
Finished CPU 0 instructions: 200000000 cycles: 329902965 cumulative IPC: 0.606239 (Simulation time: 1 hr 29 min 26 sec) 

ChampSim completed all CPUs

Total Simulation Statistics (not including warmup)

CPU 0 cumulative IPC: 0.606239 instructions: 200000000 cycles: 329902965
ITLB TOTAL     ACCESS:   40669825  HIT:   30823215  MISS:    9846610  HIT %:    75.7889  MISS %:    24.2111   MPKI: 49.233
ITLB LOAD      ACCESS:          0  HIT:          0  MISS:          0  HIT %:       -nan  MISS %:       -nan   MPKI: 0
ITLB RFO       ACCESS:          0  HIT:          0  MISS:          0  HIT %:       -nan  MISS %:       -nan   MPKI: 0
ITLB PREFETCH  ACCESS:          0  HIT:          0  MISS:          0  HIT %:       -nan  MISS %:       -nan   MPKI: 0
ITLB WRITEBACK ACCESS:          0  HIT:          0  MISS:          0  HIT %:       -nan  MISS %:       -nan   MPKI: 0
DTLB TOTAL     ACCESS:   28555363  HIT:   16757852  MISS:   11797511  HIT %:    58.6855  MISS %:    41.3145   MPKI: 58.9876
DTLB LOAD      ACCESS:          0  HIT:          0  MISS:          0  HIT %:       -nan  MISS %:       -nan   MPKI: 0
DTLB RFO       ACCESS:          0  HIT:          0  MISS:          0  HIT %:       -nan  MISS %:       -nan   MPKI: 0
DTLB PREFETCH  ACCESS:          0  HIT:          0  MISS:          0  HIT %:       -nan  MISS %:       -nan   MPKI: 0
DTLB WRITEBACK ACCESS:          0  HIT:          0  MISS:          0  HIT %:       -nan  MISS %:       -nan   MPKI: 0
STLB TOTAL     ACCESS:   26473234  HIT:    7210972  MISS:   19262262  HIT %:    27.2387  MISS %:    72.7613   MPKI: 96.3113
STLB LOAD      ACCESS:          0  HIT:          0  MISS:          0  HIT %:       -nan  MISS %:       -nan   MPKI: 0
STLB RFO       ACCESS:          0  HIT:          0  MISS:          0  HIT %:       -nan  MISS %:       -nan   MPKI: 0
STLB PREFETCH  ACCESS:          0  HIT:          0  MISS:          0  HIT %:       -nan  MISS %:       -nan   MPKI: 0
STLB WRITEBACK ACCESS:          0  HIT:          0  MISS:          0  HIT %:       -nan  MISS %:       -nan   MPKI: 0
L1D TOTAL     ACCESS:   39385610  HIT:   36883895  MISS:    2501715  HIT %:    93.6481  MISS %:    6.35185   MPKI: 12.5086
L1D LOAD      ACCESS:   20363790  HIT:   19371379  MISS:     992411  HIT %:    95.1266  MISS %:    4.87341   MPKI: 4.96206
L1D RFO       ACCESS:   12787993  HIT:   12717356  MISS:      70637  HIT %:    99.4476  MISS %:    0.55237   MPKI: 0.353185
L1D PREFETCH  ACCESS:    6233827  HIT:    4795160  MISS:    1438667  HIT %:    76.9216  MISS %:    23.0784   MPKI: 7.19334
L1D WRITEBACK ACCESS:          0  HIT:          0  MISS:          0  HIT %:       -nan  MISS %:       -nan   MPKI: 0
L1I TOTAL     ACCESS:   48728427  HIT:   48710835  MISS:      17592  HIT %:    99.9639  MISS %:  0.0361021   MPKI: 0.08796
L1I LOAD      ACCESS:   48728427  HIT:   48710835  MISS:      17592  HIT %:    99.9639  MISS %:  0.0361021   MPKI: 0.08796
L1I RFO       ACCESS:          0  HIT:          0  MISS:          0  HIT %:       -nan  MISS %:       -nan   MPKI: 0
L1I PREFETCH  ACCESS:          0  HIT:          0  MISS:          0  HIT %:       -nan  MISS %:       -nan   MPKI: 0
L1I WRITEBACK ACCESS:          0  HIT:          0  MISS:          0  HIT %:       -nan  MISS %:       -nan   MPKI: 0
L2C TOTAL     ACCESS:   22954988  HIT:   21473267  MISS:    1481721  HIT %:    93.5451  MISS %:     6.4549   MPKI: 7.4086
L2C LOAD      ACCESS:    1002516  HIT:     428458  MISS:     574058  HIT %:    42.7383  MISS %:    57.2617   MPKI: 2.87029
L2C RFO       ACCESS:      67842  HIT:      17428  MISS:      50414  HIT %:    25.6891  MISS %:    74.3109   MPKI: 0.25207
L2C PREFETCH  ACCESS:    1448921  HIT:     637371  MISS:     811550  HIT %:    43.9894  MISS %:    56.0106   MPKI: 4.05775
L2C WRITEBACK ACCESS:     965241  HIT:     934735  MISS:      30506  HIT %:    96.8395  MISS %:    3.16045   MPKI: 0.15253
PSCL5 TOTAL     ACCESS:   19262262  HIT:   19262262  MISS:          0  HIT %:        100  MISS %:          0   MPKI: 0
PSCL5 LOAD      ACCESS:          0  HIT:          0  MISS:          0  HIT %:       -nan  MISS %:       -nan   MPKI: 0
PSCL5 RFO       ACCESS:          0  HIT:          0  MISS:          0  HIT %:       -nan  MISS %:       -nan   MPKI: 0
PSCL5 PREFETCH  ACCESS:          0  HIT:          0  MISS:          0  HIT %:       -nan  MISS %:       -nan   MPKI: 0
PSCL5 WRITEBACK ACCESS:          0  HIT:          0  MISS:          0  HIT %:       -nan  MISS %:       -nan   MPKI: 0
PSCL4 TOTAL     ACCESS:   19262262  HIT:   19262262  MISS:          0  HIT %:        100  MISS %:          0   MPKI: 0
PSCL4 LOAD      ACCESS:          0  HIT:          0  MISS:          0  HIT %:       -nan  MISS %:       -nan   MPKI: 0
PSCL4 RFO       ACCESS:          0  HIT:          0  MISS:          0  HIT %:       -nan  MISS %:       -nan   MPKI: 0
PSCL4 PREFETCH  ACCESS:          0  HIT:          0  MISS:          0  HIT %:       -nan  MISS %:       -nan   MPKI: 0
PSCL4 WRITEBACK ACCESS:          0  HIT:          0  MISS:          0  HIT %:       -nan  MISS %:       -nan   MPKI: 0
PSCL3 TOTAL     ACCESS:   19262155  HIT:   19262105  MISS:         50  HIT %:    99.9997  MISS %: 0.000259576   MPKI: 0.00025
PSCL3 LOAD      ACCESS:          0  HIT:          0  MISS:          0  HIT %:       -nan  MISS %:       -nan   MPKI: 0
PSCL3 RFO       ACCESS:          0  HIT:          0  MISS:          0  HIT %:       -nan  MISS %:       -nan   MPKI: 0
PSCL3 PREFETCH  ACCESS:          0  HIT:          0  MISS:          0  HIT %:       -nan  MISS %:       -nan   MPKI: 0
PSCL3 WRITEBACK ACCESS:          0  HIT:          0  MISS:          0  HIT %:       -nan  MISS %:       -nan   MPKI: 0
PSCL2 TOTAL     ACCESS:   19262262  HIT:   19054092  MISS:     208170  HIT %:    98.9193  MISS %:    1.08071   MPKI: 1.04085
PSCL2 LOAD      ACCESS:          0  HIT:          0  MISS:          0  HIT %:       -nan  MISS %:       -nan   MPKI: 0
PSCL2 RFO       ACCESS:          0  HIT:          0  MISS:          0  HIT %:       -nan  MISS %:       -nan   MPKI: 0
PSCL2 PREFETCH  ACCESS:          0  HIT:          0  MISS:          0  HIT %:       -nan  MISS %:       -nan   MPKI: 0
PSCL2 WRITEBACK ACCESS:          0  HIT:          0  MISS:          0  HIT %:       -nan  MISS %:       -nan   MPKI: 0

stream: 
stream:times selected: 10468347
stream:pref_filled: 1197051
stream:pref_useful: 319333
stream:pref_late: 6717
stream:misses: 288613
stream:misses_by_poll: 0

CS: 
CS:times selected: 481623
CS:pref_filled: 278442
CS:pref_useful: 264307
CS:pref_late: 123
CS:misses: 5199
CS:misses_by_poll: 500

CPLX: 
CPLX:times selected: 9930317
CPLX:pref_filled: 332609
CPLX:pref_useful: 93273
CPLX:pref_late: 509
CPLX:misses: 961792
CPLX:misses_by_poll: 746

NL_L1: 
NL:times selected: 40171
NL:pref_filled: 11723
NL:pref_useful: 2164
NL:pref_late: 12
NL:misses: 9670
NL:misses_by_poll: 2

total selections: 20920458
total_filled: 1438667
total_useful: 534458
total_late: 7611
total_polluted: 1248
total_misses_after_warmup: 1058308
conflicts: 1728860
Degree Incremented Times: 372368
Degree Decremented Times: 1317737

L1 IP Table Write Accesses: 79896213
L1 IP Table Read Accesses: 78167353
L1 RST Write Accesses: 28525407
L1 RST Read Accesses: 57050814
L1 CSPT Write Accesses: 28525407
L1 CSPT Read Accesses: 55794480
L1 RR Filter Tag Write Accesses: 23042016
L1 RR Filter Tag Read Accesses: 979884322
L1 IP Table Tag Write Accesses: 87873558
L1 IP Table Tag Read Accesses: 87873558
L1 RST Tag Write Accesses: 0
L1 RST Tag Read Accesses: 282599820
L1 RR Filter Write Accesses: 0
L1 RR Filter Read Accesses: 35300649
test: 18444061
LLC TOTAL     ACCESS:    2111485  HIT:    1715554  MISS:     395931  HIT %:    81.2487  MISS %:    18.7513   MPKI: 1.97965
LLC LOAD      ACCESS:     574056  HIT:     434421  MISS:     139635  HIT %:    75.6757  MISS %:    24.3243   MPKI: 0.698175
LLC RFO       ACCESS:      50414  HIT:      27029  MISS:      23385  HIT %:    53.6141  MISS %:    46.3859   MPKI: 0.116925
LLC PREFETCH  ACCESS:     811550  HIT:     583405  MISS:     228145  HIT %:    71.8877  MISS %:    28.1123   MPKI: 1.14072
LLC WRITEBACK ACCESS:     660272  HIT:     657971  MISS:       2301  HIT %:    99.6515  MISS %:   0.348493   MPKI: 0.011505

RAW hits: 7119082
Loads Generated: 37237430
Loads sent to L1D: 30118348
Stores Generated: 15098238
Stores sent to L1D: 15098239

CPU 1 cumulative IPC: 0.606246 instructions: 200002506 cycles: 329902965
ITLB TOTAL     ACCESS:   40879672  HIT:   31038697  MISS:    9840975  HIT %:     75.927  MISS %:     24.073   MPKI: 49.2043
ITLB LOAD      ACCESS:          0  HIT:          0  MISS:          0  HIT %:       -nan  MISS %:       -nan   MPKI: 0
ITLB RFO       ACCESS:          0  HIT:          0  MISS:          0  HIT %:       -nan  MISS %:       -nan   MPKI: 0
ITLB PREFETCH  ACCESS:          0  HIT:          0  MISS:          0  HIT %:       -nan  MISS %:       -nan   MPKI: 0
ITLB WRITEBACK ACCESS:          0  HIT:          0  MISS:          0  HIT %:       -nan  MISS %:       -nan   MPKI: 0
DTLB TOTAL     ACCESS:   28869508  HIT:   17336022  MISS:   11533486  HIT %:    60.0496  MISS %:    39.9504   MPKI: 57.6667
DTLB LOAD      ACCESS:          0  HIT:          0  MISS:          0  HIT %:       -nan  MISS %:       -nan   MPKI: 0
DTLB RFO       ACCESS:          0  HIT:          0  MISS:          0  HIT %:       -nan  MISS %:       -nan   MPKI: 0
DTLB PREFETCH  ACCESS:          0  HIT:          0  MISS:          0  HIT %:       -nan  MISS %:       -nan   MPKI: 0
DTLB WRITEBACK ACCESS:          0  HIT:          0  MISS:          0  HIT %:       -nan  MISS %:       -nan   MPKI: 0
STLB TOTAL     ACCESS:   26188668  HIT:    7057003  MISS:   19131665  HIT %:    26.9468  MISS %:    73.0532   MPKI: 95.6571
STLB LOAD      ACCESS:          0  HIT:          0  MISS:          0  HIT %:       -nan  MISS %:       -nan   MPKI: 0
STLB RFO       ACCESS:          0  HIT:          0  MISS:          0  HIT %:       -nan  MISS %:       -nan   MPKI: 0
STLB PREFETCH  ACCESS:          0  HIT:          0  MISS:          0  HIT %:       -nan  MISS %:       -nan   MPKI: 0
STLB WRITEBACK ACCESS:          0  HIT:          0  MISS:          0  HIT %:       -nan  MISS %:       -nan   MPKI: 0
L1D TOTAL     ACCESS:   39557802  HIT:   37163631  MISS:    2394171  HIT %:    93.9477  MISS %:    6.05234   MPKI: 11.9707
L1D LOAD      ACCESS:   20397989  HIT:   19478631  MISS:     919358  HIT %:    95.4929  MISS %:     4.5071   MPKI: 4.59673
L1D RFO       ACCESS:   12919366  HIT:   12850710  MISS:      68656  HIT %:    99.4686  MISS %:   0.531419   MPKI: 0.343276
L1D PREFETCH  ACCESS:    6240447  HIT:    4834290  MISS:    1406157  HIT %:     77.467  MISS %:     22.533   MPKI: 7.0307
L1D WRITEBACK ACCESS:          0  HIT:          0  MISS:          0  HIT %:       -nan  MISS %:       -nan   MPKI: 0
L1I TOTAL     ACCESS:   48912013  HIT:   48897675  MISS:      14338  HIT %:    99.9707  MISS %:  0.0293139   MPKI: 0.0716891
L1I LOAD      ACCESS:   48912013  HIT:   48897675  MISS:      14338  HIT %:    99.9707  MISS %:  0.0293139   MPKI: 0.0716891
L1I RFO       ACCESS:          0  HIT:          0  MISS:          0  HIT %:       -nan  MISS %:       -nan   MPKI: 0
L1I PREFETCH  ACCESS:          0  HIT:          0  MISS:          0  HIT %:       -nan  MISS %:       -nan   MPKI: 0
L1I WRITEBACK ACCESS:          0  HIT:          0  MISS:          0  HIT %:       -nan  MISS %:       -nan   MPKI: 0
L2C TOTAL     ACCESS:   22576012  HIT:   21187286  MISS:    1388726  HIT %:    93.8487  MISS %:    6.15133   MPKI: 6.94354
L2C LOAD      ACCESS:     926190  HIT:     414987  MISS:     511203  HIT %:    44.8058  MISS %:    55.1942   MPKI: 2.55598
L2C RFO       ACCESS:      66235  HIT:      15159  MISS:      51076  HIT %:    22.8867  MISS %:    77.1133   MPKI: 0.255377
L2C PREFETCH  ACCESS:    1416039  HIT:     633587  MISS:     782452  HIT %:    44.7436  MISS %:    55.2564   MPKI: 3.91221
L2C WRITEBACK ACCESS:     946058  HIT:     916719  MISS:      29339  HIT %:    96.8988  MISS %:    3.10118   MPKI: 0.146693
PSCL5 TOTAL     ACCESS:   19131667  HIT:   19131667  MISS:          0  HIT %:        100  MISS %:          0   MPKI: 0
PSCL5 LOAD      ACCESS:          0  HIT:          0  MISS:          0  HIT %:       -nan  MISS %:       -nan   MPKI: 0
PSCL5 RFO       ACCESS:          0  HIT:          0  MISS:          0  HIT %:       -nan  MISS %:       -nan   MPKI: 0
PSCL5 PREFETCH  ACCESS:          0  HIT:          0  MISS:          0  HIT %:       -nan  MISS %:       -nan   MPKI: 0
PSCL5 WRITEBACK ACCESS:          0  HIT:          0  MISS:          0  HIT %:       -nan  MISS %:       -nan   MPKI: 0
PSCL4 TOTAL     ACCESS:   19131667  HIT:   19131667  MISS:          0  HIT %:        100  MISS %:          0   MPKI: 0
PSCL4 LOAD      ACCESS:          0  HIT:          0  MISS:          0  HIT %:       -nan  MISS %:       -nan   MPKI: 0
PSCL4 RFO       ACCESS:          0  HIT:          0  MISS:          0  HIT %:       -nan  MISS %:       -nan   MPKI: 0
PSCL4 PREFETCH  ACCESS:          0  HIT:          0  MISS:          0  HIT %:       -nan  MISS %:       -nan   MPKI: 0
PSCL4 WRITEBACK ACCESS:          0  HIT:          0  MISS:          0  HIT %:       -nan  MISS %:       -nan   MPKI: 0
PSCL3 TOTAL     ACCESS:   19131304  HIT:   19131234  MISS:         70  HIT %:    99.9996  MISS %: 0.000365892   MPKI: 0.000349996
PSCL3 LOAD      ACCESS:          0  HIT:          0  MISS:          0  HIT %:       -nan  MISS %:       -nan   MPKI: 0
PSCL3 RFO       ACCESS:          0  HIT:          0  MISS:          0  HIT %:       -nan  MISS %:       -nan   MPKI: 0
PSCL3 PREFETCH  ACCESS:          0  HIT:          0  MISS:          0  HIT %:       -nan  MISS %:       -nan   MPKI: 0
PSCL3 WRITEBACK ACCESS:          0  HIT:          0  MISS:          0  HIT %:       -nan  MISS %:       -nan   MPKI: 0
PSCL2 TOTAL     ACCESS:   19131667  HIT:   19041897  MISS:      89770  HIT %:    99.5308  MISS %:   0.469222   MPKI: 0.448844
PSCL2 LOAD      ACCESS:          0  HIT:          0  MISS:          0  HIT %:       -nan  MISS %:       -nan   MPKI: 0
PSCL2 RFO       ACCESS:          0  HIT:          0  MISS:          0  HIT %:       -nan  MISS %:       -nan   MPKI: 0
PSCL2 PREFETCH  ACCESS:          0  HIT:          0  MISS:          0  HIT %:       -nan  MISS %:       -nan   MPKI: 0
PSCL2 WRITEBACK ACCESS:          0  HIT:          0  MISS:          0  HIT %:       -nan  MISS %:       -nan   MPKI: 0

stream: 
stream:times selected: 9814079
stream:pref_filled: 1118483
stream:pref_useful: 357916
stream:pref_late: 6906
stream:misses: 298470
stream:misses_by_poll: 0

CS: 
CS:times selected: 516798
CS:pref_filled: 280510
CS:pref_useful: 270407
CS:pref_late: 106
CS:misses: 4679
CS:misses_by_poll: 816

CPLX: 
CPLX:times selected: 9236451
CPLX:pref_filled: 352173
CPLX:pref_useful: 113523
CPLX:pref_late: 389
CPLX:misses: 842946
CPLX:misses_by_poll: 1882

NL_L1: 
NL:times selected: 37843
NL:pref_filled: 11363
NL:pref_useful: 3123
NL:pref_late: 14
NL:misses: 8896
NL:misses_by_poll: 2

total selections: 19605171
total_filled: 1406157
total_useful: 594566
total_late: 7633
total_polluted: 2700
total_misses_after_warmup: 972129
conflicts: 1728860
Degree Incremented Times: 372368
Degree Decremented Times: 1317737

L1 IP Table Write Accesses: 79896213
L1 IP Table Read Accesses: 78167353
L1 RST Write Accesses: 28525407
L1 RST Read Accesses: 57050814
L1 CSPT Write Accesses: 28525407
L1 CSPT Read Accesses: 55794480
L1 RR Filter Tag Write Accesses: 23042016
L1 RR Filter Tag Read Accesses: 979884322
L1 IP Table Tag Write Accesses: 87873558
L1 IP Table Tag Read Accesses: 87873558
L1 RST Tag Write Accesses: 0
L1 RST Tag Read Accesses: 282599820
L1 RR Filter Write Accesses: 0
L1 RR Filter Read Accesses: 35300649
test: 18444061
LLC TOTAL     ACCESS:    2001020  HIT:    1607856  MISS:     393164  HIT %:    80.3518  MISS %:    19.6482   MPKI: 1.9658
LLC LOAD      ACCESS:     511202  HIT:     385508  MISS:     125694  HIT %:    75.4121  MISS %:    24.5879   MPKI: 0.628462
LLC RFO       ACCESS:      51076  HIT:      27661  MISS:      23415  HIT %:    54.1566  MISS %:    45.8434   MPKI: 0.117074
LLC PREFETCH  ACCESS:     782450  HIT:     543016  MISS:     239434  HIT %:    69.3995  MISS %:    30.6005   MPKI: 1.19715
LLC WRITEBACK ACCESS:     641636  HIT:     638832  MISS:       2804  HIT %:     99.563  MISS %:   0.437008   MPKI: 0.0140198

RAW hits: 7232387
Loads Generated: 37430601
Loads sent to L1D: 30198210
Stores Generated: 15036506
Stores sent to L1D: 15036507

CPU 2 cumulative IPC: 0.792236 instructions: 261360941 cycles: 329902966
ITLB TOTAL     ACCESS:   45793194  HIT:   35325239  MISS:   10467955  HIT %:    77.1408  MISS %:    22.8592   MPKI: 40.0517
ITLB LOAD      ACCESS:          0  HIT:          0  MISS:          0  HIT %:       -nan  MISS %:       -nan   MPKI: 0
ITLB RFO       ACCESS:          0  HIT:          0  MISS:          0  HIT %:       -nan  MISS %:       -nan   MPKI: 0
ITLB PREFETCH  ACCESS:          0  HIT:          0  MISS:          0  HIT %:       -nan  MISS %:       -nan   MPKI: 0
ITLB WRITEBACK ACCESS:          0  HIT:          0  MISS:          0  HIT %:       -nan  MISS %:       -nan   MPKI: 0
DTLB TOTAL     ACCESS:   31135934  HIT:   20551946  MISS:   10583988  HIT %:    66.0072  MISS %:    33.9928   MPKI: 40.4957
DTLB LOAD      ACCESS:          0  HIT:          0  MISS:          0  HIT %:       -nan  MISS %:       -nan   MPKI: 0
DTLB RFO       ACCESS:          0  HIT:          0  MISS:          0  HIT %:       -nan  MISS %:       -nan   MPKI: 0
DTLB PREFETCH  ACCESS:          0  HIT:          0  MISS:          0  HIT %:       -nan  MISS %:       -nan   MPKI: 0
DTLB WRITEBACK ACCESS:          0  HIT:          0  MISS:          0  HIT %:       -nan  MISS %:       -nan   MPKI: 0
STLB TOTAL     ACCESS:   24767470  HIT:    7834704  MISS:   16932766  HIT %:     31.633  MISS %:     68.367   MPKI: 64.7869
STLB LOAD      ACCESS:          0  HIT:          0  MISS:          0  HIT %:       -nan  MISS %:       -nan   MPKI: 0
STLB RFO       ACCESS:          0  HIT:          0  MISS:          0  HIT %:       -nan  MISS %:       -nan   MPKI: 0
STLB PREFETCH  ACCESS:          0  HIT:          0  MISS:          0  HIT %:       -nan  MISS %:       -nan   MPKI: 0
STLB WRITEBACK ACCESS:          0  HIT:          0  MISS:          0  HIT %:       -nan  MISS %:       -nan   MPKI: 0
L1D TOTAL     ACCESS:   44942445  HIT:   43777688  MISS:    1164757  HIT %:    97.4083  MISS %:    2.59166   MPKI: 4.45651
L1D LOAD      ACCESS:   22706703  HIT:   22288117  MISS:     418586  HIT %:    98.1566  MISS %:    1.84345   MPKI: 1.60156
L1D RFO       ACCESS:   17326340  HIT:   17220952  MISS:     105388  HIT %:    99.3917  MISS %:   0.608253   MPKI: 0.403228
L1D PREFETCH  ACCESS:    4909402  HIT:    4268619  MISS:     640783  HIT %:    86.9478  MISS %:    13.0522   MPKI: 2.45172
L1D WRITEBACK ACCESS:          0  HIT:          0  MISS:          0  HIT %:       -nan  MISS %:       -nan   MPKI: 0
L1I TOTAL     ACCESS:   57025111  HIT:   57007366  MISS:      17745  HIT %:    99.9689  MISS %:  0.0311179   MPKI: 0.0678946
L1I LOAD      ACCESS:   57025111  HIT:   57007366  MISS:      17745  HIT %:    99.9689  MISS %:  0.0311179   MPKI: 0.0678946
L1I RFO       ACCESS:          0  HIT:          0  MISS:          0  HIT %:       -nan  MISS %:       -nan   MPKI: 0
L1I PREFETCH  ACCESS:          0  HIT:          0  MISS:          0  HIT %:       -nan  MISS %:       -nan   MPKI: 0
L1I WRITEBACK ACCESS:          0  HIT:          0  MISS:          0  HIT %:       -nan  MISS %:       -nan   MPKI: 0
L2C TOTAL     ACCESS:   18596059  HIT:   18153377  MISS:     442682  HIT %:    97.6195  MISS %:    2.38052   MPKI: 1.69376
L2C LOAD      ACCESS:     433459  HIT:     266556  MISS:     166903  HIT %:    61.4951  MISS %:    38.5049   MPKI: 0.638592
L2C RFO       ACCESS:     102785  HIT:      85545  MISS:      17240  HIT %:    83.2271  MISS %:    16.7729   MPKI: 0.0659624
L2C PREFETCH  ACCESS:     646245  HIT:     414145  MISS:     232100  HIT %:    64.0848  MISS %:    35.9152   MPKI: 0.888044
L2C WRITEBACK ACCESS:     421449  HIT:     411819  MISS:       9630  HIT %:     97.715  MISS %:    2.28497   MPKI: 0.0368456
PSCL5 TOTAL     ACCESS:   16932767  HIT:   16932767  MISS:          0  HIT %:        100  MISS %:          0   MPKI: 0
PSCL5 LOAD      ACCESS:          0  HIT:          0  MISS:          0  HIT %:       -nan  MISS %:       -nan   MPKI: 0
PSCL5 RFO       ACCESS:          0  HIT:          0  MISS:          0  HIT %:       -nan  MISS %:       -nan   MPKI: 0
PSCL5 PREFETCH  ACCESS:          0  HIT:          0  MISS:          0  HIT %:       -nan  MISS %:       -nan   MPKI: 0
PSCL5 WRITEBACK ACCESS:          0  HIT:          0  MISS:          0  HIT %:       -nan  MISS %:       -nan   MPKI: 0
PSCL4 TOTAL     ACCESS:   16932767  HIT:   16932767  MISS:          0  HIT %:        100  MISS %:          0   MPKI: 0
PSCL4 LOAD      ACCESS:          0  HIT:          0  MISS:          0  HIT %:       -nan  MISS %:       -nan   MPKI: 0
PSCL4 RFO       ACCESS:          0  HIT:          0  MISS:          0  HIT %:       -nan  MISS %:       -nan   MPKI: 0
PSCL4 PREFETCH  ACCESS:          0  HIT:          0  MISS:          0  HIT %:       -nan  MISS %:       -nan   MPKI: 0
PSCL4 WRITEBACK ACCESS:          0  HIT:          0  MISS:          0  HIT %:       -nan  MISS %:       -nan   MPKI: 0
PSCL3 TOTAL     ACCESS:   16932417  HIT:   16932327  MISS:         90  HIT %:    99.9995  MISS %: 0.000531525   MPKI: 0.000344351
PSCL3 LOAD      ACCESS:          0  HIT:          0  MISS:          0  HIT %:       -nan  MISS %:       -nan   MPKI: 0
PSCL3 RFO       ACCESS:          0  HIT:          0  MISS:          0  HIT %:       -nan  MISS %:       -nan   MPKI: 0
PSCL3 PREFETCH  ACCESS:          0  HIT:          0  MISS:          0  HIT %:       -nan  MISS %:       -nan   MPKI: 0
PSCL3 WRITEBACK ACCESS:          0  HIT:          0  MISS:          0  HIT %:       -nan  MISS %:       -nan   MPKI: 0
PSCL2 TOTAL     ACCESS:   16932767  HIT:   16873503  MISS:      59264  HIT %:      99.65  MISS %:   0.349996   MPKI: 0.226752
PSCL2 LOAD      ACCESS:          0  HIT:          0  MISS:          0  HIT %:       -nan  MISS %:       -nan   MPKI: 0
PSCL2 RFO       ACCESS:          0  HIT:          0  MISS:          0  HIT %:       -nan  MISS %:       -nan   MPKI: 0
PSCL2 PREFETCH  ACCESS:          0  HIT:          0  MISS:          0  HIT %:       -nan  MISS %:       -nan   MPKI: 0
PSCL2 WRITEBACK ACCESS:          0  HIT:          0  MISS:          0  HIT %:       -nan  MISS %:       -nan   MPKI: 0

stream: 
stream:times selected: 8119414
stream:pref_filled: 476630
stream:pref_useful: 120932
stream:pref_late: 2818
stream:misses: 78958
stream:misses_by_poll: 0

CS: 
CS:times selected: 156834
CS:pref_filled: 62081
CS:pref_useful: 49484
CS:pref_late: 7
CS:misses: 1561
CS:misses_by_poll: 17

CPLX: 
CPLX:times selected: 7896077
CPLX:pref_filled: 256374
CPLX:pref_useful: 45476
CPLX:pref_late: 56
CPLX:misses: 286328
CPLX:misses_by_poll: 952

NL_L1: 
NL:times selected: 72931
NL:pref_filled: 5765
NL:pref_useful: 1544
NL:pref_late: 70
NL:misses: 3426
NL:misses_by_poll: 0

total selections: 16245256
total_filled: 640783
total_useful: 172756
total_late: 3007
total_polluted: 969
total_misses_after_warmup: 459120
conflicts: 1728860
Degree Incremented Times: 372368
Degree Decremented Times: 1317737

L1 IP Table Write Accesses: 79896213
L1 IP Table Read Accesses: 78167353
L1 RST Write Accesses: 28525407
L1 RST Read Accesses: 57050814
L1 CSPT Write Accesses: 28525407
L1 CSPT Read Accesses: 55794480
L1 RR Filter Tag Write Accesses: 23042016
L1 RR Filter Tag Read Accesses: 979884322
L1 IP Table Tag Write Accesses: 87873558
L1 IP Table Tag Read Accesses: 87873558
L1 RST Tag Write Accesses: 0
L1 RST Tag Read Accesses: 282599820
L1 RR Filter Write Accesses: 0
L1 RR Filter Read Accesses: 35300649
test: 18444061
LLC TOTAL     ACCESS:     578342  HIT:     323645  MISS:     254697  HIT %:    55.9608  MISS %:    44.0392   MPKI: 0.974503
LLC LOAD      ACCESS:     166902  HIT:      69941  MISS:      96961  HIT %:    41.9054  MISS %:    58.0946   MPKI: 0.370985
LLC RFO       ACCESS:      17240  HIT:      11604  MISS:       5636  HIT %:    67.3086  MISS %:    32.6914   MPKI: 0.021564
LLC PREFETCH  ACCESS:     232100  HIT:     101406  MISS:     130694  HIT %:    43.6907  MISS %:    56.3093   MPKI: 0.500052
LLC WRITEBACK ACCESS:     145291  HIT:     128543  MISS:      16748  HIT %:    88.4728  MISS %:    11.5272   MPKI: 0.06408

RAW hits: 5894777
Loads Generated: 41379019
Loads sent to L1D: 35484241
Stores Generated: 18139092
Stores sent to L1D: 18139093

CPU 3 cumulative IPC: 0.717471 instructions: 236695829 cycles: 329902966
ITLB TOTAL     ACCESS:   44787502  HIT:   34244198  MISS:   10543304  HIT %:    76.4593  MISS %:    23.5407   MPKI: 44.5437
ITLB LOAD      ACCESS:          0  HIT:          0  MISS:          0  HIT %:       -nan  MISS %:       -nan   MPKI: 0
ITLB RFO       ACCESS:          0  HIT:          0  MISS:          0  HIT %:       -nan  MISS %:       -nan   MPKI: 0
ITLB PREFETCH  ACCESS:          0  HIT:          0  MISS:          0  HIT %:       -nan  MISS %:       -nan   MPKI: 0
ITLB WRITEBACK ACCESS:          0  HIT:          0  MISS:          0  HIT %:       -nan  MISS %:       -nan   MPKI: 0
DTLB TOTAL     ACCESS:   28109972  HIT:   15535306  MISS:   12574666  HIT %:    55.2662  MISS %:    44.7338   MPKI: 53.1258
DTLB LOAD      ACCESS:          0  HIT:          0  MISS:          0  HIT %:       -nan  MISS %:       -nan   MPKI: 0
DTLB RFO       ACCESS:          0  HIT:          0  MISS:          0  HIT %:       -nan  MISS %:       -nan   MPKI: 0
DTLB PREFETCH  ACCESS:          0  HIT:          0  MISS:          0  HIT %:       -nan  MISS %:       -nan   MPKI: 0
DTLB WRITEBACK ACCESS:          0  HIT:          0  MISS:          0  HIT %:       -nan  MISS %:       -nan   MPKI: 0
STLB TOTAL     ACCESS:   26756576  HIT:    7226376  MISS:   19530200  HIT %:    27.0079  MISS %:    72.9921   MPKI: 82.5118
STLB LOAD      ACCESS:          0  HIT:          0  MISS:          0  HIT %:       -nan  MISS %:       -nan   MPKI: 0
STLB RFO       ACCESS:          0  HIT:          0  MISS:          0  HIT %:       -nan  MISS %:       -nan   MPKI: 0
STLB PREFETCH  ACCESS:          0  HIT:          0  MISS:          0  HIT %:       -nan  MISS %:       -nan   MPKI: 0
STLB WRITEBACK ACCESS:          0  HIT:          0  MISS:          0  HIT %:       -nan  MISS %:       -nan   MPKI: 0
L1D TOTAL     ACCESS:   38636454  HIT:   37777016  MISS:     859438  HIT %:    97.7756  MISS %:    2.22442   MPKI: 3.63098
L1D LOAD      ACCESS:   20718921  HIT:   20378442  MISS:     340479  HIT %:    98.3567  MISS %:    1.64332   MPKI: 1.43847
L1D RFO       ACCESS:   13274076  HIT:   13270952  MISS:       3124  HIT %:    99.9765  MISS %:  0.0235346   MPKI: 0.0131984
L1D PREFETCH  ACCESS:    4643457  HIT:    4127622  MISS:     515835  HIT %:    88.8911  MISS %:    11.1089   MPKI: 2.17932
L1D WRITEBACK ACCESS:          0  HIT:          0  MISS:          0  HIT %:       -nan  MISS %:       -nan   MPKI: 0
L1I TOTAL     ACCESS:   54473264  HIT:   54473262  MISS:          2  HIT %:        100  MISS %: 3.67153e-06   MPKI: 8.44966e-06
L1I LOAD      ACCESS:   54473264  HIT:   54473262  MISS:          2  HIT %:        100  MISS %: 3.67153e-06   MPKI: 8.44966e-06
L1I RFO       ACCESS:          0  HIT:          0  MISS:          0  HIT %:       -nan  MISS %:       -nan   MPKI: 0
L1I PREFETCH  ACCESS:          0  HIT:          0  MISS:          0  HIT %:       -nan  MISS %:       -nan   MPKI: 0
L1I WRITEBACK ACCESS:          0  HIT:          0  MISS:          0  HIT %:       -nan  MISS %:       -nan   MPKI: 0
L2C TOTAL     ACCESS:   20691301  HIT:   20012358  MISS:     678943  HIT %:    96.7187  MISS %:     3.2813   MPKI: 2.86842
L2C LOAD      ACCESS:     338239  HIT:      74772  MISS:     263467  HIT %:    22.1063  MISS %:    77.8937   MPKI: 1.1131
L2C RFO       ACCESS:       2230  HIT:        336  MISS:       1894  HIT %:    15.0673  MISS %:    84.9327   MPKI: 0.00800183
L2C PREFETCH  ACCESS:     518971  HIT:     141201  MISS:     377770  HIT %:    27.2079  MISS %:    72.7921   MPKI: 1.59601
L2C WRITEBACK ACCESS:     256601  HIT:     236588  MISS:      20013  HIT %:    92.2007  MISS %:    7.79927   MPKI: 0.0845516
PSCL5 TOTAL     ACCESS:   19530202  HIT:   19530202  MISS:          0  HIT %:        100  MISS %:          0   MPKI: 0
PSCL5 LOAD      ACCESS:          0  HIT:          0  MISS:          0  HIT %:       -nan  MISS %:       -nan   MPKI: 0
PSCL5 RFO       ACCESS:          0  HIT:          0  MISS:          0  HIT %:       -nan  MISS %:       -nan   MPKI: 0
PSCL5 PREFETCH  ACCESS:          0  HIT:          0  MISS:          0  HIT %:       -nan  MISS %:       -nan   MPKI: 0
PSCL5 WRITEBACK ACCESS:          0  HIT:          0  MISS:          0  HIT %:       -nan  MISS %:       -nan   MPKI: 0
PSCL4 TOTAL     ACCESS:   19530202  HIT:   19530202  MISS:          0  HIT %:        100  MISS %:          0   MPKI: 0
PSCL4 LOAD      ACCESS:          0  HIT:          0  MISS:          0  HIT %:       -nan  MISS %:       -nan   MPKI: 0
PSCL4 RFO       ACCESS:          0  HIT:          0  MISS:          0  HIT %:       -nan  MISS %:       -nan   MPKI: 0
PSCL4 PREFETCH  ACCESS:          0  HIT:          0  MISS:          0  HIT %:       -nan  MISS %:       -nan   MPKI: 0
PSCL4 WRITEBACK ACCESS:          0  HIT:          0  MISS:          0  HIT %:       -nan  MISS %:       -nan   MPKI: 0
PSCL3 TOTAL     ACCESS:   19530002  HIT:   19529942  MISS:         60  HIT %:    99.9997  MISS %: 0.00030722   MPKI: 0.00025349
PSCL3 LOAD      ACCESS:          0  HIT:          0  MISS:          0  HIT %:       -nan  MISS %:       -nan   MPKI: 0
PSCL3 RFO       ACCESS:          0  HIT:          0  MISS:          0  HIT %:       -nan  MISS %:       -nan   MPKI: 0
PSCL3 PREFETCH  ACCESS:          0  HIT:          0  MISS:          0  HIT %:       -nan  MISS %:       -nan   MPKI: 0
PSCL3 WRITEBACK ACCESS:          0  HIT:          0  MISS:          0  HIT %:       -nan  MISS %:       -nan   MPKI: 0
PSCL2 TOTAL     ACCESS:   19530202  HIT:   19485202  MISS:      45000  HIT %:    99.7696  MISS %:   0.230412   MPKI: 0.190117
PSCL2 LOAD      ACCESS:          0  HIT:          0  MISS:          0  HIT %:       -nan  MISS %:       -nan   MPKI: 0
PSCL2 RFO       ACCESS:          0  HIT:          0  MISS:          0  HIT %:       -nan  MISS %:       -nan   MPKI: 0
PSCL2 PREFETCH  ACCESS:          0  HIT:          0  MISS:          0  HIT %:       -nan  MISS %:       -nan   MPKI: 0
PSCL2 WRITEBACK ACCESS:          0  HIT:          0  MISS:          0  HIT %:       -nan  MISS %:       -nan   MPKI: 0

stream: 
stream:times selected: 7612748
stream:pref_filled: 397827
stream:pref_useful: 92968
stream:pref_late: 1800
stream:misses: 76123
stream:misses_by_poll: 0

CS: 
CS:times selected: 193307
CS:pref_filled: 84675
CS:pref_useful: 82157
CS:pref_late: 454
CS:misses: 122
CS:misses_by_poll: 163

CPLX: 
CPLX:times selected: 7392991
CPLX:pref_filled: 164254
CPLX:pref_useful: 37000
CPLX:pref_late: 275
CPLX:misses: 162133
CPLX:misses_by_poll: 324

NL_L1: 
NL:times selected: 41649
NL:pref_filled: 3880
NL:pref_useful: 506
NL:pref_late: 0
NL:misses: 2045
NL:misses_by_poll: 1

total selections: 15240695
total_filled: 515835
total_useful: 165034
total_late: 2550
total_polluted: 488
total_misses_after_warmup: 373029
conflicts: 1728860
Degree Incremented Times: 372368
Degree Decremented Times: 1317737

L1 IP Table Write Accesses: 79896213
L1 IP Table Read Accesses: 78167353
L1 RST Write Accesses: 28525407
L1 RST Read Accesses: 57050814
L1 CSPT Write Accesses: 28525407
L1 CSPT Read Accesses: 55794480
L1 RR Filter Tag Write Accesses: 23042016
L1 RR Filter Tag Read Accesses: 979884322
L1 IP Table Tag Write Accesses: 87873558
L1 IP Table Tag Read Accesses: 87873558
L1 RST Tag Write Accesses: 0
L1 RST Tag Read Accesses: 282599820
L1 RR Filter Write Accesses: 0
L1 RR Filter Read Accesses: 35300649
test: 18444061
LLC TOTAL     ACCESS:     897757  HIT:     503675  MISS:     394082  HIT %:    56.1037  MISS %:    43.8963   MPKI: 1.66493
LLC LOAD      ACCESS:     263467  HIT:     113105  MISS:     150362  HIT %:    42.9295  MISS %:    57.0705   MPKI: 0.635254
LLC RFO       ACCESS:       1894  HIT:        431  MISS:       1463  HIT %:    22.7561  MISS %:    77.2439   MPKI: 0.00618093
LLC PREFETCH  ACCESS:     377770  HIT:     150462  MISS:     227308  HIT %:     39.829  MISS %:     60.171   MPKI: 0.960338
LLC WRITEBACK ACCESS:     238827  HIT:     225852  MISS:      12975  HIT %:    94.5672  MISS %:     5.4328   MPKI: 0.0548172

RAW hits: 8235235
Loads Generated: 40046837
Loads sent to L1D: 31811602
Stores Generated: 14454564
Stores sent to L1D: 14454562

Region of Interest Statistics

CPU 0 cumulative IPC: 0.606239 instructions: 200000000 cycles: 329902965
ITLB TOTAL     ACCESS:   40669825  HIT:   30823215  MISS:    9846610  HIT %:    75.7889  MISS %:    24.2111   MPKI: 49.233
ITLB LOAD TRANSLATION ACCESS:   40669825  HIT:   30823215  MISS:    9846610  HIT %:    75.7889  MISS %:    24.2111   MPKI: 49.233
ITLB PREFETCH  REQUESTED:          0  ISSUED:          0  USEFUL:          0  USELESS:          0
ITLB USEFUL LOAD PREFETCHES:          0 PREFETCH ISSUED TO LOWER LEVEL:          0  ACCURACY: -nan
ITLB TIMELY PREFETCHES:          0 LATE PREFETCHES: 0 DROPPED PREFETCHES: 0
ITLB PREFETCHES SAME FILL-ORIGIN LEVEL: 0 DIFFERENT FILL-ORIGIN LEVEL: 0
ITLB AVERAGE MISS LATENCY: 35.4274 cycles
ITLB RQ	ACCESS:   48733570	FORWARD:          0	MERGED:    4369847	TO_CACHE:   44363723

DTLB TOTAL     ACCESS:   28555363  HIT:   16757852  MISS:   11797511  HIT %:    58.6855  MISS %:    41.3145   MPKI: 58.9876
DTLB LOAD TRANSLATION ACCESS:   28555363  HIT:   16757852  MISS:   11797511  HIT %:    58.6855  MISS %:    41.3145   MPKI: 58.9876
DTLB PREFETCH  REQUESTED:          0  ISSUED:          0  USEFUL:          0  USELESS:          0
DTLB USEFUL LOAD PREFETCHES:          0 PREFETCH ISSUED TO LOWER LEVEL:          0  ACCURACY: -nan
DTLB TIMELY PREFETCHES:          0 LATE PREFETCHES: 0 DROPPED PREFETCHES: 0
DTLB PREFETCHES SAME FILL-ORIGIN LEVEL: 0 DIFFERENT FILL-ORIGIN LEVEL: 0
DTLB AVERAGE MISS LATENCY: 34.5795 cycles
DTLB RQ	ACCESS:   33523532	FORWARD:          0	MERGED:    3662895	TO_CACHE:   29860637

STLB TOTAL     ACCESS:   26473234  HIT:    7210972  MISS:   19262262  HIT %:    27.2387  MISS %:    72.7613   MPKI: 96.3113
STLB LOAD TRANSLATION ACCESS:   21644120  HIT:    4446709  MISS:   17197411  HIT %:    20.5447  MISS %:    79.4553   MPKI: 85.9871
STLB TRANSLATION FROM L1D PREFETCHER ACCESS:    4829114  HIT:    2764263  MISS:    2064851  HIT %:    57.2416  MISS %:    42.7584   MPKI: 10.3243
STLB PREFETCH  REQUESTED:          0  ISSUED:          0  USEFUL:     601409  USELESS:    1463441
STLB USEFUL LOAD PREFETCHES:     601409 PREFETCH ISSUED TO LOWER LEVEL:          0  ACCURACY: inf
STLB TIMELY PREFETCHES:     601409 LATE PREFETCHES: 0 DROPPED PREFETCHES: 0
STLB PREFETCHES SAME FILL-ORIGIN LEVEL: 0 DIFFERENT FILL-ORIGIN LEVEL: 0
STLB AVERAGE MISS LATENCY: 33.2172 cycles
STLB RQ	ACCESS:   27910702	FORWARD:          0	MERGED:    1361684	TO_CACHE:   26549018

STLB Hit, L1D data hit: 0
STLB Hit, L2C data hit: 0
STLB Hit, LLC data hit: 0
STLB Hit, LLC data miss: 0
STLB STLB hints to L2: 0
L1D TOTAL     ACCESS:   39385610  HIT:   36883895  MISS:    2501715  HIT %:    93.6481  MISS %:    6.35185   MPKI: 12.5086
L1D LOAD      ACCESS:   20363790  HIT:   19371379  MISS:     992411  HIT %:    95.1266  MISS %:    4.87341   MPKI: 4.96206
L1D RFO       ACCESS:   12787993  HIT:   12717356  MISS:      70637  HIT %:    99.4476  MISS %:    0.55237   MPKI: 0.353185
L1D PREFETCH  ACCESS:    6233827  HIT:    4795160  MISS:    1438667  HIT %:    76.9216  MISS %:    23.0784   MPKI: 7.19334
L1D PREFETCH  REQUESTED:   12536198  ISSUED:   12536185  USEFUL:     534458  USELESS:     904237
L1D USEFUL LOAD PREFETCHES:     534458 PREFETCH ISSUED TO LOWER LEVEL:    1448937  ACCURACY: 36.8862
L1D TIMELY PREFETCHES:     534458 LATE PREFETCHES: 7480 DROPPED PREFETCHES: 0
L1D PREFETCHES SAME FILL-ORIGIN LEVEL: 1448937 DIFFERENT FILL-ORIGIN LEVEL: 0
L1D AVERAGE MISS LATENCY: 56.8826 cycles
L1D RQ	ACCESS:   30118348	FORWARD:          0	MERGED:    9037980	TO_CACHE:   20429285
L1D WQ	ACCESS:   15098239	FORWARD:     654100	MERGED:    2003992	TO_CACHE:   13094247
L1D PQ	ACCESS:    6269604	FORWARD:          0	MERGED:          6	TO_CACHE:    6266581

L1D UNIQUE REGIONS ACCESSED: 0
L1D REGIONS CONFLICTS: 0
L1D Cross Page Prefetch Requests: 0
L1D Same Page Prefetch Requests: 8348194
L1D ROI Sum of L1D PQ occupancy: 190213581
L1D PREFETCHES PUSHED FROM L2C: 0
L1I TOTAL     ACCESS:   48728427  HIT:   48710835  MISS:      17592  HIT %:    99.9639  MISS %:  0.0361021   MPKI: 0.08796
L1I LOAD      ACCESS:   48728427  HIT:   48710835  MISS:      17592  HIT %:    99.9639  MISS %:  0.0361021   MPKI: 0.08796
L1I PREFETCH  REQUESTED:          0  ISSUED:          0  USEFUL:          0  USELESS:          0
L1I USEFUL LOAD PREFETCHES:          0 PREFETCH ISSUED TO LOWER LEVEL:          0  ACCURACY: -nan
L1I TIMELY PREFETCHES:          0 LATE PREFETCHES: 0 DROPPED PREFETCHES: 0
L1I PREFETCHES SAME FILL-ORIGIN LEVEL: 0 DIFFERENT FILL-ORIGIN LEVEL: 0
L1I AVERAGE MISS LATENCY: 93.2573 cycles
L1I RQ	ACCESS:   94921264	FORWARD:          0	MERGED:   46187694	TO_CACHE:   48733570

BTB BRANCH_DIRECT_JUMP	ACCESS:          0  HIT:          0  MISS:          0
BTB BRANCH_INDIRECT	ACCESS:          0  HIT:          0  MISS:          0
BTB BRANCH_CONDITIONAL	ACCESS:          0  HIT:          0  MISS:          0
BTB BRANCH_DIRECT_CALL	ACCESS:          0  HIT:          0  MISS:          0
BTB BRANCH_INDIRECT_CALL	ACCESS:          0  HIT:          0  MISS:          0
BTB BRANCH_RETURN	ACCESS:          0  HIT:          0  MISS:          0
BTB BRANCH_OTHER ACCESS:          0  HIT:          0  MISS:          0

L2C TOTAL     ACCESS:   22954988  HIT:   21473267  MISS:    1481721  HIT %:    93.5451  MISS %:     6.4549   MPKI: 7.4086
L2C LOAD      ACCESS:    1002516  HIT:     428458  MISS:     574058  HIT %:    42.7383  MISS %:    57.2617   MPKI: 2.87029
L2C DATA LOAD MPKI: 2.82893
L2C INSTRUCTION LOAD MPKI: 0.041355
L2C RFO       ACCESS:      67842  HIT:      17428  MISS:      50414  HIT %:    25.6891  MISS %:    74.3109   MPKI: 0.25207
L2C PREFETCH  ACCESS:    1448921  HIT:     637371  MISS:     811550  HIT %:    43.9894  MISS %:    56.0106   MPKI: 4.05775
L2C DATA PREFETCH MPKI: 4.05775
L2C INSTRUCTION PREFETCH MPKI: 0
L2C WRITEBACK ACCESS:     965241  HIT:     934735  MISS:      30506  HIT %:    96.8395  MISS %:    3.16045   MPKI: 0.15253
L2C LOAD TRANSLATION ACCESS:   17397030  HIT:   17381925  MISS:      15105  HIT %:    99.9132  MISS %:  0.0868252   MPKI: 0.075525
L2C TRANSLATION FROM L1D PREFETCHER ACCESS:    2073438  HIT:    2073350  MISS:         88  HIT %:    99.9958  MISS %: 0.00424416   MPKI: 0.00044
L2C PREFETCH  REQUESTED:          0  ISSUED:          0  USEFUL:     128969  USELESS:     682877
L2C USEFUL LOAD PREFETCHES:     128969 PREFETCH ISSUED TO LOWER LEVEL:     811550  ACCURACY: 15.8917
L2C TIMELY PREFETCHES:     128969 LATE PREFETCHES: 0 DROPPED PREFETCHES: 0
L2C PREFETCHES SAME FILL-ORIGIN LEVEL: 0 DIFFERENT FILL-ORIGIN LEVEL: 0
L2C AVERAGE MISS LATENCY: 76.3229 cycles
L2C RQ	ACCESS:   20540838	FORWARD:          0	MERGED:          0	TO_CACHE:   20540826
L2C WQ	ACCESS:     965241	FORWARD:         28	MERGED:          0	TO_CACHE:     965241
L2C PQ	ACCESS:    1448937	FORWARD:          0	MERGED:          0	TO_CACHE:    1448921

L2C Instructions Evicting Data 8093
L2C Translations Evicting Data 14873
L2C Data Evicting Data 1405257
L2C Instructions Evicting Instructions 105
L2C Translations Evicting Instructions 105
L2C Data Evicting Instructions 7894
L2C Instructions Evicting Translations 73
L2C Translations Evicting Translations 215
L2C Data Evicting Translations 14586
L2C Dense regions hint from L2: 0
PSCL5 TOTAL     ACCESS:   19262262  HIT:   19262262  MISS:          0  HIT %:        100  MISS %:          0   MPKI: 0
PSCL5 LOAD TRANSLATION ACCESS:   17197411  HIT:   17197411  MISS:          0  HIT %:        100  MISS %:          0   MPKI: 0
PSCL5 TRANSLATION FROM L1D PREFETCHER ACCESS:    2064851  HIT:    2064851  MISS:          0  HIT %:        100  MISS %:          0   MPKI: 0
PSCL5 PREFETCH  REQUESTED:          0  ISSUED:          0  USEFUL:          0  USELESS:          0
PSCL5 USEFUL LOAD PREFETCHES:          0 PREFETCH ISSUED TO LOWER LEVEL:          0  ACCURACY: -nan
PSCL5 TIMELY PREFETCHES:          0 LATE PREFETCHES: 0 DROPPED PREFETCHES: 0
PSCL5 PREFETCHES SAME FILL-ORIGIN LEVEL: 0 DIFFERENT FILL-ORIGIN LEVEL: 0

PSCL4 TOTAL     ACCESS:   19262262  HIT:   19262262  MISS:          0  HIT %:        100  MISS %:          0   MPKI: 0
PSCL4 LOAD TRANSLATION ACCESS:   17197411  HIT:   17197411  MISS:          0  HIT %:        100  MISS %:          0   MPKI: 0
PSCL4 TRANSLATION FROM L1D PREFETCHER ACCESS:    2064851  HIT:    2064851  MISS:          0  HIT %:        100  MISS %:          0   MPKI: 0
PSCL4 PREFETCH  REQUESTED:          0  ISSUED:          0  USEFUL:          0  USELESS:          0
PSCL4 USEFUL LOAD PREFETCHES:          0 PREFETCH ISSUED TO LOWER LEVEL:          0  ACCURACY: -nan
PSCL4 TIMELY PREFETCHES:          0 LATE PREFETCHES: 0 DROPPED PREFETCHES: 0
PSCL4 PREFETCHES SAME FILL-ORIGIN LEVEL: 0 DIFFERENT FILL-ORIGIN LEVEL: 0

PSCL3 TOTAL     ACCESS:   19262155  HIT:   19262105  MISS:         50  HIT %:    99.9997  MISS %: 0.000259576   MPKI: 0.00025
PSCL3 LOAD TRANSLATION ACCESS:   17197350  HIT:   17197300  MISS:         50  HIT %:    99.9997  MISS %: 0.000290742   MPKI: 0.00025
PSCL3 TRANSLATION FROM L1D PREFETCHER ACCESS:    2064805  HIT:    2064805  MISS:          0  HIT %:        100  MISS %:          0   MPKI: 0
PSCL3 PREFETCH  REQUESTED:          0  ISSUED:          0  USEFUL:          0  USELESS:          0
PSCL3 USEFUL LOAD PREFETCHES:          0 PREFETCH ISSUED TO LOWER LEVEL:          0  ACCURACY: -nan
PSCL3 TIMELY PREFETCHES:          0 LATE PREFETCHES: 0 DROPPED PREFETCHES: 0
PSCL3 PREFETCHES SAME FILL-ORIGIN LEVEL: 0 DIFFERENT FILL-ORIGIN LEVEL: 0

PSCL2 TOTAL     ACCESS:   19262262  HIT:   19054092  MISS:     208170  HIT %:    98.9193  MISS %:    1.08071   MPKI: 1.04085
PSCL2 LOAD TRANSLATION ACCESS:   17205997  HIT:   16997827  MISS:     208170  HIT %:    98.7901  MISS %:    1.20987   MPKI: 1.04085
PSCL2 TRANSLATION FROM L1D PREFETCHER ACCESS:    2056265  HIT:    2056265  MISS:          0  HIT %:        100  MISS %:          0   MPKI: 0
PSCL2 PREFETCH  REQUESTED:          0  ISSUED:          0  USEFUL:          0  USELESS:          0
PSCL2 USEFUL LOAD PREFETCHES:          0 PREFETCH ISSUED TO LOWER LEVEL:          0  ACCURACY: -nan
PSCL2 TIMELY PREFETCHES:          0 LATE PREFETCHES: 0 DROPPED PREFETCHES: 0
PSCL2 PREFETCHES SAME FILL-ORIGIN LEVEL: 0 DIFFERENT FILL-ORIGIN LEVEL: 0

LLC TOTAL     ACCESS:    2111485  HIT:    1715554  MISS:     395931  HIT %:    81.2487  MISS %:    18.7513   MPKI: 1.97965
LLC LOAD      ACCESS:     574056  HIT:     434421  MISS:     139635  HIT %:    75.6757  MISS %:    24.3243   MPKI: 0.698175
LLC RFO       ACCESS:      50414  HIT:      27029  MISS:      23385  HIT %:    53.6141  MISS %:    46.3859   MPKI: 0.116925
LLC PREFETCH  ACCESS:     811550  HIT:     583405  MISS:     228145  HIT %:    71.8877  MISS %:    28.1123   MPKI: 1.14072
LLC WRITEBACK ACCESS:     660272  HIT:     657971  MISS:       2301  HIT %:    99.6515  MISS %:   0.348493   MPKI: 0.011505
LLC LOAD TRANSLATION ACCESS:      15105  HIT:      12661  MISS:       2444  HIT %:    83.8199  MISS %:    16.1801   MPKI: 0.01222
LLC TRANSLATION FROM L1D PREFETCHER ACCESS:         88  HIT:         67  MISS:         21  HIT %:    76.1364  MISS %:    23.8636   MPKI: 0.000105
LLC PREFETCH  REQUESTED:          0  ISSUED:          0  USEFUL:      80600  USELESS:     749876
LLC USEFUL LOAD PREFETCHES:      80600 PREFETCH ISSUED TO LOWER LEVEL:     825581  ACCURACY: 9.76282
LLC TIMELY PREFETCHES:      80600 LATE PREFETCHES: 0 DROPPED PREFETCHES: 0
LLC PREFETCHES SAME FILL-ORIGIN LEVEL: 0 DIFFERENT FILL-ORIGIN LEVEL: 0
LLC AVERAGE MISS LATENCY: 630.097 cycles
LLC RQ	ACCESS:    1698713	FORWARD:          0	MERGED:          0	TO_CACHE:    1698709
LLC WQ	ACCESS:    1686026	FORWARD:          6	MERGED:          0	TO_CACHE:    1686026
LLC PQ	ACCESS:    2203872	FORWARD:          0	MERGED:          0	TO_CACHE:    2203870

LLC Dense regions hint to LLC: 0

RAW hits: 7119082
Loads Generated: 37237430
Loads sent to L1D: 30118348
Stores Generated: 15098238
Stores sent to L1D: 15098239
Major fault: 0 Minor fault: 2018
Allocated PAGES: 9090

CPU 1 cumulative IPC: 0.606246 instructions: 200000002 cycles: 329899095
ITLB TOTAL     ACCESS:   40879124  HIT:   31038276  MISS:    9840848  HIT %:     75.927  MISS %:     24.073   MPKI: 49.2042
ITLB LOAD TRANSLATION ACCESS:   40879124  HIT:   31038276  MISS:    9840848  HIT %:     75.927  MISS %:     24.073   MPKI: 49.2042
ITLB PREFETCH  REQUESTED:          0  ISSUED:          0  USEFUL:          0  USELESS:          0
ITLB USEFUL LOAD PREFETCHES:          0 PREFETCH ISSUED TO LOWER LEVEL:          0  ACCURACY: -nan
ITLB TIMELY PREFETCHES:          0 LATE PREFETCHES: 0 DROPPED PREFETCHES: 0
ITLB PREFETCHES SAME FILL-ORIGIN LEVEL: 0 DIFFERENT FILL-ORIGIN LEVEL: 0
ITLB AVERAGE MISS LATENCY: 35.1957 cycles
ITLB RQ	ACCESS:   48916149	FORWARD:          0	MERGED:    4331323	TO_CACHE:   44584826

DTLB TOTAL     ACCESS:   28869162  HIT:   17335803  MISS:   11533359  HIT %:    60.0496  MISS %:    39.9504   MPKI: 57.6668
DTLB LOAD TRANSLATION ACCESS:   28869162  HIT:   17335803  MISS:   11533359  HIT %:    60.0496  MISS %:    39.9504   MPKI: 57.6668
DTLB PREFETCH  REQUESTED:          0  ISSUED:          0  USEFUL:          0  USELESS:          0
DTLB USEFUL LOAD PREFETCHES:          0 PREFETCH ISSUED TO LOWER LEVEL:          0  ACCURACY: -nan
DTLB TIMELY PREFETCHES:          0 LATE PREFETCHES: 0 DROPPED PREFETCHES: 0
DTLB PREFETCHES SAME FILL-ORIGIN LEVEL: 0 DIFFERENT FILL-ORIGIN LEVEL: 0
DTLB AVERAGE MISS LATENCY: 34.1103 cycles
DTLB RQ	ACCESS:   33680670	FORWARD:          0	MERGED:    3587733	TO_CACHE:   30092937

STLB TOTAL     ACCESS:   26188358  HIT:    7056922  MISS:   19131436  HIT %:    26.9468  MISS %:    73.0532   MPKI: 95.6572
STLB LOAD TRANSLATION ACCESS:   21374206  HIT:    4381438  MISS:   16992768  HIT %:    20.4987  MISS %:    79.5013   MPKI: 84.9638
STLB TRANSLATION FROM L1D PREFETCHER ACCESS:    4814152  HIT:    2675484  MISS:    2138668  HIT %:    55.5754  MISS %:    44.4246   MPKI: 10.6933
STLB PREFETCH  REQUESTED:          0  ISSUED:          0  USEFUL:     710489  USELESS:    1428200
STLB USEFUL LOAD PREFETCHES:     710489 PREFETCH ISSUED TO LOWER LEVEL:          0  ACCURACY: inf
STLB TIMELY PREFETCHES:     710489 LATE PREFETCHES: 0 DROPPED PREFETCHES: 0
STLB PREFETCHES SAME FILL-ORIGIN LEVEL: 0 DIFFERENT FILL-ORIGIN LEVEL: 0
STLB AVERAGE MISS LATENCY: 32.7099 cycles
STLB RQ	ACCESS:   27640603	FORWARD:          0	MERGED:    1415585	TO_CACHE:   26225018

STLB Hit, L1D data hit: 0
STLB Hit, L2C data hit: 0
STLB Hit, LLC data hit: 0
STLB Hit, LLC data miss: 0
STLB STLB hints to L2: 0
L1D TOTAL     ACCESS:   39557318  HIT:   37163162  MISS:    2394156  HIT %:    93.9476  MISS %:    6.05237   MPKI: 11.9708
L1D LOAD      ACCESS:   20397744  HIT:   19478392  MISS:     919352  HIT %:    95.4929  MISS %:    4.50713   MPKI: 4.59676
L1D RFO       ACCESS:   12919208  HIT:   12850552  MISS:      68656  HIT %:    99.4686  MISS %:   0.531426   MPKI: 0.34328
L1D PREFETCH  ACCESS:    6240366  HIT:    4834218  MISS:    1406148  HIT %:    77.4669  MISS %:    22.5331   MPKI: 7.03074
L1D PREFETCH  REQUESTED:   12536900  ISSUED:   12536896  USEFUL:     594566  USELESS:     811618
L1D USEFUL LOAD PREFETCHES:     594566 PREFETCH ISSUED TO LOWER LEVEL:    1416068  ACCURACY: 41.9871
L1D TIMELY PREFETCHES:     594566 LATE PREFETCHES: 7498 DROPPED PREFETCHES: 0
L1D PREFETCHES SAME FILL-ORIGIN LEVEL: 1416068 DIFFERENT FILL-ORIGIN LEVEL: 0
L1D AVERAGE MISS LATENCY: 57.4573 cycles
L1D RQ	ACCESS:   30198210	FORWARD:          0	MERGED:    9087878	TO_CACHE:   20450763
L1D WQ	ACCESS:   15036507	FORWARD:     664189	MERGED:    1806600	TO_CACHE:   13229907
L1D PQ	ACCESS:    6270758	FORWARD:          0	MERGED:          0	TO_CACHE:    6266138

L1D UNIQUE REGIONS ACCESSED: 0
L1D REGIONS CONFLICTS: 0
L1D Cross Page Prefetch Requests: 0
L1D Same Page Prefetch Requests: 8112348
L1D ROI Sum of L1D PQ occupancy: 195661387
L1D PREFETCHES PUSHED FROM L2C: 0
L1I TOTAL     ACCESS:   48911369  HIT:   48897031  MISS:      14338  HIT %:    99.9707  MISS %:  0.0293142   MPKI: 0.07169
L1I LOAD      ACCESS:   48911369  HIT:   48897031  MISS:      14338  HIT %:    99.9707  MISS %:  0.0293142   MPKI: 0.07169
L1I PREFETCH  REQUESTED:          0  ISSUED:          0  USEFUL:          0  USELESS:          0
L1I USEFUL LOAD PREFETCHES:          0 PREFETCH ISSUED TO LOWER LEVEL:          0  ACCURACY: -nan
L1I TIMELY PREFETCHES:          0 LATE PREFETCHES: 0 DROPPED PREFETCHES: 0
L1I PREFETCHES SAME FILL-ORIGIN LEVEL: 0 DIFFERENT FILL-ORIGIN LEVEL: 0
L1I AVERAGE MISS LATENCY: 95.483 cycles
L1I RQ	ACCESS:   95193181	FORWARD:          0	MERGED:   46277032	TO_CACHE:   48916149

BTB BRANCH_DIRECT_JUMP	ACCESS:          0  HIT:          0  MISS:          0
BTB BRANCH_INDIRECT	ACCESS:          0  HIT:          0  MISS:          0
BTB BRANCH_CONDITIONAL	ACCESS:          0  HIT:          0  MISS:          0
BTB BRANCH_DIRECT_CALL	ACCESS:          0  HIT:          0  MISS:          0
BTB BRANCH_INDIRECT_CALL	ACCESS:          0  HIT:          0  MISS:          0
BTB BRANCH_RETURN	ACCESS:          0  HIT:          0  MISS:          0
BTB BRANCH_OTHER ACCESS:          0  HIT:          0  MISS:          0

L2C TOTAL     ACCESS:   22575760  HIT:   21187042  MISS:    1388718  HIT %:    93.8486  MISS %:    6.15137   MPKI: 6.94359
L2C LOAD      ACCESS:     926185  HIT:     414986  MISS:     511199  HIT %:     44.806  MISS %:     55.194   MPKI: 2.55599
L2C DATA LOAD MPKI: 2.52379
L2C INSTRUCTION LOAD MPKI: 0.032205
L2C RFO       ACCESS:      66235  HIT:      15159  MISS:      51076  HIT %:    22.8867  MISS %:    77.1133   MPKI: 0.25538
L2C PREFETCH  ACCESS:    1416029  HIT:     633580  MISS:     782449  HIT %:    44.7434  MISS %:    55.2566   MPKI: 3.91224
L2C DATA PREFETCH MPKI: 3.91224
L2C INSTRUCTION PREFETCH MPKI: 0
L2C WRITEBACK ACCESS:     946050  HIT:     916712  MISS:      29338  HIT %:    96.8989  MISS %:     3.1011   MPKI: 0.14669
L2C LOAD TRANSLATION ACCESS:   17078753  HIT:   17064211  MISS:      14542  HIT %:    99.9149  MISS %:  0.0851467   MPKI: 0.07271
L2C TRANSLATION FROM L1D PREFETCHER ACCESS:    2142508  HIT:    2142394  MISS:        114  HIT %:    99.9947  MISS %: 0.00532087   MPKI: 0.00057
L2C PREFETCH  REQUESTED:          0  ISSUED:          0  USEFUL:     111410  USELESS:     671162
L2C USEFUL LOAD PREFETCHES:     111410 PREFETCH ISSUED TO LOWER LEVEL:     782452  ACCURACY: 14.2386
L2C TIMELY PREFETCHES:     111410 LATE PREFETCHES: 0 DROPPED PREFETCHES: 0
L2C PREFETCHES SAME FILL-ORIGIN LEVEL: 0 DIFFERENT FILL-ORIGIN LEVEL: 0
L2C AVERAGE MISS LATENCY: 78.7278 cycles
L2C RQ	ACCESS:   20213932	FORWARD:          0	MERGED:          0	TO_CACHE:   20213916
L2C WQ	ACCESS:     946058	FORWARD:         45	MERGED:          0	TO_CACHE:     946058
L2C PQ	ACCESS:    1416068	FORWARD:          0	MERGED:          0	TO_CACHE:    1416039

L2C Instructions Evicting Data 6271
L2C Translations Evicting Data 14439
L2C Data Evicting Data 1318036
L2C Instructions Evicting Instructions 99
L2C Translations Evicting Instructions 69
L2C Data Evicting Instructions 6134
L2C Instructions Evicting Translations 71
L2C Translations Evicting Translations 148
L2C Data Evicting Translations 14106
L2C Dense regions hint from L2: 0
PSCL5 TOTAL     ACCESS:   19131437  HIT:   19131437  MISS:          0  HIT %:        100  MISS %:          0   MPKI: 0
PSCL5 LOAD TRANSLATION ACCESS:   16992769  HIT:   16992769  MISS:          0  HIT %:        100  MISS %:          0   MPKI: 0
PSCL5 TRANSLATION FROM L1D PREFETCHER ACCESS:    2138668  HIT:    2138668  MISS:          0  HIT %:        100  MISS %:          0   MPKI: 0
PSCL5 PREFETCH  REQUESTED:          0  ISSUED:          0  USEFUL:          0  USELESS:          0
PSCL5 USEFUL LOAD PREFETCHES:          0 PREFETCH ISSUED TO LOWER LEVEL:          0  ACCURACY: -nan
PSCL5 TIMELY PREFETCHES:          0 LATE PREFETCHES: 0 DROPPED PREFETCHES: 0
PSCL5 PREFETCHES SAME FILL-ORIGIN LEVEL: 0 DIFFERENT FILL-ORIGIN LEVEL: 0

PSCL4 TOTAL     ACCESS:   19131437  HIT:   19131437  MISS:          0  HIT %:        100  MISS %:          0   MPKI: 0
PSCL4 LOAD TRANSLATION ACCESS:   16992769  HIT:   16992769  MISS:          0  HIT %:        100  MISS %:          0   MPKI: 0
PSCL4 TRANSLATION FROM L1D PREFETCHER ACCESS:    2138668  HIT:    2138668  MISS:          0  HIT %:        100  MISS %:          0   MPKI: 0
PSCL4 PREFETCH  REQUESTED:          0  ISSUED:          0  USEFUL:          0  USELESS:          0
PSCL4 USEFUL LOAD PREFETCHES:          0 PREFETCH ISSUED TO LOWER LEVEL:          0  ACCURACY: -nan
PSCL4 TIMELY PREFETCHES:          0 LATE PREFETCHES: 0 DROPPED PREFETCHES: 0
PSCL4 PREFETCHES SAME FILL-ORIGIN LEVEL: 0 DIFFERENT FILL-ORIGIN LEVEL: 0

PSCL3 TOTAL     ACCESS:   19131074  HIT:   19131004  MISS:         70  HIT %:    99.9996  MISS %: 0.000365897   MPKI: 0.00035
PSCL3 LOAD TRANSLATION ACCESS:   16992552  HIT:   16992482  MISS:         70  HIT %:    99.9996  MISS %: 0.000411945   MPKI: 0.00035
PSCL3 TRANSLATION FROM L1D PREFETCHER ACCESS:    2138522  HIT:    2138522  MISS:          0  HIT %:        100  MISS %:          0   MPKI: 0
PSCL3 PREFETCH  REQUESTED:          0  ISSUED:          0  USEFUL:          0  USELESS:          0
PSCL3 USEFUL LOAD PREFETCHES:          0 PREFETCH ISSUED TO LOWER LEVEL:          0  ACCURACY: -nan
PSCL3 TIMELY PREFETCHES:          0 LATE PREFETCHES: 0 DROPPED PREFETCHES: 0
PSCL3 PREFETCHES SAME FILL-ORIGIN LEVEL: 0 DIFFERENT FILL-ORIGIN LEVEL: 0

PSCL2 TOTAL     ACCESS:   19131437  HIT:   19041667  MISS:      89770  HIT %:    99.5308  MISS %:   0.469228   MPKI: 0.44885
PSCL2 LOAD TRANSLATION ACCESS:   16996605  HIT:   16906835  MISS:      89770  HIT %:    99.4718  MISS %:   0.528164   MPKI: 0.44885
PSCL2 TRANSLATION FROM L1D PREFETCHER ACCESS:    2134832  HIT:    2134832  MISS:          0  HIT %:        100  MISS %:          0   MPKI: 0
PSCL2 PREFETCH  REQUESTED:          0  ISSUED:          0  USEFUL:          0  USELESS:          0
PSCL2 USEFUL LOAD PREFETCHES:          0 PREFETCH ISSUED TO LOWER LEVEL:          0  ACCURACY: -nan
PSCL2 TIMELY PREFETCHES:          0 LATE PREFETCHES: 0 DROPPED PREFETCHES: 0
PSCL2 PREFETCHES SAME FILL-ORIGIN LEVEL: 0 DIFFERENT FILL-ORIGIN LEVEL: 0

LLC TOTAL     ACCESS:    2001008  HIT:    1607847  MISS:     393161  HIT %:    80.3519  MISS %:    19.6481   MPKI: 1.9658
LLC LOAD      ACCESS:     511198  HIT:     385505  MISS:     125693  HIT %:    75.4121  MISS %:    24.5879   MPKI: 0.628465
LLC RFO       ACCESS:      51076  HIT:      27661  MISS:      23415  HIT %:    54.1566  MISS %:    45.8434   MPKI: 0.117075
LLC PREFETCH  ACCESS:     782447  HIT:     543015  MISS:     239432  HIT %:    69.3996  MISS %:    30.6004   MPKI: 1.19716
LLC WRITEBACK ACCESS:     641631  HIT:     638827  MISS:       2804  HIT %:     99.563  MISS %:   0.437011   MPKI: 0.01402
LLC LOAD TRANSLATION ACCESS:      14542  HIT:      12742  MISS:       1800  HIT %:    87.6221  MISS %:    12.3779   MPKI: 0.009
LLC TRANSLATION FROM L1D PREFETCHER ACCESS:        114  HIT:         97  MISS:         17  HIT %:    85.0877  MISS %:    14.9123   MPKI: 8.5e-05
LLC PREFETCH  REQUESTED:          0  ISSUED:          0  USEFUL:      80600  USELESS:     749876
LLC USEFUL LOAD PREFETCHES:      80600 PREFETCH ISSUED TO LOWER LEVEL:     825581  ACCURACY: 9.76282
LLC TIMELY PREFETCHES:      80600 LATE PREFETCHES: 0 DROPPED PREFETCHES: 0
LLC PREFETCHES SAME FILL-ORIGIN LEVEL: 0 DIFFERENT FILL-ORIGIN LEVEL: 0
LLC AVERAGE MISS LATENCY: 634.537 cycles
LLC RQ	ACCESS:    1698713	FORWARD:          0	MERGED:          0	TO_CACHE:    1698709
LLC WQ	ACCESS:    1686026	FORWARD:          6	MERGED:          0	TO_CACHE:    1686026
LLC PQ	ACCESS:    2203872	FORWARD:          0	MERGED:          0	TO_CACHE:    2203870

LLC Dense regions hint to LLC: 0

RAW hits: 7232284
Loads Generated: 37430129
Loads sent to L1D: 30197845
Stores Generated: 15036325
Stores sent to L1D: 15036325
Major fault: 0 Minor fault: 1768
Allocated PAGES: 9090

CPU 2 cumulative IPC: 0.791631 instructions: 200000000 cycles: 252643046
ITLB TOTAL     ACCESS:   35035991  HIT:   27028320  MISS:    8007671  HIT %:    77.1444  MISS %:    22.8556   MPKI: 40.0384
ITLB LOAD TRANSLATION ACCESS:   35035991  HIT:   27028320  MISS:    8007671  HIT %:    77.1444  MISS %:    22.8556   MPKI: 40.0384
ITLB PREFETCH  REQUESTED:          0  ISSUED:          0  USEFUL:          0  USELESS:          0
ITLB USEFUL LOAD PREFETCHES:          0 PREFETCH ISSUED TO LOWER LEVEL:          0  ACCURACY: -nan
ITLB TIMELY PREFETCHES:          0 LATE PREFETCHES: 0 DROPPED PREFETCHES: 0
ITLB PREFETCHES SAME FILL-ORIGIN LEVEL: 0 DIFFERENT FILL-ORIGIN LEVEL: 0
ITLB AVERAGE MISS LATENCY: 44.2447 cycles
ITLB RQ	ACCESS:   57029964	FORWARD:          0	MERGED:    7294650	TO_CACHE:   49735314

DTLB TOTAL     ACCESS:   23828544  HIT:   15733638  MISS:    8094906  HIT %:    66.0285  MISS %:    33.9715   MPKI: 40.4745
DTLB LOAD TRANSLATION ACCESS:   23828544  HIT:   15733638  MISS:    8094906  HIT %:    66.0285  MISS %:    33.9715   MPKI: 40.4745
DTLB PREFETCH  REQUESTED:          0  ISSUED:          0  USEFUL:          0  USELESS:          0
DTLB USEFUL LOAD PREFETCHES:          0 PREFETCH ISSUED TO LOWER LEVEL:          0  ACCURACY: -nan
DTLB TIMELY PREFETCHES:          0 LATE PREFETCHES: 0 DROPPED PREFETCHES: 0
DTLB PREFETCHES SAME FILL-ORIGIN LEVEL: 0 DIFFERENT FILL-ORIGIN LEVEL: 0
DTLB AVERAGE MISS LATENCY: 38.7582 cycles
DTLB RQ	ACCESS:   40231824	FORWARD:          0	MERGED:    7603001	TO_CACHE:   32628823

STLB TOTAL     ACCESS:   18940638  HIT:    5989533  MISS:   12951105  HIT %:    31.6227  MISS %:    68.3773   MPKI: 64.7555
STLB LOAD TRANSLATION ACCESS:   16102577  HIT:    3621838  MISS:   12480739  HIT %:    22.4923  MISS %:    77.5077   MPKI: 62.4037
STLB TRANSLATION FROM L1D PREFETCHER ACCESS:    2838061  HIT:    2367695  MISS:     470366  HIT %:    83.4265  MISS %:    16.5735   MPKI: 2.35183
STLB PREFETCH  REQUESTED:          0  ISSUED:          0  USEFUL:     262356  USELESS:     351676
STLB USEFUL LOAD PREFETCHES:     262356 PREFETCH ISSUED TO LOWER LEVEL:          0  ACCURACY: inf
STLB TIMELY PREFETCHES:     262356 LATE PREFETCHES: 0 DROPPED PREFETCHES: 0
STLB PREFETCHES SAME FILL-ORIGIN LEVEL: 0 DIFFERENT FILL-ORIGIN LEVEL: 0
STLB AVERAGE MISS LATENCY: 38.6989 cycles
STLB RQ	ACCESS:   25976594	FORWARD:          0	MERGED:    1186062	TO_CACHE:   24790532

STLB Hit, L1D data hit: 0
STLB Hit, L2C data hit: 0
STLB Hit, LLC data hit: 0
STLB Hit, LLC data miss: 0
STLB STLB hints to L2: 0
L1D TOTAL     ACCESS:   34391149  HIT:   33498831  MISS:     892318  HIT %:    97.4054  MISS %:    2.59462   MPKI: 4.46159
L1D LOAD      ACCESS:   17372112  HIT:   17051891  MISS:     320221  HIT %:    98.1567  MISS %:     1.8433   MPKI: 1.60111
L1D RFO       ACCESS:   13269043  HIT:   13187519  MISS:      81524  HIT %:    99.3856  MISS %:   0.614392   MPKI: 0.40762
L1D PREFETCH  ACCESS:    3749994  HIT:    3259421  MISS:     490573  HIT %:     86.918  MISS %:     13.082   MPKI: 2.45287
L1D PREFETCH  REQUESTED:    9852062  ISSUED:    9852027  USEFUL:     172756  USELESS:     468023
L1D USEFUL LOAD PREFETCHES:     172756 PREFETCH ISSUED TO LOWER LEVEL:     646247  ACCURACY: 26.7322
L1D TIMELY PREFETCHES:     172756 LATE PREFETCHES: 2861 DROPPED PREFETCHES: 0
L1D PREFETCHES SAME FILL-ORIGIN LEVEL: 646247 DIFFERENT FILL-ORIGIN LEVEL: 0
L1D AVERAGE MISS LATENCY: 76.5164 cycles
L1D RQ	ACCESS:   35484241	FORWARD:          0	MERGED:   12567616	TO_CACHE:   22734208
L1D WQ	ACCESS:   18139093	FORWARD:     185142	MERGED:     641477	TO_CACHE:   17497616
L1D PQ	ACCESS:    4927376	FORWARD:          0	MERGED:          0	TO_CACHE:    4924651

L1D UNIQUE REGIONS ACCESSED: 0
L1D REGIONS CONFLICTS: 0
L1D Cross Page Prefetch Requests: 0
L1D Same Page Prefetch Requests: 6300694
L1D ROI Sum of L1D PQ occupancy: 85630345
L1D PREFETCHES PUSHED FROM L2C: 0
L1I TOTAL     ACCESS:   43628484  HIT:   43614410  MISS:      14074  HIT %:    99.9677  MISS %:  0.0322587   MPKI: 0.07037
L1I LOAD      ACCESS:   43628484  HIT:   43614410  MISS:      14074  HIT %:    99.9677  MISS %:  0.0322587   MPKI: 0.07037
L1I PREFETCH  REQUESTED:          0  ISSUED:          0  USEFUL:          0  USELESS:          0
L1I USEFUL LOAD PREFETCHES:          0 PREFETCH ISSUED TO LOWER LEVEL:          0  ACCURACY: -nan
L1I TIMELY PREFETCHES:          0 LATE PREFETCHES: 0 DROPPED PREFETCHES: 0
L1I PREFETCHES SAME FILL-ORIGIN LEVEL: 0 DIFFERENT FILL-ORIGIN LEVEL: 0
L1I AVERAGE MISS LATENCY: 83.5716 cycles
L1I RQ	ACCESS:  108354496	FORWARD:          0	MERGED:   51324532	TO_CACHE:   57029964

BTB BRANCH_DIRECT_JUMP	ACCESS:          0  HIT:          0  MISS:          0
BTB BRANCH_INDIRECT	ACCESS:          0  HIT:          0  MISS:          0
BTB BRANCH_CONDITIONAL	ACCESS:          0  HIT:          0  MISS:          0
[...]
LLC AVERAGE MISS LATENCY: 1268.24 cycles
LLC RQ	ACCESS:    1698713	FORWARD:          0	MERGED:          0	TO_CACHE:    1698709
LLC WQ	ACCESS:    1686026	FORWARD:          6	MERGED:          0	TO_CACHE:    1686026
LLC PQ	ACCESS:    2203872	FORWARD:          0	MERGED:          0	TO_CACHE:    2203870

LLC Dense regions hint to LLC: 0

RAW hits: 4509596
Loads Generated: 31670595
Loads sent to L1D: 27160998
Stores Generated: 13891903
Stores sent to L1D: 13891904
Major fault: 0 Minor fault: 3504
Allocated PAGES: 9090

CPU 3 cumulative IPC: 0.716103 instructions: 200000003 cycles: 279289418
ITLB TOTAL     ACCESS:   37839313  HIT:   28920105  MISS:    8919208  HIT %:    76.4287  MISS %:    23.5713   MPKI: 44.596
ITLB LOAD TRANSLATION ACCESS:   37839313  HIT:   28920105  MISS:    8919208  HIT %:    76.4287  MISS %:    23.5713   MPKI: 44.596
ITLB PREFETCH  REQUESTED:          0  ISSUED:          0  USEFUL:          0  USELESS:          0
ITLB USEFUL LOAD PREFETCHES:          0 PREFETCH ISSUED TO LOWER LEVEL:          0  ACCURACY: -nan
ITLB TIMELY PREFETCHES:          0 LATE PREFETCHES: 0 DROPPED PREFETCHES: 0
ITLB PREFETCHES SAME FILL-ORIGIN LEVEL: 0 DIFFERENT FILL-ORIGIN LEVEL: 0
ITLB AVERAGE MISS LATENCY: 40.9288 cycles
ITLB RQ	ACCESS:   54473268	FORWARD:          0	MERGED:    6697576	TO_CACHE:   47775692

DTLB TOTAL     ACCESS:   23766439  HIT:   13117564  MISS:   10648875  HIT %:    55.1936  MISS %:    44.8064   MPKI: 53.2444
DTLB LOAD TRANSLATION ACCESS:   23766439  HIT:   13117564  MISS:   10648875  HIT %:    55.1936  MISS %:    44.8064   MPKI: 53.2444
DTLB PREFETCH  REQUESTED:          0  ISSUED:          0  USEFUL:          0  USELESS:          0
DTLB USEFUL LOAD PREFETCHES:          0 PREFETCH ISSUED TO LOWER LEVEL:          0  ACCURACY: -nan
DTLB TIMELY PREFETCHES:          0 LATE PREFETCHES: 0 DROPPED PREFETCHES: 0
DTLB PREFETCHES SAME FILL-ORIGIN LEVEL: 0 DIFFERENT FILL-ORIGIN LEVEL: 0
DTLB AVERAGE MISS LATENCY: 38.9099 cycles
DTLB RQ	ACCESS:   34022042	FORWARD:          0	MERGED:    4240376	TO_CACHE:   29781666

STLB TOTAL     ACCESS:   22636810  HIT:    6081466  MISS:   16555344  HIT %:    26.8654  MISS %:    73.1346   MPKI: 82.7767
STLB LOAD TRANSLATION ACCESS:   19568082  HIT:    4226852  MISS:   15341230  HIT %:    21.6007  MISS %:    78.3993   MPKI: 76.7061
STLB TRANSLATION FROM L1D PREFETCHER ACCESS:    3068728  HIT:    1854614  MISS:    1214114  HIT %:    60.4359  MISS %:    39.5641   MPKI: 6.07057
STLB PREFETCH  REQUESTED:          0  ISSUED:          0  USEFUL:     742673  USELESS:     691403
STLB USEFUL LOAD PREFETCHES:     742673 PREFETCH ISSUED TO LOWER LEVEL:          0  ACCURACY: inf
STLB TIMELY PREFETCHES:     742673 LATE PREFETCHES: 0 DROPPED PREFETCHES: 0
STLB PREFETCHES SAME FILL-ORIGIN LEVEL: 0 DIFFERENT FILL-ORIGIN LEVEL: 0
STLB AVERAGE MISS LATENCY: 37.3775 cycles
STLB RQ	ACCESS:   27766718	FORWARD:          0	MERGED:     958840	TO_CACHE:   26807878

STLB Hit, L1D data hit: 0
STLB Hit, L2C data hit: 0
STLB Hit, LLC data hit: 0
STLB Hit, LLC data miss: 0
STLB STLB hints to L2: 0
L1D TOTAL     ACCESS:   32629447  HIT:   31905226  MISS:     724221  HIT %:    97.7805  MISS %:    2.21953   MPKI: 3.6211
L1D LOAD      ACCESS:   17489761  HIT:   17203739  MISS:     286022  HIT %:    98.3646  MISS %:    1.63537   MPKI: 1.43011
L1D RFO       ACCESS:   11225851  HIT:   11222775  MISS:       3076  HIT %:    99.9726  MISS %:   0.027401   MPKI: 0.01538
L1D PREFETCH  ACCESS:    3913835  HIT:    3478712  MISS:     435123  HIT %:    88.8824  MISS %:    11.1176   MPKI: 2.17561
L1D PREFETCH  REQUESTED:    9308047  ISSUED:    9308047  USEFUL:     165034  USELESS:     350825
L1D USEFUL LOAD PREFETCHES:     165034 PREFETCH ISSUED TO LOWER LEVEL:     518971  ACCURACY: 31.8002
L1D TIMELY PREFETCHES:     165034 LATE PREFETCHES: 2242 DROPPED PREFETCHES: 0
L1D PREFETCHES SAME FILL-ORIGIN LEVEL: 518971 DIFFERENT FILL-ORIGIN LEVEL: 0
L1D AVERAGE MISS LATENCY: 134.899 cycles
L1D RQ	ACCESS:   31811602	FORWARD:          0	MERGED:   10639315	TO_CACHE:   20742442
L1D WQ	ACCESS:   14454562	FORWARD:     440400	MERGED:    1174962	TO_CACHE:   13279600
L1D PQ	ACCESS:    4659301	FORWARD:          0	MERGED:          0	TO_CACHE:    4648746

L1D UNIQUE REGIONS ACCESSED: 0
L1D REGIONS CONFLICTS: 0
L1D Cross Page Prefetch Requests: 0
L1D Same Page Prefetch Requests: 6012961
L1D ROI Sum of L1D PQ occupancy: 119695197
L1D PREFETCHES PUSHED FROM L2C: 0
L1I TOTAL     ACCESS:   46033306  HIT:   46033304  MISS:          2  HIT %:        100  MISS %: 4.34468e-06   MPKI: 1e-05
L1I LOAD      ACCESS:   46033306  HIT:   46033304  MISS:          2  HIT %:        100  MISS %: 4.34468e-06   MPKI: 1e-05
L1I PREFETCH  REQUESTED:          0  ISSUED:          0  USEFUL:          0  USELESS:          0
L1I USEFUL LOAD PREFETCHES:          0 PREFETCH ISSUED TO LOWER LEVEL:          0  ACCURACY: -nan
L1I TIMELY PREFETCHES:          0 LATE PREFETCHES: 0 DROPPED PREFETCHES: 0
L1I PREFETCHES SAME FILL-ORIGIN LEVEL: 0 DIFFERENT FILL-ORIGIN LEVEL: 0
L1I AVERAGE MISS LATENCY: 212 cycles
L1I RQ	ACCESS:  107332806	FORWARD:          0	MERGED:   52859538	TO_CACHE:   54473268

BTB BRANCH_DIRECT_JUMP	ACCESS:          0  HIT:          0  MISS:          0
BTB BRANCH_INDIRECT	ACCESS:          0  HIT:          0  MISS:          0
BTB BRANCH_CONDITIONAL	ACCESS:          0  HIT:          0  MISS:          0
BTB BRANCH_DIRECT_CALL	ACCESS:          0  HIT:          0  MISS:          0
BTB BRANCH_INDIRECT_CALL	ACCESS:          0  HIT:          0  MISS:          0
BTB BRANCH_RETURN	ACCESS:          0  HIT:          0  MISS:          0
BTB BRANCH_OTHER ACCESS:          0  HIT:          0  MISS:          0

L2C TOTAL     ACCESS:   17538432  HIT:   16966470  MISS:     571962  HIT %:    96.7388  MISS %:    3.26119   MPKI: 2.85981
L2C LOAD      ACCESS:     284235  HIT:      63042  MISS:     221193  HIT %:    22.1795  MISS %:    77.8205   MPKI: 1.10596
L2C DATA LOAD MPKI: 1.10595
L2C INSTRUCTION LOAD MPKI: 1e-05
L2C RFO       ACCESS:       2183  HIT:        322  MISS:       1861  HIT %:    14.7503  MISS %:    85.2497   MPKI: 0.009305
L2C PREFETCH  ACCESS:     437805  HIT:     119433  MISS:     318372  HIT %:      27.28  MISS %:      72.72   MPKI: 1.59186
L2C DATA PREFETCH MPKI: 1.59186
L2C INSTRUCTION PREFETCH MPKI: 0
L2C WRITEBACK ACCESS:     220899  HIT:     203674  MISS:      17225  HIT %:    92.2023  MISS %:    7.79768   MPKI: 0.086125
L2C LOAD TRANSLATION ACCESS:   15377646  HIT:   15364345  MISS:      13301  HIT %:    99.9135  MISS %:  0.0864957   MPKI: 0.066505
L2C TRANSLATION FROM L1D PREFETCHER ACCESS:    1215664  HIT:    1215654  MISS:         10  HIT %:    99.9992  MISS %: 0.000822596   MPKI: 5e-05
L2C PREFETCH  REQUESTED:          0  ISSUED:          0  USEFUL:      27832  USELESS:     349899
L2C USEFUL LOAD PREFETCHES:      27832 PREFETCH ISSUED TO LOWER LEVEL:     377770  ACCURACY: 7.36745
L2C TIMELY PREFETCHES:      27832 LATE PREFETCHES: 0 DROPPED PREFETCHES: 0
L2C PREFETCHES SAME FILL-ORIGIN LEVEL: 0 DIFFERENT FILL-ORIGIN LEVEL: 0
L2C AVERAGE MISS LATENCY: 153.725 cycles
L2C RQ	ACCESS:   19915731	FORWARD:          0	MERGED:          0	TO_CACHE:   19915731
L2C WQ	ACCESS:     256601	FORWARD:          0	MERGED:          0	TO_CACHE:     256601
L2C PQ	ACCESS:     518971	FORWARD:          0	MERGED:          0	TO_CACHE:     518971

L2C Instructions Evicting Data 2
L2C Translations Evicting Data 15402
L2C Data Evicting Data 628125
L2C Instructions Evicting Instructions 0
L2C Translations Evicting Instructions 0
L2C Data Evicting Instructions 2
L2C Instructions Evicting Translations 0
L2C Translations Evicting Translations 397
L2C Data Evicting Translations 14989
L2C Dense regions hint from L2: 0
PSCL5 TOTAL     ACCESS:   16555346  HIT:   16555346  MISS:          0  HIT %:        100  MISS %:          0   MPKI: 0
PSCL5 LOAD TRANSLATION ACCESS:   15341232  HIT:   15341232  MISS:          0  HIT %:        100  MISS %:          0   MPKI: 0
PSCL5 TRANSLATION FROM L1D PREFETCHER ACCESS:    1214114  HIT:    1214114  MISS:          0  HIT %:        100  MISS %:          0   MPKI: 0
PSCL5 PREFETCH  REQUESTED:          0  ISSUED:          0  USEFUL:          0  USELESS:          0
PSCL5 USEFUL LOAD PREFETCHES:          0 PREFETCH ISSUED TO LOWER LEVEL:          0  ACCURACY: -nan
PSCL5 TIMELY PREFETCHES:          0 LATE PREFETCHES: 0 DROPPED PREFETCHES: 0
PSCL5 PREFETCHES SAME FILL-ORIGIN LEVEL: 0 DIFFERENT FILL-ORIGIN LEVEL: 0

PSCL4 TOTAL     ACCESS:   16555346  HIT:   16555346  MISS:          0  HIT %:        100  MISS %:          0   MPKI: 0
PSCL4 LOAD TRANSLATION ACCESS:   15341232  HIT:   15341232  MISS:          0  HIT %:        100  MISS %:          0   MPKI: 0
PSCL4 TRANSLATION FROM L1D PREFETCHER ACCESS:    1214114  HIT:    1214114  MISS:          0  HIT %:        100  MISS %:          0   MPKI: 0
PSCL4 PREFETCH  REQUESTED:          0  ISSUED:          0  USEFUL:          0  USELESS:          0
PSCL4 USEFUL LOAD PREFETCHES:          0 PREFETCH ISSUED TO LOWER LEVEL:          0  ACCURACY: -nan
PSCL4 TIMELY PREFETCHES:          0 LATE PREFETCHES: 0 DROPPED PREFETCHES: 0
PSCL4 PREFETCHES SAME FILL-ORIGIN LEVEL: 0 DIFFERENT FILL-ORIGIN LEVEL: 0

PSCL3 TOTAL     ACCESS:   16555189  HIT:   16555139  MISS:         50  HIT %:    99.9997  MISS %: 0.00030202   MPKI: 0.00025
PSCL3 LOAD TRANSLATION ACCESS:   15341123  HIT:   15341073  MISS:         50  HIT %:    99.9997  MISS %: 0.000325921   MPKI: 0.00025
PSCL3 TRANSLATION FROM L1D PREFETCHER ACCESS:    1214066  HIT:    1214066  MISS:          0  HIT %:        100  MISS %:          0   MPKI: 0
PSCL3 PREFETCH  REQUESTED:          0  ISSUED:          0  USEFUL:          0  USELESS:          0
PSCL3 USEFUL LOAD PREFETCHES:          0 PREFETCH ISSUED TO LOWER LEVEL:          0  ACCURACY: -nan
PSCL3 TIMELY PREFETCHES:          0 LATE PREFETCHES: 0 DROPPED PREFETCHES: 0
PSCL3 PREFETCHES SAME FILL-ORIGIN LEVEL: 0 DIFFERENT FILL-ORIGIN LEVEL: 0

PSCL2 TOTAL     ACCESS:   16555346  HIT:   16517430  MISS:      37916  HIT %:     99.771  MISS %:   0.229026   MPKI: 0.18958
PSCL2 LOAD TRANSLATION ACCESS:   15342780  HIT:   15304864  MISS:      37916  HIT %:    99.7529  MISS %:   0.247126   MPKI: 0.18958
PSCL2 TRANSLATION FROM L1D PREFETCHER ACCESS:    1212566  HIT:    1212566  MISS:          0  HIT %:        100  MISS %:          0   MPKI: 0
PSCL2 PREFETCH  REQUESTED:          0  ISSUED:          0  USEFUL:          0  USELESS:          0
PSCL2 USEFUL LOAD PREFETCHES:          0 PREFETCH ISSUED TO LOWER LEVEL:          0  ACCURACY: -nan
PSCL2 TIMELY PREFETCHES:          0 LATE PREFETCHES: 0 DROPPED PREFETCHES: 0
PSCL2 PREFETCHES SAME FILL-ORIGIN LEVEL: 0 DIFFERENT FILL-ORIGIN LEVEL: 0

LLC TOTAL     ACCESS:     759649  HIT:     427206  MISS:     332443  HIT %:    56.2373  MISS %:    43.7627   MPKI: 1.66221
LLC LOAD      ACCESS:     221193  HIT:      94844  MISS:     126349  HIT %:    42.8784  MISS %:    57.1216   MPKI: 0.631745
LLC RFO       ACCESS:       1861  HIT:        427  MISS:       1434  HIT %:    22.9447  MISS %:    77.0553   MPKI: 0.00717
LLC PREFETCH  ACCESS:     318372  HIT:     126590  MISS:     191782  HIT %:    39.7617  MISS %:    60.2383   MPKI: 0.95891
LLC WRITEBACK ACCESS:     204912  HIT:     193691  MISS:      11221  HIT %:     94.524  MISS %:    5.47601   MPKI: 0.056105
LLC LOAD TRANSLATION ACCESS:      13301  HIT:      11650  MISS:       1651  HIT %:    87.5874  MISS %:    12.4126   MPKI: 0.008255
LLC TRANSLATION FROM L1D PREFETCHER ACCESS:         10  HIT:          4  MISS:          6  HIT %:         40  MISS %:         60   MPKI: 3e-05
LLC PREFETCH  REQUESTED:          0  ISSUED:          0  USEFUL:      80600  USELESS:     749876
LLC USEFUL LOAD PREFETCHES:      80600 PREFETCH ISSUED TO LOWER LEVEL:     825581  ACCURACY: 9.76282
LLC TIMELY PREFETCHES:      80600 LATE PREFETCHES: 0 DROPPED PREFETCHES: 0
LLC PREFETCHES SAME FILL-ORIGIN LEVEL: 0 DIFFERENT FILL-ORIGIN LEVEL: 0
LLC AVERAGE MISS LATENCY: 750.43 cycles
LLC RQ	ACCESS:    1698713	FORWARD:          0	MERGED:          0	TO_CACHE:    1698709
LLC WQ	ACCESS:    1686026	FORWARD:          6	MERGED:          0	TO_CACHE:    1686026
LLC PQ	ACCESS:    2203872	FORWARD:          0	MERGED:          0	TO_CACHE:    2203870

LLC Dense regions hint to LLC: 0

RAW hits: 6937499
Loads Generated: 33810968
Loads sent to L1D: 26873469
Stores Generated: 12219232
Stores sent to L1D: 12219230
Major fault: 0 Minor fault: 1800
Allocated PAGES: 9090

stream: 
stream:times selected: 10468347
stream:pref_filled: 1197051
stream:pref_useful: 319333
stream:pref_late: 6717
stream:misses: 288613
stream:misses_by_poll: 0

CS: 
CS:times selected: 481623
CS:pref_filled: 278442
CS:pref_useful: 264307
CS:pref_late: 123
CS:misses: 5199
CS:misses_by_poll: 500

CPLX: 
CPLX:times selected: 9930317
CPLX:pref_filled: 332609
CPLX:pref_useful: 93273
CPLX:pref_late: 509
CPLX:misses: 961792
CPLX:misses_by_poll: 746

NL_L1: 
NL:times selected: 40171
NL:pref_filled: 11723
NL:pref_useful: 2164
NL:pref_late: 12
NL:misses: 9670
NL:misses_by_poll: 2

total selections: 20920458
total_filled: 1438667
total_useful: 534458
total_late: 7611
total_polluted: 1248
total_misses_after_warmup: 1058308
conflicts: 1728860
Degree Incremented Times: 372368
Degree Decremented Times: 1317737

L1 IP Table Write Accesses: 79896213
L1 IP Table Read Accesses: 78167353
L1 RST Write Accesses: 28525407
L1 RST Read Accesses: 57050814
L1 CSPT Write Accesses: 28525407
L1 CSPT Read Accesses: 55794480
L1 RR Filter Tag Write Accesses: 23042016
L1 RR Filter Tag Read Accesses: 979884322
L1 IP Table Tag Write Accesses: 87873558
L1 IP Table Tag Read Accesses: 87873558
L1 RST Tag Write Accesses: 0
L1 RST Tag Read Accesses: 282599820
L1 RR Filter Write Accesses: 0
L1 RR Filter Read Accesses: 35300649
test: 18444061

stream: 
stream:times selected: 9814079
stream:pref_filled: 1118483
stream:pref_useful: 357916
stream:pref_late: 6906
stream:misses: 298470
stream:misses_by_poll: 0

CS: 
CS:times selected: 516798
CS:pref_filled: 280510
CS:pref_useful: 270407
CS:pref_late: 106
CS:misses: 4679
CS:misses_by_poll: 816

CPLX: 
CPLX:times selected: 9236451
CPLX:pref_filled: 352173
CPLX:pref_useful: 113523
CPLX:pref_late: 389
CPLX:misses: 842946
CPLX:misses_by_poll: 1882

NL_L1: 
NL:times selected: 37843
NL:pref_filled: 11363
NL:pref_useful: 3123
NL:pref_late: 14
NL:misses: 8896
NL:misses_by_poll: 2

total selections: 19605171
total_filled: 1406157
total_useful: 594566
total_late: 7633
total_polluted: 2700
total_misses_after_warmup: 972129
conflicts: 1728860
Degree Incremented Times: 372368
Degree Decremented Times: 1317737

L1 IP Table Write Accesses: 79896213
L1 IP Table Read Accesses: 78167353
L1 RST Write Accesses: 28525407
L1 RST Read Accesses: 57050814
L1 CSPT Write Accesses: 28525407
L1 CSPT Read Accesses: 55794480
L1 RR Filter Tag Write Accesses: 23042016
L1 RR Filter Tag Read Accesses: 979884322
L1 IP Table Tag Write Accesses: 87873558
L1 IP Table Tag Read Accesses: 87873558
L1 RST Tag Write Accesses: 0
L1 RST Tag Read Accesses: 282599820
L1 RR Filter Write Accesses: 0
L1 RR Filter Read Accesses: 35300649
test: 18444061

stream: 
stream:times selected: 8119414
stream:pref_filled: 476630
stream:pref_useful: 120932
stream:pref_late: 2818
stream:misses: 78958
stream:misses_by_poll: 0

CS: 
CS:times selected: 156834
CS:pref_filled: 62081
CS:pref_useful: 49484
CS:pref_late: 7
CS:misses: 1561
CS:misses_by_poll: 17

CPLX: 
CPLX:times selected: 7896077
CPLX:pref_filled: 256374
CPLX:pref_useful: 45476
CPLX:pref_late: 56
CPLX:misses: 286328
CPLX:misses_by_poll: 952

NL_L1: 
NL:times selected: 72931
NL:pref_filled: 5765
NL:pref_useful: 1544
NL:pref_late: 70
NL:misses: 3426
NL:misses_by_poll: 0

total selections: 16245256
total_filled: 640783
total_useful: 172756
total_late: 3007
total_polluted: 969
total_misses_after_warmup: 459120
conflicts: 1728860
Degree Incremented Times: 372368
Degree Decremented Times: 1317737

L1 IP Table Write Accesses: 79896213
L1 IP Table Read Accesses: 78167353
L1 RST Write Accesses: 28525407
L1 RST Read Accesses: 57050814
L1 CSPT Write Accesses: 28525407
L1 CSPT Read Accesses: 55794480
L1 RR Filter Tag Write Accesses: 23042016
L1 RR Filter Tag Read Accesses: 979884322
L1 IP Table Tag Write Accesses: 87873558
L1 IP Table Tag Read Accesses: 87873558
L1 RST Tag Write Accesses: 0
L1 RST Tag Read Accesses: 282599820
L1 RR Filter Write Accesses: 0
L1 RR Filter Read Accesses: 35300649
test: 18444061

stream: 
stream:times selected: 7612748
stream:pref_filled: 397827
stream:pref_useful: 92968
stream:pref_late: 1800
stream:misses: 76123
stream:misses_by_poll: 0

CS: 
CS:times selected: 193307
CS:pref_filled: 84675
CS:pref_useful: 82157
CS:pref_late: 454
CS:misses: 122
CS:misses_by_poll: 163

CPLX: 
CPLX:times selected: 7392991
CPLX:pref_filled: 164254
CPLX:pref_useful: 37000
CPLX:pref_late: 275
CPLX:misses: 162133
CPLX:misses_by_poll: 324

NL_L1: 
NL:times selected: 41649
NL:pref_filled: 3880
NL:pref_useful: 506
NL:pref_late: 0
NL:misses: 2045
NL:misses_by_poll: 1

total selections: 15240695
total_filled: 515835
total_useful: 165034
total_late: 2550
total_polluted: 488
total_misses_after_warmup: 373029
conflicts: 1728860
Degree Incremented Times: 372368
Degree Decremented Times: 1317737

L1 IP Table Write Accesses: 79896213
L1 IP Table Read Accesses: 78167353
L1 RST Write Accesses: 28525407
L1 RST Read Accesses: 57050814
L1 CSPT Write Accesses: 28525407
L1 CSPT Read Accesses: 55794480
L1 RR Filter Tag Write Accesses: 23042016
L1 RR Filter Tag Read Accesses: 979884322
L1 IP Table Tag Write Accesses: 87873558
L1 IP Table Tag Read Accesses: 87873558
L1 RST Tag Write Accesses: 0
L1 RST Tag Read Accesses: 282599820
L1 RR Filter Write Accesses: 0
L1 RR Filter Read Accesses: 35300649
test: 18444061

DRAM Statistics
 CHANNEL 0
 RQ ROW_BUFFER_HIT:      76810  ROW_BUFFER_MISS:    1326211
 DBUS_CONGESTED:        280
 WQ ROW_BUFFER_HIT:      87499  ROW_BUFFER_MISS:     602688  FULL:          0

 AVG_CONGESTED_CYCLE: 4
 All warmup complete: 5
Channel 0 Bank busy for read cycles: 0
Channel 0 Bank busy for write cycles: 0
Channel 0
Rank 0
0banks busy for read cycles: 142476997
0banks busy for write cycles: 251873
1banks busy for read cycles: 74688183
1banks busy for write cycles: 31138212
2banks busy for read cycles: 32240697
2banks busy for write cycles: 14556246
3banks busy for read cycles: 12495460
3banks busy for write cycles: 7582676
4banks busy for read cycles: 4116293
4banks busy for write cycles: 4015701
5banks busy for read cycles: 1174398
5banks busy for write cycles: 2067043
6banks busy for read cycles: 314265
6banks busy for write cycles: 1042621
7banks busy for read cycles: 124415
7banks busy for write cycles: 577832
8banks busy for read cycles: 157984
8banks busy for write cycles: 882070

CPU 0 Branch Prediction Accuracy: 99.7812% MPKI: 0.499388 Average ROB Occupancy at Mispredict: 118.186
Branch types
NOT_BRANCH: 0 0%
BRANCH_DIRECT_JUMP: 0 0%
BRANCH_INDIRECT: 0 0%
BRANCH_CONDITIONAL: 0 0%
BRANCH_DIRECT_CALL: 0 0%
BRANCH_INDIRECT_CALL: 0 0%
BRANCH_RETURN: 0 0%
BRANCH_OTHER: 0 0%


CPU 1 Branch Prediction Accuracy: 99.7679% MPKI: 0.533088 Average ROB Occupancy at Mispredict: 117.602
Branch types
NOT_BRANCH: 0 0%
BRANCH_DIRECT_JUMP: 0 0%
BRANCH_INDIRECT: 0 0%
BRANCH_CONDITIONAL: 0 0%
BRANCH_DIRECT_CALL: 0 0%
BRANCH_INDIRECT_CALL: 0 0%
BRANCH_RETURN: 0 0%
BRANCH_OTHER: 0 0%


CPU 2 Branch Prediction Accuracy: 99.7915% MPKI: 0.427291 Average ROB Occupancy at Mispredict: 109.961
Branch types
NOT_BRANCH: 0 0%
BRANCH_DIRECT_JUMP: 0 0%
BRANCH_INDIRECT: 0 0%
BRANCH_CONDITIONAL: 0 0%
BRANCH_DIRECT_CALL: 0 0%
BRANCH_INDIRECT_CALL: 0 0%
BRANCH_RETURN: 0 0%
BRANCH_OTHER: 0 0%


CPU 3 Branch Prediction Accuracy: 99.9252% MPKI: 0.159125 Average ROB Occupancy at Mispredict: 116.331
Branch types
NOT_BRANCH: 0 0%
BRANCH_DIRECT_JUMP: 0 0%
BRANCH_INDIRECT: 0 0%
BRANCH_CONDITIONAL: 0 0%
BRANCH_DIRECT_CALL: 0 0%
BRANCH_INDIRECT_CALL: 0 0%
BRANCH_RETURN: 0 0%
BRANCH_OTHER: 0 0%

DRAM PAGES: 1048576
Allocated PAGES: 9090
