
*** ChampSim Multicore Out-of-Order Simulator ***

Warmup Instructions: 50000000
Simulation Instructions: 200000000
Number of CPUs: 4
LLC sets: 8192
LLC ways: 16
Off-chip DRAM Size: 4096 MB Channels: 1 Width: 64-bit Data Rate: 6400 MT/s
CPU 0 runs ./traces/spec/605.mcf_s-1644B.champsimtrace.xz
.xz
CPU 1 runs ./traces/spec/602.gcc_s-734B.champsimtrace.xz
.xz
CPU 2 runs ./traces/gap/pr-5.trace.gz
.gz
CPU 3 runs ./traces/ligra/ligra_Radii.com-lj.ungraph.gcc_6.3.0_O3.drop_12500M.length_250M.champsimtrace.xz
.xz
BTB has LRU replacement policy
ITLB has LRU replacement policy
DTLB has LRU replacement policy
STLB has LRU replacement policy
L1I has LRU replacement policy
IP Table Entries: 1024
CSPT Entries: 128
RR_ENTRIES: 32
RST_ENTRIES: 8
L1D has LRU replacement policy
Initialize SRRIP state for L2C
Initialize DRRIP state for LLC
BTB has LRU replacement policy
ITLB has LRU replacement policy
DTLB has LRU replacement policy
STLB has LRU replacement policy
L1I has LRU replacement policy
IP Table Entries: 1024
CSPT Entries: 128
RR_ENTRIES: 32
RST_ENTRIES: 8
L1D has LRU replacement policy
Initialize SRRIP state for L2C
Initialize DRRIP state for LLC
BTB has LRU replacement policy
ITLB has LRU replacement policy
DTLB has LRU replacement policy
STLB has LRU replacement policy
L1I has LRU replacement policy
IP Table Entries: 1024
CSPT Entries: 128
RR_ENTRIES: 32
RST_ENTRIES: 8
L1D has LRU replacement policy
Initialize SRRIP state for L2C
Initialize DRRIP state for LLC
BTB has LRU replacement policy
ITLB has LRU replacement policy
DTLB has LRU replacement policy
STLB has LRU replacement policy
L1I has LRU replacement policy
IP Table Entries: 1024
CSPT Entries: 128
RR_ENTRIES: 32
RST_ENTRIES: 8
L1D has LRU replacement policy
Initialize SRRIP state for L2C
Initialize DRRIP state for LLC
Heartbeat CPU 3 instructions: 10000002 cycles: 2933248 heartbeat IPC: 3.40919 cumulative IPC: 3.40919 (Simulation time: 0 hr 3 min 25 sec) 
Heartbeat CPU 1 instructions: 10000002 cycles: 3230712 heartbeat IPC: 3.09529 cumulative IPC: 3.09529 (Simulation time: 0 hr 3 min 42 sec) 
Heartbeat CPU 2 instructions: 10000001 cycles: 3333762 heartbeat IPC: 2.99961 cumulative IPC: 2.99961 (Simulation time: 0 hr 3 min 50 sec) 
Heartbeat CPU 0 instructions: 10000003 cycles: 5119011 heartbeat IPC: 1.9535 cumulative IPC: 1.9535 (Simulation time: 0 hr 6 min 0 sec) 
Heartbeat CPU 3 instructions: 20000002 cycles: 5867564 heartbeat IPC: 3.40795 cumulative IPC: 3.40857 (Simulation time: 0 hr 6 min 53 sec) 
Heartbeat CPU 1 instructions: 20000002 cycles: 6474585 heartbeat IPC: 3.08273 cumulative IPC: 3.089 (Simulation time: 0 hr 7 min 41 sec) 
Heartbeat CPU 3 instructions: 30000000 cycles: 8803390 heartbeat IPC: 3.4062 cumulative IPC: 3.40778 (Simulation time: 0 hr 10 min 27 sec) 
Heartbeat CPU 2 instructions: 20000001 cycles: 9596805 heartbeat IPC: 1.59667 cumulative IPC: 2.08403 (Simulation time: 0 hr 11 min 29 sec) 
Heartbeat CPU 1 instructions: 30000000 cycles: 9694845 heartbeat IPC: 3.10534 cumulative IPC: 3.09443 (Simulation time: 0 hr 11 min 36 sec) 
Heartbeat CPU 0 instructions: 20000001 cycles: 10216713 heartbeat IPC: 1.96167 cumulative IPC: 1.95758 (Simulation time: 0 hr 12 min 17 sec) 
Heartbeat CPU 3 instructions: 40000001 cycles: 11738654 heartbeat IPC: 3.40685 cumulative IPC: 3.40755 (Simulation time: 0 hr 14 min 18 sec) 
Heartbeat CPU 1 instructions: 40000002 cycles: 12940871 heartbeat IPC: 3.08069 cumulative IPC: 3.09098 (Simulation time: 0 hr 15 min 46 sec) 
Heartbeat CPU 3 instructions: 50000001 cycles: 14674306 heartbeat IPC: 3.4064 cumulative IPC: 3.40732 (Simulation time: 0 hr 17 min 37 sec) 
Heartbeat CPU 0 instructions: 30000001 cycles: 15319868 heartbeat IPC: 1.95957 cumulative IPC: 1.95824 (Simulation time: 0 hr 18 min 20 sec) 
Heartbeat CPU 2 instructions: 30000000 cycles: 16139269 heartbeat IPC: 1.52848 cumulative IPC: 1.85882 (Simulation time: 0 hr 19 min 14 sec) 
Heartbeat CPU 1 instructions: 50000000 cycles: 16163068 heartbeat IPC: 3.10347 cumulative IPC: 3.09347 (Simulation time: 0 hr 19 min 16 sec) 
Heartbeat CPU 3 instructions: 60000002 cycles: 18439958 heartbeat IPC: 2.65558 cumulative IPC: 0.542301 (Simulation time: 0 hr 21 min 29 sec) 
Heartbeat CPU 1 instructions: 60000000 cycles: 19398455 heartbeat IPC: 3.09082 cumulative IPC: 0.515505 (Simulation time: 0 hr 22 min 17 sec) 
Heartbeat CPU 0 instructions: 40000001 cycles: 20416959 heartbeat IPC: 1.9619 cumulative IPC: 1.95916 (Simulation time: 0 hr 23 min 12 sec) 
Heartbeat CPU 3 instructions: 70000000 cycles: 22189898 heartbeat IPC: 2.66671 cumulative IPC: 0.901311 (Simulation time: 0 hr 24 min 43 sec) 
Heartbeat CPU 1 instructions: 70000002 cycles: 22749910 heartbeat IPC: 2.98378 cumulative IPC: 0.879124 (Simulation time: 0 hr 25 min 11 sec) 
Heartbeat CPU 2 instructions: 40000002 cycles: 22760474 heartbeat IPC: 1.5103 cumulative IPC: 1.75743 (Simulation time: 0 hr 25 min 12 sec) 
Heartbeat CPU 0 instructions: 50000000 cycles: 25504480 heartbeat IPC: 1.96559 cumulative IPC: 1.96044 (Simulation time: 0 hr 27 min 49 sec) 
Heartbeat CPU 3 instructions: 80000003 cycles: 25927234 heartbeat IPC: 2.6757 cumulative IPC: 1.15708 (Simulation time: 0 hr 28 min 12 sec) 
Heartbeat CPU 1 instructions: 80000000 cycles: 25980609 heartbeat IPC: 3.0953 cumulative IPC: 1.15471 (Simulation time: 0 hr 28 min 15 sec) 
Heartbeat CPU 1 instructions: 90000000 cycles: 29227764 heartbeat IPC: 3.07962 cumulative IPC: 1.36856 (Simulation time: 0 hr 31 min 2 sec) 
Heartbeat CPU 2 instructions: 50000003 cycles: 29368892 heartbeat IPC: 1.51322 cumulative IPC: 1.70248 (Simulation time: 0 hr 31 min 10 sec) 

Warmup complete CPU 0 instructions: 56905010 cycles: 29368892 (Simulation time: 0 hr 31 min 10 sec) 
Warmup complete CPU 1 instructions: 90423879 cycles: 29368892 (Simulation time: 0 hr 31 min 10 sec) 
Warmup complete CPU 2 instructions: 50000003 cycles: 29368892 (Simulation time: 0 hr 31 min 10 sec) 
Warmup complete CPU 3 instructions: 89327797 cycles: 29368891 (Simulation time: 0 hr 31 min 10 sec) 

Heartbeat CPU 3 instructions: 90000001 cycles: 30180744 heartbeat IPC: 2.351 cumulative IPC: 0.827987 (Simulation time: 0 hr 31 min 21 sec) 
Heartbeat CPU 3 instructions: 100000003 cycles: 41960697 heartbeat IPC: 0.8489 cumulative IPC: 0.847552 (Simulation time: 0 hr 33 min 23 sec) 
Heartbeat CPU 0 instructions: 60000001 cycles: 50788875 heartbeat IPC: 0.395501 cumulative IPC: 0.144491 (Simulation time: 0 hr 34 min 57 sec) 
Heartbeat CPU 3 instructions: 110000000 cycles: 53762751 heartbeat IPC: 0.84731 cumulative IPC: 0.847435 (Simulation time: 0 hr 35 min 29 sec) 
Heartbeat CPU 3 instructions: 120000000 cycles: 65797325 heartbeat IPC: 0.830939 cumulative IPC: 0.841985 (Simulation time: 0 hr 37 min 48 sec) 
Heartbeat CPU 1 instructions: 100000000 cycles: 67489590 heartbeat IPC: 0.261357 cumulative IPC: 0.251205 (Simulation time: 0 hr 38 min 10 sec) 
Heartbeat CPU 3 instructions: 130000001 cycles: 77672956 heartbeat IPC: 0.842061 cumulative IPC: 0.842004 (Simulation time: 0 hr 40 min 15 sec) 
Heartbeat CPU 1 instructions: 110000000 cycles: 88453239 heartbeat IPC: 0.477016 cumulative IPC: 0.331325 (Simulation time: 0 hr 42 min 25 sec) 
Heartbeat CPU 3 instructions: 140000000 cycles: 89293753 heartbeat IPC: 0.860526 cumulative IPC: 0.845596 (Simulation time: 0 hr 42 min 35 sec) 
Heartbeat CPU 3 instructions: 150000001 cycles: 101067888 heartbeat IPC: 0.849319 cumulative IPC: 0.846207 (Simulation time: 0 hr 44 min 48 sec) 
Heartbeat CPU 1 instructions: 120000000 cycles: 109951097 heartbeat IPC: 0.465163 cumulative IPC: 0.36703 (Simulation time: 0 hr 46 min 43 sec) 
Heartbeat CPU 0 instructions: 70000000 cycles: 112165033 heartbeat IPC: 0.16293 cumulative IPC: 0.158159 (Simulation time: 0 hr 47 min 13 sec) 
Heartbeat CPU 3 instructions: 160000001 cycles: 112843839 heartbeat IPC: 0.849188 cumulative IPC: 0.846628 (Simulation time: 0 hr 47 min 22 sec) 
Heartbeat CPU 3 instructions: 170000001 cycles: 124594322 heartbeat IPC: 0.851029 cumulative IPC: 0.847171 (Simulation time: 0 hr 49 min 49 sec) 
Heartbeat CPU 1 instructions: 130000001 cycles: 136060449 heartbeat IPC: 0.383005 cumulative IPC: 0.37094 (Simulation time: 0 hr 52 min 4 sec) 
Heartbeat CPU 3 instructions: 180000000 cycles: 136220875 heartbeat IPC: 0.8601 cumulative IPC: 0.848578 (Simulation time: 0 hr 52 min 6 sec) 
Heartbeat CPU 3 instructions: 190000003 cycles: 147927452 heartbeat IPC: 0.854221 cumulative IPC: 0.849135 (Simulation time: 0 hr 54 min 45 sec) 
Heartbeat CPU 1 instructions: 140000001 cycles: 157173895 heartbeat IPC: 0.473632 cumulative IPC: 0.387904 (Simulation time: 0 hr 56 min 52 sec) 
Heartbeat CPU 3 instructions: 200000001 cycles: 159233746 heartbeat IPC: 0.884463 cumulative IPC: 0.852211 (Simulation time: 0 hr 57 min 22 sec) 
Heartbeat CPU 3 instructions: 210000001 cycles: 170664766 heartbeat IPC: 0.874813 cumulative IPC: 0.854039 (Simulation time: 0 hr 59 min 51 sec) 
Heartbeat CPU 0 instructions: 80000000 cycles: 172547422 heartbeat IPC: 0.165611 cumulative IPC: 0.161302 (Simulation time: 1 hr 0 min 12 sec) 
Heartbeat CPU 1 instructions: 150000000 cycles: 178626993 heartbeat IPC: 0.466133 cumulative IPC: 0.399148 (Simulation time: 1 hr 1 min 22 sec) 
Heartbeat CPU 3 instructions: 220000000 cycles: 182261230 heartbeat IPC: 0.862332 cumulative IPC: 0.854668 (Simulation time: 1 hr 2 min 8 sec) 
Heartbeat CPU 3 instructions: 230000000 cycles: 193627250 heartbeat IPC: 0.879815 cumulative IPC: 0.856408 (Simulation time: 1 hr 4 min 39 sec) 
Heartbeat CPU 1 instructions: 160000003 cycles: 200693669 heartbeat IPC: 0.453172 cumulative IPC: 0.406107 (Simulation time: 1 hr 6 min 17 sec) 
Heartbeat CPU 3 instructions: 240000000 cycles: 205207354 heartbeat IPC: 0.86355 cumulative IPC: 0.856879 (Simulation time: 1 hr 7 min 9 sec) 
*** Reached end of trace for Core: 3 Repeating trace: ./traces/ligra/ligra_Radii.com-lj.ungraph.gcc_6.3.0_O3.drop_12500M.length_250M.champsimtrace.xz
Heartbeat CPU 3 instructions: 250000000 cycles: 216871264 heartbeat IPC: 0.857345 cumulative IPC: 0.856908 (Simulation time: 1 hr 9 min 27 sec) 
Heartbeat CPU 1 instructions: 170000000 cycles: 221718675 heartbeat IPC: 0.475624 cumulative IPC: 0.413705 (Simulation time: 1 hr 10 min 29 sec) 
Heartbeat CPU 3 instructions: 260000002 cycles: 228571439 heartbeat IPC: 0.854688 cumulative IPC: 0.856777 (Simulation time: 1 hr 11 min 55 sec) 
Heartbeat CPU 0 instructions: 90000000 cycles: 232371608 heartbeat IPC: 0.167156 cumulative IPC: 0.163027 (Simulation time: 1 hr 12 min 42 sec) 
Heartbeat CPU 3 instructions: 270000000 cycles: 240232859 heartbeat IPC: 0.857528 cumulative IPC: 0.856819 (Simulation time: 1 hr 14 min 20 sec) 
Heartbeat CPU 1 instructions: 180000000 cycles: 243577488 heartbeat IPC: 0.457481 cumulative IPC: 0.418172 (Simulation time: 1 hr 15 min 2 sec) 
Heartbeat CPU 3 instructions: 280000003 cycles: 252203740 heartbeat IPC: 0.835361 cumulative IPC: 0.855666 (Simulation time: 1 hr 16 min 43 sec) 
Finished CPU 3 instructions: 200000000 cycles: 233989846 cumulative IPC: 0.854738 (Simulation time: 1 hr 18 min 51 sec) 
Heartbeat CPU 3 instructions: 290000001 cycles: 264159899 heartbeat IPC: 0.836389 cumulative IPC: 0.854684 (Simulation time: 1 hr 19 min 1 sec) 
Heartbeat CPU 1 instructions: 190000002 cycles: 271748700 heartbeat IPC: 0.354972 cumulative IPC: 0.410827 (Simulation time: 1 hr 20 min 34 sec) 
Heartbeat CPU 3 instructions: 300000001 cycles: 276151589 heartbeat IPC: 0.833911 cumulative IPC: 0.853675 (Simulation time: 1 hr 21 min 22 sec) 
Heartbeat CPU 3 instructions: 310000003 cycles: 288129775 heartbeat IPC: 0.834851 cumulative IPC: 0.852804 (Simulation time: 1 hr 23 min 57 sec) 
Heartbeat CPU 1 instructions: 200000001 cycles: 295108496 heartbeat IPC: 0.428086 cumulative IPC: 0.412344 (Simulation time: 1 hr 25 min 30 sec) 
Heartbeat CPU 0 instructions: 100000001 cycles: 295908676 heartbeat IPC: 0.157388 cumulative IPC: 0.161683 (Simulation time: 1 hr 25 min 41 sec) 
Heartbeat CPU 3 instructions: 320000000 cycles: 300024205 heartbeat IPC: 0.840729 cumulative IPC: 0.852273 (Simulation time: 1 hr 26 min 36 sec) 
Heartbeat CPU 3 instructions: 330000000 cycles: 311865462 heartbeat IPC: 0.844505 cumulative IPC: 0.851947 (Simulation time: 1 hr 29 min 4 sec) 
Heartbeat CPU 1 instructions: 210000000 cycles: 316107866 heartbeat IPC: 0.476205 cumulative IPC: 0.417021 (Simulation time: 1 hr 29 min 58 sec) 
Heartbeat CPU 3 instructions: 340000001 cycles: 323612864 heartbeat IPC: 0.851252 cumulative IPC: 0.85192 (Simulation time: 1 hr 31 min 43 sec) 
Heartbeat CPU 2 instructions: 60000000 cycles: 334947829 heartbeat IPC: 0.0327248 cumulative IPC: 0.0327248 (Simulation time: 1 hr 34 min 15 sec) 
Heartbeat CPU 3 instructions: 350000002 cycles: 335368055 heartbeat IPC: 0.850688 cumulative IPC: 0.851872 (Simulation time: 1 hr 34 min 21 sec) 
Heartbeat CPU 1 instructions: 220000000 cycles: 338108455 heartbeat IPC: 0.454533 cumulative IPC: 0.419694 (Simulation time: 1 hr 34 min 56 sec) 
Heartbeat CPU 3 instructions: 360000001 cycles: 347149304 heartbeat IPC: 0.848806 cumulative IPC: 0.851759 (Simulation time: 1 hr 36 min 44 sec) 
Heartbeat CPU 0 instructions: 110000000 cycles: 358140317 heartbeat IPC: 0.16069 cumulative IPC: 0.161495 (Simulation time: 1 hr 39 min 1 sec) 
Heartbeat CPU 1 instructions: 230000002 cycles: 359077148 heartbeat IPC: 0.476902 cumulative IPC: 0.423332 (Simulation time: 1 hr 39 min 13 sec) 
Heartbeat CPU 3 instructions: 370000000 cycles: 359162830 heartbeat IPC: 0.832395 cumulative IPC: 0.851053 (Simulation time: 1 hr 39 min 15 sec) 
Heartbeat CPU 3 instructions: 380000001 cycles: 371017644 heartbeat IPC: 0.843539 cumulative IPC: 0.850793 (Simulation time: 1 hr 41 min 45 sec) 
Heartbeat CPU 1 instructions: 240000001 cycles: 380253596 heartbeat IPC: 0.472223 cumulative IPC: 0.426283 (Simulation time: 1 hr 43 min 43 sec) 
Heartbeat CPU 3 instructions: 390000000 cycles: 382626466 heartbeat IPC: 0.861414 cumulative IPC: 0.851142 (Simulation time: 1 hr 44 min 14 sec) 
Heartbeat CPU 3 instructions: 400000001 cycles: 394388888 heartbeat IPC: 0.850165 cumulative IPC: 0.85111 (Simulation time: 1 hr 46 min 29 sec) 
Heartbeat CPU 1 instructions: 250000002 cycles: 403076376 heartbeat IPC: 0.438159 cumulative IPC: 0.427008 (Simulation time: 1 hr 48 min 21 sec) 
Heartbeat CPU 3 instructions: 410000001 cycles: 406136856 heartbeat IPC: 0.851211 cumulative IPC: 0.851113 (Simulation time: 1 hr 49 min 2 sec) 
Heartbeat CPU 3 instructions: 420000001 cycles: 417845578 heartbeat IPC: 0.854064 cumulative IPC: 0.851202 (Simulation time: 1 hr 51 min 41 sec) 
Heartbeat CPU 0 instructions: 120000000 cycles: 421224646 heartbeat IPC: 0.158518 cumulative IPC: 0.161016 (Simulation time: 1 hr 52 min 28 sec) 
Heartbeat CPU 1 instructions: 260000000 cycles: 424104082 heartbeat IPC: 0.475563 cumulative IPC: 0.429595 (Simulation time: 1 hr 53 min 7 sec) 
Heartbeat CPU 3 instructions: 430000000 cycles: 429448922 heartbeat IPC: 0.86182 cumulative IPC: 0.85151 (Simulation time: 1 hr 54 min 20 sec) 
Heartbeat CPU 3 instructions: 440000000 cycles: 441144244 heartbeat IPC: 0.855043 cumulative IPC: 0.85161 (Simulation time: 1 hr 56 min 47 sec) 
Heartbeat CPU 1 instructions: 270000000 cycles: 445724245 heartbeat IPC: 0.462531 cumulative IPC: 0.431305 (Simulation time: 1 hr 57 min 50 sec) 
Heartbeat CPU 3 instructions: 450000001 cycles: 452433021 heartbeat IPC: 0.885836 cumulative IPC: 0.852524 (Simulation time: 1 hr 59 min 20 sec) 
Heartbeat CPU 3 instructions: 460000001 cycles: 463843348 heartbeat IPC: 0.876399 cumulative IPC: 0.853151 (Simulation time: 2 hr 1 min 43 sec) 
Heartbeat CPU 1 instructions: 280000001 cycles: 466774519 heartbeat IPC: 0.475053 cumulative IPC: 0.43341 (Simulation time: 2 hr 2 min 19 sec) 
Heartbeat CPU 3 instructions: 470000000 cycles: 475415008 heartbeat IPC: 0.86418 cumulative IPC: 0.853437 (Simulation time: 2 hr 4 min 8 sec) 
Heartbeat CPU 0 instructions: 130000000 cycles: 483353132 heartbeat IPC: 0.160957 cumulative IPC: 0.161008 (Simulation time: 2 hr 5 min 54 sec) 
Heartbeat CPU 3 instructions: 480000000 cycles: 486767391 heartbeat IPC: 0.880872 cumulative IPC: 0.854118 (Simulation time: 2 hr 6 min 37 sec) 
Heartbeat CPU 1 instructions: 290000002 cycles: 487983909 heartbeat IPC: 0.471489 cumulative IPC: 0.435171 (Simulation time: 2 hr 6 min 50 sec) 
Finished CPU 1 instructions: 200000001 cycles: 459567367 cumulative IPC: 0.435192 (Simulation time: 2 hr 7 min 1 sec) 
Heartbeat CPU 3 instructions: 490000000 cycles: 498332917 heartbeat IPC: 0.864639 cumulative IPC: 0.854377 (Simulation time: 2 hr 9 min 9 sec) 
Heartbeat CPU 1 instructions: 300000000 cycles: 509871093 heartbeat IPC: 0.456888 cumulative IPC: 0.436161 (Simulation time: 2 hr 11 min 33 sec) 
*** Reached end of trace for Core: 3 Repeating trace: ./traces/ligra/ligra_Radii.com-lj.ungraph.gcc_6.3.0_O3.drop_12500M.length_250M.champsimtrace.xz
Heartbeat CPU 3 instructions: 500000000 cycles: 509983238 heartbeat IPC: 0.858345 cumulative IPC: 0.854473 (Simulation time: 2 hr 11 min 35 sec) 
Heartbeat CPU 3 instructions: 510000002 cycles: 521666142 heartbeat IPC: 0.855952 cumulative IPC: 0.854509 (Simulation time: 2 hr 14 min 19 sec) 
Heartbeat CPU 1 instructions: 310000000 cycles: 530873592 heartbeat IPC: 0.476134 cumulative IPC: 0.437835 (Simulation time: 2 hr 16 min 25 sec) 
Heartbeat CPU 3 instructions: 520000000 cycles: 533318364 heartbeat IPC: 0.858205 cumulative IPC: 0.854594 (Simulation time: 2 hr 16 min 58 sec) 
Heartbeat CPU 0 instructions: 140000000 cycles: 544058741 heartbeat IPC: 0.164729 cumulative IPC: 0.161447 (Simulation time: 2 hr 19 min 10 sec) 
Heartbeat CPU 3 instructions: 530000003 cycles: 545289129 heartbeat IPC: 0.835369 cumulative IPC: 0.854148 (Simulation time: 2 hr 19 min 24 sec) 
Heartbeat CPU 1 instructions: 320000001 cycles: 552454127 heartbeat IPC: 0.463381 cumulative IPC: 0.438889 (Simulation time: 2 hr 21 min 3 sec) 
Heartbeat CPU 3 instructions: 540000001 cycles: 557258598 heartbeat IPC: 0.835459 cumulative IPC: 0.853724 (Simulation time: 2 hr 22 min 11 sec) 
Heartbeat CPU 3 instructions: 550000000 cycles: 569239664 heartbeat IPC: 0.83465 cumulative IPC: 0.853301 (Simulation time: 2 hr 24 min 41 sec) 
Heartbeat CPU 1 instructions: 330000000 cycles: 574358466 heartbeat IPC: 0.456531 cumulative IPC: 0.439598 (Simulation time: 2 hr 25 min 45 sec) 
Heartbeat CPU 3 instructions: 560000003 cycles: 581224178 heartbeat IPC: 0.83441 cumulative IPC: 0.852891 (Simulation time: 2 hr 27 min 23 sec) 
Heartbeat CPU 3 instructions: 570000000 cycles: 593130464 heartbeat IPC: 0.839892 cumulative IPC: 0.852616 (Simulation time: 2 hr 30 min 6 sec) 
Heartbeat CPU 1 instructions: 340000002 cycles: 595454524 heartbeat IPC: 0.474022 cumulative IPC: 0.440881 (Simulation time: 2 hr 30 min 32 sec) 
Heartbeat CPU 0 instructions: 150000002 cycles: 601734404 heartbeat IPC: 0.173383 cumulative IPC: 0.16265 (Simulation time: 2 hr 31 min 48 sec) 
Heartbeat CPU 3 instructions: 580000000 cycles: 604977300 heartbeat IPC: 0.844107 cumulative IPC: 0.852441 (Simulation time: 2 hr 32 min 32 sec) 
Heartbeat CPU 3 instructions: 590000001 cycles: 616724045 heartbeat IPC: 0.8513 cumulative IPC: 0.852418 (Simulation time: 2 hr 35 min 9 sec) 
Heartbeat CPU 1 instructions: 350000000 cycles: 617046530 heartbeat IPC: 0.463134 cumulative IPC: 0.441698 (Simulation time: 2 hr 35 min 14 sec) 
Heartbeat CPU 3 instructions: 600000003 cycles: 628482902 heartbeat IPC: 0.850423 cumulative IPC: 0.852379 (Simulation time: 2 hr 37 min 53 sec) 
Heartbeat CPU 2 instructions: 70000002 cycles: 635098938 heartbeat IPC: 0.0333166 cumulative IPC: 0.033018 (Simulation time: 2 hr 39 min 22 sec) 
Heartbeat CPU 1 instructions: 360000000 cycles: 639289575 heartbeat IPC: 0.449579 cumulative IPC: 0.441986 (Simulation time: 2 hr 40 min 19 sec) 
Heartbeat CPU 3 instructions: 610000001 cycles: 640272218 heartbeat IPC: 0.848225 cumulative IPC: 0.852299 (Simulation time: 2 hr 40 min 32 sec) 
Heartbeat CPU 3 instructions: 620000000 cycles: 652287647 heartbeat IPC: 0.832263 cumulative IPC: 0.851912 (Simulation time: 2 hr 42 min 58 sec) 
Heartbeat CPU 0 instructions: 160000002 cycles: 659821053 heartbeat IPC: 0.172157 cumulative IPC: 0.163525 (Simulation time: 2 hr 44 min 33 sec) 
Heartbeat CPU 1 instructions: 370000000 cycles: 660234370 heartbeat IPC: 0.477446 cumulative IPC: 0.443163 (Simulation time: 2 hr 44 min 38 sec) 
Heartbeat CPU 3 instructions: 630000001 cycles: 664133907 heartbeat IPC: 0.844148 cumulative IPC: 0.851767 (Simulation time: 2 hr 45 min 32 sec) 
Heartbeat CPU 3 instructions: 640000000 cycles: 675744953 heartbeat IPC: 0.861249 cumulative IPC: 0.851938 (Simulation time: 2 hr 48 min 3 sec) 
Heartbeat CPU 1 instructions: 380000002 cycles: 681886913 heartbeat IPC: 0.46184 cumulative IPC: 0.443783 (Simulation time: 2 hr 49 min 19 sec) 
Heartbeat CPU 3 instructions: 650000001 cycles: 687510329 heartbeat IPC: 0.849952 cumulative IPC: 0.851902 (Simulation time: 2 hr 50 min 33 sec) 
Heartbeat CPU 3 instructions: 660000000 cycles: 699276159 heartbeat IPC: 0.849919 cumulative IPC: 0.851867 (Simulation time: 2 hr 52 min 59 sec) 
Heartbeat CPU 1 instructions: 390000000 cycles: 703425476 heartbeat IPC: 0.464283 cumulative IPC: 0.444438 (Simulation time: 2 hr 53 min 54 sec) 
Heartbeat CPU 3 instructions: 670000001 cycles: 710994225 heartbeat IPC: 0.853383 cumulative IPC: 0.851894 (Simulation time: 2 hr 55 min 27 sec) 
Heartbeat CPU 0 instructions: 170000000 cycles: 717670241 heartbeat IPC: 0.172863 cumulative IPC: 0.16431 (Simulation time: 2 hr 56 min 53 sec) 
Heartbeat CPU 3 instructions: 680000000 cycles: 722597235 heartbeat IPC: 0.861845 cumulative IPC: 0.85206 (Simulation time: 2 hr 57 min 50 sec) 
Heartbeat CPU 1 instructions: 400000002 cycles: 724548507 heartbeat IPC: 0.473417 cumulative IPC: 0.445318 (Simulation time: 2 hr 58 min 17 sec) 
Heartbeat CPU 3 instructions: 690000003 cycles: 734283722 heartbeat IPC: 0.855689 cumulative IPC: 0.85212 (Simulation time: 3 hr 0 min 25 sec) 
Heartbeat CPU 3 instructions: 700000001 cycles: 745570602 heartbeat IPC: 0.885984 cumulative IPC: 0.852654 (Simulation time: 3 hr 2 min 58 sec) 
Heartbeat CPU 1 instructions: 410000002 cycles: 746100590 heartbeat IPC: 0.463992 cumulative IPC: 0.44588 (Simulation time: 3 hr 3 min 5 sec) 
Heartbeat CPU 3 instructions: 710000001 cycles: 756989731 heartbeat IPC: 0.875724 cumulative IPC: 0.853016 (Simulation time: 3 hr 5 min 25 sec) 
Heartbeat CPU 3 instructions: 720000000 cycles: 768568668 heartbeat IPC: 0.863637 cumulative IPC: 0.853182 (Simulation time: 3 hr 7 min 32 sec) 
Heartbeat CPU 1 instructions: 420000000 cycles: 772115776 heartbeat IPC: 0.384391 cumulative IPC: 0.443726 (Simulation time: 3 hr 8 min 20 sec) 
Heartbeat CPU 0 instructions: 180000000 cycles: 775693274 heartbeat IPC: 0.172345 cumulative IPC: 0.164935 (Simulation time: 3 hr 9 min 5 sec) 
Heartbeat CPU 3 instructions: 730000000 cycles: 779940343 heartbeat IPC: 0.879378 cumulative IPC: 0.853579 (Simulation time: 3 hr 10 min 4 sec) 
Heartbeat CPU 3 instructions: 740000000 cycles: 791513067 heartbeat IPC: 0.864101 cumulative IPC: 0.853739 (Simulation time: 3 hr 12 min 42 sec) 
Heartbeat CPU 1 instructions: 430000001 cycles: 793230243 heartbeat IPC: 0.473609 cumulative IPC: 0.444552 (Simulation time: 3 hr 13 min 6 sec) 
*** Reached end of trace for Core: 3 Repeating trace: ./traces/ligra/ligra_Radii.com-lj.ungraph.gcc_6.3.0_O3.drop_12500M.length_250M.champsimtrace.xz
Heartbeat CPU 3 instructions: 750000000 cycles: 803169580 heartbeat IPC: 0.857889 cumulative IPC: 0.853801 (Simulation time: 3 hr 15 min 17 sec) 
Heartbeat CPU 3 instructions: 760000002 cycles: 814859112 heartbeat IPC: 0.855466 cumulative IPC: 0.853826 (Simulation time: 3 hr 17 min 48 sec) 
Heartbeat CPU 1 instructions: 440000000 cycles: 814905499 heartbeat IPC: 0.461356 cumulative IPC: 0.445016 (Simulation time: 3 hr 17 min 48 sec) 
Heartbeat CPU 3 instructions: 770000000 cycles: 826525184 heartbeat IPC: 0.857186 cumulative IPC: 0.853875 (Simulation time: 3 hr 20 min 26 sec) 
Heartbeat CPU 0 instructions: 190000000 cycles: 832780779 heartbeat IPC: 0.17517 cumulative IPC: 0.165662 (Simulation time: 3 hr 21 min 47 sec) 
Heartbeat CPU 1 instructions: 450000002 cycles: 837041902 heartbeat IPC: 0.451745 cumulative IPC: 0.4452 (Simulation time: 3 hr 22 min 37 sec) 
Heartbeat CPU 3 instructions: 780000003 cycles: 838501449 heartbeat IPC: 0.834985 cumulative IPC: 0.853596 (Simulation time: 3 hr 22 min 52 sec) 
Heartbeat CPU 3 instructions: 790000001 cycles: 850459223 heartbeat IPC: 0.836276 cumulative IPC: 0.853344 (Simulation time: 3 hr 25 min 8 sec) 
Heartbeat CPU 1 instructions: 460000001 cycles: 858172160 heartbeat IPC: 0.473255 cumulative IPC: 0.445915 (Simulation time: 3 hr 26 min 44 sec) 
Heartbeat CPU 3 instructions: 800000001 cycles: 862449080 heartbeat IPC: 0.834038 cumulative IPC: 0.853066 (Simulation time: 3 hr 27 min 42 sec) 
Heartbeat CPU 3 instructions: 810000003 cycles: 874433828 heartbeat IPC: 0.834394 cumulative IPC: 0.852801 (Simulation time: 3 hr 30 min 16 sec) 
Heartbeat CPU 1 instructions: 470000000 cycles: 880279742 heartbeat IPC: 0.452333 cumulative IPC: 0.446082 (Simulation time: 3 hr 31 min 24 sec) 
Heartbeat CPU 3 instructions: 820000000 cycles: 886346561 heartbeat IPC: 0.839438 cumulative IPC: 0.852615 (Simulation time: 3 hr 32 min 29 sec) 
Heartbeat CPU 0 instructions: 200000001 cycles: 890476570 heartbeat IPC: 0.173323 cumulative IPC: 0.166175 (Simulation time: 3 hr 33 min 27 sec) 
Heartbeat CPU 3 instructions: 830000000 cycles: 898186288 heartbeat IPC: 0.844614 cumulative IPC: 0.852506 (Simulation time: 3 hr 35 min 9 sec) 
Heartbeat CPU 1 instructions: 480000003 cycles: 904478384 heartbeat IPC: 0.413246 cumulative IPC: 0.445174 (Simulation time: 3 hr 36 min 38 sec) 
Heartbeat CPU 3 instructions: 840000001 cycles: 909933472 heartbeat IPC: 0.851268 cumulative IPC: 0.85249 (Simulation time: 3 hr 37 min 52 sec) 
Heartbeat CPU 3 instructions: 850000003 cycles: 921687190 heartbeat IPC: 0.850795 cumulative IPC: 0.852467 (Simulation time: 3 hr 40 min 30 sec) 
Heartbeat CPU 1 instructions: 490000000 cycles: 925648242 heartbeat IPC: 0.47237 cumulative IPC: 0.445816 (Simulation time: 3 hr 41 min 24 sec) 
Heartbeat CPU 3 instructions: 860000001 cycles: 933472261 heartbeat IPC: 0.848531 cumulative IPC: 0.852416 (Simulation time: 3 hr 43 min 4 sec) 
Heartbeat CPU 3 instructions: 870000000 cycles: 945488273 heartbeat IPC: 0.832223 cumulative IPC: 0.852151 (Simulation time: 3 hr 45 min 32 sec) 
Heartbeat CPU 1 instructions: 500000003 cycles: 947954303 heartbeat IPC: 0.448309 cumulative IPC: 0.445877 (Simulation time: 3 hr 46 min 4 sec) 
Heartbeat CPU 0 instructions: 210000000 cycles: 948520556 heartbeat IPC: 0.172283 cumulative IPC: 0.166561 (Simulation time: 3 hr 46 min 11 sec) 
Heartbeat CPU 3 instructions: 880000000 cycles: 957341884 heartbeat IPC: 0.843625 cumulative IPC: 0.852042 (Simulation time: 3 hr 48 min 8 sec) 
Heartbeat CPU 2 instructions: 80000001 cycles: 962656146 heartbeat IPC: 0.030529 cumulative IPC: 0.0321444 (Simulation time: 3 hr 49 min 21 sec) 
Heartbeat CPU 3 instructions: 890000000 cycles: 968942048 heartbeat IPC: 0.862057 cumulative IPC: 0.852166 (Simulation time: 3 hr 50 min 51 sec) 
Heartbeat CPU 1 instructions: 510000000 cycles: 969038744 heartbeat IPC: 0.474283 cumulative IPC: 0.446514 (Simulation time: 3 hr 50 min 52 sec) 
Heartbeat CPU 3 instructions: 900000001 cycles: 980710514 heartbeat IPC: 0.849729 cumulative IPC: 0.852136 (Simulation time: 3 hr 53 min 29 sec) 
Heartbeat CPU 1 instructions: 520000000 cycles: 991049633 heartbeat IPC: 0.454321 cumulative IPC: 0.446693 (Simulation time: 3 hr 55 min 39 sec) 
Heartbeat CPU 3 instructions: 910000001 cycles: 992473097 heartbeat IPC: 0.850153 cumulative IPC: 0.852112 (Simulation time: 3 hr 56 min 0 sec) 
Heartbeat CPU 3 instructions: 920000001 cycles: 1004208539 heartbeat IPC: 0.85212 cumulative IPC: 0.852112 (Simulation time: 3 hr 58 min 47 sec) 
Heartbeat CPU 0 instructions: 220000000 cycles: 1007030502 heartbeat IPC: 0.170911 cumulative IPC: 0.166822 (Simulation time: 3 hr 59 min 26 sec) 
Heartbeat CPU 1 instructions: 530000000 cycles: 1012461576 heartbeat IPC: 0.467029 cumulative IPC: 0.447136 (Simulation time: 4 hr 0 min 43 sec) 
Heartbeat CPU 3 instructions: 930000000 cycles: 1015816247 heartbeat IPC: 0.861496 cumulative IPC: 0.852222 (Simulation time: 4 hr 1 min 30 sec) 
Heartbeat CPU 3 instructions: 940000003 cycles: 1027504766 heartbeat IPC: 0.855541 cumulative IPC: 0.852261 (Simulation time: 4 hr 4 min 16 sec) 
Heartbeat CPU 1 instructions: 540000002 cycles: 1033739824 heartbeat IPC: 0.469964 cumulative IPC: 0.44762 (Simulation time: 4 hr 5 min 43 sec) 
Heartbeat CPU 3 instructions: 950000001 cycles: 1038802927 heartbeat IPC: 0.8851 cumulative IPC: 0.852628 (Simulation time: 4 hr 6 min 57 sec) 
Heartbeat CPU 3 instructions: 960000001 cycles: 1050214810 heartbeat IPC: 0.87628 cumulative IPC: 0.852893 (Simulation time: 4 hr 9 min 39 sec) 
Heartbeat CPU 1 instructions: 550000000 cycles: 1055286171 heartbeat IPC: 0.464116 cumulative IPC: 0.447966 (Simulation time: 4 hr 10 min 53 sec) 
Heartbeat CPU 3 instructions: 970000000 cycles: 1061794913 heartbeat IPC: 0.86355 cumulative IPC: 0.853012 (Simulation time: 4 hr 12 min 14 sec) 
Heartbeat CPU 0 instructions: 230000003 cycles: 1065372810 heartbeat IPC: 0.171402 cumulative IPC: 0.167079 (Simulation time: 4 hr 12 min 51 sec) 
Heartbeat CPU 3 instructions: 980000000 cycles: 1073154482 heartbeat IPC: 0.880315 cumulative IPC: 0.85331 (Simulation time: 4 hr 14 min 42 sec) 
Heartbeat CPU 1 instructions: 560000003 cycles: 1080944653 heartbeat IPC: 0.389735 cumulative IPC: 0.446545 (Simulation time: 4 hr 16 min 38 sec) 
Heartbeat CPU 3 instructions: 990000000 cycles: 1084720569 heartbeat IPC: 0.864597 cumulative IPC: 0.853433 (Simulation time: 4 hr 17 min 33 sec) 
*** Reached end of trace for Core: 3 Repeating trace: ./traces/ligra/ligra_Radii.com-lj.ungraph.gcc_6.3.0_O3.drop_12500M.length_250M.champsimtrace.xz
Heartbeat CPU 3 instructions: 1000000000 cycles: 1096384642 heartbeat IPC: 0.857333 cumulative IPC: 0.853476 (Simulation time: 4 hr 20 min 23 sec) 
Heartbeat CPU 1 instructions: 570000001 cycles: 1102196965 heartbeat IPC: 0.470537 cumulative IPC: 0.44702 (Simulation time: 4 hr 21 min 47 sec) 
Heartbeat CPU 3 instructions: 1010000002 cycles: 1108070097 heartbeat IPC: 0.855765 cumulative IPC: 0.853501 (Simulation time: 4 hr 23 min 14 sec) 
Heartbeat CPU 3 instructions: 1020000000 cycles: 1119731064 heartbeat IPC: 0.857562 cumulative IPC: 0.853544 (Simulation time: 4 hr 25 min 50 sec) 
Heartbeat CPU 0 instructions: 240000002 cycles: 1123612042 heartbeat IPC: 0.171706 cumulative IPC: 0.167326 (Simulation time: 4 hr 26 min 42 sec) 
Heartbeat CPU 1 instructions: 580000000 cycles: 1124294523 heartbeat IPC: 0.452539 cumulative IPC: 0.447132 (Simulation time: 4 hr 26 min 51 sec) 
Heartbeat CPU 3 instructions: 1030000003 cycles: 1131698223 heartbeat IPC: 0.83562 cumulative IPC: 0.85335 (Simulation time: 4 hr 28 min 35 sec) 
Heartbeat CPU 3 instructions: 1040000001 cycles: 1143654477 heartbeat IPC: 0.836382 cumulative IPC: 0.853167 (Simulation time: 4 hr 31 min 13 sec) 
Heartbeat CPU 1 instructions: 590000000 cycles: 1145488403 heartbeat IPC: 0.471834 cumulative IPC: 0.447601 (Simulation time: 4 hr 31 min 37 sec) 
Heartbeat CPU 3 instructions: 1050000001 cycles: 1155624258 heartbeat IPC: 0.835437 cumulative IPC: 0.852979 (Simulation time: 4 hr 33 min 53 sec) 
Heartbeat CPU 1 instructions: 600000000 cycles: 1166847947 heartbeat IPC: 0.468175 cumulative IPC: 0.447987 (Simulation time: 4 hr 36 min 10 sec) 
Heartbeat CPU 3 instructions: 1060000003 cycles: 1167612445 heartbeat IPC: 0.834155 cumulative IPC: 0.852781 (Simulation time: 4 hr 36 min 19 sec) 
Heartbeat CPU 3 instructions: 1070000000 cycles: 1179511620 heartbeat IPC: 0.840394 cumulative IPC: 0.852653 (Simulation time: 4 hr 38 min 59 sec) 
Heartbeat CPU 0 instructions: 250000002 cycles: 1180925201 heartbeat IPC: 0.17448 cumulative IPC: 0.167682 (Simulation time: 4 hr 39 min 19 sec) 
Heartbeat CPU 1 instructions: 610000001 cycles: 1188868543 heartbeat IPC: 0.45412 cumulative IPC: 0.448104 (Simulation time: 4 hr 41 min 4 sec) 
Heartbeat CPU 3 instructions: 1080000000 cycles: 1191346136 heartbeat IPC: 0.844986 cumulative IPC: 0.852575 (Simulation time: 4 hr 41 min 32 sec) 
Heartbeat CPU 3 instructions: 1090000001 cycles: 1203095906 heartbeat IPC: 0.851081 cumulative IPC: 0.85256 (Simulation time: 4 hr 44 min 14 sec) 
Heartbeat CPU 1 instructions: 620000001 cycles: 1209991810 heartbeat IPC: 0.473412 cumulative IPC: 0.448557 (Simulation time: 4 hr 45 min 55 sec) 
Heartbeat CPU 3 instructions: 1100000000 cycles: 1214847767 heartbeat IPC: 0.850929 cumulative IPC: 0.852543 (Simulation time: 4 hr 47 min 5 sec) 
Finished CPU 0 instructions: 200000000 cycles: 1191894574 cumulative IPC: 0.1678 (Simulation time: 4 hr 48 min 38 sec) 
Heartbeat CPU 3 instructions: 1110000001 cycles: 1226624608 heartbeat IPC: 0.849124 cumulative IPC: 0.85251 (Simulation time: 4 hr 49 min 55 sec) 
Heartbeat CPU 1 instructions: 630000000 cycles: 1231315221 heartbeat IPC: 0.468968 cumulative IPC: 0.448919 (Simulation time: 4 hr 51 min 1 sec) 
Heartbeat CPU 3 instructions: 1120000000 cycles: 1238646151 heartbeat IPC: 0.83184 cumulative IPC: 0.852304 (Simulation time: 4 hr 52 min 39 sec) 
Heartbeat CPU 0 instructions: 260000000 cycles: 1238848040 heartbeat IPC: 0.172643 cumulative IPC: 0.167919 (Simulation time: 4 hr 52 min 42 sec) 
Heartbeat CPU 3 instructions: 1130000001 cycles: 1250497414 heartbeat IPC: 0.843792 cumulative IPC: 0.852222 (Simulation time: 4 hr 55 min 22 sec) 
Heartbeat CPU 1 instructions: 640000002 cycles: 1253386265 heartbeat IPC: 0.453082 cumulative IPC: 0.448994 (Simulation time: 4 hr 56 min 0 sec) 
Heartbeat CPU 3 instructions: 1140000000 cycles: 1262091099 heartbeat IPC: 0.862538 cumulative IPC: 0.852319 (Simulation time: 4 hr 58 min 5 sec) 
Heartbeat CPU 3 instructions: 1150000001 cycles: 1273847499 heartbeat IPC: 0.850601 cumulative IPC: 0.852302 (Simulation time: 5 hr 0 min 45 sec) 
Heartbeat CPU 1 instructions: 650000001 cycles: 1274453007 heartbeat IPC: 0.474682 cumulative IPC: 0.449428 (Simulation time: 5 hr 0 min 53 sec) 
Heartbeat CPU 3 instructions: 1160000001 cycles: 1285605022 heartbeat IPC: 0.850519 cumulative IPC: 0.852286 (Simulation time: 5 hr 3 min 25 sec) 
Heartbeat CPU 1 instructions: 660000000 cycles: 1295913970 heartbeat IPC: 0.465962 cumulative IPC: 0.449709 (Simulation time: 5 hr 5 min 50 sec) 
Heartbeat CPU 2 instructions: 90000000 cycles: 1297095094 heartbeat IPC: 0.0299008 cumulative IPC: 0.0315526 (Simulation time: 5 hr 6 min 5 sec) 
Heartbeat CPU 0 instructions: 270000001 cycles: 1297283093 heartbeat IPC: 0.17113 cumulative IPC: 0.168067 (Simulation time: 5 hr 6 min 7 sec) 
Heartbeat CPU 3 instructions: 1170000001 cycles: 1297330372 heartbeat IPC: 0.852853 cumulative IPC: 0.852291 (Simulation time: 5 hr 6 min 8 sec) 
Heartbeat CPU 3 instructions: 1180000000 cycles: 1308929616 heartbeat IPC: 0.862125 cumulative IPC: 0.85238 (Simulation time: 5 hr 8 min 52 sec) 
Heartbeat CPU 1 instructions: 670000001 cycles: 1317927743 heartbeat IPC: 0.454261 cumulative IPC: 0.449786 (Simulation time: 5 hr 10 min 52 sec) 
Heartbeat CPU 3 instructions: 1190000003 cycles: 1320623987 heartbeat IPC: 0.855112 cumulative IPC: 0.852405 (Simulation time: 5 hr 11 min 27 sec) 
Heartbeat CPU 3 instructions: 1200000000 cycles: 1331921894 heartbeat IPC: 0.885119 cumulative IPC: 0.852689 (Simulation time: 5 hr 14 min 5 sec) 
Heartbeat CPU 1 instructions: 680000000 cycles: 1339115043 heartbeat IPC: 0.471981 cumulative IPC: 0.450145 (Simulation time: 5 hr 15 min 51 sec) 
Heartbeat CPU 3 instructions: 1210000000 cycles: 1343334349 heartbeat IPC: 0.876236 cumulative IPC: 0.852893 (Simulation time: 5 hr 16 min 47 sec) 
Heartbeat CPU 3 instructions: 1220000000 cycles: 1354908506 heartbeat IPC: 0.863994 cumulative IPC: 0.85299 (Simulation time: 5 hr 19 min 32 sec) 
Heartbeat CPU 0 instructions: 280000002 cycles: 1355554190 heartbeat IPC: 0.171612 cumulative IPC: 0.168223 (Simulation time: 5 hr 19 min 39 sec) 
Heartbeat CPU 1 instructions: 690000000 cycles: 1360617991 heartbeat IPC: 0.465053 cumulative IPC: 0.450386 (Simulation time: 5 hr 20 min 38 sec) 
Heartbeat CPU 3 instructions: 1230000000 cycles: 1366265735 heartbeat IPC: 0.880496 cumulative IPC: 0.853224 (Simulation time: 5 hr 21 min 50 sec) 
Heartbeat CPU 3 instructions: 1240000000 cycles: 1377833482 heartbeat IPC: 0.864473 cumulative IPC: 0.85332 (Simulation time: 5 hr 24 min 16 sec) 
Heartbeat CPU 1 instructions: 700000003 cycles: 1382591117 heartbeat IPC: 0.455102 cumulative IPC: 0.450463 (Simulation time: 5 hr 25 min 17 sec) 
*** Reached end of trace for Core: 3 Repeating trace: ./traces/ligra/ligra_Radii.com-lj.ungraph.gcc_6.3.0_O3.drop_12500M.length_250M.champsimtrace.xz
Heartbeat CPU 3 instructions: 1250000000 cycles: 1389495334 heartbeat IPC: 0.857497 cumulative IPC: 0.853356 (Simulation time: 5 hr 26 min 50 sec) 
Heartbeat CPU 3 instructions: 1260000002 cycles: 1401194767 heartbeat IPC: 0.854742 cumulative IPC: 0.853368 (Simulation time: 5 hr 29 min 26 sec) 
Heartbeat CPU 1 instructions: 710000001 cycles: 1403818892 heartbeat IPC: 0.471081 cumulative IPC: 0.450781 (Simulation time: 5 hr 30 min 3 sec) 
Heartbeat CPU 3 instructions: 1270000000 cycles: 1412861250 heartbeat IPC: 0.857156 cumulative IPC: 0.8534 (Simulation time: 5 hr 32 min 8 sec) 
Heartbeat CPU 0 instructions: 290000000 cycles: 1413644810 heartbeat IPC: 0.172145 cumulative IPC: 0.168388 (Simulation time: 5 hr 32 min 19 sec) 
Heartbeat CPU 3 instructions: 1280000003 cycles: 1424818728 heartbeat IPC: 0.836297 cumulative IPC: 0.853253 (Simulation time: 5 hr 34 min 42 sec) 
Heartbeat CPU 1 instructions: 720000000 cycles: 1425517148 heartbeat IPC: 0.460866 cumulative IPC: 0.450938 (Simulation time: 5 hr 34 min 50 sec) 
Heartbeat CPU 3 instructions: 1290000001 cycles: 1436774115 heartbeat IPC: 0.836443 cumulative IPC: 0.85311 (Simulation time: 5 hr 37 min 6 sec) 
Heartbeat CPU 1 instructions: 730000000 cycles: 1447091147 heartbeat IPC: 0.463521 cumulative IPC: 0.451129 (Simulation time: 5 hr 39 min 16 sec) 
Heartbeat CPU 3 instructions: 1300000001 cycles: 1448750574 heartbeat IPC: 0.834971 cumulative IPC: 0.852957 (Simulation time: 5 hr 39 min 39 sec) 
Heartbeat CPU 3 instructions: 1310000003 cycles: 1460734093 heartbeat IPC: 0.83448 cumulative IPC: 0.852803 (Simulation time: 5 hr 42 min 7 sec) 
Heartbeat CPU 1 instructions: 740000003 cycles: 1468333235 heartbeat IPC: 0.470764 cumulative IPC: 0.451419 (Simulation time: 5 hr 43 min 48 sec) 
Heartbeat CPU 0 instructions: 300000001 cycles: 1472560579 heartbeat IPC: 0.169734 cumulative IPC: 0.168443 (Simulation time: 5 hr 44 min 44 sec) 
Heartbeat CPU 3 instructions: 1320000000 cycles: 1472646198 heartbeat IPC: 0.839482 cumulative IPC: 0.852693 (Simulation time: 5 hr 44 min 45 sec) 
Heartbeat CPU 3 instructions: 1330000000 cycles: 1484494036 heartbeat IPC: 0.844036 cumulative IPC: 0.852622 (Simulation time: 5 hr 47 min 18 sec) 
Heartbeat CPU 1 instructions: 750000003 cycles: 1490158497 heartbeat IPC: 0.458185 cumulative IPC: 0.45152 (Simulation time: 5 hr 48 min 33 sec) 
Heartbeat CPU 3 instructions: 1340000001 cycles: 1496251455 heartbeat IPC: 0.850527 cumulative IPC: 0.852606 (Simulation time: 5 hr 49 min 46 sec) 
Heartbeat CPU 3 instructions: 1350000003 cycles: 1508007773 heartbeat IPC: 0.850607 cumulative IPC: 0.85259 (Simulation time: 5 hr 52 min 9 sec) 
Heartbeat CPU 1 instructions: 760000001 cycles: 1518125259 heartbeat IPC: 0.357567 cumulative IPC: 0.449755 (Simulation time: 5 hr 54 min 19 sec) 
Heartbeat CPU 3 instructions: 1360000001 cycles: 1519774308 heartbeat IPC: 0.849868 cumulative IPC: 0.852568 (Simulation time: 5 hr 54 min 40 sec) 
Heartbeat CPU 3 instructions: 1370000000 cycles: 1531788633 heartbeat IPC: 0.83234 cumulative IPC: 0.852406 (Simulation time: 5 hr 57 min 11 sec) 
Heartbeat CPU 0 instructions: 310000001 cycles: 1534604745 heartbeat IPC: 0.161176 cumulative IPC: 0.168143 (Simulation time: 5 hr 57 min 43 sec) 
Heartbeat CPU 1 instructions: 770000000 cycles: 1542041875 heartbeat IPC: 0.418119 cumulative IPC: 0.449255 (Simulation time: 5 hr 59 min 3 sec) 
Heartbeat CPU 3 instructions: 1380000001 cycles: 1543636165 heartbeat IPC: 0.844058 cumulative IPC: 0.852341 (Simulation time: 5 hr 59 min 21 sec) 
Heartbeat CPU 3 instructions: 1390000000 cycles: 1555238747 heartbeat IPC: 0.861877 cumulative IPC: 0.852414 (Simulation time: 6 hr 1 min 33 sec) 
Heartbeat CPU 1 instructions: 780000001 cycles: 1563167141 heartbeat IPC: 0.473367 cumulative IPC: 0.449587 (Simulation time: 6 hr 3 min 24 sec) 
Heartbeat CPU 3 instructions: 1400000001 cycles: 1567010590 heartbeat IPC: 0.849485 cumulative IPC: 0.852391 (Simulation time: 6 hr 4 min 18 sec) 
Heartbeat CPU 3 instructions: 1410000001 cycles: 1578756599 heartbeat IPC: 0.851353 cumulative IPC: 0.852383 (Simulation time: 6 hr 6 min 57 sec) 
Heartbeat CPU 1 instructions: 790000003 cycles: 1585109872 heartbeat IPC: 0.455732 cumulative IPC: 0.449674 (Simulation time: 6 hr 8 min 25 sec) 
Heartbeat CPU 3 instructions: 1420000001 cycles: 1590471478 heartbeat IPC: 0.853615 cumulative IPC: 0.852393 (Simulation time: 6 hr 9 min 38 sec) 
Heartbeat CPU 0 instructions: 320000000 cycles: 1593558008 heartbeat IPC: 0.169626 cumulative IPC: 0.168199 (Simulation time: 6 hr 10 min 19 sec) 
Heartbeat CPU 3 instructions: 1430000000 cycles: 1602071403 heartbeat IPC: 0.862074 cumulative IPC: 0.852464 (Simulation time: 6 hr 12 min 13 sec) 
Heartbeat CPU 1 instructions: 800000000 cycles: 1606550432 heartbeat IPC: 0.466406 cumulative IPC: 0.449901 (Simulation time: 6 hr 13 min 7 sec) 
Heartbeat CPU 3 instructions: 1440000003 cycles: 1613761223 heartbeat IPC: 0.855445 cumulative IPC: 0.852486 (Simulation time: 6 hr 14 min 41 sec) 
Heartbeat CPU 2 instructions: 100000000 cycles: 1623388389 heartbeat IPC: 0.0306473 cumulative IPC: 0.0313672 (Simulation time: 6 hr 16 min 43 sec) 
Heartbeat CPU 3 instructions: 1450000001 cycles: 1625047465 heartbeat IPC: 0.886034 cumulative IPC: 0.852723 (Simulation time: 6 hr 17 min 3 sec) 
Heartbeat CPU 1 instructions: 810000001 cycles: 1627633975 heartbeat IPC: 0.474304 cumulative IPC: 0.450223 (Simulation time: 6 hr 17 min 37 sec) 
Heartbeat CPU 3 instructions: 1460000001 cycles: 1636462674 heartbeat IPC: 0.876024 cumulative IPC: 0.852889 (Simulation time: 6 hr 19 min 36 sec) 
Heartbeat CPU 3 instructions: 1470000000 cycles: 1648047032 heartbeat IPC: 0.863233 cumulative IPC: 0.852963 (Simulation time: 6 hr 22 min 14 sec) 
Heartbeat CPU 1 instructions: 820000001 cycles: 1649767895 heartbeat IPC: 0.451795 cumulative IPC: 0.450245 (Simulation time: 6 hr 22 min 36 sec) 
Heartbeat CPU 0 instructions: 330000000 cycles: 1652807944 heartbeat IPC: 0.168777 cumulative IPC: 0.16822 (Simulation time: 6 hr 23 min 18 sec) 
Heartbeat CPU 3 instructions: 1480000000 cycles: 1659402460 heartbeat IPC: 0.880636 cumulative IPC: 0.853156 (Simulation time: 6 hr 24 min 47 sec) 
Heartbeat CPU 1 instructions: 830000001 cycles: 1670915073 heartbeat IPC: 0.472876 cumulative IPC: 0.450536 (Simulation time: 6 hr 27 min 11 sec) 
Heartbeat CPU 3 instructions: 1490000000 cycles: 1670974345 heartbeat IPC: 0.864163 cumulative IPC: 0.853233 (Simulation time: 6 hr 27 min 12 sec) 
*** Reached end of trace for Core: 3 Repeating trace: ./traces/ligra/ligra_Radii.com-lj.ungraph.gcc_6.3.0_O3.drop_12500M.length_250M.champsimtrace.xz
Heartbeat CPU 3 instructions: 1500000000 cycles: 1682635956 heartbeat IPC: 0.857514 cumulative IPC: 0.853263 (Simulation time: 6 hr 29 min 37 sec) 
Heartbeat CPU 1 instructions: 840000003 cycles: 1692114322 heartbeat IPC: 0.471715 cumulative IPC: 0.450806 (Simulation time: 6 hr 31 min 30 sec) 
Heartbeat CPU 3 instructions: 1510000002 cycles: 1694323814 heartbeat IPC: 0.855589 cumulative IPC: 0.85328 (Simulation time: 6 hr 31 min 58 sec) 
Heartbeat CPU 3 instructions: 1520000000 cycles: 1705982653 heartbeat IPC: 0.857718 cumulative IPC: 0.853311 (Simulation time: 6 hr 34 min 13 sec) 
Heartbeat CPU 0 instructions: 340000001 cycles: 1713385862 heartbeat IPC: 0.165077 cumulative IPC: 0.168107 (Simulation time: 6 hr 35 min 41 sec) 
Heartbeat CPU 1 instructions: 850000003 cycles: 1713852100 heartbeat IPC: 0.460029 cumulative IPC: 0.450925 (Simulation time: 6 hr 35 min 45 sec) 
Heartbeat CPU 3 instructions: 1530000003 cycles: 1717952113 heartbeat IPC: 0.83546 cumulative IPC: 0.853184 (Simulation time: 6 hr 36 min 39 sec) 
Heartbeat CPU 3 instructions: 1540000000 cycles: 1729919411 heartbeat IPC: 0.83561 cumulative IPC: 0.85306 (Simulation time: 6 hr 39 min 16 sec) 
Heartbeat CPU 1 instructions: 860000002 cycles: 1734868767 heartbeat IPC: 0.475813 cumulative IPC: 0.451232 (Simulation time: 6 hr 40 min 20 sec) 
Heartbeat CPU 3 instructions: 1550000001 cycles: 1741895518 heartbeat IPC: 0.834996 cumulative IPC: 0.852934 (Simulation time: 6 hr 41 min 54 sec) 
Heartbeat CPU 3 instructions: 1560000003 cycles: 1753877677 heartbeat IPC: 0.834574 cumulative IPC: 0.852806 (Simulation time: 6 hr 44 min 30 sec) 
Heartbeat CPU 1 instructions: 870000003 cycles: 1756366390 heartbeat IPC: 0.465168 cumulative IPC: 0.451405 (Simulation time: 6 hr 45 min 4 sec) 
Heartbeat CPU 3 instructions: 1570000000 cycles: 1765779491 heartbeat IPC: 0.840208 cumulative IPC: 0.85272 (Simulation time: 6 hr 47 min 11 sec) 
Heartbeat CPU 0 instructions: 350000003 cycles: 1773314385 heartbeat IPC: 0.166865 cumulative IPC: 0.168064 (Simulation time: 6 hr 48 min 51 sec) 
Heartbeat CPU 3 instructions: 1580000000 cycles: 1777624827 heartbeat IPC: 0.844214 cumulative IPC: 0.852662 (Simulation time: 6 hr 49 min 52 sec) 
Heartbeat CPU 1 instructions: 880000000 cycles: 1778078309 heartbeat IPC: 0.460576 cumulative IPC: 0.451519 (Simulation time: 6 hr 49 min 58 sec) 
Heartbeat CPU 3 instructions: 1590000001 cycles: 1789371273 heartbeat IPC: 0.851321 cumulative IPC: 0.852654 (Simulation time: 6 hr 52 min 29 sec) 
Heartbeat CPU 1 instructions: 890000001 cycles: 1799319018 heartbeat IPC: 0.470794 cumulative IPC: 0.451751 (Simulation time: 6 hr 54 min 50 sec) 
Heartbeat CPU 3 instructions: 1600000003 cycles: 1801119604 heartbeat IPC: 0.851185 cumulative IPC: 0.852644 (Simulation time: 6 hr 55 min 15 sec) 
Heartbeat CPU 3 instructions: 1610000001 cycles: 1812892479 heartbeat IPC: 0.84941 cumulative IPC: 0.852622 (Simulation time: 6 hr 58 min 2 sec) 
Heartbeat CPU 1 instructions: 900000000 cycles: 1821076883 heartbeat IPC: 0.459604 cumulative IPC: 0.451846 (Simulation time: 6 hr 59 min 41 sec) 
Heartbeat CPU 3 instructions: 1620000000 cycles: 1824913150 heartbeat IPC: 0.8319 cumulative IPC: 0.852484 (Simulation time: 7 hr 0 min 36 sec) 
Heartbeat CPU 0 instructions: 360000003 cycles: 1833115544 heartbeat IPC: 0.167221 cumulative IPC: 0.168036 (Simulation time: 7 hr 2 min 20 sec) 
Heartbeat CPU 3 instructions: 1630000001 cycles: 1836768607 heartbeat IPC: 0.843494 cumulative IPC: 0.852425 (Simulation time: 7 hr 3 min 11 sec) 
Heartbeat CPU 1 instructions: 910000003 cycles: 1842412534 heartbeat IPC: 0.468699 cumulative IPC: 0.452044 (Simulation time: 7 hr 4 min 16 sec) 
Heartbeat CPU 3 instructions: 1640000000 cycles: 1848359658 heartbeat IPC: 0.862734 cumulative IPC: 0.85249 (Simulation time: 7 hr 5 min 25 sec) 
Heartbeat CPU 3 instructions: 1650000000 cycles: 1860129807 heartbeat IPC: 0.849607 cumulative IPC: 0.852472 (Simulation time: 7 hr 8 min 2 sec) 
Heartbeat CPU 1 instructions: 920000000 cycles: 1863415018 heartbeat IPC: 0.476134 cumulative IPC: 0.45232 (Simulation time: 7 hr 8 min 48 sec) 
Heartbeat CPU 3 instructions: 1660000001 cycles: 1871875822 heartbeat IPC: 0.851353 cumulative IPC: 0.852465 (Simulation time: 7 hr 10 min 51 sec) 
Heartbeat CPU 3 instructions: 1670000001 cycles: 1883596598 heartbeat IPC: 0.853186 cumulative IPC: 0.852469 (Simulation time: 7 hr 13 min 30 sec) 
Heartbeat CPU 1 instructions: 930000001 cycles: 1885052041 heartbeat IPC: 0.462171 cumulative IPC: 0.452435 (Simulation time: 7 hr 13 min 49 sec) 
Heartbeat CPU 0 instructions: 370000001 cycles: 1895015830 heartbeat IPC: 0.16155 cumulative IPC: 0.167821 (Simulation time: 7 hr 15 min 55 sec) 
Heartbeat CPU 3 instructions: 1680000000 cycles: 1895203197 heartbeat IPC: 0.861579 cumulative IPC: 0.852526 (Simulation time: 7 hr 15 min 57 sec) 
Heartbeat CPU 1 instructions: 940000001 cycles: 1906378385 heartbeat IPC: 0.468904 cumulative IPC: 0.452622 (Simulation time: 7 hr 18 min 23 sec) 
Heartbeat CPU 3 instructions: 1690000003 cycles: 1906890096 heartbeat IPC: 0.855659 cumulative IPC: 0.852545 (Simulation time: 7 hr 18 min 30 sec) 
Heartbeat CPU 3 instructions: 1700000001 cycles: 1918183191 heartbeat IPC: 0.885497 cumulative IPC: 0.852742 (Simulation time: 7 hr 20 min 54 sec) 
Heartbeat CPU 1 instructions: 950000000 cycles: 1927548904 heartbeat IPC: 0.472355 cumulative IPC: 0.452842 (Simulation time: 7 hr 22 min 59 sec) 
Heartbeat CPU 3 instructions: 1710000001 cycles: 1929600103 heartbeat IPC: 0.875894 cumulative IPC: 0.852882 (Simulation time: 7 hr 23 min 29 sec) 
Heartbeat CPU 2 instructions: 110000000 cycles: 1934820597 heartbeat IPC: 0.0321097 cumulative IPC: 0.0314886 (Simulation time: 7 hr 24 min 36 sec) 
Heartbeat CPU 3 instructions: 1720000000 cycles: 1941179204 heartbeat IPC: 0.863625 cumulative IPC: 0.852947 (Simulation time: 7 hr 26 min 1 sec) 
Heartbeat CPU 1 instructions: 960000002 cycles: 1949225240 heartbeat IPC: 0.461333 cumulative IPC: 0.452938 (Simulation time: 7 hr 27 min 52 sec) 
Heartbeat CPU 3 instructions: 1730000000 cycles: 1952530041 heartbeat IPC: 0.880992 cumulative IPC: 0.853112 (Simulation time: 7 hr 28 min 35 sec) 
Heartbeat CPU 0 instructions: 380000000 cycles: 1957150512 heartbeat IPC: 0.160941 cumulative IPC: 0.167599 (Simulation time: 7 hr 29 min 33 sec) 
Heartbeat CPU 3 instructions: 1740000000 cycles: 1964096952 heartbeat IPC: 0.864535 cumulative IPC: 0.85318 (Simulation time: 7 hr 31 min 10 sec) 
Heartbeat CPU 1 instructions: 970000001 cycles: 1970641785 heartbeat IPC: 0.466929 cumulative IPC: 0.453092 (Simulation time: 7 hr 32 min 36 sec) 
*** Reached end of trace for Core: 3 Repeating trace: ./traces/ligra/ligra_Radii.com-lj.ungraph.gcc_6.3.0_O3.drop_12500M.length_250M.champsimtrace.xz
Heartbeat CPU 3 instructions: 1750000000 cycles: 1975751542 heartbeat IPC: 0.858031 cumulative IPC: 0.853209 (Simulation time: 7 hr 33 min 47 sec) 
Heartbeat CPU 3 instructions: 1760000000 cycles: 1987426770 heartbeat IPC: 0.856514 cumulative IPC: 0.853229 (Simulation time: 7 hr 36 min 31 sec) 
Heartbeat CPU 1 instructions: 980000001 cycles: 1991774402 heartbeat IPC: 0.473202 cumulative IPC: 0.453309 (Simulation time: 7 hr 37 min 26 sec) 
Heartbeat CPU 3 instructions: 1770000003 cycles: 1999080484 heartbeat IPC: 0.858096 cumulative IPC: 0.853258 (Simulation time: 7 hr 38 min 57 sec) 
Heartbeat CPU 3 instructions: 1780000003 cycles: 2011046581 heartbeat IPC: 0.835694 cumulative IPC: 0.853152 (Simulation time: 7 hr 41 min 37 sec) 
Heartbeat CPU 1 instructions: 990000000 cycles: 2013642021 heartbeat IPC: 0.457297 cumulative IPC: 0.453353 (Simulation time: 7 hr 42 min 11 sec) 
Heartbeat CPU 0 instructions: 390000001 cycles: 2018467599 heartbeat IPC: 0.163087 cumulative IPC: 0.16746 (Simulation time: 7 hr 43 min 13 sec) 
Heartbeat CPU 3 instructions: 1790000001 cycles: 2023002530 heartbeat IPC: 0.836404 cumulative IPC: 0.853052 (Simulation time: 7 hr 44 min 7 sec) 
Heartbeat CPU 1 instructions: 1000000000 cycles: 2034699050 heartbeat IPC: 0.474901 cumulative IPC: 0.453579 (Simulation time: 7 hr 46 min 35 sec) 
Heartbeat CPU 3 instructions: 1800000001 cycles: 2034987262 heartbeat IPC: 0.834395 cumulative IPC: 0.85294 (Simulation time: 7 hr 46 min 39 sec) 
Heartbeat CPU 3 instructions: 1810000003 cycles: 2046967008 heartbeat IPC: 0.834742 cumulative IPC: 0.852832 (Simulation time: 7 hr 49 min 27 sec) 
Heartbeat CPU 1 instructions: 1010000001 cycles: 2055864726 heartbeat IPC: 0.472463 cumulative IPC: 0.453776 (Simulation time: 7 hr 51 min 35 sec) 
Heartbeat CPU 3 instructions: 1820000000 cycles: 2058872741 heartbeat IPC: 0.839931 cumulative IPC: 0.852756 (Simulation time: 7 hr 52 min 15 sec) 
Heartbeat CPU 3 instructions: 1830000000 cycles: 2070709747 heartbeat IPC: 0.844808 cumulative IPC: 0.85271 (Simulation time: 7 hr 54 min 56 sec) 
Heartbeat CPU 1 instructions: 1020000002 cycles: 2077976416 heartbeat IPC: 0.452249 cumulative IPC: 0.45376 (Simulation time: 7 hr 56 min 27 sec) 
Heartbeat CPU 0 instructions: 400000000 cycles: 2078207111 heartbeat IPC: 0.167393 cumulative IPC: 0.167458 (Simulation time: 7 hr 56 min 30 sec) 
Heartbeat CPU 3 instructions: 1840000001 cycles: 2082452971 heartbeat IPC: 0.851555 cumulative IPC: 0.852704 (Simulation time: 7 hr 57 min 26 sec) 
Heartbeat CPU 3 instructions: 1850000003 cycles: 2094222988 heartbeat IPC: 0.849617 cumulative IPC: 0.852686 (Simulation time: 7 hr 59 min 49 sec) 
Heartbeat CPU 1 instructions: 1030000002 cycles: 2099153734 heartbeat IPC: 0.472203 cumulative IPC: 0.453949 (Simulation time: 8 hr 1 min 2 sec) 
Heartbeat CPU 3 instructions: 1860000001 cycles: 2105997427 heartbeat IPC: 0.849297 cumulative IPC: 0.852667 (Simulation time: 8 hr 2 min 31 sec) 
Heartbeat CPU 3 instructions: 1870000000 cycles: 2118016049 heartbeat IPC: 0.832042 cumulative IPC: 0.852548 (Simulation time: 8 hr 4 min 51 sec) 
Heartbeat CPU 1 instructions: 1040000002 cycles: 2120396591 heartbeat IPC: 0.470746 cumulative IPC: 0.454119 (Simulation time: 8 hr 5 min 17 sec) 
Heartbeat CPU 3 instructions: 1880000001 cycles: 2129873258 heartbeat IPC: 0.843369 cumulative IPC: 0.852496 (Simulation time: 8 hr 7 min 21 sec) 
Heartbeat CPU 0 instructions: 410000000 cycles: 2136314895 heartbeat IPC: 0.172094 cumulative IPC: 0.167586 (Simulation time: 8 hr 8 min 43 sec) 
Heartbeat CPU 3 instructions: 1890000000 cycles: 2141479470 heartbeat IPC: 0.861607 cumulative IPC: 0.852546 (Simulation time: 8 hr 9 min 45 sec) 
Heartbeat CPU 1 instructions: 1050000001 cycles: 2142577778 heartbeat IPC: 0.450832 cumulative IPC: 0.454085 (Simulation time: 8 hr 10 min 1 sec) 
Heartbeat CPU 3 instructions: 1900000001 cycles: 2153245430 heartbeat IPC: 0.849909 cumulative IPC: 0.852532 (Simulation time: 8 hr 12 min 17 sec) 
Heartbeat CPU 1 instructions: 1060000000 cycles: 2163642698 heartbeat IPC: 0.474723 cumulative IPC: 0.454289 (Simulation time: 8 hr 14 min 43 sec) 
Heartbeat CPU 3 instructions: 1910000001 cycles: 2164997337 heartbeat IPC: 0.850926 cumulative IPC: 0.852523 (Simulation time: 8 hr 15 min 2 sec) 
Heartbeat CPU 3 instructions: 1920000001 cycles: 2176712968 heartbeat IPC: 0.853561 cumulative IPC: 0.852529 (Simulation time: 8 hr 17 min 31 sec) 
Heartbeat CPU 1 instructions: 1070000003 cycles: 2184756966 heartbeat IPC: 0.473614 cumulative IPC: 0.454478 (Simulation time: 8 hr 19 min 17 sec) 
Heartbeat CPU 3 instructions: 1930000000 cycles: 2188314300 heartbeat IPC: 0.86197 cumulative IPC: 0.852579 (Simulation time: 8 hr 20 min 5 sec) 
Heartbeat CPU 0 instructions: 420000000 cycles: 2196402172 heartbeat IPC: 0.166425 cumulative IPC: 0.167554 (Simulation time: 8 hr 21 min 40 sec) 
Heartbeat CPU 3 instructions: 1940000003 cycles: 2200000458 heartbeat IPC: 0.855713 cumulative IPC: 0.852596 (Simulation time: 8 hr 22 min 29 sec) 
Heartbeat CPU 1 instructions: 1080000000 cycles: 2206751989 heartbeat IPC: 0.454648 cumulative IPC: 0.45448 (Simulation time: 8 hr 23 min 44 sec) 
Heartbeat CPU 3 instructions: 1950000001 cycles: 2211283331 heartbeat IPC: 0.886299 cumulative IPC: 0.85277 (Simulation time: 8 hr 24 min 40 sec) 
Heartbeat CPU 3 instructions: 1960000001 cycles: 2222689929 heartbeat IPC: 0.876686 cumulative IPC: 0.852895 (Simulation time: 8 hr 27 min 2 sec) 
Heartbeat CPU 1 instructions: 1090000000 cycles: 2227939221 heartbeat IPC: 0.471982 cumulative IPC: 0.454648 (Simulation time: 8 hr 28 min 5 sec) 
Heartbeat CPU 3 instructions: 1970000000 cycles: 2234270305 heartbeat IPC: 0.86353 cumulative IPC: 0.852951 (Simulation time: 8 hr 29 min 20 sec) 
Heartbeat CPU 2 instructions: 120000002 cycles: 2238097334 heartbeat IPC: 0.0329732 cumulative IPC: 0.0316924 (Simulation time: 8 hr 30 min 2 sec) 
Heartbeat CPU 3 instructions: 1980000000 cycles: 2245628939 heartbeat IPC: 0.880388 cumulative IPC: 0.853091 (Simulation time: 8 hr 31 min 36 sec) 
Heartbeat CPU 1 instructions: 1100000000 cycles: 2249067688 heartbeat IPC: 0.473295 cumulative IPC: 0.454826 (Simulation time: 8 hr 32 min 16 sec) 
Heartbeat CPU 0 instructions: 430000002 cycles: 2256782860 heartbeat IPC: 0.165616 cumulative IPC: 0.167501 (Simulation time: 8 hr 33 min 38 sec) 
Heartbeat CPU 3 instructions: 1990000000 cycles: 2257190087 heartbeat IPC: 0.864966 cumulative IPC: 0.853153 (Simulation time: 8 hr 33 min 42 sec) 
*** Reached end of trace for Core: 3 Repeating trace: ./traces/ligra/ligra_Radii.com-lj.ungraph.gcc_6.3.0_O3.drop_12500M.length_250M.champsimtrace.xz
Heartbeat CPU 3 instructions: 2000000000 cycles: 2268842980 heartbeat IPC: 0.858156 cumulative IPC: 0.853179 (Simulation time: 8 hr 35 min 53 sec) 
Heartbeat CPU 1 instructions: 1110000000 cycles: 2270978984 heartbeat IPC: 0.456386 cumulative IPC: 0.454841 (Simulation time: 8 hr 36 min 18 sec) 
Heartbeat CPU 3 instructions: 2010000002 cycles: 2280529882 heartbeat IPC: 0.855659 cumulative IPC: 0.853192 (Simulation time: 8 hr 38 min 24 sec) 
Heartbeat CPU 1 instructions: 1120000003 cycles: 2292024829 heartbeat IPC: 0.475153 cumulative IPC: 0.45503 (Simulation time: 8 hr 40 min 51 sec) 
Heartbeat CPU 3 instructions: 2020000000 cycles: 2292186533 heartbeat IPC: 0.857879 cumulative IPC: 0.853216 (Simulation time: 8 hr 40 min 54 sec) 
Heartbeat CPU 3 instructions: 2030000003 cycles: 2304143493 heartbeat IPC: 0.836333 cumulative IPC: 0.853127 (Simulation time: 8 hr 43 min 14 sec) 
Heartbeat CPU 1 instructions: 1130000000 cycles: 2313296782 heartbeat IPC: 0.470102 cumulative IPC: 0.45517 (Simulation time: 8 hr 45 min 4 sec) 
Heartbeat CPU 3 instructions: 2040000001 cycles: 2316093080 heartbeat IPC: 0.836849 cumulative IPC: 0.853042 (Simulation time: 8 hr 45 min 37 sec) 
Heartbeat CPU 0 instructions: 440000000 cycles: 2316631018 heartbeat IPC: 0.167089 cumulative IPC: 0.167491 (Simulation time: 8 hr 45 min 44 sec) 
Heartbeat CPU 3 instructions: 2050000001 cycles: 2328076481 heartbeat IPC: 0.834488 cumulative IPC: 0.852945 (Simulation time: 8 hr 47 min 50 sec) 
Heartbeat CPU 1 instructions: 1140000000 cycles: 2335029717 heartbeat IPC: 0.460131 cumulative IPC: 0.455217 (Simulation time: 8 hr 49 min 10 sec) 
Heartbeat CPU 3 instructions: 2060000003 cycles: 2340040038 heartbeat IPC: 0.835872 cumulative IPC: 0.852857 (Simulation time: 8 hr 50 min 2 sec) 
Heartbeat CPU 3 instructions: 2070000000 cycles: 2351888805 heartbeat IPC: 0.843969 cumulative IPC: 0.852812 (Simulation time: 8 hr 52 min 10 sec) 
Heartbeat CPU 1 instructions: 1150000001 cycles: 2355149419 heartbeat IPC: 0.497025 cumulative IPC: 0.455579 (Simulation time: 8 hr 52 min 51 sec) 
Heartbeat CPU 3 instructions: 2080000000 cycles: 2363667168 heartbeat IPC: 0.849014 cumulative IPC: 0.852793 (Simulation time: 8 hr 54 min 40 sec) 
Heartbeat CPU 1 instructions: 1160000002 cycles: 2375167375 heartbeat IPC: 0.499552 cumulative IPC: 0.455954 (Simulation time: 8 hr 57 min 1 sec) 
Heartbeat CPU 3 instructions: 2090000000 cycles: 2375349540 heartbeat IPC: 0.855991 cumulative IPC: 0.852808 (Simulation time: 8 hr 57 min 3 sec) 
Heartbeat CPU 0 instructions: 450000000 cycles: 2385841332 heartbeat IPC: 0.144487 cumulative IPC: 0.166815 (Simulation time: 8 hr 59 min 34 sec) 
Heartbeat CPU 3 instructions: 2100000003 cycles: 2387085850 heartbeat IPC: 0.852057 cumulative IPC: 0.852805 (Simulation time: 8 hr 59 min 51 sec) 
Heartbeat CPU 1 instructions: 1170000002 cycles: 2396264724 heartbeat IPC: 0.473993 cumulative IPC: 0.456115 (Simulation time: 9 hr 2 min 9 sec) 
Heartbeat CPU 3 instructions: 2110000001 cycles: 2398840018 heartbeat IPC: 0.850762 cumulative IPC: 0.852795 (Simulation time: 9 hr 2 min 49 sec) 
Heartbeat CPU 3 instructions: 2120000000 cycles: 2410833044 heartbeat IPC: 0.833818 cumulative IPC: 0.852699 (Simulation time: 9 hr 5 min 55 sec) 
Heartbeat CPU 1 instructions: 1180000002 cycles: 2416816655 heartbeat IPC: 0.486572 cumulative IPC: 0.456377 (Simulation time: 9 hr 7 min 19 sec) 
Heartbeat CPU 3 instructions: 2130000001 cycles: 2422668168 heartbeat IPC: 0.844943 cumulative IPC: 0.852661 (Simulation time: 9 hr 8 min 45 sec) 
Heartbeat CPU 0 instructions: 460000003 cycles: 2424938539 heartbeat IPC: 0.255773 cumulative IPC: 0.168267 (Simulation time: 9 hr 9 min 20 sec) 
Heartbeat CPU 3 instructions: 2140000000 cycles: 2434224333 heartbeat IPC: 0.865339 cumulative IPC: 0.852722 (Simulation time: 9 hr 11 min 46 sec) 
Heartbeat CPU 2 instructions: 130000003 cycles: 2434335580 heartbeat IPC: 0.0509585 cumulative IPC: 0.0332645 (Simulation time: 9 hr 11 min 47 sec) 
Heartbeat CPU 1 instructions: 1190000000 cycles: 2437282745 heartbeat IPC: 0.488613 cumulative IPC: 0.456651 (Simulation time: 9 hr 12 min 29 sec) 
Heartbeat CPU 0 instructions: 470000003 cycles: 2445599053 heartbeat IPC: 0.484015 cumulative IPC: 0.170967 (Simulation time: 9 hr 14 min 36 sec) 
Heartbeat CPU 3 instructions: 2150000001 cycles: 2445928319 heartbeat IPC: 0.85441 cumulative IPC: 0.85273 (Simulation time: 9 hr 14 min 41 sec) 
Heartbeat CPU 1 instructions: 1200000003 cycles: 2457396817 heartbeat IPC: 0.497165 cumulative IPC: 0.456987 (Simulation time: 9 hr 18 min 0 sec) 
Heartbeat CPU 3 instructions: 2160000001 cycles: 2457619774 heartbeat IPC: 0.855326 cumulative IPC: 0.852742 (Simulation time: 9 hr 18 min 4 sec) 
Heartbeat CPU 0 instructions: 480000001 cycles: 2464808473 heartbeat IPC: 0.520578 cumulative IPC: 0.173724 (Simulation time: 9 hr 20 min 4 sec) 
Heartbeat CPU 3 instructions: 2170000001 cycles: 2469274812 heartbeat IPC: 0.857998 cumulative IPC: 0.852767 (Simulation time: 9 hr 21 min 19 sec) 
Heartbeat CPU 1 instructions: 1210000000 cycles: 2477247155 heartbeat IPC: 0.50377 cumulative IPC: 0.457366 (Simulation time: 9 hr 23 min 26 sec) 
Heartbeat CPU 3 instructions: 2180000000 cycles: 2480812297 heartbeat IPC: 0.86674 cumulative IPC: 0.852833 (Simulation time: 9 hr 24 min 29 sec) 
Heartbeat CPU 0 instructions: 490000000 cycles: 2481473052 heartbeat IPC: 0.600075 cumulative IPC: 0.176622 (Simulation time: 9 hr 24 min 41 sec) 
Heartbeat CPU 3 instructions: 2190000003 cycles: 2492433003 heartbeat IPC: 0.860533 cumulative IPC: 0.852869 (Simulation time: 9 hr 27 min 36 sec) 
Heartbeat CPU 1 instructions: 1220000000 cycles: 2497539750 heartbeat IPC: 0.492791 cumulative IPC: 0.457657 (Simulation time: 9 hr 28 min 58 sec) 
Heartbeat CPU 0 instructions: 500000003 cycles: 2497600882 heartbeat IPC: 0.620046 cumulative IPC: 0.179519 (Simulation time: 9 hr 28 min 59 sec) 
Heartbeat CPU 3 instructions: 2200000000 cycles: 2503660832 heartbeat IPC: 0.890644 cumulative IPC: 0.853041 (Simulation time: 9 hr 30 min 44 sec) 
Heartbeat CPU 3 instructions: 2210000001 cycles: 2515016559 heartbeat IPC: 0.880613 cumulative IPC: 0.853167 (Simulation time: 9 hr 33 min 58 sec) 
Heartbeat CPU 0 instructions: 510000001 cycles: 2515179415 heartbeat IPC: 0.568876 cumulative IPC: 0.182273 (Simulation time: 9 hr 34 min 1 sec) 
Heartbeat CPU 1 instructions: 1230000002 cycles: 2517802782 heartbeat IPC: 0.49351 cumulative IPC: 0.457949 (Simulation time: 9 hr 34 min 47 sec) 
Heartbeat CPU 3 instructions: 2220000000 cycles: 2526528452 heartbeat IPC: 0.868667 cumulative IPC: 0.853238 (Simulation time: 9 hr 37 min 22 sec) 
Heartbeat CPU 0 instructions: 520000000 cycles: 2531858790 heartbeat IPC: 0.599543 cumulative IPC: 0.185054 (Simulation time: 9 hr 38 min 54 sec) 
Heartbeat CPU 1 instructions: 1240000001 cycles: 2537686390 heartbeat IPC: 0.502927 cumulative IPC: 0.458306 (Simulation time: 9 hr 40 min 37 sec) 
Heartbeat CPU 3 instructions: 2230000000 cycles: 2537818929 heartbeat IPC: 0.885702 cumulative IPC: 0.853384 (Simulation time: 9 hr 40 min 39 sec) 
Heartbeat CPU 0 instructions: 530000002 cycles: 2547871679 heartbeat IPC: 0.624497 cumulative IPC: 0.187848 (Simulation time: 9 hr 43 min 23 sec) 
Heartbeat CPU 3 instructions: 2240000000 cycles: 2549322209 heartbeat IPC: 0.869317 cumulative IPC: 0.853457 (Simulation time: 9 hr 43 min 50 sec) 
Heartbeat CPU 1 instructions: 1250000000 cycles: 2557569742 heartbeat IPC: 0.502933 cumulative IPC: 0.458657 (Simulation time: 9 hr 46 min 13 sec) 
*** Reached end of trace for Core: 3 Repeating trace: ./traces/ligra/ligra_Radii.com-lj.ungraph.gcc_6.3.0_O3.drop_12500M.length_250M.champsimtrace.xz
Heartbeat CPU 3 instructions: 2250000000 cycles: 2560911491 heartbeat IPC: 0.862866 cumulative IPC: 0.8535 (Simulation time: 9 hr 47 min 17 sec) 
Heartbeat CPU 0 instructions: 540000000 cycles: 2563092998 heartbeat IPC: 0.656973 cumulative IPC: 0.190666 (Simulation time: 9 hr 47 min 57 sec) 
Heartbeat CPU 2 instructions: 140000000 cycles: 2563656646 heartbeat IPC: 0.0773269 cumulative IPC: 0.0355129 (Simulation time: 9 hr 48 min 7 sec) 
Heartbeat CPU 3 instructions: 2260000002 cycles: 2572525763 heartbeat IPC: 0.86101 cumulative IPC: 0.853535 (Simulation time: 9 hr 50 min 35 sec) 
Heartbeat CPU 1 instructions: 1260000002 cycles: 2579026818 heartbeat IPC: 0.466047 cumulative IPC: 0.458719 (Simulation time: 9 hr 52 min 20 sec) 
Heartbeat CPU 0 instructions: 550000000 cycles: 2579214546 heartbeat IPC: 0.620288 cumulative IPC: 0.193382 (Simulation time: 9 hr 52 min 24 sec) 
Heartbeat CPU 3 instructions: 2270000000 cycles: 2584118830 heartbeat IPC: 0.862584 cumulative IPC: 0.853576 (Simulation time: 9 hr 53 min 46 sec) 
Heartbeat CPU 0 instructions: 560000000 cycles: 2594856937 heartbeat IPC: 0.639288 cumulative IPC: 0.196101 (Simulation time: 9 hr 56 min 50 sec) 
Heartbeat CPU 3 instructions: 2280000003 cycles: 2596016979 heartbeat IPC: 0.840467 cumulative IPC: 0.853515 (Simulation time: 9 hr 57 min 10 sec) 
Heartbeat CPU 1 instructions: 1270000003 cycles: 2598821143 heartbeat IPC: 0.505195 cumulative IPC: 0.459077 (Simulation time: 9 hr 57 min 59 sec) 
Heartbeat CPU 3 instructions: 2290000001 cycles: 2607909301 heartbeat IPC: 0.840878 cumulative IPC: 0.853457 (Simulation time: 10 hr 0 min 22 sec) 
Heartbeat CPU 0 instructions: 570000000 cycles: 2610976068 heartbeat IPC: 0.620381 cumulative IPC: 0.19875 (Simulation time: 10 hr 1 min 10 sec) 
Heartbeat CPU 1 instructions: 1280000001 cycles: 2618695967 heartbeat IPC: 0.503149 cumulative IPC: 0.459415 (Simulation time: 10 hr 3 min 12 sec) 
Heartbeat CPU 3 instructions: 2300000001 cycles: 2619820118 heartbeat IPC: 0.839573 cumulative IPC: 0.853393 (Simulation time: 10 hr 3 min 28 sec) 
Heartbeat CPU 0 instructions: 580000000 cycles: 2626689639 heartbeat IPC: 0.636393 cumulative IPC: 0.201398 (Simulation time: 10 hr 5 min 21 sec) 
Heartbeat CPU 3 instructions: 2310000000 cycles: 2631734520 heartbeat IPC: 0.83932 cumulative IPC: 0.853328 (Simulation time: 10 hr 6 min 36 sec) 
Heartbeat CPU 1 instructions: 1290000002 cycles: 2638941470 heartbeat IPC: 0.493937 cumulative IPC: 0.459683 (Simulation time: 10 hr 8 min 33 sec) 
Heartbeat CPU 0 instructions: 590000002 cycles: 2642450632 heartbeat IPC: 0.634478 cumulative IPC: 0.20401 (Simulation time: 10 hr 9 min 34 sec) 
Heartbeat CPU 3 instructions: 2320000000 cycles: 2643578303 heartbeat IPC: 0.844325 cumulative IPC: 0.853288 (Simulation time: 10 hr 9 min 53 sec) 
Heartbeat CPU 3 instructions: 2330000000 cycles: 2655353585 heartbeat IPC: 0.849237 cumulative IPC: 0.853269 (Simulation time: 10 hr 13 min 1 sec) 
Heartbeat CPU 0 instructions: 600000000 cycles: 2658041891 heartbeat IPC: 0.641385 cumulative IPC: 0.206604 (Simulation time: 10 hr 13 min 43 sec) 
Heartbeat CPU 1 instructions: 1300000003 cycles: 2658805204 heartbeat IPC: 0.50343 cumulative IPC: 0.460013 (Simulation time: 10 hr 13 min 54 sec) 
Heartbeat CPU 3 instructions: 2340000001 cycles: 2667035765 heartbeat IPC: 0.856005 cumulative IPC: 0.853281 (Simulation time: 10 hr 16 min 2 sec) 
Heartbeat CPU 0 instructions: 610000000 cycles: 2673646801 heartbeat IPC: 0.640824 cumulative IPC: 0.209167 (Simulation time: 10 hr 17 min 46 sec) 
Heartbeat CPU 1 instructions: 1310000003 cycles: 2678666378 heartbeat IPC: 0.503495 cumulative IPC: 0.460339 (Simulation time: 10 hr 19 min 10 sec) 
Heartbeat CPU 3 instructions: 2350000003 cycles: 2678732210 heartbeat IPC: 0.854961 cumulative IPC: 0.853289 (Simulation time: 10 hr 19 min 11 sec) 
Heartbeat CPU 2 instructions: 150000001 cycles: 2681089282 heartbeat IPC: 0.0851552 cumulative IPC: 0.0377114 (Simulation time: 10 hr 19 min 48 sec) 
Heartbeat CPU 0 instructions: 620000001 cycles: 2689437288 heartbeat IPC: 0.633293 cumulative IPC: 0.211684 (Simulation time: 10 hr 21 min 51 sec) 
Heartbeat CPU 3 instructions: 2360000001 cycles: 2690444115 heartbeat IPC: 0.853832 cumulative IPC: 0.853291 (Simulation time: 10 hr 22 min 7 sec) 
Heartbeat CPU 1 instructions: 1320000000 cycles: 2698859577 heartbeat IPC: 0.495216 cumulative IPC: 0.460603 (Simulation time: 10 hr 24 min 6 sec) 
Heartbeat CPU 3 instructions: 2370000000 cycles: 2702394697 heartbeat IPC: 0.836779 cumulative IPC: 0.853217 (Simulation time: 10 hr 24 min 59 sec) 
Heartbeat CPU 0 instructions: 630000002 cycles: 2705456615 heartbeat IPC: 0.624246 cumulative IPC: 0.214154 (Simulation time: 10 hr 25 min 43 sec) 
Heartbeat CPU 3 instructions: 2380000001 cycles: 2714187354 heartbeat IPC: 0.847985 cumulative IPC: 0.853194 (Simulation time: 10 hr 27 min 57 sec) 
Heartbeat CPU 1 instructions: 1330000000 cycles: 2718732634 heartbeat IPC: 0.503194 cumulative IPC: 0.460918 (Simulation time: 10 hr 29 min 17 sec) 
Heartbeat CPU 0 instructions: 640000000 cycles: 2721222706 heartbeat IPC: 0.634273 cumulative IPC: 0.216615 (Simulation time: 10 hr 29 min 52 sec) 
Heartbeat CPU 3 instructions: 2390000000 cycles: 2725727119 heartbeat IPC: 0.866569 cumulative IPC: 0.853252 (Simulation time: 10 hr 31 min 3 sec) 
Heartbeat CPU 0 instructions: 650000001 cycles: 2736980069 heartbeat IPC: 0.634624 cumulative IPC: 0.219047 (Simulation time: 10 hr 33 min 53 sec) 
Heartbeat CPU 3 instructions: 2400000001 cycles: 2737428031 heartbeat IPC: 0.854634 cumulative IPC: 0.853258 (Simulation time: 10 hr 34 min 1 sec) 
Heartbeat CPU 1 instructions: 1340000000 cycles: 2738642073 heartbeat IPC: 0.502274 cumulative IPC: 0.461222 (Simulation time: 10 hr 34 min 21 sec) 
Heartbeat CPU 3 instructions: 2410000001 cycles: 2749116853 heartbeat IPC: 0.855518 cumulative IPC: 0.853267 (Simulation time: 10 hr 37 min 13 sec) 
Heartbeat CPU 0 instructions: 660000000 cycles: 2753321766 heartbeat IPC: 0.611932 cumulative IPC: 0.221404 (Simulation time: 10 hr 38 min 21 sec) 
Heartbeat CPU 1 instructions: 1350000000 cycles: 2758782831 heartbeat IPC: 0.496506 cumulative IPC: 0.461482 (Simulation time: 10 hr 39 min 41 sec) 
Heartbeat CPU 3 instructions: 2420000000 cycles: 2760771982 heartbeat IPC: 0.857991 cumulative IPC: 0.853288 (Simulation time: 10 hr 40 min 9 sec) 
Heartbeat CPU 0 instructions: 670000001 cycles: 2769431028 heartbeat IPC: 0.620761 cumulative IPC: 0.223752 (Simulation time: 10 hr 42 min 13 sec) 
Heartbeat CPU 3 instructions: 2430000000 cycles: 2772312023 heartbeat IPC: 0.866548 cumulative IPC: 0.853343 (Simulation time: 10 hr 42 min 57 sec) 
Heartbeat CPU 1 instructions: 1360000003 cycles: 2778616923 heartbeat IPC: 0.504183 cumulative IPC: 0.46179 (Simulation time: 10 hr 44 min 36 sec) 
Heartbeat CPU 3 instructions: 2440000003 cycles: 2783932957 heartbeat IPC: 0.860516 cumulative IPC: 0.853374 (Simulation time: 10 hr 45 min 57 sec) 
Heartbeat CPU 0 instructions: 680000002 cycles: 2785497539 heartbeat IPC: 0.622413 cumulative IPC: 0.226076 (Simulation time: 10 hr 46 min 24 sec) 
Heartbeat CPU 3 instructions: 2450000001 cycles: 2795158265 heartbeat IPC: 0.890844 cumulative IPC: 0.853526 (Simulation time: 10 hr 48 min 51 sec) 
Heartbeat CPU 2 instructions: 160000001 cycles: 2795968526 heartbeat IPC: 0.0870479 cumulative IPC: 0.03976 (Simulation time: 10 hr 49 min 6 sec) 
Heartbeat CPU 1 instructions: 1370000003 cycles: 2798536201 heartbeat IPC: 0.502026 cumulative IPC: 0.46208 (Simulation time: 10 hr 49 min 50 sec) 
Heartbeat CPU 0 instructions: 690000003 cycles: 2801229418 heartbeat IPC: 0.635652 cumulative IPC: 0.228401 (Simulation time: 10 hr 50 min 28 sec) 
Heartbeat CPU 3 instructions: 2460000001 cycles: 2806511214 heartbeat IPC: 0.880828 cumulative IPC: 0.853637 (Simulation time: 10 hr 51 min 46 sec) 
Heartbeat CPU 0 instructions: 700000002 cycles: 2817243131 heartbeat IPC: 0.624465 cumulative IPC: 0.230676 (Simulation time: 10 hr 54 min 21 sec) 
Heartbeat CPU 3 instructions: 2470000000 cycles: 2818019565 heartbeat IPC: 0.868934 cumulative IPC: 0.8537 (Simulation time: 10 hr 54 min 33 sec) 
Heartbeat CPU 1 instructions: 1380000000 cycles: 2818760695 heartbeat IPC: 0.49445 cumulative IPC: 0.462314 (Simulation time: 10 hr 54 min 44 sec) 
Heartbeat CPU 3 instructions: 2480000000 cycles: 2829309014 heartbeat IPC: 0.885783 cumulative IPC: 0.85383 (Simulation time: 10 hr 57 min 15 sec) 
Heartbeat CPU 0 instructions: 710000000 cycles: 2833068010 heartbeat IPC: 0.631916 cumulative IPC: 0.23294 (Simulation time: 10 hr 58 min 7 sec) 
Heartbeat CPU 1 instructions: 1390000000 cycles: 2838590406 heartbeat IPC: 0.504294 cumulative IPC: 0.462611 (Simulation time: 10 hr 59 min 24 sec) 
Heartbeat CPU 3 instructions: 2490000000 cycles: 2840810342 heartbeat IPC: 0.869465 cumulative IPC: 0.853894 (Simulation time: 10 hr 59 min 54 sec) 
Heartbeat CPU 0 instructions: 720000001 cycles: 2849290581 heartbeat IPC: 0.616425 cumulative IPC: 0.235147 (Simulation time: 11 hr 1 min 45 sec) 
*** Reached end of trace for Core: 3 Repeating trace: ./traces/ligra/ligra_Radii.com-lj.ungraph.gcc_6.3.0_O3.drop_12500M.length_250M.champsimtrace.xz
Heartbeat CPU 3 instructions: 2500000000 cycles: 2852398170 heartbeat IPC: 0.862974 cumulative IPC: 0.853931 (Simulation time: 11 hr 2 min 27 sec) 
Heartbeat CPU 1 instructions: 1400000000 cycles: 2858467938 heartbeat IPC: 0.503081 cumulative IPC: 0.462895 (Simulation time: 11 hr 3 min 50 sec) 
Heartbeat CPU 3 instructions: 2510000002 cycles: 2864012261 heartbeat IPC: 0.861023 cumulative IPC: 0.85396 (Simulation time: 11 hr 5 min 5 sec) 
Heartbeat CPU 0 instructions: 730000002 cycles: 2865498886 heartbeat IPC: 0.616968 cumulative IPC: 0.237329 (Simulation time: 11 hr 5 min 28 sec) 
Heartbeat CPU 3 instructions: 2520000000 cycles: 2875606558 heartbeat IPC: 0.862493 cumulative IPC: 0.853995 (Simulation time: 11 hr 7 min 56 sec) 
Heartbeat CPU 1 instructions: 1410000001 cycles: 2878450277 heartbeat IPC: 0.500442 cumulative IPC: 0.463158 (Simulation time: 11 hr 8 min 36 sec) 
Heartbeat CPU 0 instructions: 740000000 cycles: 2881604688 heartbeat IPC: 0.620894 cumulative IPC: 0.239495 (Simulation time: 11 hr 9 min 24 sec) 
Heartbeat CPU 3 instructions: 2530000000 cycles: 2887506366 heartbeat IPC: 0.84035 cumulative IPC: 0.853938 (Simulation time: 11 hr 10 min 47 sec) 
Heartbeat CPU 1 instructions: 1420000002 cycles: 2898266761 heartbeat IPC: 0.50463 cumulative IPC: 0.463445 (Simulation time: 11 hr 13 min 7 sec) 
Heartbeat CPU 0 instructions: 750000000 cycles: 2898292374 heartbeat IPC: 0.599244 cumulative IPC: 0.241587 (Simulation time: 11 hr 13 min 7 sec) 
Heartbeat CPU 3 instructions: 2540000001 cycles: 2899392201 heartbeat IPC: 0.841338 cumulative IPC: 0.853886 (Simulation time: 11 hr 13 min 21 sec) 
Heartbeat CPU 2 instructions: 170000001 cycles: 2909463641 heartbeat IPC: 0.0881095 cumulative IPC: 0.0416653 (Simulation time: 11 hr 15 min 22 sec) 
Heartbeat CPU 3 instructions: 2550000001 cycles: 2911305199 heartbeat IPC: 0.839419 cumulative IPC: 0.853826 (Simulation time: 11 hr 15 min 51 sec) 
Heartbeat CPU 1 instructions: 1430000000 cycles: 2918290588 heartbeat IPC: 0.499405 cumulative IPC: 0.463694 (Simulation time: 11 hr 17 min 29 sec) 
Heartbeat CPU 0 instructions: 760000000 cycles: 2919493132 heartbeat IPC: 0.471681 cumulative IPC: 0.243275 (Simulation time: 11 hr 17 min 46 sec) 
Heartbeat CPU 3 instructions: 2560000003 cycles: 2923219940 heartbeat IPC: 0.839297 cumulative IPC: 0.853766 (Simulation time: 11 hr 18 min 31 sec) 
Heartbeat CPU 3 instructions: 2570000000 cycles: 2935059090 heartbeat IPC: 0.844655 cumulative IPC: 0.853729 (Simulation time: 11 hr 20 min 48 sec) 
Heartbeat CPU 0 instructions: 770000000 cycles: 2938200173 heartbeat IPC: 0.534558 cumulative IPC: 0.245148 (Simulation time: 11 hr 21 min 22 sec) 
Heartbeat CPU 1 instructions: 1440000003 cycles: 2946037830 heartbeat IPC: 0.360396 cumulative IPC: 0.462711 (Simulation time: 11 hr 23 min 2 sec) 
Heartbeat CPU 3 instructions: 2580000000 cycles: 2946833699 heartbeat IPC: 0.849285 cumulative IPC: 0.853711 (Simulation time: 11 hr 23 min 12 sec) 
Heartbeat CPU 0 instructions: 780000000 cycles: 2957112366 heartbeat IPC: 0.528759 cumulative IPC: 0.24698 (Simulation time: 11 hr 25 min 42 sec) 
Heartbeat CPU 3 instructions: 2590000001 cycles: 2958511918 heartbeat IPC: 0.856295 cumulative IPC: 0.853721 (Simulation time: 11 hr 25 min 59 sec) 
Heartbeat CPU 1 instructions: 1450000001 cycles: 2965853952 heartbeat IPC: 0.50464 cumulative IPC: 0.462994 (Simulation time: 11 hr 27 min 46 sec) 
Heartbeat CPU 3 instructions: 2600000003 cycles: 2970208324 heartbeat IPC: 0.854964 cumulative IPC: 0.853726 (Simulation time: 11 hr 28 min 51 sec) 
Heartbeat CPU 0 instructions: 790000000 cycles: 2975720164 heartbeat IPC: 0.537409 cumulative IPC: 0.248815 (Simulation time: 11 hr 30 min 0 sec) 
Heartbeat CPU 3 instructions: 2610000001 cycles: 2981920303 heartbeat IPC: 0.853827 cumulative IPC: 0.853727 (Simulation time: 11 hr 31 min 15 sec) 
Heartbeat CPU 1 instructions: 1460000003 cycles: 2985755075 heartbeat IPC: 0.502484 cumulative IPC: 0.46326 (Simulation time: 11 hr 32 min 2 sec) 
Heartbeat CPU 3 instructions: 2620000000 cycles: 2993871459 heartbeat IPC: 0.836739 cumulative IPC: 0.853658 (Simulation time: 11 hr 33 min 45 sec) 
Heartbeat CPU 0 instructions: 800000001 cycles: 2994174438 heartbeat IPC: 0.54188 cumulative IPC: 0.250639 (Simulation time: 11 hr 33 min 49 sec) 
Heartbeat CPU 3 instructions: 2630000001 cycles: 3005662086 heartbeat IPC: 0.848131 cumulative IPC: 0.853636 (Simulation time: 11 hr 36 min 22 sec) 
Heartbeat CPU 1 instructions: 1470000002 cycles: 3005756173 heartbeat IPC: 0.499972 cumulative IPC: 0.463507 (Simulation time: 11 hr 36 min 23 sec) 
Heartbeat CPU 0 instructions: 810000001 cycles: 3012885190 heartbeat IPC: 0.534452 cumulative IPC: 0.252419 (Simulation time: 11 hr 38 min 4 sec) 
Heartbeat CPU 3 instructions: 2640000000 cycles: 3017198731 heartbeat IPC: 0.866803 cumulative IPC: 0.853687 (Simulation time: 11 hr 39 min 1 sec) 
Heartbeat CPU 2 instructions: 180000000 cycles: 3019989188 heartbeat IPC: 0.0904768 cumulative IPC: 0.0434692 (Simulation time: 11 hr 39 min 42 sec) 
Heartbeat CPU 1 instructions: 1480000000 cycles: 3025577296 heartbeat IPC: 0.504512 cumulative IPC: 0.463778 (Simulation time: 11 hr 40 min 55 sec) 
Heartbeat CPU 3 instructions: 2650000001 cycles: 3028899396 heartbeat IPC: 0.854652 cumulative IPC: 0.853691 (Simulation time: 11 hr 41 min 35 sec) 
Heartbeat CPU 0 instructions: 820000003 cycles: 3031450625 heartbeat IPC: 0.538635 cumulative IPC: 0.254189 (Simulation time: 11 hr 42 min 7 sec) 
Heartbeat CPU 3 instructions: 2660000001 cycles: 3040589564 heartbeat IPC: 0.85542 cumulative IPC: 0.853698 (Simulation time: 11 hr 44 min 23 sec) 
Heartbeat CPU 1 instructions: 1490000000 cycles: 3045460183 heartbeat IPC: 0.502945 cumulative IPC: 0.464036 (Simulation time: 11 hr 45 min 37 sec) 
Heartbeat CPU 0 instructions: 830000002 cycles: 3050035307 heartbeat IPC: 0.538077 cumulative IPC: 0.255935 (Simulation time: 11 hr 46 min 46 sec) 
Heartbeat CPU 3 instructions: 2670000001 cycles: 3052243352 heartbeat IPC: 0.85809 cumulative IPC: 0.853715 (Simulation time: 11 hr 47 min 21 sec) 
Heartbeat CPU 3 instructions: 2680000000 cycles: 3063783171 heartbeat IPC: 0.866565 cumulative IPC: 0.853764 (Simulation time: 11 hr 50 min 5 sec) 
[...]
LLC PREFETCH  REQUESTED:          0  ISSUED:          0  USEFUL:    1592948  USELESS:   37844236
LLC USEFUL LOAD PREFETCHES:    1592948 PREFETCH ISSUED TO LOWER LEVEL:   39455468  ACCURACY: 4.03733
LLC TIMELY PREFETCHES:    1592948 LATE PREFETCHES: 0 DROPPED PREFETCHES: 0
LLC PREFETCHES SAME FILL-ORIGIN LEVEL: 0 DIFFERENT FILL-ORIGIN LEVEL: 0
LLC AVERAGE MISS LATENCY: 2530.67 cycles
LLC RQ	ACCESS:   64086151	FORWARD:          0	MERGED:          0	TO_CACHE:   64085966
LLC WQ	ACCESS:   35542613	FORWARD:        224	MERGED:          0	TO_CACHE:   35542613
LLC PQ	ACCESS:   71870047	FORWARD:          0	MERGED:          0	TO_CACHE:   71870008

LLC Dense regions hint to LLC: 0

RAW hits: 22
Loads Generated: 77353692
Loads sent to L1D: 77353669
Stores Generated: 3300237
Stores sent to L1D: 3300237
Major fault: 0 Minor fault: 34894
Allocated PAGES: 456447

CPU 3 cumulative IPC: 0.854738 instructions: 200000000 cycles: 233989846
ITLB TOTAL     ACCESS:   36779173  HIT:   36779173  MISS:          0  HIT %:        100  MISS %:          0   MPKI: 0
ITLB LOAD TRANSLATION ACCESS:   36779173  HIT:   36779173  MISS:          0  HIT %:        100  MISS %:          0   MPKI: 0
ITLB PREFETCH  REQUESTED:          0  ISSUED:          0  USEFUL:          0  USELESS:          0
ITLB USEFUL LOAD PREFETCHES:          0 PREFETCH ISSUED TO LOWER LEVEL:          0  ACCURACY: -nan
ITLB TIMELY PREFETCHES:          0 LATE PREFETCHES: 0 DROPPED PREFETCHES: 0
ITLB PREFETCHES SAME FILL-ORIGIN LEVEL: 0 DIFFERENT FILL-ORIGIN LEVEL: 0
ITLB AVERAGE MISS LATENCY: -nan cycles
ITLB RQ	ACCESS:  611954211	FORWARD:          0	MERGED:   39206387	TO_CACHE:  572747824

DTLB TOTAL     ACCESS:   25932357  HIT:   25928318  MISS:       4039  HIT %:    99.9844  MISS %:  0.0155751   MPKI: 0.020195
DTLB LOAD TRANSLATION ACCESS:   25932357  HIT:   25928318  MISS:       4039  HIT %:    99.9844  MISS %:  0.0155751   MPKI: 0.020195
DTLB PREFETCH  REQUESTED:          0  ISSUED:          0  USEFUL:          0  USELESS:          0
DTLB USEFUL LOAD PREFETCHES:          0 PREFETCH ISSUED TO LOWER LEVEL:          0  ACCURACY: -nan
DTLB TIMELY PREFETCHES:          0 LATE PREFETCHES: 0 DROPPED PREFETCHES: 0
DTLB PREFETCHES SAME FILL-ORIGIN LEVEL: 0 DIFFERENT FILL-ORIGIN LEVEL: 0
DTLB AVERAGE MISS LATENCY: 1368.49 cycles
DTLB RQ	ACCESS:  455333223	FORWARD:          0	MERGED:   51261444	TO_CACHE:  404071779

STLB TOTAL     ACCESS:     215199  HIT:     211160  MISS:       4039  HIT %:    98.1231  MISS %:    1.87687   MPKI: 0.020195
STLB LOAD TRANSLATION ACCESS:       4039  HIT:          0  MISS:       4039  HIT %:          0  MISS %:        100   MPKI: 0.020195
STLB TRANSLATION FROM L1D PREFETCHER ACCESS:     211160  HIT:     211160  MISS:          0  HIT %:        100  MISS %:          0   MPKI: 0
STLB PREFETCH  REQUESTED:          0  ISSUED:          0  USEFUL:          0  USELESS:          0
STLB USEFUL LOAD PREFETCHES:          0 PREFETCH ISSUED TO LOWER LEVEL:          0  ACCURACY: -nan
STLB TIMELY PREFETCHES:          0 LATE PREFETCHES: 0 DROPPED PREFETCHES: 0
STLB PREFETCHES SAME FILL-ORIGIN LEVEL: 0 DIFFERENT FILL-ORIGIN LEVEL: 0
STLB AVERAGE MISS LATENCY: 1228.42 cycles
STLB RQ	ACCESS:   19689561	FORWARD:          0	MERGED:   16193638	TO_CACHE:    3495923

STLB Hit, L1D data hit: 0
STLB Hit, L2C data hit: 0
STLB Hit, LLC data hit: 0
STLB Hit, LLC data miss: 0
STLB STLB hints to L2: 0
L1D TOTAL     ACCESS:   30345993  HIT:   30087666  MISS:     258327  HIT %:    99.1487  MISS %:   0.851272   MPKI: 1.29164
L1D LOAD      ACCESS:   19135343  HIT:   19132114  MISS:       3229  HIT %:    99.9831  MISS %:  0.0168745   MPKI: 0.016145
L1D RFO       ACCESS:   10011116  HIT:    9958563  MISS:      52553  HIT %:    99.4751  MISS %:   0.524946   MPKI: 0.262765
L1D PREFETCH  ACCESS:    1199534  HIT:     996989  MISS:     202545  HIT %:    83.1147  MISS %:    16.8853   MPKI: 1.01273
L1D PREFETCH  REQUESTED:   39253402  ISSUED:   39253402  USEFUL:    3153112  USELESS:        132
L1D USEFUL LOAD PREFETCHES:    3153112 PREFETCH ISSUED TO LOWER LEVEL:    3153293  ACCURACY: 99.9943
L1D TIMELY PREFETCHES:    3153112 LATE PREFETCHES: 49 DROPPED PREFETCHES: 0
L1D PREFETCHES SAME FILL-ORIGIN LEVEL: 3153293 DIFFERENT FILL-ORIGIN LEVEL: 0
L1D AVERAGE MISS LATENCY: 6999.7 cycles
L1D RQ	ACCESS:  395120924	FORWARD:          0	MERGED:   96571783	TO_CACHE:  298332084
L1D WQ	ACCESS:  157001139	FORWARD:     217057	MERGED:          0	TO_CACHE:  157001139
L1D PQ	ACCESS:   19626701	FORWARD:          0	MERGED:          0	TO_CACHE:   19626701

L1D UNIQUE REGIONS ACCESSED: 0
L1D REGIONS CONFLICTS: 0
L1D Cross Page Prefetch Requests: 0
L1D Same Page Prefetch Requests: 20310571
L1D ROI Sum of L1D PQ occupancy: 236067916
L1D PREFETCHES PUSHED FROM L2C: 0
L1I TOTAL     ACCESS:   39298780  HIT:   39298780  MISS:          0  HIT %:        100  MISS %:          0   MPKI: 0
L1I LOAD      ACCESS:   39298780  HIT:   39298780  MISS:          0  HIT %:        100  MISS %:          0   MPKI: 0
L1I PREFETCH  REQUESTED:          0  ISSUED:          0  USEFUL:          0  USELESS:          0
L1I USEFUL LOAD PREFETCHES:          0 PREFETCH ISSUED TO LOWER LEVEL:          0  ACCURACY: -nan
L1I TIMELY PREFETCHES:          0 LATE PREFETCHES: 0 DROPPED PREFETCHES: 0
L1I PREFETCHES SAME FILL-ORIGIN LEVEL: 0 DIFFERENT FILL-ORIGIN LEVEL: 0
L1I AVERAGE MISS LATENCY: -nan cycles
L1I RQ	ACCESS:  857731783	FORWARD:          0	MERGED:  245777572	TO_CACHE:  611954211

BTB TOTAL     ACCESS:   33743511  HIT:   33743511  MISS:          0  HIT %:        100  MISS %:          0   MPKI: 0
BTB BRANCH_DIRECT_JUMP	ACCESS:    8123570  HIT:    8123570  MISS:          0
BTB BRANCH_INDIRECT	ACCESS:          0  HIT:          0  MISS:          0
BTB BRANCH_CONDITIONAL	ACCESS:   23938289  HIT:   23938289  MISS:          0
BTB BRANCH_DIRECT_CALL	ACCESS:     840826  HIT:     840826  MISS:          0
BTB BRANCH_INDIRECT_CALL	ACCESS:          0  HIT:          0  MISS:          0
BTB BRANCH_RETURN	ACCESS:     840826  HIT:     840826  MISS:          0
BTB BRANCH_OTHER ACCESS:          0  HIT:          0  MISS:          0

L2C TOTAL     ACCESS:     314919  HIT:      50734  MISS:     264185  HIT %:    16.1102  MISS %:    83.8898   MPKI: 1.32092
L2C LOAD      ACCESS:       3227  HIT:          0  MISS:       3227  HIT %:          0  MISS %:        100   MPKI: 0.016135
L2C DATA LOAD MPKI: 0.016135
L2C INSTRUCTION LOAD MPKI: 0
L2C RFO       ACCESS:      52553  HIT:          0  MISS:      52553  HIT %:          0  MISS %:        100   MPKI: 0.262765
L2C PREFETCH  ACCESS:     202547  HIT:          0  MISS:     202547  HIT %:          0  MISS %:        100   MPKI: 1.01273
L2C DATA PREFETCH MPKI: 1.01273
L2C INSTRUCTION PREFETCH MPKI: 0
L2C WRITEBACK ACCESS:      52553  HIT:      47249  MISS:       5304  HIT %:    89.9073  MISS %:    10.0927   MPKI: 0.02652
L2C LOAD TRANSLATION ACCESS:       4039  HIT:       3485  MISS:        554  HIT %:    86.2837  MISS %:    13.7163   MPKI: 0.00277
L2C PREFETCH  REQUESTED:          0  ISSUED:          0  USEFUL:          0  USELESS:    3153467
L2C USEFUL LOAD PREFETCHES:          0 PREFETCH ISSUED TO LOWER LEVEL:    3153277  ACCURACY: 0
L2C TIMELY PREFETCHES:          0 LATE PREFETCHES: 0 DROPPED PREFETCHES: 0
L2C PREFETCHES SAME FILL-ORIGIN LEVEL: 0 DIFFERENT FILL-ORIGIN LEVEL: 0
L2C AVERAGE MISS LATENCY: 6658.61 cycles
L2C RQ	ACCESS:     930849	FORWARD:          0	MERGED:          0	TO_CACHE:     930849
L2C WQ	ACCESS:     817728	FORWARD:          0	MERGED:          0	TO_CACHE:     817728
L2C PQ	ACCESS:    3153293	FORWARD:          0	MERGED:          0	TO_CACHE:    3153293

L2C Instructions Evicting Data 0
L2C Translations Evicting Data 8400
L2C Data Evicting Data 4013006
L2C Instructions Evicting Instructions 0
L2C Translations Evicting Instructions 0
L2C Data Evicting Instructions 0
L2C Instructions Evicting Translations 0
L2C Translations Evicting Translations 50
L2C Data Evicting Translations 8250
L2C Dense regions hint from L2: 0
PSCL5 TOTAL     ACCESS:       4039  HIT:       4039  MISS:          0  HIT %:        100  MISS %:          0   MPKI: 0
PSCL5 LOAD TRANSLATION ACCESS:       4039  HIT:       4039  MISS:          0  HIT %:        100  MISS %:          0   MPKI: 0
PSCL5 PREFETCH  REQUESTED:          0  ISSUED:          0  USEFUL:          0  USELESS:          0
PSCL5 USEFUL LOAD PREFETCHES:          0 PREFETCH ISSUED TO LOWER LEVEL:          0  ACCURACY: -nan
PSCL5 TIMELY PREFETCHES:          0 LATE PREFETCHES: 0 DROPPED PREFETCHES: 0
PSCL5 PREFETCHES SAME FILL-ORIGIN LEVEL: 0 DIFFERENT FILL-ORIGIN LEVEL: 0

PSCL4 TOTAL     ACCESS:       4039  HIT:       4039  MISS:          0  HIT %:        100  MISS %:          0   MPKI: 0
PSCL4 LOAD TRANSLATION ACCESS:       4039  HIT:       4039  MISS:          0  HIT %:        100  MISS %:          0   MPKI: 0
PSCL4 PREFETCH  REQUESTED:          0  ISSUED:          0  USEFUL:          0  USELESS:          0
PSCL4 USEFUL LOAD PREFETCHES:          0 PREFETCH ISSUED TO LOWER LEVEL:          0  ACCURACY: -nan
PSCL4 TIMELY PREFETCHES:          0 LATE PREFETCHES: 0 DROPPED PREFETCHES: 0
PSCL4 PREFETCHES SAME FILL-ORIGIN LEVEL: 0 DIFFERENT FILL-ORIGIN LEVEL: 0

PSCL3 TOTAL     ACCESS:       4039  HIT:       4039  MISS:          0  HIT %:        100  MISS %:          0   MPKI: 0
PSCL3 LOAD TRANSLATION ACCESS:       4039  HIT:       4039  MISS:          0  HIT %:        100  MISS %:          0   MPKI: 0
PSCL3 PREFETCH  REQUESTED:          0  ISSUED:          0  USEFUL:          0  USELESS:          0
PSCL3 USEFUL LOAD PREFETCHES:          0 PREFETCH ISSUED TO LOWER LEVEL:          0  ACCURACY: -nan
PSCL3 TIMELY PREFETCHES:          0 LATE PREFETCHES: 0 DROPPED PREFETCHES: 0
PSCL3 PREFETCHES SAME FILL-ORIGIN LEVEL: 0 DIFFERENT FILL-ORIGIN LEVEL: 0

PSCL2 TOTAL     ACCESS:       4039  HIT:       4032  MISS:          7  HIT %:    99.8267  MISS %:    0.17331   MPKI: 3.5e-05
PSCL2 LOAD TRANSLATION ACCESS:       4039  HIT:       4032  MISS:          7  HIT %:    99.8267  MISS %:    0.17331   MPKI: 3.5e-05
PSCL2 PREFETCH  REQUESTED:          0  ISSUED:          0  USEFUL:          0  USELESS:          0
PSCL2 USEFUL LOAD PREFETCHES:          0 PREFETCH ISSUED TO LOWER LEVEL:          0  ACCURACY: -nan
PSCL2 TIMELY PREFETCHES:          0 LATE PREFETCHES: 0 DROPPED PREFETCHES: 0
PSCL2 PREFETCHES SAME FILL-ORIGIN LEVEL: 0 DIFFERENT FILL-ORIGIN LEVEL: 0

LLC TOTAL     ACCESS:     311350  HIT:      18195  MISS:     293155  HIT %:    5.84391  MISS %:    94.1561   MPKI: 1.46578
LLC LOAD      ACCESS:       3227  HIT:          0  MISS:       3227  HIT %:          0  MISS %:        100   MPKI: 0.016135
LLC RFO       ACCESS:      52553  HIT:          0  MISS:      52553  HIT %:          0  MISS %:        100   MPKI: 0.262765
LLC PREFETCH  ACCESS:     202547  HIT:          0  MISS:     202547  HIT %:          0  MISS %:        100   MPKI: 1.01273
LLC WRITEBACK ACCESS:      52469  HIT:      18156  MISS:      34313  HIT %:    34.6033  MISS %:    65.3967   MPKI: 0.171565
LLC LOAD TRANSLATION ACCESS:        554  HIT:         39  MISS:        515  HIT %:    7.03971  MISS %:    92.9603   MPKI: 0.002575
LLC PREFETCH  REQUESTED:          0  ISSUED:          0  USEFUL:    1592948  USELESS:   37844236
LLC USEFUL LOAD PREFETCHES:    1592948 PREFETCH ISSUED TO LOWER LEVEL:   39455468  ACCURACY: 4.03733
LLC TIMELY PREFETCHES:    1592948 LATE PREFETCHES: 0 DROPPED PREFETCHES: 0
LLC PREFETCHES SAME FILL-ORIGIN LEVEL: 0 DIFFERENT FILL-ORIGIN LEVEL: 0
LLC AVERAGE MISS LATENCY: 100570 cycles
LLC RQ	ACCESS:   64086151	FORWARD:          0	MERGED:          0	TO_CACHE:   64085966
LLC WQ	ACCESS:   35542613	FORWARD:        224	MERGED:          0	TO_CACHE:   35542613
LLC PQ	ACCESS:   71870047	FORWARD:          0	MERGED:          0	TO_CACHE:   71870008

LLC Dense regions hint to LLC: 0

RAW hits: 2658817
Loads Generated: 28018709
Loads sent to L1D: 25359892
Stores Generated: 10089916
Stores sent to L1D: 10089919
Major fault: 0 Minor fault: 5083
Allocated PAGES: 456447

stream: 
stream:times selected: 121482916
stream:pref_filled: 19435677
stream:pref_useful: 2170879
stream:pref_late: 406908
stream:misses: 4021030
stream:misses_by_poll: 0

CS: 
CS:times selected: 42181047
CS:pref_filled: 11938714
CS:pref_useful: 11371436
CS:pref_late: 4743797
CS:misses: 6760786
CS:misses_by_poll: 53027

CPLX: 
CPLX:times selected: 78842511
CPLX:pref_filled: 2696396
CPLX:pref_useful: 662743
CPLX:pref_late: 38627
CPLX:misses: 17851469
CPLX:misses_by_poll: 6867

NL_L1: 
NL:times selected: 639924
NL:pref_filled: 118327
NL:pref_useful: 22398
NL:pref_late: 5573
NL:misses: 164428
NL:misses_by_poll: 6

total selections: 243146398
total_filled: 31582077
total_useful: 12851997
total_late: 5239649
total_polluted: 59900
total_misses_after_warmup: 27709585
conflicts: 297896
Degree Incremented Times: 7637283
Degree Decremented Times: 5118032

L1 IP Table Write Accesses: 1053896048
L1 IP Table Read Accesses: 1053598152
L1 RST Write Accesses: 296949253
L1 RST Read Accesses: 593898506
L1 CSPT Write Accesses: 296949253
L1 CSPT Read Accesses: 483025344
L1 RR Filter Tag Write Accesses: 284160349
L1 RR Filter Tag Read Accesses: 30521656099
L1 IP Table Tag Write Accesses: 1055535441
L1 IP Table Tag Read Accesses: 1055535441
L1 RST Tag Write Accesses: 0
L1 RST Tag Read Accesses: 2682317887
L1 RR Filter Write Accesses: 0
L1 RR Filter Read Accesses: 1454474971
test: 69880871

stream: 
stream:times selected: 135590791
stream:pref_filled: 32497451
stream:pref_useful: 25374584
stream:pref_late: 259967
stream:misses: 241394
stream:misses_by_poll: 0

CS: 
CS:times selected: 109210403
CS:pref_filled: 357004
CS:pref_useful: 305927
CS:pref_late: 21279
CS:misses: 1432577
CS:misses_by_poll: 2562

CPLX: 
CPLX:times selected: 26341996
CPLX:pref_filled: 3216063
CPLX:pref_useful: 2173485
CPLX:pref_late: 20741
CPLX:misses: 1327111
CPLX:misses_by_poll: 15929

NL_L1: 
NL:times selected: 25654
NL:pref_filled: 9372
NL:pref_useful: 4015
NL:pref_late: 360
NL:misses: 7964
NL:misses_by_poll: 0

total selections: 271168844
total_filled: 34484327
total_useful: 26471248
total_late: 307145
total_polluted: 18491
total_misses_after_warmup: 3115808
conflicts: 297896
Degree Incremented Times: 7637283
Degree Decremented Times: 5118032

L1 IP Table Write Accesses: 1053896048
L1 IP Table Read Accesses: 1053598152
L1 RST Write Accesses: 296949253
L1 RST Read Accesses: 593898506
L1 CSPT Write Accesses: 296949253
L1 CSPT Read Accesses: 483025344
L1 RR Filter Tag Write Accesses: 284160349
L1 RR Filter Tag Read Accesses: 30521656099
L1 IP Table Tag Write Accesses: 1055535441
L1 IP Table Tag Read Accesses: 1055535441
L1 RST Tag Write Accesses: 0
L1 RST Tag Read Accesses: 2682317887
L1 RR Filter Write Accesses: 0
L1 RR Filter Read Accesses: 1454474971
test: 69880871

stream: 
stream:times selected: 43538637
stream:pref_filled: 37372542
stream:pref_useful: 993758
stream:pref_late: 228315
stream:misses: 9275236
stream:misses_by_poll: 0

CS: 
CS:times selected: 3982644
CS:pref_filled: 3144602
CS:pref_useful: 2836130
CS:pref_late: 94994
CS:misses: 530481
CS:misses_by_poll: 3819

CPLX: 
CPLX:times selected: 39185199
CPLX:pref_filled: 757026
CPLX:pref_useful: 32074
CPLX:pref_late: 12833
CPLX:misses: 28964304
CPLX:misses_by_poll: 249

NL_L1: 
NL:times selected: 69630
NL:pref_filled: 65227
NL:pref_useful: 735
NL:pref_late: 119
NL:misses: 68680
NL:misses_by_poll: 0

total selections: 86776110
total_filled: 33938099
total_useful: 3081089
total_late: 343009
total_polluted: 4068
total_misses_after_warmup: 32295615
conflicts: 297896
Degree Incremented Times: 7637283
Degree Decremented Times: 5118032

L1 IP Table Write Accesses: 1053896048
L1 IP Table Read Accesses: 1053598152
L1 RST Write Accesses: 296949253
L1 RST Read Accesses: 593898506
L1 CSPT Write Accesses: 296949253
L1 CSPT Read Accesses: 483025344
L1 RR Filter Tag Write Accesses: 284160349
L1 RR Filter Tag Read Accesses: 30521656099
L1 IP Table Tag Write Accesses: 1055535441
L1 IP Table Tag Read Accesses: 1055535441
L1 RST Tag Write Accesses: 0
L1 RST Tag Read Accesses: 2682317887
L1 RR Filter Write Accesses: 0
L1 RR Filter Read Accesses: 1454474971
test: 69880871

stream: 
stream:times selected: 6525609
stream:pref_filled: 3231695
stream:pref_useful: 3231557
stream:pref_late: 45
stream:misses: 6
stream:misses_by_poll: 0

CS: 
CS:times selected: 6525598
CS:pref_filled: 11956
CS:pref_useful: 11956
CS:pref_late: 4
CS:misses: 82109
CS:misses_by_poll: 16

CPLX: 
CPLX:times selected: 4
CPLX:pref_filled: 0
CPLX:pref_useful: 0
CPLX:pref_late: 0
CPLX:misses: 0
CPLX:misses_by_poll: 0

NL_L1: 
NL:times selected: 1
NL:pref_filled: 1
NL:pref_useful: 1
NL:pref_late: 0
NL:misses: 0
NL:misses_by_poll: 0

total selections: 13051212
total_filled: 3153244
total_useful: 3153112
total_late: 49
total_polluted: 16
total_misses_after_warmup: 81205
conflicts: 297896
Degree Incremented Times: 7637283
Degree Decremented Times: 5118032

L1 IP Table Write Accesses: 1053896048
L1 IP Table Read Accesses: 1053598152
L1 RST Write Accesses: 296949253
L1 RST Read Accesses: 593898506
L1 CSPT Write Accesses: 296949253
L1 CSPT Read Accesses: 483025344
L1 RR Filter Tag Write Accesses: 284160349
L1 RR Filter Tag Read Accesses: 30521656099
L1 IP Table Tag Write Accesses: 1055535441
L1 IP Table Tag Read Accesses: 1055535441
L1 RST Tag Write Accesses: 0
L1 RST Tag Read Accesses: 2682317887
L1 RR Filter Write Accesses: 0
L1 RR Filter Read Accesses: 1454474971
test: 69880871

DRAM Statistics
 CHANNEL 0
 RQ ROW_BUFFER_HIT:    3019836  ROW_BUFFER_MISS:   64311228
 DBUS_CONGESTED:       6526
 WQ ROW_BUFFER_HIT:    1346760  ROW_BUFFER_MISS:   27323372  FULL:          0

 AVG_CONGESTED_CYCLE: 4
 All warmup complete: 5
Channel 0 Bank busy for read cycles: 0
Channel 0 Bank busy for write cycles: 0
Channel 0
Rank 0
0banks busy for read cycles: 238140080
0banks busy for write cycles: 183757
1banks busy for read cycles: 462618882
1banks busy for write cycles: 45348828
2banks busy for read cycles: 319128778
2banks busy for write cycles: 13445655
3banks busy for read cycles: 259633769
3banks busy for write cycles: 6561983
4banks busy for read cycles: 287739269
4banks busy for write cycles: 5103908
5banks busy for read cycles: 321938774
5banks busy for write cycles: 6315028
6banks busy for read cycles: 326452158
6banks busy for write cycles: 19312968
7banks busy for read cycles: 306642644
7banks busy for write cycles: 135821348
8banks busy for read cycles: 224100935
8banks busy for write cycles: 665849010

CPU 0 Branch Prediction Accuracy: 97.631% MPKI: 4.82034 Average ROB Occupancy at Mispredict: 86.3514
Branch types
NOT_BRANCH: 877295573 79.525%
BRANCH_DIRECT_JUMP: 21309952 1.9317%
BRANCH_INDIRECT: 4 3.62592e-07%
BRANCH_CONDITIONAL: 142822972 12.9466%
BRANCH_DIRECT_CALL: 29994514 2.71894%
BRANCH_INDIRECT_CALL: 876018 0.0794092%
BRANCH_RETURN: 30870526 2.79835%
BRANCH_OTHER: 0 0%


CPU 1 Branch Prediction Accuracy: 99.9453% MPKI: 0.127113 Average ROB Occupancy at Mispredict: 102.725
Branch types
NOT_BRANCH: 1306013557 76.2129%
BRANCH_DIRECT_JUMP: 42518229 2.48117%
BRANCH_INDIRECT: 0 0%
BRANCH_CONDITIONAL: 322354623 18.8111%
BRANCH_DIRECT_CALL: 21375870 1.2474%
BRANCH_INDIRECT_CALL: 201 1.17294e-05%
BRANCH_RETURN: 21376071 1.24741%
BRANCH_OTHER: 0 0%


CPU 2 Branch Prediction Accuracy: 96.9587% MPKI: 5.6305 Average ROB Occupancy at Mispredict: 139.445
Branch types
NOT_BRANCH: 162972817 81.4864%
BRANCH_DIRECT_JUMP: 66 3.3e-05%
BRANCH_INDIRECT: 4 2e-06%
BRANCH_CONDITIONAL: 37027012 18.5135%
BRANCH_DIRECT_CALL: 28 1.4e-05%
BRANCH_INDIRECT_CALL: 5 2.5e-06%
BRANCH_RETURN: 33 1.65e-05%
BRANCH_OTHER: 0 0%


CPU 3 Branch Prediction Accuracy: 97.7957% MPKI: 6.60006 Average ROB Occupancy at Mispredict: 85.2523
Branch types
NOT_BRANCH: 2170072557 69.6798%
BRANCH_DIRECT_JUMP: 126517843 4.06241%
BRANCH_INDIRECT: 0 0%
BRANCH_CONDITIONAL: 791593685 25.4176%
BRANCH_DIRECT_CALL: 13083425 0.420101%
BRANCH_INDIRECT_CALL: 0 0%
BRANCH_RETURN: 13083425 0.420101%
BRANCH_OTHER: 0 0%

DRAM PAGES: 1048576
Allocated PAGES: 456447
