
*** ChampSim Multicore Out-of-Order Simulator ***

Warmup Instructions: 50000000
Simulation Instructions: 200000000
Number of CPUs: 4
LLC sets: 8192
LLC ways: 16
Off-chip DRAM Size: 4096 MB Channels: 1 Width: 64-bit Data Rate: 6400 MT/s
CPU 0 runs ./traces/ligra/ligra_BFS-Bitvector.com-lj.ungraph.gcc_6.3.0_O3.drop_18000M.length_250M.champsimtrace.xz
.xz
CPU 1 runs ./traces/ligra/ligra_BFS-Bitvector.com-lj.ungraph.gcc_6.3.0_O3.drop_18000M.length_250M.champsimtrace.xz
.xz
CPU 2 runs ./traces/ligra/ligra_BFS-Bitvector.com-lj.ungraph.gcc_6.3.0_O3.drop_18000M.length_250M.champsimtrace.xz
.xz
CPU 3 runs ./traces/ligra/ligra_BFS-Bitvector.com-lj.ungraph.gcc_6.3.0_O3.drop_18000M.length_250M.champsimtrace.xz
.xz
BTB has LRU replacement policy
ITLB has LRU replacement policy
DTLB has LRU replacement policy
STLB has LRU replacement policy
L1I has LRU replacement policy
IP Table Entries: 1024
CSPT Entries: 128
RR_ENTRIES: 32
RST_ENTRIES: 8
L1D has LRU replacement policy
Initialize SRRIP state for L2C
Initialize DRRIP state for LLC
BTB has LRU replacement policy
ITLB has LRU replacement policy
DTLB has LRU replacement policy
STLB has LRU replacement policy
L1I has LRU replacement policy
IP Table Entries: 1024
CSPT Entries: 128
RR_ENTRIES: 32
RST_ENTRIES: 8
L1D has LRU replacement policy
Initialize SRRIP state for L2C
Initialize DRRIP state for LLC
BTB has LRU replacement policy
ITLB has LRU replacement policy
DTLB has LRU replacement policy
STLB has LRU replacement policy
L1I has LRU replacement policy
IP Table Entries: 1024
CSPT Entries: 128
RR_ENTRIES: 32
RST_ENTRIES: 8
L1D has LRU replacement policy
Initialize SRRIP state for L2C
Initialize DRRIP state for LLC
BTB has LRU replacement policy
ITLB has LRU replacement policy
DTLB has LRU replacement policy
STLB has LRU replacement policy
L1I has LRU replacement policy
IP Table Entries: 1024
CSPT Entries: 128
RR_ENTRIES: 32
RST_ENTRIES: 8
L1D has LRU replacement policy
Initialize SRRIP state for L2C
Initialize DRRIP state for LLC
Heartbeat CPU 0 instructions: 10000003 cycles: 3044125 heartbeat IPC: 3.28502 cumulative IPC: 3.28502 (Simulation time: 0 hr 2 min 50 sec) 
Heartbeat CPU 1 instructions: 10000003 cycles: 3044331 heartbeat IPC: 3.28479 cumulative IPC: 3.28479 (Simulation time: 0 hr 2 min 50 sec) 
Heartbeat CPU 3 instructions: 10000003 cycles: 3044575 heartbeat IPC: 3.28453 cumulative IPC: 3.28453 (Simulation time: 0 hr 2 min 50 sec) 
Heartbeat CPU 2 instructions: 10000003 cycles: 3044628 heartbeat IPC: 3.28447 cumulative IPC: 3.28447 (Simulation time: 0 hr 2 min 50 sec) 
Heartbeat CPU 0 instructions: 20000002 cycles: 6087133 heartbeat IPC: 3.28622 cumulative IPC: 3.28562 (Simulation time: 0 hr 5 min 43 sec) 
Heartbeat CPU 1 instructions: 20000002 cycles: 6087350 heartbeat IPC: 3.28621 cumulative IPC: 3.2855 (Simulation time: 0 hr 5 min 43 sec) 
Heartbeat CPU 3 instructions: 20000002 cycles: 6087590 heartbeat IPC: 3.28621 cumulative IPC: 3.28537 (Simulation time: 0 hr 5 min 43 sec) 
Heartbeat CPU 2 instructions: 20000002 cycles: 6087682 heartbeat IPC: 3.28617 cumulative IPC: 3.28532 (Simulation time: 0 hr 5 min 43 sec) 
Heartbeat CPU 0 instructions: 30000001 cycles: 9129500 heartbeat IPC: 3.28691 cumulative IPC: 3.28605 (Simulation time: 0 hr 8 min 34 sec) 
Heartbeat CPU 1 instructions: 30000001 cycles: 9129749 heartbeat IPC: 3.28688 cumulative IPC: 3.28596 (Simulation time: 0 hr 8 min 34 sec) 
Heartbeat CPU 3 instructions: 30000001 cycles: 9129959 heartbeat IPC: 3.28691 cumulative IPC: 3.28589 (Simulation time: 0 hr 8 min 34 sec) 
Heartbeat CPU 2 instructions: 30000001 cycles: 9130053 heartbeat IPC: 3.28691 cumulative IPC: 3.28585 (Simulation time: 0 hr 8 min 34 sec) 
Heartbeat CPU 0 instructions: 40000000 cycles: 12176046 heartbeat IPC: 3.28241 cumulative IPC: 3.28514 (Simulation time: 0 hr 11 min 14 sec) 
Heartbeat CPU 1 instructions: 40000000 cycles: 12176311 heartbeat IPC: 3.28239 cumulative IPC: 3.28507 (Simulation time: 0 hr 11 min 14 sec) 
Heartbeat CPU 3 instructions: 40000000 cycles: 12176518 heartbeat IPC: 3.28239 cumulative IPC: 3.28501 (Simulation time: 0 hr 11 min 14 sec) 
Heartbeat CPU 2 instructions: 40000000 cycles: 12176648 heartbeat IPC: 3.28235 cumulative IPC: 3.28498 (Simulation time: 0 hr 11 min 14 sec) 
Heartbeat CPU 0 instructions: 50000000 cycles: 15222455 heartbeat IPC: 3.28255 cumulative IPC: 3.28462 (Simulation time: 0 hr 14 min 0 sec) 
Heartbeat CPU 1 instructions: 50000000 cycles: 15222726 heartbeat IPC: 3.28255 cumulative IPC: 3.28456 (Simulation time: 0 hr 14 min 0 sec) 
Heartbeat CPU 3 instructions: 50000000 cycles: 15222933 heartbeat IPC: 3.28255 cumulative IPC: 3.28452 (Simulation time: 0 hr 14 min 0 sec) 
Heartbeat CPU 2 instructions: 50000000 cycles: 15223049 heartbeat IPC: 3.28256 cumulative IPC: 3.28449 (Simulation time: 0 hr 14 min 0 sec) 

Warmup complete CPU 0 instructions: 50001770 cycles: 15223050 (Simulation time: 0 hr 14 min 0 sec) 
Warmup complete CPU 1 instructions: 50000964 cycles: 15223050 (Simulation time: 0 hr 14 min 0 sec) 
Warmup complete CPU 2 instructions: 50000004 cycles: 15223050 (Simulation time: 0 hr 14 min 0 sec) 
Warmup complete CPU 3 instructions: 50000339 cycles: 15223049 (Simulation time: 0 hr 14 min 0 sec) 

Heartbeat CPU 0 instructions: 60000001 cycles: 32023378 heartbeat IPC: 0.595205 cumulative IPC: 0.595121 (Simulation time: 0 hr 18 min 6 sec) 
Heartbeat CPU 2 instructions: 60000001 cycles: 32048069 heartbeat IPC: 0.594353 cumulative IPC: 0.594353 (Simulation time: 0 hr 18 min 7 sec) 
Heartbeat CPU 1 instructions: 60000001 cycles: 32111922 heartbeat IPC: 0.592095 cumulative IPC: 0.592049 (Simulation time: 0 hr 18 min 9 sec) 
Heartbeat CPU 3 instructions: 60000001 cycles: 32184282 heartbeat IPC: 0.589576 cumulative IPC: 0.58956 (Simulation time: 0 hr 18 min 10 sec) 
Heartbeat CPU 2 instructions: 70000002 cycles: 51585351 heartbeat IPC: 0.511842 cumulative IPC: 0.55002 (Simulation time: 0 hr 22 min 29 sec) 
Heartbeat CPU 3 instructions: 70000003 cycles: 51770185 heartbeat IPC: 0.510571 cumulative IPC: 0.547229 (Simulation time: 0 hr 22 min 33 sec) 
Heartbeat CPU 0 instructions: 70000001 cycles: 51776672 heartbeat IPC: 0.506245 cumulative IPC: 0.547093 (Simulation time: 0 hr 22 min 33 sec) 
Heartbeat CPU 1 instructions: 70000001 cycles: 51972180 heartbeat IPC: 0.503518 cumulative IPC: 0.544204 (Simulation time: 0 hr 22 min 37 sec) 
Heartbeat CPU 2 instructions: 80000001 cycles: 70851706 heartbeat IPC: 0.51904 cumulative IPC: 0.53929 (Simulation time: 0 hr 27 min 9 sec) 
Heartbeat CPU 0 instructions: 80000000 cycles: 70900557 heartbeat IPC: 0.522906 cumulative IPC: 0.538785 (Simulation time: 0 hr 27 min 9 sec) 
Heartbeat CPU 3 instructions: 80000001 cycles: 71189233 heartbeat IPC: 0.514958 cumulative IPC: 0.536032 (Simulation time: 0 hr 27 min 15 sec) 
Heartbeat CPU 1 instructions: 80000002 cycles: 71216547 heartbeat IPC: 0.519633 cumulative IPC: 0.535759 (Simulation time: 0 hr 27 min 15 sec) 
Heartbeat CPU 2 instructions: 90000001 cycles: 88776909 heartbeat IPC: 0.557874 cumulative IPC: 0.543819 (Simulation time: 0 hr 31 min 18 sec) 
Heartbeat CPU 0 instructions: 90000001 cycles: 88926315 heartbeat IPC: 0.554762 cumulative IPC: 0.542693 (Simulation time: 0 hr 31 min 19 sec) 
Heartbeat CPU 3 instructions: 90000002 cycles: 89055553 heartbeat IPC: 0.559712 cumulative IPC: 0.541762 (Simulation time: 0 hr 31 min 20 sec) 
Heartbeat CPU 1 instructions: 90000002 cycles: 89170662 heartbeat IPC: 0.556975 cumulative IPC: 0.54091 (Simulation time: 0 hr 31 min 21 sec) 
Heartbeat CPU 2 instructions: 100000000 cycles: 106290620 heartbeat IPC: 0.570981 cumulative IPC: 0.549043 (Simulation time: 0 hr 35 min 22 sec) 
Heartbeat CPU 0 instructions: 100000000 cycles: 106896122 heartbeat IPC: 0.556489 cumulative IPC: 0.545397 (Simulation time: 0 hr 35 min 32 sec) 
Heartbeat CPU 1 instructions: 100000000 cycles: 107158314 heartbeat IPC: 0.555937 cumulative IPC: 0.54385 (Simulation time: 0 hr 35 min 34 sec) 
Heartbeat CPU 3 instructions: 100000000 cycles: 107599481 heartbeat IPC: 0.53926 cumulative IPC: 0.54126 (Simulation time: 0 hr 35 min 37 sec) 
Heartbeat CPU 2 instructions: 110000000 cycles: 124604174 heartbeat IPC: 0.546044 cumulative IPC: 0.548541 (Simulation time: 0 hr 39 min 40 sec) 
Heartbeat CPU 0 instructions: 110000000 cycles: 125119927 heartbeat IPC: 0.548733 cumulative IPC: 0.54595 (Simulation time: 0 hr 39 min 51 sec) 
Heartbeat CPU 1 instructions: 110000000 cycles: 125173225 heartbeat IPC: 0.555096 cumulative IPC: 0.545693 (Simulation time: 0 hr 39 min 52 sec) 
Heartbeat CPU 3 instructions: 110000000 cycles: 126142623 heartbeat IPC: 0.539283 cumulative IPC: 0.540929 (Simulation time: 0 hr 40 min 9 sec) 
Heartbeat CPU 2 instructions: 120000003 cycles: 141575216 heartbeat IPC: 0.589239 cumulative IPC: 0.554007 (Simulation time: 0 hr 43 min 49 sec) 
Heartbeat CPU 1 instructions: 120000003 cycles: 142658762 heartbeat IPC: 0.571901 cumulative IPC: 0.549289 (Simulation time: 0 hr 44 min 2 sec) 
Heartbeat CPU 0 instructions: 120000003 cycles: 142900768 heartbeat IPC: 0.562403 cumulative IPC: 0.548242 (Simulation time: 0 hr 44 min 6 sec) 
Heartbeat CPU 3 instructions: 120000002 cycles: 144947679 heartbeat IPC: 0.531772 cumulative IPC: 0.539602 (Simulation time: 0 hr 44 min 40 sec) 
Heartbeat CPU 2 instructions: 130000001 cycles: 158444054 heartbeat IPC: 0.592809 cumulative IPC: 0.558577 (Simulation time: 0 hr 48 min 7 sec) 
Heartbeat CPU 1 instructions: 130000000 cycles: 159130152 heartbeat IPC: 0.607113 cumulative IPC: 0.555907 (Simulation time: 0 hr 48 min 22 sec) 
Heartbeat CPU 0 instructions: 130000000 cycles: 159238048 heartbeat IPC: 0.612097 cumulative IPC: 0.555485 (Simulation time: 0 hr 48 min 24 sec) 
Heartbeat CPU 3 instructions: 130000000 cycles: 160740580 heartbeat IPC: 0.633196 cumulative IPC: 0.54976 (Simulation time: 0 hr 48 min 53 sec) 
Heartbeat CPU 2 instructions: 140000001 cycles: 173894588 heartbeat IPC: 0.647227 cumulative IPC: 0.567209 (Simulation time: 0 hr 52 min 21 sec) 
Heartbeat CPU 0 instructions: 140000003 cycles: 174943610 heartbeat IPC: 0.636717 cumulative IPC: 0.563473 (Simulation time: 0 hr 52 min 37 sec) 
Heartbeat CPU 1 instructions: 140000003 cycles: 175060565 heartbeat IPC: 0.62773 cumulative IPC: 0.563066 (Simulation time: 0 hr 52 min 38 sec) 
Heartbeat CPU 3 instructions: 140000000 cycles: 179374718 heartbeat IPC: 0.536649 cumulative IPC: 0.548271 (Simulation time: 0 hr 53 min 29 sec) 
Heartbeat CPU 2 instructions: 150000001 cycles: 194313099 heartbeat IPC: 0.489752 cumulative IPC: 0.558378 (Simulation time: 0 hr 57 min 10 sec) 
Heartbeat CPU 0 instructions: 150000002 cycles: 195058662 heartbeat IPC: 0.49714 cumulative IPC: 0.556054 (Simulation time: 0 hr 57 min 20 sec) 
Heartbeat CPU 1 instructions: 150000002 cycles: 195416286 heartbeat IPC: 0.491262 cumulative IPC: 0.554954 (Simulation time: 0 hr 57 min 27 sec) 
Heartbeat CPU 3 instructions: 150000002 cycles: 199148366 heartbeat IPC: 0.505724 cumulative IPC: 0.543697 (Simulation time: 0 hr 58 min 25 sec) 
Heartbeat CPU 2 instructions: 160000001 cycles: 211294593 heartbeat IPC: 0.588876 cumulative IPC: 0.56102 (Simulation time: 1 hr 1 min 20 sec) 
Heartbeat CPU 0 instructions: 160000001 cycles: 212281214 heartbeat IPC: 0.580634 cumulative IPC: 0.558202 (Simulation time: 1 hr 1 min 36 sec) 
Heartbeat CPU 1 instructions: 160000001 cycles: 212561873 heartbeat IPC: 0.58324 cumulative IPC: 0.557412 (Simulation time: 1 hr 1 min 40 sec) 
Heartbeat CPU 3 instructions: 160000001 cycles: 216933287 heartbeat IPC: 0.562274 cumulative IPC: 0.545335 (Simulation time: 1 hr 2 min 56 sec) 
Heartbeat CPU 2 instructions: 170000003 cycles: 227477706 heartbeat IPC: 0.617928 cumulative IPC: 0.565359 (Simulation time: 1 hr 5 min 36 sec) 
Heartbeat CPU 0 instructions: 170000003 cycles: 229327754 heartbeat IPC: 0.586629 cumulative IPC: 0.560465 (Simulation time: 1 hr 6 min 1 sec) 
Heartbeat CPU 1 instructions: 170000003 cycles: 229680125 heartbeat IPC: 0.584172 cumulative IPC: 0.559548 (Simulation time: 1 hr 6 min 8 sec) 
Heartbeat CPU 3 instructions: 170000003 cycles: 233475882 heartbeat IPC: 0.6045 cumulative IPC: 0.54982 (Simulation time: 1 hr 7 min 13 sec) 
Heartbeat CPU 2 instructions: 180000000 cycles: 242091218 heartbeat IPC: 0.684298 cumulative IPC: 0.57302 (Simulation time: 1 hr 9 min 24 sec) 
Heartbeat CPU 0 instructions: 180000000 cycles: 244630081 heartbeat IPC: 0.653495 cumulative IPC: 0.566671 (Simulation time: 1 hr 10 min 4 sec) 
Heartbeat CPU 1 instructions: 180000000 cycles: 245516582 heartbeat IPC: 0.631454 cumulative IPC: 0.564493 (Simulation time: 1 hr 10 min 15 sec) 
Heartbeat CPU 3 instructions: 180000000 cycles: 249581226 heartbeat IPC: 0.620912 cumulative IPC: 0.554705 (Simulation time: 1 hr 11 min 18 sec) 
Heartbeat CPU 2 instructions: 190000003 cycles: 261035523 heartbeat IPC: 0.527863 cumulative IPC: 0.56954 (Simulation time: 1 hr 14 min 6 sec) 
Heartbeat CPU 0 instructions: 190000003 cycles: 263970342 heartbeat IPC: 0.517056 cumulative IPC: 0.562813 (Simulation time: 1 hr 14 min 39 sec) 
Heartbeat CPU 1 instructions: 190000003 cycles: 264695348 heartbeat IPC: 0.52141 cumulative IPC: 0.561181 (Simulation time: 1 hr 14 min 52 sec) 
Heartbeat CPU 3 instructions: 190000000 cycles: 270431967 heartbeat IPC: 0.479599 cumulative IPC: 0.548569 (Simulation time: 1 hr 16 min 14 sec) 
Heartbeat CPU 2 instructions: 200000002 cycles: 280838673 heartbeat IPC: 0.50497 cumulative IPC: 0.564726 (Simulation time: 1 hr 18 min 20 sec) 
Heartbeat CPU 0 instructions: 200000002 cycles: 282680700 heartbeat IPC: 0.534463 cumulative IPC: 0.56083 (Simulation time: 1 hr 18 min 51 sec) 
Heartbeat CPU 1 instructions: 200000000 cycles: 283577038 heartbeat IPC: 0.529613 cumulative IPC: 0.55896 (Simulation time: 1 hr 19 min 8 sec) 
Heartbeat CPU 3 instructions: 200000003 cycles: 289719080 heartbeat IPC: 0.518481 cumulative IPC: 0.546455 (Simulation time: 1 hr 20 min 40 sec) 
Heartbeat CPU 2 instructions: 210000000 cycles: 296976114 heartbeat IPC: 0.619677 cumulative IPC: 0.567873 (Simulation time: 1 hr 22 min 26 sec) 
Heartbeat CPU 0 instructions: 210000000 cycles: 299662846 heartbeat IPC: 0.588854 cumulative IPC: 0.562503 (Simulation time: 1 hr 23 min 11 sec) 
Heartbeat CPU 1 instructions: 210000000 cycles: 300762346 heartbeat IPC: 0.581892 cumulative IPC: 0.56034 (Simulation time: 1 hr 23 min 25 sec) 
Heartbeat CPU 3 instructions: 210000002 cycles: 306305870 heartbeat IPC: 0.602889 cumulative IPC: 0.549671 (Simulation time: 1 hr 24 min 47 sec) 
Heartbeat CPU 2 instructions: 220000000 cycles: 310591872 heartbeat IPC: 0.734443 cumulative IPC: 0.575552 (Simulation time: 1 hr 26 min 10 sec) 
Heartbeat CPU 0 instructions: 220000000 cycles: 313939815 heartbeat IPC: 0.700429 cumulative IPC: 0.569095 (Simulation time: 1 hr 27 min 0 sec) 
Heartbeat CPU 1 instructions: 220000000 cycles: 315636509 heartbeat IPC: 0.672307 cumulative IPC: 0.565884 (Simulation time: 1 hr 27 min 23 sec) 
Heartbeat CPU 3 instructions: 220000000 cycles: 320350293 heartbeat IPC: 0.712026 cumulative IPC: 0.557144 (Simulation time: 1 hr 28 min 36 sec) 
Heartbeat CPU 2 instructions: 230000002 cycles: 327057921 heartbeat IPC: 0.60731 cumulative IPC: 0.577229 (Simulation time: 1 hr 30 min 5 sec) 
Heartbeat CPU 0 instructions: 230000002 cycles: 329344977 heartbeat IPC: 0.649133 cumulative IPC: 0.57302 (Simulation time: 1 hr 30 min 43 sec) 
Heartbeat CPU 1 instructions: 230000002 cycles: 330611783 heartbeat IPC: 0.667768 cumulative IPC: 0.570721 (Simulation time: 1 hr 31 min 2 sec) 
Heartbeat CPU 3 instructions: 230000002 cycles: 336007193 heartbeat IPC: 0.638696 cumulative IPC: 0.561124 (Simulation time: 1 hr 32 min 25 sec) 
Heartbeat CPU 2 instructions: 240000003 cycles: 341247287 heartbeat IPC: 0.704753 cumulative IPC: 0.582779 (Simulation time: 1 hr 33 min 46 sec) 
Heartbeat CPU 0 instructions: 240000003 cycles: 344139677 heartbeat IPC: 0.675918 cumulative IPC: 0.577649 (Simulation time: 1 hr 34 min 35 sec) 
Heartbeat CPU 1 instructions: 240000003 cycles: 345330379 heartbeat IPC: 0.679413 cumulative IPC: 0.575567 (Simulation time: 1 hr 35 min 0 sec) 
Heartbeat CPU 3 instructions: 240000003 cycles: 350434210 heartbeat IPC: 0.693144 cumulative IPC: 0.566806 (Simulation time: 1 hr 36 min 21 sec) 
*** Reached end of trace for Core: 2 Repeating trace: ./traces/ligra/ligra_BFS-Bitvector.com-lj.ungraph.gcc_6.3.0_O3.drop_18000M.length_250M.champsimtrace.xz
Heartbeat CPU 2 instructions: 250000001 cycles: 354686714 heartbeat IPC: 0.744079 cumulative IPC: 0.589165 (Simulation time: 1 hr 37 min 38 sec) 
Finished CPU 2 instructions: 200000001 cycles: 339463665 cumulative IPC: 0.589165 (Simulation time: 1 hr 37 min 38 sec) 
*** Reached end of trace for Core: 0 Repeating trace: ./traces/ligra/ligra_BFS-Bitvector.com-lj.ungraph.gcc_6.3.0_O3.drop_18000M.length_250M.champsimtrace.xz
Heartbeat CPU 0 instructions: 250000001 cycles: 358693255 heartbeat IPC: 0.687116 cumulative IPC: 0.582287 (Simulation time: 1 hr 38 min 45 sec) 
Finished CPU 0 instructions: 200000001 cycles: 343479976 cumulative IPC: 0.582276 (Simulation time: 1 hr 38 min 45 sec) 
*** Reached end of trace for Core: 1 Repeating trace: ./traces/ligra/ligra_BFS-Bitvector.com-lj.ungraph.gcc_6.3.0_O3.drop_18000M.length_250M.champsimtrace.xz
Heartbeat CPU 1 instructions: 250000001 cycles: 360905818 heartbeat IPC: 0.642036 cumulative IPC: 0.578562 (Simulation time: 1 hr 39 min 15 sec) 
Finished CPU 1 instructions: 200000000 cycles: 345687723 cumulative IPC: 0.578557 (Simulation time: 1 hr 39 min 15 sec) 
*** Reached end of trace for Core: 3 Repeating trace: ./traces/ligra/ligra_BFS-Bitvector.com-lj.ungraph.gcc_6.3.0_O3.drop_18000M.length_250M.champsimtrace.xz
Heartbeat CPU 3 instructions: 250000001 cycles: 366278443 heartbeat IPC: 0.631144 cumulative IPC: 0.56971 (Simulation time: 1 hr 40 min 18 sec) 
Finished CPU 3 instructions: 200000003 cycles: 351062869 cumulative IPC: 0.569699 (Simulation time: 1 hr 40 min 18 sec) 

ChampSim completed all CPUs

Total Simulation Statistics (not including warmup)

CPU 0 cumulative IPC: 0.577886 instructions: 202874360 cycles: 351062868
ITLB TOTAL     ACCESS:   32872904  HIT:   32872904  MISS:          0  HIT %:        100  MISS %:          0   MPKI: 0
ITLB LOAD      ACCESS:          0  HIT:          0  MISS:          0  HIT %:       -nan  MISS %:       -nan   MPKI: 0
ITLB RFO       ACCESS:          0  HIT:          0  MISS:          0  HIT %:       -nan  MISS %:       -nan   MPKI: 0
ITLB PREFETCH  ACCESS:          0  HIT:          0  MISS:          0  HIT %:       -nan  MISS %:       -nan   MPKI: 0
ITLB WRITEBACK ACCESS:          0  HIT:          0  MISS:          0  HIT %:       -nan  MISS %:       -nan   MPKI: 0
DTLB TOTAL     ACCESS:   48991516  HIT:   48899990  MISS:      91526  HIT %:    99.8132  MISS %:    0.18682   MPKI: 0.451146
DTLB LOAD      ACCESS:          0  HIT:          0  MISS:          0  HIT %:       -nan  MISS %:       -nan   MPKI: 0
DTLB RFO       ACCESS:          0  HIT:          0  MISS:          0  HIT %:       -nan  MISS %:       -nan   MPKI: 0
DTLB PREFETCH  ACCESS:          0  HIT:          0  MISS:          0  HIT %:       -nan  MISS %:       -nan   MPKI: 0
DTLB WRITEBACK ACCESS:          0  HIT:          0  MISS:          0  HIT %:       -nan  MISS %:       -nan   MPKI: 0
STLB TOTAL     ACCESS:    5111070  HIT:    5094044  MISS:      17026  HIT %:    99.6669  MISS %:    0.33312   MPKI: 0.0839239
STLB LOAD      ACCESS:          0  HIT:          0  MISS:          0  HIT %:       -nan  MISS %:       -nan   MPKI: 0
STLB RFO       ACCESS:          0  HIT:          0  MISS:          0  HIT %:       -nan  MISS %:       -nan   MPKI: 0
STLB PREFETCH  ACCESS:          0  HIT:          0  MISS:          0  HIT %:       -nan  MISS %:       -nan   MPKI: 0
STLB WRITEBACK ACCESS:          0  HIT:          0  MISS:          0  HIT %:       -nan  MISS %:       -nan   MPKI: 0
L1D TOTAL     ACCESS:   70350136  HIT:   65218416  MISS:    5131720  HIT %:    92.7055  MISS %:    7.29454   MPKI: 25.2951
L1D LOAD      ACCESS:   21455376  HIT:   20772854  MISS:     682522  HIT %:    96.8189  MISS %:    3.18112   MPKI: 3.36426
L1D RFO       ACCESS:   31287904  HIT:   29060791  MISS:    2227113  HIT %:    92.8819  MISS %:    7.11813   MPKI: 10.9778
L1D PREFETCH  ACCESS:   17606856  HIT:   15384771  MISS:    2222085  HIT %:    87.3794  MISS %:    12.6206   MPKI: 10.953
L1D WRITEBACK ACCESS:          0  HIT:          0  MISS:          0  HIT %:       -nan  MISS %:       -nan   MPKI: 0
L1I TOTAL     ACCESS:   33143315  HIT:   33143314  MISS:          1  HIT %:        100  MISS %: 3.0172e-06   MPKI: 4.92916e-06
L1I LOAD      ACCESS:   33143315  HIT:   33143314  MISS:          1  HIT %:        100  MISS %: 3.0172e-06   MPKI: 4.92916e-06
L1I RFO       ACCESS:          0  HIT:          0  MISS:          0  HIT %:       -nan  MISS %:       -nan   MPKI: 0
L1I PREFETCH  ACCESS:          0  HIT:          0  MISS:          0  HIT %:       -nan  MISS %:       -nan   MPKI: 0
L1I WRITEBACK ACCESS:          0  HIT:          0  MISS:          0  HIT %:       -nan  MISS %:       -nan   MPKI: 0
L2C TOTAL     ACCESS:    7382330  HIT:    3055946  MISS:    4326384  HIT %:    41.3954  MISS %:    58.6046   MPKI: 21.3254
L2C LOAD      ACCESS:     181040  HIT:      46311  MISS:     134729  HIT %:    25.5805  MISS %:    74.4195   MPKI: 0.664101
L2C RFO       ACCESS:    2225226  HIT:     163540  MISS:    2061686  HIT %:    7.34937  MISS %:    92.6506   MPKI: 10.1624
L2C PREFETCH  ACCESS:    2725333  HIT:     700789  MISS:    2024544  HIT %:    25.7139  MISS %:    74.2861   MPKI: 9.9793
L2C WRITEBACK ACCESS:    2233700  HIT:    2130812  MISS:     102888  HIT %:    95.3938  MISS %:    4.60617   MPKI: 0.507151
PSCL5 TOTAL     ACCESS:      17026  HIT:      17026  MISS:          0  HIT %:        100  MISS %:          0   MPKI: 0
PSCL5 LOAD      ACCESS:          0  HIT:          0  MISS:          0  HIT %:       -nan  MISS %:       -nan   MPKI: 0
PSCL5 RFO       ACCESS:          0  HIT:          0  MISS:          0  HIT %:       -nan  MISS %:       -nan   MPKI: 0
PSCL5 PREFETCH  ACCESS:          0  HIT:          0  MISS:          0  HIT %:       -nan  MISS %:       -nan   MPKI: 0
PSCL5 WRITEBACK ACCESS:          0  HIT:          0  MISS:          0  HIT %:       -nan  MISS %:       -nan   MPKI: 0
PSCL4 TOTAL     ACCESS:      17026  HIT:      17026  MISS:          0  HIT %:        100  MISS %:          0   MPKI: 0
PSCL4 LOAD      ACCESS:          0  HIT:          0  MISS:          0  HIT %:       -nan  MISS %:       -nan   MPKI: 0
PSCL4 RFO       ACCESS:          0  HIT:          0  MISS:          0  HIT %:       -nan  MISS %:       -nan   MPKI: 0
PSCL4 PREFETCH  ACCESS:          0  HIT:          0  MISS:          0  HIT %:       -nan  MISS %:       -nan   MPKI: 0
PSCL4 WRITEBACK ACCESS:          0  HIT:          0  MISS:          0  HIT %:       -nan  MISS %:       -nan   MPKI: 0
PSCL3 TOTAL     ACCESS:      17026  HIT:      17026  MISS:          0  HIT %:        100  MISS %:          0   MPKI: 0
PSCL3 LOAD      ACCESS:          0  HIT:          0  MISS:          0  HIT %:       -nan  MISS %:       -nan   MPKI: 0
PSCL3 RFO       ACCESS:          0  HIT:          0  MISS:          0  HIT %:       -nan  MISS %:       -nan   MPKI: 0
PSCL3 PREFETCH  ACCESS:          0  HIT:          0  MISS:          0  HIT %:       -nan  MISS %:       -nan   MPKI: 0
PSCL3 WRITEBACK ACCESS:          0  HIT:          0  MISS:          0  HIT %:       -nan  MISS %:       -nan   MPKI: 0
PSCL2 TOTAL     ACCESS:      17026  HIT:      16988  MISS:         38  HIT %:    99.7768  MISS %:   0.223188   MPKI: 0.000187308
PSCL2 LOAD      ACCESS:          0  HIT:          0  MISS:          0  HIT %:       -nan  MISS %:       -nan   MPKI: 0
PSCL2 RFO       ACCESS:          0  HIT:          0  MISS:          0  HIT %:       -nan  MISS %:       -nan   MPKI: 0
PSCL2 PREFETCH  ACCESS:          0  HIT:          0  MISS:          0  HIT %:       -nan  MISS %:       -nan   MPKI: 0
PSCL2 WRITEBACK ACCESS:          0  HIT:          0  MISS:          0  HIT %:       -nan  MISS %:       -nan   MPKI: 0

stream: 
stream:times selected: 14694333
stream:pref_filled: 2786396
stream:pref_useful: 2647736
stream:pref_late: 451897
stream:misses: 5855
stream:misses_by_poll: 0

CS: 
CS:times selected: 4888236
CS:pref_filled: 133004
CS:pref_useful: 130457
CS:pref_late: 45515
CS:misses: 1404895
CS:misses_by_poll: 1361

CPLX: 
CPLX:times selected: 9805742
CPLX:pref_filled: 6865
CPLX:pref_useful: 1738
CPLX:pref_late: 331
CPLX:misses: 78830
CPLX:misses_by_poll: 4

NL_L1: 
NL:times selected: 150387
NL:pref_filled: 111
NL:pref_useful: 107
NL:pref_late: 27
NL:misses: 17420
NL:misses_by_poll: 0

total selections: 29538698
total_filled: 2222085
total_useful: 2105733
total_late: 502783
total_polluted: 1365
total_misses_after_warmup: 1488206
conflicts: 45
Degree Incremented Times: 775271
Degree Decremented Times: 439078

L1 IP Table Write Accesses: 88802693
L1 IP Table Read Accesses: 88802648
L1 RST Write Accesses: 47177871
L1 RST Read Accesses: 94355742
L1 CSPT Write Accesses: 47177871
L1 CSPT Read Accesses: 78217273
L1 RR Filter Tag Write Accesses: 82219887
L1 RR Filter Tag Read Accesses: 7053041074
L1 IP Table Tag Write Accesses: 88803139
L1 IP Table Tag Read Accesses: 88803139
L1 RST Tag Write Accesses: 0
L1 RST Tag Read Accesses: 434146130
L1 RR Filter Write Accesses: 0
L1 RR Filter Read Accesses: 314769652
test: 1595955
LLC TOTAL     ACCESS:    6326961  HIT:    3999899  MISS:    2327062  HIT %:    63.2199  MISS %:    36.7801   MPKI: 11.4705
LLC LOAD      ACCESS:     134726  HIT:      88045  MISS:      46681  HIT %:    65.3512  MISS %:    34.6488   MPKI: 0.230098
LLC RFO       ACCESS:    2061685  HIT:     917505  MISS:    1144180  HIT %:    44.5027  MISS %:    55.4973   MPKI: 5.63985
LLC PREFETCH  ACCESS:    2024538  HIT:     961716  MISS:    1062822  HIT %:     47.503  MISS %:     52.497   MPKI: 5.23882
LLC WRITEBACK ACCESS:    2103475  HIT:    2032417  MISS:      71058  HIT %:    96.6219  MISS %:    3.37812   MPKI: 0.350256

RAW hits: 3766621
Loads Generated: 51878358
Loads sent to L1D: 48111737
Stores Generated: 43537979
Stores sent to L1D: 43537955

CPU 1 cumulative IPC: 0.575606 instructions: 202073880 cycles: 351062868
ITLB TOTAL     ACCESS:   32745523  HIT:   32745523  MISS:          0  HIT %:        100  MISS %:          0   MPKI: 0
ITLB LOAD      ACCESS:          0  HIT:          0  MISS:          0  HIT %:       -nan  MISS %:       -nan   MPKI: 0
ITLB RFO       ACCESS:          0  HIT:          0  MISS:          0  HIT %:       -nan  MISS %:       -nan   MPKI: 0
ITLB PREFETCH  ACCESS:          0  HIT:          0  MISS:          0  HIT %:       -nan  MISS %:       -nan   MPKI: 0
ITLB WRITEBACK ACCESS:          0  HIT:          0  MISS:          0  HIT %:       -nan  MISS %:       -nan   MPKI: 0
DTLB TOTAL     ACCESS:   48781817  HIT:   48690848  MISS:      90969  HIT %:    99.8135  MISS %:   0.186481   MPKI: 0.450177
DTLB LOAD      ACCESS:          0  HIT:          0  MISS:          0  HIT %:       -nan  MISS %:       -nan   MPKI: 0
DTLB RFO       ACCESS:          0  HIT:          0  MISS:          0  HIT %:       -nan  MISS %:       -nan   MPKI: 0
DTLB PREFETCH  ACCESS:          0  HIT:          0  MISS:          0  HIT %:       -nan  MISS %:       -nan   MPKI: 0
DTLB WRITEBACK ACCESS:          0  HIT:          0  MISS:          0  HIT %:       -nan  MISS %:       -nan   MPKI: 0
STLB TOTAL     ACCESS:    5114063  HIT:    5097181  MISS:      16882  HIT %:    99.6699  MISS %:   0.330109   MPKI: 0.0835437
STLB LOAD      ACCESS:          0  HIT:          0  MISS:          0  HIT %:       -nan  MISS %:       -nan   MPKI: 0
STLB RFO       ACCESS:          0  HIT:          0  MISS:          0  HIT %:       -nan  MISS %:       -nan   MPKI: 0
STLB PREFETCH  ACCESS:          0  HIT:          0  MISS:          0  HIT %:       -nan  MISS %:       -nan   MPKI: 0
STLB WRITEBACK ACCESS:          0  HIT:          0  MISS:          0  HIT %:       -nan  MISS %:       -nan   MPKI: 0
L1D TOTAL     ACCESS:   70306753  HIT:   65200907  MISS:    5105846  HIT %:    92.7378  MISS %:    7.26224   MPKI: 25.2672
L1D LOAD      ACCESS:   21356182  HIT:   20680609  MISS:     675573  HIT %:    96.8366  MISS %:    3.16336   MPKI: 3.3432
L1D RFO       ACCESS:   31170713  HIT:   28955067  MISS:    2215646  HIT %:    92.8919  MISS %:     7.1081   MPKI: 10.9645
L1D PREFETCH  ACCESS:   17779858  HIT:   15565231  MISS:    2214627  HIT %:    87.5442  MISS %:    12.4558   MPKI: 10.9595
L1D WRITEBACK ACCESS:          0  HIT:          0  MISS:          0  HIT %:       -nan  MISS %:       -nan   MPKI: 0
L1I TOTAL     ACCESS:   33015782  HIT:   33015781  MISS:          1  HIT %:        100  MISS %: 3.02885e-06   MPKI: 4.94869e-06
L1I LOAD      ACCESS:   33015782  HIT:   33015781  MISS:          1  HIT %:        100  MISS %: 3.02885e-06   MPKI: 4.94869e-06
L1I RFO       ACCESS:          0  HIT:          0  MISS:          0  HIT %:       -nan  MISS %:       -nan   MPKI: 0
L1I PREFETCH  ACCESS:          0  HIT:          0  MISS:          0  HIT %:       -nan  MISS %:       -nan   MPKI: 0
L1I WRITEBACK ACCESS:          0  HIT:          0  MISS:          0  HIT %:       -nan  MISS %:       -nan   MPKI: 0
L2C TOTAL     ACCESS:    7344522  HIT:    3052626  MISS:    4291896  HIT %:    41.5633  MISS %:    58.4367   MPKI: 21.2392
L2C LOAD      ACCESS:     176327  HIT:      45952  MISS:     130375  HIT %:    26.0607  MISS %:    73.9393   MPKI: 0.645185
L2C RFO       ACCESS:    2213734  HIT:     162336  MISS:    2051398  HIT %:    7.33313  MISS %:    92.6669   MPKI: 10.1517
L2C PREFETCH  ACCESS:    2715679  HIT:     706835  MISS:    2008844  HIT %:    26.0279  MISS %:    73.9721   MPKI: 9.94114
L2C WRITEBACK ACCESS:    2221895  HIT:    2123139  MISS:      98756  HIT %:    95.5553  MISS %:    4.44467   MPKI: 0.488712
PSCL5 TOTAL     ACCESS:      16882  HIT:      16882  MISS:          0  HIT %:        100  MISS %:          0   MPKI: 0
PSCL5 LOAD      ACCESS:          0  HIT:          0  MISS:          0  HIT %:       -nan  MISS %:       -nan   MPKI: 0
PSCL5 RFO       ACCESS:          0  HIT:          0  MISS:          0  HIT %:       -nan  MISS %:       -nan   MPKI: 0
PSCL5 PREFETCH  ACCESS:          0  HIT:          0  MISS:          0  HIT %:       -nan  MISS %:       -nan   MPKI: 0
PSCL5 WRITEBACK ACCESS:          0  HIT:          0  MISS:          0  HIT %:       -nan  MISS %:       -nan   MPKI: 0
PSCL4 TOTAL     ACCESS:      16882  HIT:      16882  MISS:          0  HIT %:        100  MISS %:          0   MPKI: 0
PSCL4 LOAD      ACCESS:          0  HIT:          0  MISS:          0  HIT %:       -nan  MISS %:       -nan   MPKI: 0
PSCL4 RFO       ACCESS:          0  HIT:          0  MISS:          0  HIT %:       -nan  MISS %:       -nan   MPKI: 0
PSCL4 PREFETCH  ACCESS:          0  HIT:          0  MISS:          0  HIT %:       -nan  MISS %:       -nan   MPKI: 0
PSCL4 WRITEBACK ACCESS:          0  HIT:          0  MISS:          0  HIT %:       -nan  MISS %:       -nan   MPKI: 0
PSCL3 TOTAL     ACCESS:      16882  HIT:      16882  MISS:          0  HIT %:        100  MISS %:          0   MPKI: 0
PSCL3 LOAD      ACCESS:          0  HIT:          0  MISS:          0  HIT %:       -nan  MISS %:       -nan   MPKI: 0
PSCL3 RFO       ACCESS:          0  HIT:          0  MISS:          0  HIT %:       -nan  MISS %:       -nan   MPKI: 0
PSCL3 PREFETCH  ACCESS:          0  HIT:          0  MISS:          0  HIT %:       -nan  MISS %:       -nan   MPKI: 0
PSCL3 WRITEBACK ACCESS:          0  HIT:          0  MISS:          0  HIT %:       -nan  MISS %:       -nan   MPKI: 0
PSCL2 TOTAL     ACCESS:      16882  HIT:      16844  MISS:         38  HIT %:    99.7749  MISS %:   0.225092   MPKI: 0.00018805
PSCL2 LOAD      ACCESS:          0  HIT:          0  MISS:          0  HIT %:       -nan  MISS %:       -nan   MPKI: 0
PSCL2 RFO       ACCESS:          0  HIT:          0  MISS:          0  HIT %:       -nan  MISS %:       -nan   MPKI: 0
PSCL2 PREFETCH  ACCESS:          0  HIT:          0  MISS:          0  HIT %:       -nan  MISS %:       -nan   MPKI: 0
PSCL2 WRITEBACK ACCESS:          0  HIT:          0  MISS:          0  HIT %:       -nan  MISS %:       -nan   MPKI: 0

stream: 
stream:times selected: 14641406
stream:pref_filled: 2765710
stream:pref_useful: 2627462
stream:pref_late: 449506
stream:misses: 5943
stream:misses_by_poll: 0

CS: 
CS:times selected: 4871082
CS:pref_filled: 132085
CS:pref_useful: 129631
CS:pref_late: 45785
CS:misses: 1409773
CS:misses_by_poll: 1493

CPLX: 
CPLX:times selected: 9769969
CPLX:pref_filled: 6857
CPLX:pref_useful: 1700
CPLX:pref_late: 294
CPLX:misses: 78405
CPLX:misses_by_poll: 8

NL_L1: 
NL:times selected: 150062
NL:pref_filled: 107
NL:pref_useful: 104
NL:pref_late: 28
NL:misses: 17284
NL:misses_by_poll: 0

total selections: 29432519
total_filled: 2214627
total_useful: 2098613
total_late: 500524
total_polluted: 1501
total_misses_after_warmup: 1478404
conflicts: 45
Degree Incremented Times: 775271
Degree Decremented Times: 439078

L1 IP Table Write Accesses: 88802693
L1 IP Table Read Accesses: 88802648
L1 RST Write Accesses: 47177871
L1 RST Read Accesses: 94355742
L1 CSPT Write Accesses: 47177871
L1 CSPT Read Accesses: 78217273
L1 RR Filter Tag Write Accesses: 82219887
L1 RR Filter Tag Read Accesses: 7053041074
L1 IP Table Tag Write Accesses: 88803139
L1 IP Table Tag Read Accesses: 88803139
L1 RST Tag Write Accesses: 0
L1 RST Tag Read Accesses: 434146130
L1 RR Filter Write Accesses: 0
L1 RR Filter Read Accesses: 314769652
test: 1595955
LLC TOTAL     ACCESS:    6285382  HIT:    3965241  MISS:    2320141  HIT %:    63.0867  MISS %:    36.9133   MPKI: 11.4816
LLC LOAD      ACCESS:     130372  HIT:      83796  MISS:      46576  HIT %:    64.2745  MISS %:    35.7255   MPKI: 0.23049
LLC RFO       ACCESS:    2051397  HIT:     905814  MISS:    1145583  HIT %:     44.156  MISS %:     55.844   MPKI: 5.66913
LLC PREFETCH  ACCESS:    2008831  HIT:     950930  MISS:    1057901  HIT %:    47.3375  MISS %:    52.6625   MPKI: 5.23522
LLC WRITEBACK ACCESS:    2092259  HIT:    2024467  MISS:      67792  HIT %:    96.7599  MISS %:    3.24013   MPKI: 0.335481

RAW hits: 3764166
Loads Generated: 51686743
Loads sent to L1D: 47922577
Stores Generated: 43374863
Stores sent to L1D: 43374866

CPU 2 cumulative IPC: 0.584002 instructions: 205021546 cycles: 351062868
ITLB TOTAL     ACCESS:   33212062  HIT:   33212062  MISS:          0  HIT %:        100  MISS %:          0   MPKI: 0
ITLB LOAD      ACCESS:          0  HIT:          0  MISS:          0  HIT %:       -nan  MISS %:       -nan   MPKI: 0
ITLB RFO       ACCESS:          0  HIT:          0  MISS:          0  HIT %:       -nan  MISS %:       -nan   MPKI: 0
ITLB PREFETCH  ACCESS:          0  HIT:          0  MISS:          0  HIT %:       -nan  MISS %:       -nan   MPKI: 0
ITLB WRITEBACK ACCESS:          0  HIT:          0  MISS:          0  HIT %:       -nan  MISS %:       -nan   MPKI: 0
DTLB TOTAL     ACCESS:   49456387  HIT:   49364444  MISS:      91943  HIT %:    99.8141  MISS %:   0.185907   MPKI: 0.448455
DTLB LOAD      ACCESS:          0  HIT:          0  MISS:          0  HIT %:       -nan  MISS %:       -nan   MPKI: 0
DTLB RFO       ACCESS:          0  HIT:          0  MISS:          0  HIT %:       -nan  MISS %:       -nan   MPKI: 0
DTLB PREFETCH  ACCESS:          0  HIT:          0  MISS:          0  HIT %:       -nan  MISS %:       -nan   MPKI: 0
DTLB WRITEBACK ACCESS:          0  HIT:          0  MISS:          0  HIT %:       -nan  MISS %:       -nan   MPKI: 0
STLB TOTAL     ACCESS:    5100778  HIT:    5083347  MISS:      17431  HIT %:    99.6583  MISS %:   0.341732   MPKI: 0.0850203
STLB LOAD      ACCESS:          0  HIT:          0  MISS:          0  HIT %:       -nan  MISS %:       -nan   MPKI: 0
STLB RFO       ACCESS:          0  HIT:          0  MISS:          0  HIT %:       -nan  MISS %:       -nan   MPKI: 0
STLB PREFETCH  ACCESS:          0  HIT:          0  MISS:          0  HIT %:       -nan  MISS %:       -nan   MPKI: 0
STLB WRITEBACK ACCESS:          0  HIT:          0  MISS:          0  HIT %:       -nan  MISS %:       -nan   MPKI: 0
L1D TOTAL     ACCESS:   70750334  HIT:   65580904  MISS:    5169430  HIT %:    92.6934  MISS %:    7.30658   MPKI: 25.2141
L1D LOAD      ACCESS:   21645403  HIT:   20961975  MISS:     683428  HIT %:    96.8426  MISS %:    3.15738   MPKI: 3.33344
L1D RFO       ACCESS:   31528177  HIT:   29285879  MISS:    2242298  HIT %:     92.888  MISS %:    7.11204   MPKI: 10.9369
L1D PREFETCH  ACCESS:   17576754  HIT:   15333050  MISS:    2243704  HIT %:    87.2348  MISS %:    12.7652   MPKI: 10.9437
L1D WRITEBACK ACCESS:          0  HIT:          0  MISS:          0  HIT %:       -nan  MISS %:       -nan   MPKI: 0
L1I TOTAL     ACCESS:   33476493  HIT:   33476492  MISS:          1  HIT %:        100  MISS %: 2.98717e-06   MPKI: 4.87754e-06
L1I LOAD      ACCESS:   33476493  HIT:   33476492  MISS:          1  HIT %:        100  MISS %: 2.98717e-06   MPKI: 4.87754e-06
L1I RFO       ACCESS:          0  HIT:          0  MISS:          0  HIT %:       -nan  MISS %:       -nan   MPKI: 0
L1I PREFETCH  ACCESS:          0  HIT:          0  MISS:          0  HIT %:       -nan  MISS %:       -nan   MPKI: 0
L1I WRITEBACK ACCESS:          0  HIT:          0  MISS:          0  HIT %:       -nan  MISS %:       -nan   MPKI: 0
L2C TOTAL     ACCESS:    7435631  HIT:    3087284  MISS:    4348347  HIT %:    41.5201  MISS %:    58.4799   MPKI: 21.2092
L2C LOAD      ACCESS:     185804  HIT:      46205  MISS:     139599  HIT %:    24.8676  MISS %:    75.1324   MPKI: 0.680899
L2C RFO       ACCESS:    2240406  HIT:     163474  MISS:    2076932  HIT %:    7.29662  MISS %:    92.7034   MPKI: 10.1303
L2C PREFETCH  ACCESS:    2743098  HIT:     714469  MISS:    2028629  HIT %:    26.0461  MISS %:    73.9539   MPKI: 9.89471
L2C WRITEBACK ACCESS:    2248886  HIT:    2148283  MISS:     100603  HIT %:    95.5265  MISS %:    4.47346   MPKI: 0.490695
PSCL5 TOTAL     ACCESS:      17431  HIT:      17431  MISS:          0  HIT %:        100  MISS %:          0   MPKI: 0
PSCL5 LOAD      ACCESS:          0  HIT:          0  MISS:          0  HIT %:       -nan  MISS %:       -nan   MPKI: 0
PSCL5 RFO       ACCESS:          0  HIT:          0  MISS:          0  HIT %:       -nan  MISS %:       -nan   MPKI: 0
PSCL5 PREFETCH  ACCESS:          0  HIT:          0  MISS:          0  HIT %:       -nan  MISS %:       -nan   MPKI: 0
PSCL5 WRITEBACK ACCESS:          0  HIT:          0  MISS:          0  HIT %:       -nan  MISS %:       -nan   MPKI: 0
PSCL4 TOTAL     ACCESS:      17431  HIT:      17431  MISS:          0  HIT %:        100  MISS %:          0   MPKI: 0
PSCL4 LOAD      ACCESS:          0  HIT:          0  MISS:          0  HIT %:       -nan  MISS %:       -nan   MPKI: 0
PSCL4 RFO       ACCESS:          0  HIT:          0  MISS:          0  HIT %:       -nan  MISS %:       -nan   MPKI: 0
PSCL4 PREFETCH  ACCESS:          0  HIT:          0  MISS:          0  HIT %:       -nan  MISS %:       -nan   MPKI: 0
PSCL4 WRITEBACK ACCESS:          0  HIT:          0  MISS:          0  HIT %:       -nan  MISS %:       -nan   MPKI: 0
PSCL3 TOTAL     ACCESS:      17431  HIT:      17431  MISS:          0  HIT %:        100  MISS %:          0   MPKI: 0
PSCL3 LOAD      ACCESS:          0  HIT:          0  MISS:          0  HIT %:       -nan  MISS %:       -nan   MPKI: 0
PSCL3 RFO       ACCESS:          0  HIT:          0  MISS:          0  HIT %:       -nan  MISS %:       -nan   MPKI: 0
PSCL3 PREFETCH  ACCESS:          0  HIT:          0  MISS:          0  HIT %:       -nan  MISS %:       -nan   MPKI: 0
PSCL3 WRITEBACK ACCESS:          0  HIT:          0  MISS:          0  HIT %:       -nan  MISS %:       -nan   MPKI: 0
PSCL2 TOTAL     ACCESS:      17431  HIT:      17392  MISS:         39  HIT %:    99.7763  MISS %:   0.223739   MPKI: 0.000190224
PSCL2 LOAD      ACCESS:          0  HIT:          0  MISS:          0  HIT %:       -nan  MISS %:       -nan   MPKI: 0
PSCL2 RFO       ACCESS:          0  HIT:          0  MISS:          0  HIT %:       -nan  MISS %:       -nan   MPKI: 0
PSCL2 PREFETCH  ACCESS:          0  HIT:          0  MISS:          0  HIT %:       -nan  MISS %:       -nan   MPKI: 0
PSCL2 WRITEBACK ACCESS:          0  HIT:          0  MISS:          0  HIT %:       -nan  MISS %:       -nan   MPKI: 0

stream: 
stream:times selected: 14813653
stream:pref_filled: 2757299
stream:pref_useful: 2619296
stream:pref_late: 446842
stream:misses: 6021
stream:misses_by_poll: 0

CS: 
CS:times selected: 4933965
CS:pref_filled: 132324
CS:pref_useful: 129866
CS:pref_late: 46701
CS:misses: 1477947
CS:misses_by_poll: 1352

CPLX: 
CPLX:times selected: 9879339
CPLX:pref_filled: 7332
CPLX:pref_useful: 1894
CPLX:pref_late: 303
CPLX:misses: 77006
CPLX:misses_by_poll: 7

NL_L1: 
NL:times selected: 151787
NL:pref_filled: 117
NL:pref_useful: 114
NL:pref_late: 29
NL:misses: 17520
NL:misses_by_poll: 0

total selections: 29778744
total_filled: 2243704
total_useful: 2126639
total_late: 498751
total_polluted: 1359
total_misses_after_warmup: 1498194
conflicts: 45
Degree Incremented Times: 775271
Degree Decremented Times: 439078

L1 IP Table Write Accesses: 88802693
L1 IP Table Read Accesses: 88802648
L1 RST Write Accesses: 47177871
L1 RST Read Accesses: 94355742
L1 CSPT Write Accesses: 47177871
L1 CSPT Read Accesses: 78217273
L1 RR Filter Tag Write Accesses: 82219887
L1 RR Filter Tag Read Accesses: 7053041074
L1 IP Table Tag Write Accesses: 88803139
L1 IP Table Tag Read Accesses: 88803139
L1 RST Tag Write Accesses: 0
L1 RST Tag Read Accesses: 434146130
L1 RR Filter Write Accesses: 0
L1 RR Filter Read Accesses: 314769652
test: 1595955
LLC TOTAL     ACCESS:    6364425  HIT:    3978641  MISS:    2385784  HIT %:    62.5138  MISS %:    37.4862   MPKI: 11.6367
LLC LOAD      ACCESS:     139595  HIT:      91055  MISS:      48540  HIT %:     65.228  MISS %:     34.772   MPKI: 0.236756
LLC RFO       ACCESS:    2076932  HIT:     884101  MISS:    1192831  HIT %:    42.5676  MISS %:    57.4324   MPKI: 5.81808
LLC PREFETCH  ACCESS:    2028620  HIT:     961533  MISS:    1067087  HIT %:    47.3984  MISS %:    52.6016   MPKI: 5.20476
LLC WRITEBACK ACCESS:    2116694  HIT:    2041728  MISS:      74966  HIT %:    96.4583  MISS %:    3.54166   MPKI: 0.365649

RAW hits: 3803609
Loads Generated: 52463906
Loads sent to L1D: 48660297
Stores Generated: 44025883
Stores sent to L1D: 44025859

CPU 3 cumulative IPC: 0.569699 instructions: 200000003 cycles: 351062869
ITLB TOTAL     ACCESS:   32397666  HIT:   32397666  MISS:          0  HIT %:        100  MISS %:          0   MPKI: 0
ITLB LOAD      ACCESS:          0  HIT:          0  MISS:          0  HIT %:       -nan  MISS %:       -nan   MPKI: 0
ITLB RFO       ACCESS:          0  HIT:          0  MISS:          0  HIT %:       -nan  MISS %:       -nan   MPKI: 0
ITLB PREFETCH  ACCESS:          0  HIT:          0  MISS:          0  HIT %:       -nan  MISS %:       -nan   MPKI: 0
ITLB WRITEBACK ACCESS:          0  HIT:          0  MISS:          0  HIT %:       -nan  MISS %:       -nan   MPKI: 0
DTLB TOTAL     ACCESS:   48264254  HIT:   48174334  MISS:      89920  HIT %:    99.8137  MISS %:   0.186308   MPKI: 0.4496
DTLB LOAD      ACCESS:          0  HIT:          0  MISS:          0  HIT %:       -nan  MISS %:       -nan   MPKI: 0
DTLB RFO       ACCESS:          0  HIT:          0  MISS:          0  HIT %:       -nan  MISS %:       -nan   MPKI: 0
DTLB PREFETCH  ACCESS:          0  HIT:          0  MISS:          0  HIT %:       -nan  MISS %:       -nan   MPKI: 0
DTLB WRITEBACK ACCESS:          0  HIT:          0  MISS:          0  HIT %:       -nan  MISS %:       -nan   MPKI: 0
STLB TOTAL     ACCESS:    4978660  HIT:    4962359  MISS:      16301  HIT %:    99.6726  MISS %:   0.327417   MPKI: 0.081505
STLB LOAD      ACCESS:          0  HIT:          0  MISS:          0  HIT %:       -nan  MISS %:       -nan   MPKI: 0
STLB RFO       ACCESS:          0  HIT:          0  MISS:          0  HIT %:       -nan  MISS %:       -nan   MPKI: 0
STLB PREFETCH  ACCESS:          0  HIT:          0  MISS:          0  HIT %:       -nan  MISS %:       -nan   MPKI: 0
STLB WRITEBACK ACCESS:          0  HIT:          0  MISS:          0  HIT %:       -nan  MISS %:       -nan   MPKI: 0
L1D TOTAL     ACCESS:   69103311  HIT:   64051761  MISS:    5051550  HIT %:    92.6899  MISS %:    7.31014   MPKI: 25.2577
L1D LOAD      ACCESS:   21121071  HIT:   20447527  MISS:     673544  HIT %:     96.811  MISS %:    3.18897   MPKI: 3.36772
L1D RFO       ACCESS:   30938399  HIT:   28746684  MISS:    2191715  HIT %:    92.9159  MISS %:    7.08413   MPKI: 10.9586
L1D PREFETCH  ACCESS:   17043841  HIT:   14857550  MISS:    2186291  HIT %:    87.1725  MISS %:    12.8275   MPKI: 10.9315
L1D WRITEBACK ACCESS:          0  HIT:          0  MISS:          0  HIT %:       -nan  MISS %:       -nan   MPKI: 0
L1I TOTAL     ACCESS:   32652483  HIT:   32652482  MISS:          1  HIT %:        100  MISS %: 3.06255e-06   MPKI: 5e-06
L1I LOAD      ACCESS:   32652483  HIT:   32652482  MISS:          1  HIT %:        100  MISS %: 3.06255e-06   MPKI: 5e-06
L1I RFO       ACCESS:          0  HIT:          0  MISS:          0  HIT %:       -nan  MISS %:       -nan   MPKI: 0
L1I PREFETCH  ACCESS:          0  HIT:          0  MISS:          0  HIT %:       -nan  MISS %:       -nan   MPKI: 0
L1I WRITEBACK ACCESS:          0  HIT:          0  MISS:          0  HIT %:       -nan  MISS %:       -nan   MPKI: 0
L2C TOTAL     ACCESS:    7265790  HIT:    3031435  MISS:    4234355  HIT %:     41.722  MISS %:     58.278   MPKI: 21.1718
L2C LOAD      ACCESS:     176410  HIT:      45427  MISS:     130983  HIT %:    25.7508  MISS %:    74.2492   MPKI: 0.654915
L2C RFO       ACCESS:    2189817  HIT:     160896  MISS:    2028921  HIT %:    7.34746  MISS %:    92.6525   MPKI: 10.1446
L2C PREFETCH  ACCESS:    2685214  HIT:     708505  MISS:    1976709  HIT %:    26.3854  MISS %:    73.6146   MPKI: 9.88354
L2C WRITEBACK ACCESS:    2198045  HIT:    2102714  MISS:      95331  HIT %:    95.6629  MISS %:    4.33708   MPKI: 0.476655
PSCL5 TOTAL     ACCESS:      16301  HIT:      16301  MISS:          0  HIT %:        100  MISS %:          0   MPKI: 0
PSCL5 LOAD      ACCESS:          0  HIT:          0  MISS:          0  HIT %:       -nan  MISS %:       -nan   MPKI: 0
PSCL5 RFO       ACCESS:          0  HIT:          0  MISS:          0  HIT %:       -nan  MISS %:       -nan   MPKI: 0
PSCL5 PREFETCH  ACCESS:          0  HIT:          0  MISS:          0  HIT %:       -nan  MISS %:       -nan   MPKI: 0
PSCL5 WRITEBACK ACCESS:          0  HIT:          0  MISS:          0  HIT %:       -nan  MISS %:       -nan   MPKI: 0
PSCL4 TOTAL     ACCESS:      16301  HIT:      16301  MISS:          0  HIT %:        100  MISS %:          0   MPKI: 0
PSCL4 LOAD      ACCESS:          0  HIT:          0  MISS:          0  HIT %:       -nan  MISS %:       -nan   MPKI: 0
PSCL4 RFO       ACCESS:          0  HIT:          0  MISS:          0  HIT %:       -nan  MISS %:       -nan   MPKI: 0
PSCL4 PREFETCH  ACCESS:          0  HIT:          0  MISS:          0  HIT %:       -nan  MISS %:       -nan   MPKI: 0
PSCL4 WRITEBACK ACCESS:          0  HIT:          0  MISS:          0  HIT %:       -nan  MISS %:       -nan   MPKI: 0
PSCL3 TOTAL     ACCESS:      16301  HIT:      16301  MISS:          0  HIT %:        100  MISS %:          0   MPKI: 0
PSCL3 LOAD      ACCESS:          0  HIT:          0  MISS:          0  HIT %:       -nan  MISS %:       -nan   MPKI: 0
PSCL3 RFO       ACCESS:          0  HIT:          0  MISS:          0  HIT %:       -nan  MISS %:       -nan   MPKI: 0
PSCL3 PREFETCH  ACCESS:          0  HIT:          0  MISS:          0  HIT %:       -nan  MISS %:       -nan   MPKI: 0
PSCL3 WRITEBACK ACCESS:          0  HIT:          0  MISS:          0  HIT %:       -nan  MISS %:       -nan   MPKI: 0
PSCL2 TOTAL     ACCESS:      16301  HIT:      16265  MISS:         36  HIT %:    99.7792  MISS %:   0.220845   MPKI: 0.00018
PSCL2 LOAD      ACCESS:          0  HIT:          0  MISS:          0  HIT %:       -nan  MISS %:       -nan   MPKI: 0
PSCL2 RFO       ACCESS:          0  HIT:          0  MISS:          0  HIT %:       -nan  MISS %:       -nan   MPKI: 0
PSCL2 PREFETCH  ACCESS:          0  HIT:          0  MISS:          0  HIT %:       -nan  MISS %:       -nan   MPKI: 0
PSCL2 WRITEBACK ACCESS:          0  HIT:          0  MISS:          0  HIT %:       -nan  MISS %:       -nan   MPKI: 0

stream: 
stream:times selected: 14516359
stream:pref_filled: 2726877
stream:pref_useful: 2589682
stream:pref_late: 448432
stream:misses: 5887
stream:misses_by_poll: 0

CS: 
CS:times selected: 4834250
CS:pref_filled: 127339
CS:pref_useful: 124994
CS:pref_late: 44934
CS:misses: 1425508
CS:misses_by_poll: 1353

CPLX: 
CPLX:times selected: 9681762
CPLX:pref_filled: 6693
CPLX:pref_useful: 1775
CPLX:pref_late: 308
CPLX:misses: 77685
CPLX:misses_by_poll: 3

NL_L1: 
NL:times selected: 148086
NL:pref_filled: 105
NL:pref_useful: 101
NL:pref_late: 31
NL:misses: 17128
NL:misses_by_poll: 0

total selections: 29180457
total_filled: 2186291
total_useful: 2071470
total_late: 498391
total_polluted: 1356
total_misses_after_warmup: 1474354
conflicts: 45
Degree Incremented Times: 775271
Degree Decremented Times: 439078

L1 IP Table Write Accesses: 88802693
L1 IP Table Read Accesses: 88802648
L1 RST Write Accesses: 47177871
L1 RST Read Accesses: 94355742
L1 CSPT Write Accesses: 47177871
L1 CSPT Read Accesses: 78217273
L1 RR Filter Tag Write Accesses: 82219887
L1 RR Filter Tag Read Accesses: 7053041074
L1 IP Table Tag Write Accesses: 88803139
L1 IP Table Tag Read Accesses: 88803139
L1 RST Tag Write Accesses: 0
L1 RST Tag Read Accesses: 434146130
L1 RR Filter Write Accesses: 0
L1 RR Filter Read Accesses: 314769652
test: 1595955
LLC TOTAL     ACCESS:    6209248  HIT:    3881329  MISS:    2327919  HIT %:    62.5088  MISS %:    37.4912   MPKI: 11.6396
LLC LOAD      ACCESS:     130979  HIT:      83622  MISS:      47357  HIT %:    63.8438  MISS %:    36.1562   MPKI: 0.236785
LLC RFO       ACCESS:    2028920  HIT:     883164  MISS:    1145756  HIT %:    43.5288  MISS %:    56.4712   MPKI: 5.72878
LLC PREFETCH  ACCESS:    1976703  HIT:     913528  MISS:    1063175  HIT %:    46.2147  MISS %:    53.7853   MPKI: 5.31587
LLC WRITEBACK ACCESS:    2070235  HIT:    2000814  MISS:      69421  HIT %:    96.6467  MISS %:    3.35329   MPKI: 0.347105

RAW hits: 3715918
Loads Generated: 51161450
Loads sent to L1D: 47445527
Stores Generated: 42934188
Stores sent to L1D: 42934169

Region of Interest Statistics

CPU 0 cumulative IPC: 0.582276 instructions: 200000001 cycles: 343479976
ITLB TOTAL     ACCESS:   32403234  HIT:   32403234  MISS:          0  HIT %:        100  MISS %:          0   MPKI: 0
ITLB LOAD TRANSLATION ACCESS:   32403234  HIT:   32403234  MISS:          0  HIT %:        100  MISS %:          0   MPKI: 0
ITLB PREFETCH  REQUESTED:          0  ISSUED:          0  USEFUL:          0  USELESS:          0
ITLB USEFUL LOAD PREFETCHES:          0 PREFETCH ISSUED TO LOWER LEVEL:          0  ACCURACY: -nan
ITLB TIMELY PREFETCHES:          0 LATE PREFETCHES: 0 DROPPED PREFETCHES: 0
ITLB PREFETCHES SAME FILL-ORIGIN LEVEL: 0 DIFFERENT FILL-ORIGIN LEVEL: 0
ITLB AVERAGE MISS LATENCY: -nan cycles
ITLB RQ	ACCESS:   33143316	FORWARD:          0	MERGED:     270412	TO_CACHE:   32872904

DTLB TOTAL     ACCESS:   48341555  HIT:   48251643  MISS:      89912  HIT %:     99.814  MISS %:   0.185993   MPKI: 0.44956
DTLB LOAD TRANSLATION ACCESS:   48341555  HIT:   48251643  MISS:      89912  HIT %:     99.814  MISS %:   0.185993   MPKI: 0.44956
DTLB PREFETCH  REQUESTED:          0  ISSUED:          0  USEFUL:          0  USELESS:          0
DTLB USEFUL LOAD PREFETCHES:          0 PREFETCH ISSUED TO LOWER LEVEL:          0  ACCURACY: -nan
DTLB TIMELY PREFETCHES:          0 LATE PREFETCHES: 0 DROPPED PREFETCHES: 0
DTLB PREFETCHES SAME FILL-ORIGIN LEVEL: 0 DIFFERENT FILL-ORIGIN LEVEL: 0
DTLB AVERAGE MISS LATENCY: 163.377 cycles
DTLB RQ	ACCESS:   63950681	FORWARD:          0	MERGED:   14859597	TO_CACHE:   49091084

STLB TOTAL     ACCESS:    5045429  HIT:    5029128  MISS:      16301  HIT %:    99.6769  MISS %:   0.323085   MPKI: 0.081505
STLB LOAD TRANSLATION ACCESS:      89912  HIT:      73611  MISS:      16301  HIT %:    81.8701  MISS %:    18.1299   MPKI: 0.081505
STLB TRANSLATION FROM L1D PREFETCHER ACCESS:    4955517  HIT:    4955517  MISS:          0  HIT %:        100  MISS %:          0   MPKI: 0
STLB PREFETCH  REQUESTED:          0  ISSUED:          0  USEFUL:          0  USELESS:          0
STLB USEFUL LOAD PREFETCHES:          0 PREFETCH ISSUED TO LOWER LEVEL:          0  ACCURACY: -nan
STLB TIMELY PREFETCHES:          0 LATE PREFETCHES: 0 DROPPED PREFETCHES: 0
STLB PREFETCHES SAME FILL-ORIGIN LEVEL: 0 DIFFERENT FILL-ORIGIN LEVEL: 0
STLB AVERAGE MISS LATENCY: 846.373 cycles
STLB RQ	ACCESS:   19298412	FORWARD:          0	MERGED:   14187342	TO_CACHE:    5111070

STLB Hit, L1D data hit: 0
STLB Hit, L2C data hit: 0
STLB Hit, LLC data hit: 0
STLB Hit, LLC data miss: 0
STLB STLB hints to L2: 0
L1D TOTAL     ACCESS:   69467533  HIT:   64416249  MISS:    5051284  HIT %:    92.7286  MISS %:    7.27143   MPKI: 25.2564
L1D LOAD      ACCESS:   21172796  HIT:   20505819  MISS:     666977  HIT %:    96.8498  MISS %:    3.15016   MPKI: 3.33488
L1D RFO       ACCESS:   30891735  HIT:   28699975  MISS:    2191760  HIT %:     92.905  MISS %:    7.09497   MPKI: 10.9588
L1D PREFETCH  ACCESS:   17403002  HIT:   15210455  MISS:    2192547  HIT %:    87.4013  MISS %:    12.5987   MPKI: 10.9627
L1D PREFETCH  REQUESTED:   39832200  ISSUED:   38759020  USEFUL:    2105733  USELESS:     116359
L1D USEFUL LOAD PREFETCHES:    2105733 PREFETCH ISSUED TO LOWER LEVEL:    2725374  ACCURACY: 77.264
L1D TIMELY PREFETCHES:    2105733 LATE PREFETCHES: 501477 DROPPED PREFETCHES: 0
L1D PREFETCHES SAME FILL-ORIGIN LEVEL: 2725374 DIFFERENT FILL-ORIGIN LEVEL: 0
L1D AVERAGE MISS LATENCY: 371.439 cycles
L1D RQ	ACCESS:   48111737	FORWARD:          0	MERGED:   25518734	TO_CACHE:   22261058
L1D WQ	ACCESS:   43537955	FORWARD:     425577	MERGED:    1848332	TO_CACHE:   41689623
L1D PQ	ACCESS:   19552134	FORWARD:          0	MERGED:     251616	TO_CACHE:   19206886

L1D UNIQUE REGIONS ACCESSED: 0
L1D REGIONS CONFLICTS: 0
L1D Cross Page Prefetch Requests: 0
L1D Same Page Prefetch Requests: 23300892
L1D ROI Sum of L1D PQ occupancy: 515532801
L1D PREFETCHES PUSHED FROM L2C: 0
L1I TOTAL     ACCESS:   32666966  HIT:   32666965  MISS:          1  HIT %:        100  MISS %: 3.0612e-06   MPKI: 5e-06
L1I LOAD      ACCESS:   32666966  HIT:   32666965  MISS:          1  HIT %:        100  MISS %: 3.0612e-06   MPKI: 5e-06
L1I PREFETCH  REQUESTED:          0  ISSUED:          0  USEFUL:          0  USELESS:          0
L1I USEFUL LOAD PREFETCHES:          0 PREFETCH ISSUED TO LOWER LEVEL:          0  ACCURACY: -nan
L1I TIMELY PREFETCHES:          0 LATE PREFETCHES: 0 DROPPED PREFETCHES: 0
L1I PREFETCHES SAME FILL-ORIGIN LEVEL: 0 DIFFERENT FILL-ORIGIN LEVEL: 0
L1I AVERAGE MISS LATENCY: 1543 cycles
L1I RQ	ACCESS:   50277947	FORWARD:          0	MERGED:   17134631	TO_CACHE:   33143316

BTB TOTAL     ACCESS:   19983044  HIT:   19982699  MISS:        345  HIT %:    99.9983  MISS %: 0.00172646   MPKI: 0.001725
BTB BRANCH_DIRECT_JUMP	ACCESS:       1127  HIT:       1123  MISS:          4
BTB BRANCH_INDIRECT	ACCESS:          0  HIT:          0  MISS:          0
BTB BRANCH_CONDITIONAL	ACCESS:   19978729  HIT:   19978698  MISS:         31
BTB BRANCH_DIRECT_CALL	ACCESS:       1594  HIT:       1584  MISS:         10
BTB BRANCH_INDIRECT_CALL	ACCESS:          0  HIT:          0  MISS:          0
BTB BRANCH_RETURN	ACCESS:       1594  HIT:       1294  MISS:        300
BTB BRANCH_OTHER ACCESS:          0  HIT:          0  MISS:          0

L2C TOTAL     ACCESS:    7265588  HIT:    3012037  MISS:    4253551  HIT %:    41.4562  MISS %:    58.5438   MPKI: 21.2678
L2C LOAD      ACCESS:     176529  HIT:      45358  MISS:     131171  HIT %:    25.6944  MISS %:    74.3056   MPKI: 0.655855
L2C DATA LOAD MPKI: 0.65585
L2C INSTRUCTION LOAD MPKI: 5e-06
L2C RFO       ACCESS:    2189896  HIT:     161605  MISS:    2028291  HIT %:    7.37957  MISS %:    92.6204   MPKI: 10.1415
L2C PREFETCH  ACCESS:    2684739  HIT:     693473  MISS:    1991266  HIT %:    25.8302  MISS %:    74.1698   MPKI: 9.95633
L2C DATA PREFETCH MPKI: 9.95633
L2C INSTRUCTION PREFETCH MPKI: 0
L2C WRITEBACK ACCESS:    2198120  HIT:    2097699  MISS:     100421  HIT %:    95.4315  MISS %:    4.56849   MPKI: 0.502105
L2C LOAD TRANSLATION ACCESS:      16304  HIT:      13902  MISS:       2402  HIT %:    85.2674  MISS %:    14.7326   MPKI: 0.01201
L2C PREFETCH  REQUESTED:          0  ISSUED:          0  USEFUL:      63916  USELESS:    1960555
L2C USEFUL LOAD PREFETCHES:      63916 PREFETCH ISSUED TO LOWER LEVEL:    2024546  ACCURACY: 3.15705
L2C TIMELY PREFETCHES:      63916 LATE PREFETCHES: 0 DROPPED PREFETCHES: 0
L2C PREFETCHES SAME FILL-ORIGIN LEVEL: 0 DIFFERENT FILL-ORIGIN LEVEL: 0
L2C AVERAGE MISS LATENCY: 550.637 cycles
L2C RQ	ACCESS:    2423381	FORWARD:          0	MERGED:          0	TO_CACHE:    2423298
L2C WQ	ACCESS:    2233700	FORWARD:        122	MERGED:          0	TO_CACHE:    2233700
L2C PQ	ACCESS:    2725374	FORWARD:          0	MERGED:          0	TO_CACHE:    2725335

L2C Instructions Evicting Data 1
L2C Translations Evicting Data 2535
L2C Data Evicting Data 4218492
L2C Instructions Evicting Instructions 0
L2C Translations Evicting Instructions 0
L2C Data Evicting Instructions 1
L2C Instructions Evicting Translations 0
L2C Translations Evicting Translations 2
L2C Data Evicting Translations 2465
L2C Dense regions hint from L2: 0
PSCL5 TOTAL     ACCESS:      16301  HIT:      16301  MISS:          0  HIT %:        100  MISS %:          0   MPKI: 0
PSCL5 LOAD TRANSLATION ACCESS:      16301  HIT:      16301  MISS:          0  HIT %:        100  MISS %:          0   MPKI: 0
PSCL5 PREFETCH  REQUESTED:          0  ISSUED:          0  USEFUL:          0  USELESS:          0
PSCL5 USEFUL LOAD PREFETCHES:          0 PREFETCH ISSUED TO LOWER LEVEL:          0  ACCURACY: -nan
PSCL5 TIMELY PREFETCHES:          0 LATE PREFETCHES: 0 DROPPED PREFETCHES: 0
PSCL5 PREFETCHES SAME FILL-ORIGIN LEVEL: 0 DIFFERENT FILL-ORIGIN LEVEL: 0

PSCL4 TOTAL     ACCESS:      16301  HIT:      16301  MISS:          0  HIT %:        100  MISS %:          0   MPKI: 0
PSCL4 LOAD TRANSLATION ACCESS:      16301  HIT:      16301  MISS:          0  HIT %:        100  MISS %:          0   MPKI: 0
PSCL4 PREFETCH  REQUESTED:          0  ISSUED:          0  USEFUL:          0  USELESS:          0
PSCL4 USEFUL LOAD PREFETCHES:          0 PREFETCH ISSUED TO LOWER LEVEL:          0  ACCURACY: -nan
PSCL4 TIMELY PREFETCHES:          0 LATE PREFETCHES: 0 DROPPED PREFETCHES: 0
PSCL4 PREFETCHES SAME FILL-ORIGIN LEVEL: 0 DIFFERENT FILL-ORIGIN LEVEL: 0

PSCL3 TOTAL     ACCESS:      16301  HIT:      16301  MISS:          0  HIT %:        100  MISS %:          0   MPKI: 0
PSCL3 LOAD TRANSLATION ACCESS:      16301  HIT:      16301  MISS:          0  HIT %:        100  MISS %:          0   MPKI: 0
PSCL3 PREFETCH  REQUESTED:          0  ISSUED:          0  USEFUL:          0  USELESS:          0
PSCL3 USEFUL LOAD PREFETCHES:          0 PREFETCH ISSUED TO LOWER LEVEL:          0  ACCURACY: -nan
PSCL3 TIMELY PREFETCHES:          0 LATE PREFETCHES: 0 DROPPED PREFETCHES: 0
PSCL3 PREFETCHES SAME FILL-ORIGIN LEVEL: 0 DIFFERENT FILL-ORIGIN LEVEL: 0

PSCL2 TOTAL     ACCESS:      16301  HIT:      16265  MISS:         36  HIT %:    99.7792  MISS %:   0.220845   MPKI: 0.00018
PSCL2 LOAD TRANSLATION ACCESS:      16301  HIT:      16265  MISS:         36  HIT %:    99.7792  MISS %:   0.220845   MPKI: 0.00018
PSCL2 PREFETCH  REQUESTED:          0  ISSUED:          0  USEFUL:          0  USELESS:          0
PSCL2 USEFUL LOAD PREFETCHES:          0 PREFETCH ISSUED TO LOWER LEVEL:          0  ACCURACY: -nan
PSCL2 TIMELY PREFETCHES:          0 LATE PREFETCHES: 0 DROPPED PREFETCHES: 0
PSCL2 PREFETCHES SAME FILL-ORIGIN LEVEL: 0 DIFFERENT FILL-ORIGIN LEVEL: 0

LLC TOTAL     ACCESS:    6223194  HIT:    3953990  MISS:    2269204  HIT %:    63.5363  MISS %:    36.4637   MPKI: 11.346
LLC LOAD      ACCESS:     131168  HIT:      85929  MISS:      45239  HIT %:    65.5106  MISS %:    34.4894   MPKI: 0.226195
LLC RFO       ACCESS:    2028290  HIT:     913318  MISS:    1114972  HIT %:     45.029  MISS %:     54.971   MPKI: 5.57486
LLC PREFETCH  ACCESS:    1991260  HIT:     953263  MISS:    1037997  HIT %:    47.8724  MISS %:    52.1276   MPKI: 5.18998
LLC WRITEBACK ACCESS:    2070074  HIT:    2001299  MISS:      68775  HIT %:    96.6777  MISS %:    3.32234   MPKI: 0.343875
LLC LOAD TRANSLATION ACCESS:       2402  HIT:        181  MISS:       2221  HIT %:    7.53539  MISS %:    92.4646   MPKI: 0.011105
LLC PREFETCH  REQUESTED:          0  ISSUED:          0  USEFUL:    1419159  USELESS:    2820893
LLC USEFUL LOAD PREFETCHES:    1419159 PREFETCH ISSUED TO LOWER LEVEL:    4252432  ACCURACY: 33.3729
LLC TIMELY PREFETCHES:    1419159 LATE PREFETCHES: 0 DROPPED PREFETCHES: 0
LLC PREFETCHES SAME FILL-ORIGIN LEVEL: 0 DIFFERENT FILL-ORIGIN LEVEL: 0
LLC AVERAGE MISS LATENCY: 3896.84 cycles
LLC RQ	ACCESS:    8764688	FORWARD:          0	MERGED:          0	TO_CACHE:    8764671
LLC WQ	ACCESS:    8382663	FORWARD:         51	MERGED:          0	TO_CACHE:    8382663
LLC PQ	ACCESS:    8038743	FORWARD:          0	MERGED:          0	TO_CACHE:    8038709

LLC Dense regions hint to LLC: 0

RAW hits: 3708033
Loads Generated: 51161449
Loads sent to L1D: 47453410
Stores Generated: 42934185
Stores sent to L1D: 42934169
Major fault: 0 Minor fault: 21110
Allocated PAGES: 84440

CPU 1 cumulative IPC: 0.578557 instructions: 200000000 cycles: 345687723
ITLB TOTAL     ACCESS:   32404642  HIT:   32404642  MISS:          0  HIT %:        100  MISS %:          0   MPKI: 0
ITLB LOAD TRANSLATION ACCESS:   32404642  HIT:   32404642  MISS:          0  HIT %:        100  MISS %:          0   MPKI: 0
ITLB PREFETCH  REQUESTED:          0  ISSUED:          0  USEFUL:          0  USELESS:          0
ITLB USEFUL LOAD PREFETCHES:          0 PREFETCH ISSUED TO LOWER LEVEL:          0  ACCURACY: -nan
ITLB TIMELY PREFETCHES:          0 LATE PREFETCHES: 0 DROPPED PREFETCHES: 0
ITLB PREFETCHES SAME FILL-ORIGIN LEVEL: 0 DIFFERENT FILL-ORIGIN LEVEL: 0
ITLB AVERAGE MISS LATENCY: -nan cycles
ITLB RQ	ACCESS:   33015781	FORWARD:          0	MERGED:     270259	TO_CACHE:   32745522

DTLB TOTAL     ACCESS:   48313291  HIT:   48223374  MISS:      89917  HIT %:    99.8139  MISS %:   0.186112   MPKI: 0.449585
DTLB LOAD TRANSLATION ACCESS:   48313291  HIT:   48223374  MISS:      89917  HIT %:    99.8139  MISS %:   0.186112   MPKI: 0.449585
DTLB PREFETCH  REQUESTED:          0  ISSUED:          0  USEFUL:          0  USELESS:          0
DTLB USEFUL LOAD PREFETCHES:          0 PREFETCH ISSUED TO LOWER LEVEL:          0  ACCURACY: -nan
DTLB TIMELY PREFETCHES:          0 LATE PREFETCHES: 0 DROPPED PREFETCHES: 0
DTLB PREFETCHES SAME FILL-ORIGIN LEVEL: 0 DIFFERENT FILL-ORIGIN LEVEL: 0
DTLB AVERAGE MISS LATENCY: 166.097 cycles
DTLB RQ	ACCESS:   63689751	FORWARD:          0	MERGED:   14809224	TO_CACHE:   48880527

STLB TOTAL     ACCESS:    5067762  HIT:    5051461  MISS:      16301  HIT %:    99.6783  MISS %:   0.321661   MPKI: 0.081505
STLB LOAD TRANSLATION ACCESS:      89917  HIT:      73616  MISS:      16301  HIT %:    81.8711  MISS %:    18.1289   MPKI: 0.081505
STLB TRANSLATION FROM L1D PREFETCHER ACCESS:    4977845  HIT:    4977845  MISS:          0  HIT %:        100  MISS %:          0   MPKI: 0
STLB PREFETCH  REQUESTED:          0  ISSUED:          0  USEFUL:          0  USELESS:          0
STLB USEFUL LOAD PREFETCHES:          0 PREFETCH ISSUED TO LOWER LEVEL:          0  ACCURACY: -nan
STLB TIMELY PREFETCHES:          0 LATE PREFETCHES: 0 DROPPED PREFETCHES: 0
STLB PREFETCHES SAME FILL-ORIGIN LEVEL: 0 DIFFERENT FILL-ORIGIN LEVEL: 0
STLB AVERAGE MISS LATENCY: 861.607 cycles
STLB RQ	ACCESS:   19456278	FORWARD:          0	MERGED:   14342215	TO_CACHE:    5114063

STLB Hit, L1D data hit: 0
STLB Hit, L2C data hit: 0
STLB Hit, LLC data hit: 0
STLB Hit, LLC data miss: 0
STLB STLB hints to L2: 0
L1D TOTAL     ACCESS:   69674735  HIT:   64623140  MISS:    5051595  HIT %:    92.7497  MISS %:    7.25025   MPKI: 25.258
L1D LOAD      ACCESS:   21152915  HIT:   20488123  MISS:     664792  HIT %:    96.8572  MISS %:    3.14279   MPKI: 3.32396
L1D RFO       ACCESS:   30890381  HIT:   28698571  MISS:    2191810  HIT %:    92.9046  MISS %:    7.09545   MPKI: 10.959
L1D PREFETCH  ACCESS:   17631439  HIT:   15436446  MISS:    2194993  HIT %:    87.5507  MISS %:    12.4493   MPKI: 10.975
L1D PREFETCH  REQUESTED:   40189300  ISSUED:   39075873  USEFUL:    2098613  USELESS:     116005
L1D USEFUL LOAD PREFETCHES:    2098613 PREFETCH ISSUED TO LOWER LEVEL:    2715718  ACCURACY: 77.2765
L1D TIMELY PREFETCHES:    2098613 LATE PREFETCHES: 499248 DROPPED PREFETCHES: 0
L1D PREFETCHES SAME FILL-ORIGIN LEVEL: 2715718 DIFFERENT FILL-ORIGIN LEVEL: 0
L1D AVERAGE MISS LATENCY: 369.948 cycles
L1D RQ	ACCESS:   47922577	FORWARD:          0	MERGED:   25435489	TO_CACHE:   22159013
L1D WQ	ACCESS:   43374866	FORWARD:     422598	MERGED:    1844128	TO_CACHE:   41530738
L1D PQ	ACCESS:   19710564	FORWARD:          0	MERGED:     250732	TO_CACHE:   19365309

L1D UNIQUE REGIONS ACCESSED: 0
L1D REGIONS CONFLICTS: 0
L1D Cross Page Prefetch Requests: 0
L1D Same Page Prefetch Requests: 23327073
L1D ROI Sum of L1D PQ occupancy: 515735316
L1D PREFETCHES PUSHED FROM L2C: 0
L1I TOTAL     ACCESS:   32668773  HIT:   32668772  MISS:          1  HIT %:        100  MISS %: 3.06103e-06   MPKI: 5e-06
L1I LOAD      ACCESS:   32668773  HIT:   32668772  MISS:          1  HIT %:        100  MISS %: 3.06103e-06   MPKI: 5e-06
L1I PREFETCH  REQUESTED:          0  ISSUED:          0  USEFUL:          0  USELESS:          0
L1I USEFUL LOAD PREFETCHES:          0 PREFETCH ISSUED TO LOWER LEVEL:          0  ACCURACY: -nan
L1I TIMELY PREFETCHES:          0 LATE PREFETCHES: 0 DROPPED PREFETCHES: 0
L1I PREFETCHES SAME FILL-ORIGIN LEVEL: 0 DIFFERENT FILL-ORIGIN LEVEL: 0
L1I AVERAGE MISS LATENCY: 1243 cycles
L1I RQ	ACCESS:   50089136	FORWARD:          0	MERGED:   17073355	TO_CACHE:   33015781

BTB TOTAL     ACCESS:   19983022  HIT:   19982677  MISS:        345  HIT %:    99.9983  MISS %: 0.00172647   MPKI: 0.001725
BTB BRANCH_DIRECT_JUMP	ACCESS:       1127  HIT:       1123  MISS:          4
BTB BRANCH_INDIRECT	ACCESS:          0  HIT:          0  MISS:          0
BTB BRANCH_CONDITIONAL	ACCESS:   19978707  HIT:   19978676  MISS:         31
BTB BRANCH_DIRECT_CALL	ACCESS:       1594  HIT:       1584  MISS:         10
BTB BRANCH_INDIRECT_CALL	ACCESS:          0  HIT:          0  MISS:          0
BTB BRANCH_RETURN	ACCESS:       1594  HIT:       1294  MISS:        300
BTB BRANCH_OTHER ACCESS:          0  HIT:          0  MISS:          0

L2C TOTAL     ACCESS:    7265881  HIT:    3022708  MISS:    4243173  HIT %:    41.6014  MISS %:    58.3986   MPKI: 21.2159
L2C LOAD      ACCESS:     172813  HIT:      45158  MISS:     127655  HIT %:    26.1311  MISS %:    73.8689   MPKI: 0.638275
L2C DATA LOAD MPKI: 0.63827
L2C INSTRUCTION LOAD MPKI: 5e-06
L2C RFO       ACCESS:    2189908  HIT:     160966  MISS:    2028942  HIT %:    7.35035  MISS %:    92.6496   MPKI: 10.1447
L2C PREFETCH  ACCESS:    2688770  HIT:     701567  MISS:    1987203  HIT %:    26.0925  MISS %:    73.9075   MPKI: 9.93601
L2C DATA PREFETCH MPKI: 9.93601
L2C INSTRUCTION PREFETCH MPKI: 0
L2C WRITEBACK ACCESS:    2198086  HIT:    2101137  MISS:      96949  HIT %:    95.5894  MISS %:    4.41061   MPKI: 0.484745
L2C LOAD TRANSLATION ACCESS:      16304  HIT:      13880  MISS:       2424  HIT %:    85.1325  MISS %:    14.8675   MPKI: 0.01212
L2C PREFETCH  REQUESTED:          0  ISSUED:          0  USEFUL:      63639  USELESS:    1945607
L2C USEFUL LOAD PREFETCHES:      63639 PREFETCH ISSUED TO LOWER LEVEL:    2008851  ACCURACY: 3.16793
L2C TIMELY PREFETCHES:      63639 LATE PREFETCHES: 0 DROPPED PREFETCHES: 0
L2C PREFETCHES SAME FILL-ORIGIN LEVEL: 0 DIFFERENT FILL-ORIGIN LEVEL: 0
L2C AVERAGE MISS LATENCY: 550.083 cycles
L2C RQ	ACCESS:    2407031	FORWARD:          0	MERGED:          0	TO_CACHE:    2406956
L2C WQ	ACCESS:    2221895	FORWARD:        107	MERGED:          0	TO_CACHE:    2221895
L2C PQ	ACCESS:    2715718	FORWARD:          0	MERGED:          0	TO_CACHE:    2715686

L2C Instructions Evicting Data 1
L2C Translations Evicting Data 2522
L2C Data Evicting Data 4188158
L2C Instructions Evicting Instructions 0
L2C Translations Evicting Instructions 0
L2C Data Evicting Instructions 1
L2C Instructions Evicting Translations 0
L2C Translations Evicting Translations 1
L2C Data Evicting Translations 2457
L2C Dense regions hint from L2: 0
PSCL5 TOTAL     ACCESS:      16301  HIT:      16301  MISS:          0  HIT %:        100  MISS %:          0   MPKI: 0
PSCL5 LOAD TRANSLATION ACCESS:      16301  HIT:      16301  MISS:          0  HIT %:        100  MISS %:          0   MPKI: 0
PSCL5 PREFETCH  REQUESTED:          0  ISSUED:          0  USEFUL:          0  USELESS:          0
PSCL5 USEFUL LOAD PREFETCHES:          0 PREFETCH ISSUED TO LOWER LEVEL:          0  ACCURACY: -nan
PSCL5 TIMELY PREFETCHES:          0 LATE PREFETCHES: 0 DROPPED PREFETCHES: 0
PSCL5 PREFETCHES SAME FILL-ORIGIN LEVEL: 0 DIFFERENT FILL-ORIGIN LEVEL: 0

PSCL4 TOTAL     ACCESS:      16301  HIT:      16301  MISS:          0  HIT %:        100  MISS %:          0   MPKI: 0
PSCL4 LOAD TRANSLATION ACCESS:      16301  HIT:      16301  MISS:          0  HIT %:        100  MISS %:          0   MPKI: 0
PSCL4 PREFETCH  REQUESTED:          0  ISSUED:          0  USEFUL:          0  USELESS:          0
PSCL4 USEFUL LOAD PREFETCHES:          0 PREFETCH ISSUED TO LOWER LEVEL:          0  ACCURACY: -nan
PSCL4 TIMELY PREFETCHES:          0 LATE PREFETCHES: 0 DROPPED PREFETCHES: 0
PSCL4 PREFETCHES SAME FILL-ORIGIN LEVEL: 0 DIFFERENT FILL-ORIGIN LEVEL: 0

PSCL3 TOTAL     ACCESS:      16301  HIT:      16301  MISS:          0  HIT %:        100  MISS %:          0   MPKI: 0
PSCL3 LOAD TRANSLATION ACCESS:      16301  HIT:      16301  MISS:          0  HIT %:        100  MISS %:          0   MPKI: 0
PSCL3 PREFETCH  REQUESTED:          0  ISSUED:          0  USEFUL:          0  USELESS:          0
PSCL3 USEFUL LOAD PREFETCHES:          0 PREFETCH ISSUED TO LOWER LEVEL:          0  ACCURACY: -nan
PSCL3 TIMELY PREFETCHES:          0 LATE PREFETCHES: 0 DROPPED PREFETCHES: 0
PSCL3 PREFETCHES SAME FILL-ORIGIN LEVEL: 0 DIFFERENT FILL-ORIGIN LEVEL: 0

PSCL2 TOTAL     ACCESS:      16301  HIT:      16265  MISS:         36  HIT %:    99.7792  MISS %:   0.220845   MPKI: 0.00018
PSCL2 LOAD TRANSLATION ACCESS:      16301  HIT:      16265  MISS:         36  HIT %:    99.7792  MISS %:   0.220845   MPKI: 0.00018
PSCL2 PREFETCH  REQUESTED:          0  ISSUED:          0  USEFUL:          0  USELESS:          0
PSCL2 USEFUL LOAD PREFETCHES:          0 PREFETCH ISSUED TO LOWER LEVEL:          0  ACCURACY: -nan
PSCL2 TIMELY PREFETCHES:          0 LATE PREFETCHES: 0 DROPPED PREFETCHES: 0
PSCL2 PREFETCHES SAME FILL-ORIGIN LEVEL: 0 DIFFERENT FILL-ORIGIN LEVEL: 0

LLC TOTAL     ACCESS:    6216418  HIT:    3937223  MISS:    2279195  HIT %:    63.3359  MISS %:    36.6641   MPKI: 11.396
LLC LOAD      ACCESS:     127652  HIT:      82117  MISS:      45535  HIT %:    64.3288  MISS %:    35.6712   MPKI: 0.227675
LLC RFO       ACCESS:    2028941  HIT:     904994  MISS:    1123947  HIT %:    44.6043  MISS %:    55.3957   MPKI: 5.61974
LLC PREFETCH  ACCESS:    1987190  HIT:     945817  MISS:    1041373  HIT %:    47.5957  MISS %:    52.4043   MPKI: 5.20686
LLC WRITEBACK ACCESS:    2070211  HIT:    2004078  MISS:      66133  HIT %:    96.8055  MISS %:    3.19451   MPKI: 0.330665
LLC LOAD TRANSLATION ACCESS:       2424  HIT:        217  MISS:       2207  HIT %:    8.95215  MISS %:    91.0479   MPKI: 0.011035
LLC PREFETCH  REQUESTED:          0  ISSUED:          0  USEFUL:    1419159  USELESS:    2820893
LLC USEFUL LOAD PREFETCHES:    1419159 PREFETCH ISSUED TO LOWER LEVEL:    4252432  ACCURACY: 33.3729
LLC TIMELY PREFETCHES:    1419159 LATE PREFETCHES: 0 DROPPED PREFETCHES: 0
LLC PREFETCHES SAME FILL-ORIGIN LEVEL: 0 DIFFERENT FILL-ORIGIN LEVEL: 0
LLC AVERAGE MISS LATENCY: 3879.76 cycles
LLC RQ	ACCESS:    8764688	FORWARD:          0	MERGED:          0	TO_CACHE:    8764671
LLC WQ	ACCESS:    8382663	FORWARD:         51	MERGED:          0	TO_CACHE:    8382663
LLC PQ	ACCESS:    8038743	FORWARD:          0	MERGED:          0	TO_CACHE:    8038709

LLC Dense regions hint to LLC: 0

RAW hits: 3712377
Loads Generated: 51161434
Loads sent to L1D: 47449056
Stores Generated: 42934173
Stores sent to L1D: 42934168
Major fault: 0 Minor fault: 21110
Allocated PAGES: 84440

CPU 2 cumulative IPC: 0.589165 instructions: 200000001 cycles: 339463665
ITLB TOTAL     ACCESS:   32390521  HIT:   32390521  MISS:          0  HIT %:        100  MISS %:          0   MPKI: 0
ITLB LOAD TRANSLATION ACCESS:   32390521  HIT:   32390521  MISS:          0  HIT %:        100  MISS %:          0   MPKI: 0
ITLB PREFETCH  REQUESTED:          0  ISSUED:          0  USEFUL:          0  USELESS:          0
ITLB USEFUL LOAD PREFETCHES:          0 PREFETCH ISSUED TO LOWER LEVEL:          0  ACCURACY: -nan
ITLB TIMELY PREFETCHES:          0 LATE PREFETCHES: 0 DROPPED PREFETCHES: 0
ITLB PREFETCHES SAME FILL-ORIGIN LEVEL: 0 DIFFERENT FILL-ORIGIN LEVEL: 0
ITLB AVERAGE MISS LATENCY: -nan cycles
ITLB RQ	ACCESS:   33476493	FORWARD:          0	MERGED:     264431	TO_CACHE:   33212062

DTLB TOTAL     ACCESS:   48267926  HIT:   48178012  MISS:      89914  HIT %:    99.8137  MISS %:   0.186281   MPKI: 0.44957
DTLB LOAD TRANSLATION ACCESS:   48267926  HIT:   48178012  MISS:      89914  HIT %:    99.8137  MISS %:   0.186281   MPKI: 0.44957
DTLB PREFETCH  REQUESTED:          0  ISSUED:          0  USEFUL:          0  USELESS:          0
DTLB USEFUL LOAD PREFETCHES:          0 PREFETCH ISSUED TO LOWER LEVEL:          0  ACCURACY: -nan
DTLB TIMELY PREFETCHES:          0 LATE PREFETCHES: 0 DROPPED PREFETCHES: 0
DTLB PREFETCHES SAME FILL-ORIGIN LEVEL: 0 DIFFERENT FILL-ORIGIN LEVEL: 0
DTLB AVERAGE MISS LATENCY: 156.147 cycles
DTLB RQ	ACCESS:   64602793	FORWARD:          0	MERGED:   15047517	TO_CACHE:   49555276

STLB TOTAL     ACCESS:    4989563  HIT:    4973266  MISS:      16297  HIT %:    99.6734  MISS %:   0.326622   MPKI: 0.081485
STLB LOAD TRANSLATION ACCESS:      89914  HIT:      73617  MISS:      16297  HIT %:    81.8749  MISS %:    18.1251   MPKI: 0.081485
STLB TRANSLATION FROM L1D PREFETCHER ACCESS:    4899649  HIT:    4899649  MISS:          0  HIT %:        100  MISS %:          0   MPKI: 0
STLB PREFETCH  REQUESTED:          0  ISSUED:          0  USEFUL:          0  USELESS:          0
STLB USEFUL LOAD PREFETCHES:          0 PREFETCH ISSUED TO LOWER LEVEL:          0  ACCURACY: -nan
STLB TIMELY PREFETCHES:          0 LATE PREFETCHES: 0 DROPPED PREFETCHES: 0
STLB PREFETCHES SAME FILL-ORIGIN LEVEL: 0 DIFFERENT FILL-ORIGIN LEVEL: 0
STLB AVERAGE MISS LATENCY: 806.277 cycles
STLB RQ	ACCESS:   19308959	FORWARD:          0	MERGED:   14208181	TO_CACHE:    5100778

STLB Hit, L1D data hit: 0
STLB Hit, L2C data hit: 0
STLB Hit, LLC data hit: 0
STLB Hit, LLC data miss: 0
STLB STLB hints to L2: 0
L1D TOTAL     ACCESS:   69094423  HIT:   64043294  MISS:    5051129  HIT %:    92.6895  MISS %:    7.31047   MPKI: 25.2556
L1D LOAD      ACCESS:   21134169  HIT:   20472017  MISS:     662152  HIT %:    96.8669  MISS %:    3.13309   MPKI: 3.31076
L1D RFO       ACCESS:   30753945  HIT:   28562276  MISS:    2191669  HIT %:    92.8735  MISS %:    7.12646   MPKI: 10.9583
L1D PREFETCH  ACCESS:   17206309  HIT:   15009001  MISS:    2197308  HIT %:    87.2296  MISS %:    12.7704   MPKI: 10.9865
L1D PREFETCH  REQUESTED:   39950031  ISSUED:   38790869  USEFUL:    2126639  USELESS:     117065
L1D USEFUL LOAD PREFETCHES:    2126639 PREFETCH ISSUED TO LOWER LEVEL:    2743140  ACCURACY: 77.5257
L1D TIMELY PREFETCHES:    2126639 LATE PREFETCHES: 497621 DROPPED PREFETCHES: 0
L1D PREFETCHES SAME FILL-ORIGIN LEVEL: 2743140 DIFFERENT FILL-ORIGIN LEVEL: 0
L1D AVERAGE MISS LATENCY: 378.584 cycles
L1D RQ	ACCESS:   48660297	FORWARD:          0	MERGED:   25865587	TO_CACHE:   22460169
L1D WQ	ACCESS:   44025859	FORWARD:     432585	MERGED:    1883235	TO_CACHE:   42142624
L1D PQ	ACCESS:   19573853	FORWARD:          0	MERGED:     258793	TO_CACHE:   19217016

L1D UNIQUE REGIONS ACCESSED: 0
L1D REGIONS CONFLICTS: 0
L1D Cross Page Prefetch Requests: 0
L1D Same Page Prefetch Requests: 22872680
L1D ROI Sum of L1D PQ occupancy: 519844352
L1D PREFETCHES PUSHED FROM L2C: 0
L1I TOTAL     ACCESS:   32643413  HIT:   32643412  MISS:          1  HIT %:        100  MISS %: 3.06341e-06   MPKI: 5e-06
L1I LOAD      ACCESS:   32643413  HIT:   32643412  MISS:          1  HIT %:        100  MISS %: 3.06341e-06   MPKI: 5e-06
L1I PREFETCH  REQUESTED:          0  ISSUED:          0  USEFUL:          0  USELESS:          0
L1I USEFUL LOAD PREFETCHES:          0 PREFETCH ISSUED TO LOWER LEVEL:          0  ACCURACY: -nan
L1I TIMELY PREFETCHES:          0 LATE PREFETCHES: 0 DROPPED PREFETCHES: 0
L1I PREFETCHES SAME FILL-ORIGIN LEVEL: 0 DIFFERENT FILL-ORIGIN LEVEL: 0
L1I AVERAGE MISS LATENCY: 1066 cycles
L1I RQ	ACCESS:   50788901	FORWARD:          0	MERGED:   17312408	TO_CACHE:   33476493

BTB TOTAL     ACCESS:   19983041  HIT:   19982695  MISS:        346  HIT %:    99.9983  MISS %: 0.00173147   MPKI: 0.00173
BTB BRANCH_DIRECT_JUMP	ACCESS:       1127  HIT:       1123  MISS:          4
BTB BRANCH_INDIRECT	ACCESS:          0  HIT:          0  MISS:          0
BTB BRANCH_CONDITIONAL	ACCESS:   19978726  HIT:   19978694  MISS:         32
BTB BRANCH_DIRECT_CALL	ACCESS:       1594  HIT:       1584  MISS:         10
BTB BRANCH_INDIRECT_CALL	ACCESS:          0  HIT:          0  MISS:          0
BTB BRANCH_RETURN	ACCESS:       1594  HIT:       1294  MISS:        300
BTB BRANCH_OTHER ACCESS:          0  HIT:          0  MISS:          0

L2C TOTAL     ACCESS:    7265407  HIT:    3021082  MISS:    4244325  HIT %:    41.5817  MISS %:    58.4183   MPKI: 21.2216
L2C LOAD      ACCESS:     179986  HIT:      44445  MISS:     135541  HIT %:    24.6936  MISS %:    75.3064   MPKI: 0.677705
L2C DATA LOAD MPKI: 0.6777
L2C INSTRUCTION LOAD MPKI: 5e-06
L2C RFO       ACCESS:    2189807  HIT:     160040  MISS:    2029767  HIT %:    7.30841  MISS %:    92.6916   MPKI: 10.1488
L2C PREFETCH  ACCESS:    2681218  HIT:     700981  MISS:    1980237  HIT %:    26.1441  MISS %:    73.8559   MPKI: 9.90118
L2C DATA PREFETCH MPKI: 9.90118
L2C INSTRUCTION PREFETCH MPKI: 0
L2C WRITEBACK ACCESS:    2198098  HIT:    2101704  MISS:      96394  HIT %:    95.6147  MISS %:    4.38534   MPKI: 0.48197
L2C LOAD TRANSLATION ACCESS:      16298  HIT:      13912  MISS:       2386  HIT %:    85.3602  MISS %:    14.6398   MPKI: 0.01193
L2C PREFETCH  REQUESTED:          0  ISSUED:          0  USEFUL:      62389  USELESS:    1966848
L2C USEFUL LOAD PREFETCHES:      62389 PREFETCH ISSUED TO LOWER LEVEL:    2028630  ACCURACY: 3.07543
L2C TIMELY PREFETCHES:      62389 LATE PREFETCHES: 0 DROPPED PREFETCHES: 0
L2C PREFETCHES SAME FILL-ORIGIN LEVEL: 0 DIFFERENT FILL-ORIGIN LEVEL: 0
L2C AVERAGE MISS LATENCY: 559.123 cycles
L2C RQ	ACCESS:    2443729	FORWARD:          0	MERGED:          0	TO_CACHE:    2443647
L2C WQ	ACCESS:    2248886	FORWARD:        123	MERGED:          0	TO_CACHE:    2248886
L2C PQ	ACCESS:    2743140	FORWARD:          0	MERGED:          0	TO_CACHE:    2743099

L2C Instructions Evicting Data 1
L2C Translations Evicting Data 2583
L2C Data Evicting Data 4242635
L2C Instructions Evicting Instructions 0
L2C Translations Evicting Instructions 0
L2C Data Evicting Instructions 1
L2C Instructions Evicting Translations 0
L2C Translations Evicting Translations 1
[...]
LLC LOAD TRANSLATION ACCESS:       2386  HIT:        179  MISS:       2207  HIT %:     7.5021  MISS %:    92.4979   MPKI: 0.011035
LLC PREFETCH  REQUESTED:          0  ISSUED:          0  USEFUL:    1419159  USELESS:    2820893
LLC USEFUL LOAD PREFETCHES:    1419159 PREFETCH ISSUED TO LOWER LEVEL:    4252432  ACCURACY: 33.3729
LLC TIMELY PREFETCHES:    1419159 LATE PREFETCHES: 0 DROPPED PREFETCHES: 0
LLC PREFETCHES SAME FILL-ORIGIN LEVEL: 0 DIFFERENT FILL-ORIGIN LEVEL: 0
LLC AVERAGE MISS LATENCY: 3847.8 cycles
LLC RQ	ACCESS:    8764688	FORWARD:          0	MERGED:          0	TO_CACHE:    8764671
LLC WQ	ACCESS:    8382663	FORWARD:         51	MERGED:          0	TO_CACHE:    8382663
LLC PQ	ACCESS:    8038743	FORWARD:          0	MERGED:          0	TO_CACHE:    8038709

LLC Dense regions hint to LLC: 0

RAW hits: 3716443
Loads Generated: 51161448
Loads sent to L1D: 47444999
Stores Generated: 42934185
Stores sent to L1D: 42934168
Major fault: 0 Minor fault: 21110
Allocated PAGES: 84440

CPU 3 cumulative IPC: 0.569699 instructions: 200000003 cycles: 351062869
ITLB TOTAL     ACCESS:   32397666  HIT:   32397666  MISS:          0  HIT %:        100  MISS %:          0   MPKI: 0
ITLB LOAD TRANSLATION ACCESS:   32397666  HIT:   32397666  MISS:          0  HIT %:        100  MISS %:          0   MPKI: 0
ITLB PREFETCH  REQUESTED:          0  ISSUED:          0  USEFUL:          0  USELESS:          0
ITLB USEFUL LOAD PREFETCHES:          0 PREFETCH ISSUED TO LOWER LEVEL:          0  ACCURACY: -nan
ITLB TIMELY PREFETCHES:          0 LATE PREFETCHES: 0 DROPPED PREFETCHES: 0
ITLB PREFETCHES SAME FILL-ORIGIN LEVEL: 0 DIFFERENT FILL-ORIGIN LEVEL: 0
ITLB AVERAGE MISS LATENCY: -nan cycles
ITLB RQ	ACCESS:   32652483	FORWARD:          0	MERGED:     254817	TO_CACHE:   32397666

DTLB TOTAL     ACCESS:   48264254  HIT:   48174334  MISS:      89920  HIT %:    99.8137  MISS %:   0.186308   MPKI: 0.4496
DTLB LOAD TRANSLATION ACCESS:   48264254  HIT:   48174334  MISS:      89920  HIT %:    99.8137  MISS %:   0.186308   MPKI: 0.4496
DTLB PREFETCH  REQUESTED:          0  ISSUED:          0  USEFUL:          0  USELESS:          0
DTLB USEFUL LOAD PREFETCHES:          0 PREFETCH ISSUED TO LOWER LEVEL:          0  ACCURACY: -nan
DTLB TIMELY PREFETCHES:          0 LATE PREFETCHES: 0 DROPPED PREFETCHES: 0
DTLB PREFETCHES SAME FILL-ORIGIN LEVEL: 0 DIFFERENT FILL-ORIGIN LEVEL: 0
DTLB AVERAGE MISS LATENCY: 155.884 cycles
DTLB RQ	ACCESS:   63046258	FORWARD:          0	MERGED:   14685335	TO_CACHE:   48360923

STLB TOTAL     ACCESS:    4978660  HIT:    4962359  MISS:      16301  HIT %:    99.6726  MISS %:   0.327417   MPKI: 0.081505
STLB LOAD TRANSLATION ACCESS:      89920  HIT:      73619  MISS:      16301  HIT %:    81.8717  MISS %:    18.1283   MPKI: 0.081505
STLB TRANSLATION FROM L1D PREFETCHER ACCESS:    4888740  HIT:    4888740  MISS:          0  HIT %:        100  MISS %:          0   MPKI: 0
STLB PREFETCH  REQUESTED:          0  ISSUED:          0  USEFUL:          0  USELESS:          0
STLB USEFUL LOAD PREFETCHES:          0 PREFETCH ISSUED TO LOWER LEVEL:          0  ACCURACY: -nan
STLB TIMELY PREFETCHES:          0 LATE PREFETCHES: 0 DROPPED PREFETCHES: 0
STLB PREFETCHES SAME FILL-ORIGIN LEVEL: 0 DIFFERENT FILL-ORIGIN LEVEL: 0
STLB AVERAGE MISS LATENCY: 805.782 cycles
STLB RQ	ACCESS:   18738750	FORWARD:          0	MERGED:   13760089	TO_CACHE:    4978661

STLB Hit, L1D data hit: 0
STLB Hit, L2C data hit: 0
STLB Hit, LLC data hit: 0
STLB Hit, LLC data miss: 0
STLB STLB hints to L2: 0
L1D TOTAL     ACCESS:   69103311  HIT:   64051761  MISS:    5051550  HIT %:    92.6899  MISS %:    7.31014   MPKI: 25.2577
L1D LOAD      ACCESS:   21121071  HIT:   20447527  MISS:     673544  HIT %:     96.811  MISS %:    3.18897   MPKI: 3.36772
L1D RFO       ACCESS:   30938399  HIT:   28746684  MISS:    2191715  HIT %:    92.9159  MISS %:    7.08413   MPKI: 10.9586
L1D PREFETCH  ACCESS:   17043841  HIT:   14857550  MISS:    2186291  HIT %:    87.1725  MISS %:    12.8275   MPKI: 10.9315
L1D PREFETCH  REQUESTED:   38685978  ISSUED:   37631932  USEFUL:    2071470  USELESS:     114823
L1D USEFUL LOAD PREFETCHES:    2071470 PREFETCH ISSUED TO LOWER LEVEL:    2685261  ACCURACY: 77.1422
L1D TIMELY PREFETCHES:    2071470 LATE PREFETCHES: 497131 DROPPED PREFETCHES: 0
L1D PREFETCHES SAME FILL-ORIGIN LEVEL: 2685261 DIFFERENT FILL-ORIGIN LEVEL: 0
L1D AVERAGE MISS LATENCY: 362.663 cycles
L1D RQ	ACCESS:   47445527	FORWARD:          0	MERGED:   25209037	TO_CACHE:   21921883
L1D WQ	ACCESS:   42934169	FORWARD:     404412	MERGED:    1809794	TO_CACHE:   41124375
L1D PQ	ACCESS:   18983102	FORWARD:          0	MERGED:     244467	TO_CACHE:   18648830

L1D UNIQUE REGIONS ACCESSED: 0
L1D REGIONS CONFLICTS: 0
L1D Cross Page Prefetch Requests: 0
L1D Same Page Prefetch Requests: 22255637
L1D ROI Sum of L1D PQ occupancy: 483276694
L1D PREFETCHES PUSHED FROM L2C: 0
L1I TOTAL     ACCESS:   32652483  HIT:   32652482  MISS:          1  HIT %:        100  MISS %: 3.06255e-06   MPKI: 5e-06
L1I LOAD      ACCESS:   32652483  HIT:   32652482  MISS:          1  HIT %:        100  MISS %: 3.06255e-06   MPKI: 5e-06
L1I PREFETCH  REQUESTED:          0  ISSUED:          0  USEFUL:          0  USELESS:          0
L1I USEFUL LOAD PREFETCHES:          0 PREFETCH ISSUED TO LOWER LEVEL:          0  ACCURACY: -nan
L1I TIMELY PREFETCHES:          0 LATE PREFETCHES: 0 DROPPED PREFETCHES: 0
L1I PREFETCHES SAME FILL-ORIGIN LEVEL: 0 DIFFERENT FILL-ORIGIN LEVEL: 0
L1I AVERAGE MISS LATENCY: 1527 cycles
L1I RQ	ACCESS:   49533991	FORWARD:          0	MERGED:   16881508	TO_CACHE:   32652483

BTB TOTAL     ACCESS:   19983036  HIT:   19982691  MISS:        345  HIT %:    99.9983  MISS %: 0.00172646   MPKI: 0.001725
BTB BRANCH_DIRECT_JUMP	ACCESS:       1127  HIT:       1123  MISS:          4
BTB BRANCH_INDIRECT	ACCESS:          0  HIT:          0  MISS:          0
BTB BRANCH_CONDITIONAL	ACCESS:   19978721  HIT:   19978690  MISS:         31
BTB BRANCH_DIRECT_CALL	ACCESS:       1594  HIT:       1584  MISS:         10
BTB BRANCH_INDIRECT_CALL	ACCESS:          0  HIT:          0  MISS:          0
BTB BRANCH_RETURN	ACCESS:       1594  HIT:       1294  MISS:        300
BTB BRANCH_OTHER ACCESS:          0  HIT:          0  MISS:          0

L2C TOTAL     ACCESS:    7265790  HIT:    3031435  MISS:    4234355  HIT %:     41.722  MISS %:     58.278   MPKI: 21.1718
L2C LOAD      ACCESS:     176410  HIT:      45427  MISS:     130983  HIT %:    25.7508  MISS %:    74.2492   MPKI: 0.654915
L2C DATA LOAD MPKI: 0.65491
L2C INSTRUCTION LOAD MPKI: 5e-06
L2C RFO       ACCESS:    2189817  HIT:     160896  MISS:    2028921  HIT %:    7.34746  MISS %:    92.6525   MPKI: 10.1446
L2C PREFETCH  ACCESS:    2685214  HIT:     708505  MISS:    1976709  HIT %:    26.3854  MISS %:    73.6146   MPKI: 9.88354
L2C DATA PREFETCH MPKI: 9.88354
L2C INSTRUCTION PREFETCH MPKI: 0
L2C WRITEBACK ACCESS:    2198045  HIT:    2102714  MISS:      95331  HIT %:    95.6629  MISS %:    4.33708   MPKI: 0.476655
L2C LOAD TRANSLATION ACCESS:      16304  HIT:      13893  MISS:       2411  HIT %:    85.2122  MISS %:    14.7878   MPKI: 0.012055
L2C PREFETCH  REQUESTED:          0  ISSUED:          0  USEFUL:      62966  USELESS:    1913296
L2C USEFUL LOAD PREFETCHES:      62966 PREFETCH ISSUED TO LOWER LEVEL:    1976716  ACCURACY: 3.18538
L2C TIMELY PREFETCHES:      62966 LATE PREFETCHES: 0 DROPPED PREFETCHES: 0
L2C PREFETCHES SAME FILL-ORIGIN LEVEL: 0 DIFFERENT FILL-ORIGIN LEVEL: 0
L2C AVERAGE MISS LATENCY: 543.009 cycles
L2C RQ	ACCESS:    2382603	FORWARD:          0	MERGED:          0	TO_CACHE:    2382532
L2C WQ	ACCESS:    2198045	FORWARD:        110	MERGED:          0	TO_CACHE:    2198045
L2C PQ	ACCESS:    2685261	FORWARD:          0	MERGED:          0	TO_CACHE:    2685222

L2C Instructions Evicting Data 1
L2C Translations Evicting Data 2411
L2C Data Evicting Data 4134271
L2C Instructions Evicting Instructions 0
L2C Translations Evicting Instructions 0
L2C Data Evicting Instructions 1
L2C Instructions Evicting Translations 0
L2C Translations Evicting Translations 0
L2C Data Evicting Translations 2340
L2C Dense regions hint from L2: 0
PSCL5 TOTAL     ACCESS:      16301  HIT:      16301  MISS:          0  HIT %:        100  MISS %:          0   MPKI: 0
PSCL5 LOAD TRANSLATION ACCESS:      16301  HIT:      16301  MISS:          0  HIT %:        100  MISS %:          0   MPKI: 0
PSCL5 PREFETCH  REQUESTED:          0  ISSUED:          0  USEFUL:          0  USELESS:          0
PSCL5 USEFUL LOAD PREFETCHES:          0 PREFETCH ISSUED TO LOWER LEVEL:          0  ACCURACY: -nan
PSCL5 TIMELY PREFETCHES:          0 LATE PREFETCHES: 0 DROPPED PREFETCHES: 0
PSCL5 PREFETCHES SAME FILL-ORIGIN LEVEL: 0 DIFFERENT FILL-ORIGIN LEVEL: 0

PSCL4 TOTAL     ACCESS:      16301  HIT:      16301  MISS:          0  HIT %:        100  MISS %:          0   MPKI: 0
PSCL4 LOAD TRANSLATION ACCESS:      16301  HIT:      16301  MISS:          0  HIT %:        100  MISS %:          0   MPKI: 0
PSCL4 PREFETCH  REQUESTED:          0  ISSUED:          0  USEFUL:          0  USELESS:          0
PSCL4 USEFUL LOAD PREFETCHES:          0 PREFETCH ISSUED TO LOWER LEVEL:          0  ACCURACY: -nan
PSCL4 TIMELY PREFETCHES:          0 LATE PREFETCHES: 0 DROPPED PREFETCHES: 0
PSCL4 PREFETCHES SAME FILL-ORIGIN LEVEL: 0 DIFFERENT FILL-ORIGIN LEVEL: 0

PSCL3 TOTAL     ACCESS:      16301  HIT:      16301  MISS:          0  HIT %:        100  MISS %:          0   MPKI: 0
PSCL3 LOAD TRANSLATION ACCESS:      16301  HIT:      16301  MISS:          0  HIT %:        100  MISS %:          0   MPKI: 0
PSCL3 PREFETCH  REQUESTED:          0  ISSUED:          0  USEFUL:          0  USELESS:          0
PSCL3 USEFUL LOAD PREFETCHES:          0 PREFETCH ISSUED TO LOWER LEVEL:          0  ACCURACY: -nan
PSCL3 TIMELY PREFETCHES:          0 LATE PREFETCHES: 0 DROPPED PREFETCHES: 0
PSCL3 PREFETCHES SAME FILL-ORIGIN LEVEL: 0 DIFFERENT FILL-ORIGIN LEVEL: 0

PSCL2 TOTAL     ACCESS:      16301  HIT:      16265  MISS:         36  HIT %:    99.7792  MISS %:   0.220845   MPKI: 0.00018
PSCL2 LOAD TRANSLATION ACCESS:      16301  HIT:      16265  MISS:         36  HIT %:    99.7792  MISS %:   0.220845   MPKI: 0.00018
PSCL2 PREFETCH  REQUESTED:          0  ISSUED:          0  USEFUL:          0  USELESS:          0
PSCL2 USEFUL LOAD PREFETCHES:          0 PREFETCH ISSUED TO LOWER LEVEL:          0  ACCURACY: -nan
PSCL2 TIMELY PREFETCHES:          0 LATE PREFETCHES: 0 DROPPED PREFETCHES: 0
PSCL2 PREFETCHES SAME FILL-ORIGIN LEVEL: 0 DIFFERENT FILL-ORIGIN LEVEL: 0

LLC TOTAL     ACCESS:    6209248  HIT:    3881329  MISS:    2327919  HIT %:    62.5088  MISS %:    37.4912   MPKI: 11.6396
LLC LOAD      ACCESS:     130979  HIT:      83622  MISS:      47357  HIT %:    63.8438  MISS %:    36.1562   MPKI: 0.236785
LLC RFO       ACCESS:    2028920  HIT:     883164  MISS:    1145756  HIT %:    43.5288  MISS %:    56.4712   MPKI: 5.72878
LLC PREFETCH  ACCESS:    1976703  HIT:     913528  MISS:    1063175  HIT %:    46.2147  MISS %:    53.7853   MPKI: 5.31587
LLC WRITEBACK ACCESS:    2070235  HIT:    2000814  MISS:      69421  HIT %:    96.6467  MISS %:    3.35329   MPKI: 0.347105
LLC LOAD TRANSLATION ACCESS:       2411  HIT:        201  MISS:       2210  HIT %:    8.33679  MISS %:    91.6632   MPKI: 0.01105
LLC PREFETCH  REQUESTED:          0  ISSUED:          0  USEFUL:    1419159  USELESS:    2820893
LLC USEFUL LOAD PREFETCHES:    1419159 PREFETCH ISSUED TO LOWER LEVEL:    4252432  ACCURACY: 33.3729
LLC TIMELY PREFETCHES:    1419159 LATE PREFETCHES: 0 DROPPED PREFETCHES: 0
LLC PREFETCHES SAME FILL-ORIGIN LEVEL: 0 DIFFERENT FILL-ORIGIN LEVEL: 0
LLC AVERAGE MISS LATENCY: 3798.56 cycles
LLC RQ	ACCESS:    8764688	FORWARD:          0	MERGED:          0	TO_CACHE:    8764671
LLC WQ	ACCESS:    8382663	FORWARD:         51	MERGED:          0	TO_CACHE:    8382663
LLC PQ	ACCESS:    8038743	FORWARD:          0	MERGED:          0	TO_CACHE:    8038709

LLC Dense regions hint to LLC: 0

RAW hits: 3715918
Loads Generated: 51161450
Loads sent to L1D: 47445527
Stores Generated: 42934188
Stores sent to L1D: 42934169
Major fault: 0 Minor fault: 21110
Allocated PAGES: 84440

stream: 
stream:times selected: 14694333
stream:pref_filled: 2786396
stream:pref_useful: 2647736
stream:pref_late: 451897
stream:misses: 5855
stream:misses_by_poll: 0

CS: 
CS:times selected: 4888236
CS:pref_filled: 133004
CS:pref_useful: 130457
CS:pref_late: 45515
CS:misses: 1404895
CS:misses_by_poll: 1361

CPLX: 
CPLX:times selected: 9805742
CPLX:pref_filled: 6865
CPLX:pref_useful: 1738
CPLX:pref_late: 331
CPLX:misses: 78830
CPLX:misses_by_poll: 4

NL_L1: 
NL:times selected: 150387
NL:pref_filled: 111
NL:pref_useful: 107
NL:pref_late: 27
NL:misses: 17420
NL:misses_by_poll: 0

total selections: 29538698
total_filled: 2222085
total_useful: 2105733
total_late: 502783
total_polluted: 1365
total_misses_after_warmup: 1488206
conflicts: 45
Degree Incremented Times: 775271
Degree Decremented Times: 439078

L1 IP Table Write Accesses: 88802693
L1 IP Table Read Accesses: 88802648
L1 RST Write Accesses: 47177871
L1 RST Read Accesses: 94355742
L1 CSPT Write Accesses: 47177871
L1 CSPT Read Accesses: 78217273
L1 RR Filter Tag Write Accesses: 82219887
L1 RR Filter Tag Read Accesses: 7053041074
L1 IP Table Tag Write Accesses: 88803139
L1 IP Table Tag Read Accesses: 88803139
L1 RST Tag Write Accesses: 0
L1 RST Tag Read Accesses: 434146130
L1 RR Filter Write Accesses: 0
L1 RR Filter Read Accesses: 314769652
test: 1595955

stream: 
stream:times selected: 14641406
stream:pref_filled: 2765710
stream:pref_useful: 2627462
stream:pref_late: 449506
stream:misses: 5943
stream:misses_by_poll: 0

CS: 
CS:times selected: 4871082
CS:pref_filled: 132085
CS:pref_useful: 129631
CS:pref_late: 45785
CS:misses: 1409773
CS:misses_by_poll: 1493

CPLX: 
CPLX:times selected: 9769969
CPLX:pref_filled: 6857
CPLX:pref_useful: 1700
CPLX:pref_late: 294
CPLX:misses: 78405
CPLX:misses_by_poll: 8

NL_L1: 
NL:times selected: 150062
NL:pref_filled: 107
NL:pref_useful: 104
NL:pref_late: 28
NL:misses: 17284
NL:misses_by_poll: 0

total selections: 29432519
total_filled: 2214627
total_useful: 2098613
total_late: 500524
total_polluted: 1501
total_misses_after_warmup: 1478404
conflicts: 45
Degree Incremented Times: 775271
Degree Decremented Times: 439078

L1 IP Table Write Accesses: 88802693
L1 IP Table Read Accesses: 88802648
L1 RST Write Accesses: 47177871
L1 RST Read Accesses: 94355742
L1 CSPT Write Accesses: 47177871
L1 CSPT Read Accesses: 78217273
L1 RR Filter Tag Write Accesses: 82219887
L1 RR Filter Tag Read Accesses: 7053041074
L1 IP Table Tag Write Accesses: 88803139
L1 IP Table Tag Read Accesses: 88803139
L1 RST Tag Write Accesses: 0
L1 RST Tag Read Accesses: 434146130
L1 RR Filter Write Accesses: 0
L1 RR Filter Read Accesses: 314769652
test: 1595955

stream: 
stream:times selected: 14813653
stream:pref_filled: 2757299
stream:pref_useful: 2619296
stream:pref_late: 446842
stream:misses: 6021
stream:misses_by_poll: 0

CS: 
CS:times selected: 4933965
CS:pref_filled: 132324
CS:pref_useful: 129866
CS:pref_late: 46701
CS:misses: 1477947
CS:misses_by_poll: 1352

CPLX: 
CPLX:times selected: 9879339
CPLX:pref_filled: 7332
CPLX:pref_useful: 1894
CPLX:pref_late: 303
CPLX:misses: 77006
CPLX:misses_by_poll: 7

NL_L1: 
NL:times selected: 151787
NL:pref_filled: 117
NL:pref_useful: 114
NL:pref_late: 29
NL:misses: 17520
NL:misses_by_poll: 0

total selections: 29778744
total_filled: 2243704
total_useful: 2126639
total_late: 498751
total_polluted: 1359
total_misses_after_warmup: 1498194
conflicts: 45
Degree Incremented Times: 775271
Degree Decremented Times: 439078

L1 IP Table Write Accesses: 88802693
L1 IP Table Read Accesses: 88802648
L1 RST Write Accesses: 47177871
L1 RST Read Accesses: 94355742
L1 CSPT Write Accesses: 47177871
L1 CSPT Read Accesses: 78217273
L1 RR Filter Tag Write Accesses: 82219887
L1 RR Filter Tag Read Accesses: 7053041074
L1 IP Table Tag Write Accesses: 88803139
L1 IP Table Tag Read Accesses: 88803139
L1 RST Tag Write Accesses: 0
L1 RST Tag Read Accesses: 434146130
L1 RR Filter Write Accesses: 0
L1 RR Filter Read Accesses: 314769652
test: 1595955

stream: 
stream:times selected: 14516359
stream:pref_filled: 2726877
stream:pref_useful: 2589682
stream:pref_late: 448432
stream:misses: 5887
stream:misses_by_poll: 0

CS: 
CS:times selected: 4834250
CS:pref_filled: 127339
CS:pref_useful: 124994
CS:pref_late: 44934
CS:misses: 1425508
CS:misses_by_poll: 1353

CPLX: 
CPLX:times selected: 9681762
CPLX:pref_filled: 6693
CPLX:pref_useful: 1775
CPLX:pref_late: 308
CPLX:misses: 77685
CPLX:misses_by_poll: 3

NL_L1: 
NL:times selected: 148086
NL:pref_filled: 105
NL:pref_useful: 101
NL:pref_late: 31
NL:misses: 17128
NL:misses_by_poll: 0

total selections: 29180457
total_filled: 2186291
total_useful: 2071470
total_late: 498391
total_polluted: 1356
total_misses_after_warmup: 1474354
conflicts: 45
Degree Incremented Times: 775271
Degree Decremented Times: 439078

L1 IP Table Write Accesses: 88802693
L1 IP Table Read Accesses: 88802648
L1 RST Write Accesses: 47177871
L1 RST Read Accesses: 94355742
L1 CSPT Write Accesses: 47177871
L1 CSPT Read Accesses: 78217273
L1 RR Filter Tag Write Accesses: 82219887
L1 RR Filter Tag Read Accesses: 7053041074
L1 IP Table Tag Write Accesses: 88803139
L1 IP Table Tag Read Accesses: 88803139
L1 RST Tag Write Accesses: 0
L1 RST Tag Read Accesses: 434146130
L1 RR Filter Write Accesses: 0
L1 RR Filter Read Accesses: 314769652
test: 1595955

DRAM Statistics
 CHANNEL 0
 RQ ROW_BUFFER_HIT:    2227852  ROW_BUFFER_MISS:    6846614
 DBUS_CONGESTED:          4
 WQ ROW_BUFFER_HIT:     638031  ROW_BUFFER_MISS:    5579748  FULL:        603

 AVG_CONGESTED_CYCLE: 4
 All warmup complete: 5
Channel 0 Bank busy for read cycles: 0
Channel 0 Bank busy for write cycles: 0
Channel 0
Rank 0
0banks busy for read cycles: 8131
0banks busy for write cycles: 15
1banks busy for read cycles: 1646339
1banks busy for write cycles: 607494
2banks busy for read cycles: 2822663
2banks busy for write cycles: 608140
3banks busy for read cycles: 4511578
3banks busy for write cycles: 609058
4banks busy for read cycles: 7202229
4banks busy for write cycles: 610267
5banks busy for read cycles: 11915976
5banks busy for write cycles: 646509
6banks busy for read cycles: 20883737
6banks busy for write cycles: 1387303
7banks busy for read cycles: 41589293
7banks busy for write cycles: 15757266
8banks busy for read cycles: 100166667
8banks busy for write cycles: 140090204

CPU 0 Branch Prediction Accuracy: 99.0501% MPKI: 0.962558 Average ROB Occupancy at Mispredict: 121.007
Branch types
NOT_BRANCH: 182317646 89.8673%
BRANCH_DIRECT_JUMP: 1143 0.000563403%
BRANCH_INDIRECT: 0 0%
BRANCH_CONDITIONAL: 20552580 10.1307%
BRANCH_DIRECT_CALL: 1619 0.000798031%
BRANCH_INDIRECT_CALL: 0 0%
BRANCH_RETURN: 1619 0.000798031%
BRANCH_OTHER: 0 0%


CPU 1 Branch Prediction Accuracy: 99.0532% MPKI: 0.958976 Average ROB Occupancy at Mispredict: 120.721
Branch types
NOT_BRANCH: 181605876 89.871%
BRANCH_DIRECT_JUMP: 1137 0.000562665%
BRANCH_INDIRECT: 0 0%
BRANCH_CONDITIONAL: 20463773 10.1269%
BRANCH_DIRECT_CALL: 1611 0.000797233%
BRANCH_INDIRECT_CALL: 0 0%
BRANCH_RETURN: 1609 0.000796243%
BRANCH_OTHER: 0 0%


CPU 2 Branch Prediction Accuracy: 99.0589% MPKI: 0.952602 Average ROB Occupancy at Mispredict: 118.015
Branch types
NOT_BRANCH: 184269052 89.8779%
BRANCH_DIRECT_JUMP: 1155 0.000563355%
BRANCH_INDIRECT: 0 0%
BRANCH_CONDITIONAL: 20748424 10.1201%
BRANCH_DIRECT_CALL: 1631 0.000795526%
BRANCH_INDIRECT_CALL: 0 0%
BRANCH_RETURN: 1631 0.000795526%
BRANCH_OTHER: 0 0%


CPU 3 Branch Prediction Accuracy: 99.0545% MPKI: 0.957573 Average ROB Occupancy at Mispredict: 121.748
Branch types
NOT_BRANCH: 179745023 89.8725%
BRANCH_DIRECT_JUMP: 1127 0.0005635%
BRANCH_INDIRECT: 0 0%
BRANCH_CONDITIONAL: 20250809 10.1254%
BRANCH_DIRECT_CALL: 1594 0.000797%
BRANCH_INDIRECT_CALL: 0 0%
BRANCH_RETURN: 1594 0.000797%
BRANCH_OTHER: 0 0%

DRAM PAGES: 1048576
Allocated PAGES: 84440
