
*** ChampSim Multicore Out-of-Order Simulator ***

Warmup Instructions: 50000000
Simulation Instructions: 200000000
Number of CPUs: 4
LLC sets: 8192
LLC ways: 16
Off-chip DRAM Size: 4096 MB Channels: 1 Width: 64-bit Data Rate: 6400 MT/s
CPU 0 runs ./traces/cs/nutch_phase1_core0.trace.xz
.xz
CPU 1 runs ./traces/cs/nutch_phase1_core1.trace.xz
.xz
CPU 2 runs ./traces/cs/nutch_phase1_core2.trace.xz
.xz
CPU 3 runs ./traces/cs/nutch_phase1_core3.trace.xz
.xz
BTB has LRU replacement policy
ITLB has LRU replacement policy
DTLB has LRU replacement policy
STLB has LRU replacement policy
L1I has LRU replacement policy
IP Table Entries: 1024
CSPT Entries: 128
RR_ENTRIES: 32
RST_ENTRIES: 8
L1D has LRU replacement policy
Initialize SRRIP state for L2C
Initialize DRRIP state for LLC
BTB has LRU replacement policy
ITLB has LRU replacement policy
DTLB has LRU replacement policy
STLB has LRU replacement policy
L1I has LRU replacement policy
IP Table Entries: 1024
CSPT Entries: 128
RR_ENTRIES: 32
RST_ENTRIES: 8
L1D has LRU replacement policy
Initialize SRRIP state for L2C
Initialize DRRIP state for LLC
BTB has LRU replacement policy
ITLB has LRU replacement policy
DTLB has LRU replacement policy
STLB has LRU replacement policy
L1I has LRU replacement policy
IP Table Entries: 1024
CSPT Entries: 128
RR_ENTRIES: 32
RST_ENTRIES: 8
L1D has LRU replacement policy
Initialize SRRIP state for L2C
Initialize DRRIP state for LLC
BTB has LRU replacement policy
ITLB has LRU replacement policy
DTLB has LRU replacement policy
STLB has LRU replacement policy
L1I has LRU replacement policy
IP Table Entries: 1024
CSPT Entries: 128
RR_ENTRIES: 32
RST_ENTRIES: 8
L1D has LRU replacement policy
Initialize SRRIP state for L2C
Initialize DRRIP state for LLC
UNIQUE_ASID[0] = €
UNIQUE_ASID[1] = 
Heartbeat CPU 3 instructions: 10000001 cycles: 2869133 heartbeat IPC: 3.48537 cumulative IPC: 3.48537 (Simulation time: 0 hr 2 min 9 sec) 
Heartbeat CPU 1 instructions: 10000003 cycles: 2899689 heartbeat IPC: 3.44865 cumulative IPC: 3.44865 (Simulation time: 0 hr 2 min 10 sec) 
Heartbeat CPU 0 instructions: 10000002 cycles: 2917290 heartbeat IPC: 3.42784 cumulative IPC: 3.42784 (Simulation time: 0 hr 2 min 11 sec) 
Heartbeat CPU 2 instructions: 10000000 cycles: 2940656 heartbeat IPC: 3.4006 cumulative IPC: 3.4006 (Simulation time: 0 hr 2 min 12 sec) 
Heartbeat CPU 1 instructions: 20000003 cycles: 5797528 heartbeat IPC: 3.45085 cumulative IPC: 3.44975 (Simulation time: 0 hr 4 min 18 sec) 
Heartbeat CPU 3 instructions: 20000000 cycles: 5805378 heartbeat IPC: 3.40571 cumulative IPC: 3.44508 (Simulation time: 0 hr 4 min 18 sec) 
Heartbeat CPU 0 instructions: 20000001 cycles: 5824263 heartbeat IPC: 3.44 cumulative IPC: 3.43391 (Simulation time: 0 hr 4 min 19 sec) 
Heartbeat CPU 2 instructions: 20000002 cycles: 5879870 heartbeat IPC: 3.40227 cumulative IPC: 3.40144 (Simulation time: 0 hr 4 min 21 sec) 
Heartbeat CPU 0 instructions: 30000002 cycles: 8688455 heartbeat IPC: 3.49139 cumulative IPC: 3.45286 (Simulation time: 0 hr 6 min 48 sec) 
Heartbeat CPU 1 instructions: 30000002 cycles: 8700942 heartbeat IPC: 3.44422 cumulative IPC: 3.4479 (Simulation time: 0 hr 6 min 48 sec) 
Heartbeat CPU 2 instructions: 30000000 cycles: 8792690 heartbeat IPC: 3.4331 cumulative IPC: 3.41193 (Simulation time: 0 hr 6 min 54 sec) 
Heartbeat CPU 3 instructions: 30000000 cycles: 8812318 heartbeat IPC: 3.32564 cumulative IPC: 3.40433 (Simulation time: 0 hr 6 min 55 sec) 
Heartbeat CPU 0 instructions: 40000003 cycles: 11564692 heartbeat IPC: 3.47677 cumulative IPC: 3.4588 (Simulation time: 0 hr 9 min 12 sec) 
Heartbeat CPU 1 instructions: 40000000 cycles: 11589406 heartbeat IPC: 3.46205 cumulative IPC: 3.45143 (Simulation time: 0 hr 9 min 13 sec) 
Heartbeat CPU 3 instructions: 40000001 cycles: 11703350 heartbeat IPC: 3.45897 cumulative IPC: 3.41782 (Simulation time: 0 hr 9 min 18 sec) 
Heartbeat CPU 2 instructions: 40000003 cycles: 11710675 heartbeat IPC: 3.42702 cumulative IPC: 3.41569 (Simulation time: 0 hr 9 min 18 sec) 
Heartbeat CPU 0 instructions: 50000001 cycles: 14460410 heartbeat IPC: 3.45337 cumulative IPC: 3.45772 (Simulation time: 0 hr 11 min 23 sec) 
Heartbeat CPU 1 instructions: 50000003 cycles: 14549974 heartbeat IPC: 3.37773 cumulative IPC: 3.43643 (Simulation time: 0 hr 11 min 26 sec) 
Heartbeat CPU 3 instructions: 50000002 cycles: 14605284 heartbeat IPC: 3.44598 cumulative IPC: 3.42342 (Simulation time: 0 hr 11 min 27 sec) 
Heartbeat CPU 2 instructions: 50000001 cycles: 14631291 heartbeat IPC: 3.42393 cumulative IPC: 3.41733 (Simulation time: 0 hr 11 min 28 sec) 

Warmup complete CPU 0 instructions: 50576226 cycles: 14631291 (Simulation time: 0 hr 11 min 28 sec) 
Warmup complete CPU 1 instructions: 50262510 cycles: 14631291 (Simulation time: 0 hr 11 min 28 sec) 
Warmup complete CPU 2 instructions: 50000001 cycles: 14631291 (Simulation time: 0 hr 11 min 28 sec) 
Warmup complete CPU 3 instructions: 50088680 cycles: 14631290 (Simulation time: 0 hr 11 min 28 sec) 

Heartbeat CPU 0 instructions: 60000003 cycles: 25954741 heartbeat IPC: 0.869994 cumulative IPC: 0.832236 (Simulation time: 0 hr 13 min 45 sec) 
Heartbeat CPU 1 instructions: 60000001 cycles: 27458739 heartbeat IPC: 0.774667 cumulative IPC: 0.759114 (Simulation time: 0 hr 14 min 4 sec) 
Heartbeat CPU 2 instructions: 60000002 cycles: 27504199 heartbeat IPC: 0.776825 cumulative IPC: 0.776825 (Simulation time: 0 hr 14 min 5 sec) 
Heartbeat CPU 3 instructions: 60000001 cycles: 28176975 heartbeat IPC: 0.736828 cumulative IPC: 0.731696 (Simulation time: 0 hr 14 min 13 sec) 
Heartbeat CPU 2 instructions: 70000000 cycles: 38220878 heartbeat IPC: 0.933125 cumulative IPC: 0.847832 (Simulation time: 0 hr 16 min 33 sec) 
Heartbeat CPU 1 instructions: 70000003 cycles: 38948147 heartbeat IPC: 0.870367 cumulative IPC: 0.811679 (Simulation time: 0 hr 16 min 44 sec) 
Heartbeat CPU 0 instructions: 70000001 cycles: 38997012 heartbeat IPC: 0.766737 cumulative IPC: 0.797176 (Simulation time: 0 hr 16 min 45 sec) 
Heartbeat CPU 3 instructions: 70000000 cycles: 39180547 heartbeat IPC: 0.908796 cumulative IPC: 0.811076 (Simulation time: 0 hr 16 min 47 sec) 
Heartbeat CPU 2 instructions: 80000002 cycles: 49137491 heartbeat IPC: 0.916035 cumulative IPC: 0.869409 (Simulation time: 0 hr 19 min 28 sec) 
Heartbeat CPU 0 instructions: 80000003 cycles: 49659337 heartbeat IPC: 0.937882 cumulative IPC: 0.840006 (Simulation time: 0 hr 19 min 39 sec) 
Heartbeat CPU 3 instructions: 80000002 cycles: 50076639 heartbeat IPC: 0.91776 cumulative IPC: 0.843872 (Simulation time: 0 hr 19 min 47 sec) 
Heartbeat CPU 1 instructions: 80000000 cycles: 51199513 heartbeat IPC: 0.816235 cumulative IPC: 0.813206 (Simulation time: 0 hr 20 min 8 sec) 
Heartbeat CPU 2 instructions: 90000000 cycles: 59508706 heartbeat IPC: 0.964207 cumulative IPC: 0.891317 (Simulation time: 0 hr 22 min 48 sec) 
Heartbeat CPU 3 instructions: 90000001 cycles: 60397559 heartbeat IPC: 0.968906 cumulative IPC: 0.872068 (Simulation time: 0 hr 23 min 4 sec) 
Heartbeat CPU 0 instructions: 90000001 cycles: 60892744 heartbeat IPC: 0.890202 cumulative IPC: 0.852195 (Simulation time: 0 hr 23 min 14 sec) 
Heartbeat CPU 1 instructions: 90000000 cycles: 63188764 heartbeat IPC: 0.83408 cumulative IPC: 0.81836 (Simulation time: 0 hr 23 min 58 sec) 
Heartbeat CPU 2 instructions: 100000001 cycles: 70716196 heartbeat IPC: 0.892261 cumulative IPC: 0.891505 (Simulation time: 0 hr 25 min 55 sec) 
Heartbeat CPU 0 instructions: 100000000 cycles: 71595631 heartbeat IPC: 0.934327 cumulative IPC: 0.867627 (Simulation time: 0 hr 26 min 4 sec) 
Heartbeat CPU 3 instructions: 100000000 cycles: 71736595 heartbeat IPC: 0.881909 cumulative IPC: 0.874022 (Simulation time: 0 hr 26 min 6 sec) 
Heartbeat CPU 1 instructions: 100000003 cycles: 76395252 heartbeat IPC: 0.757204 cumulative IPC: 0.805283 (Simulation time: 0 hr 27 min 11 sec) 
Heartbeat CPU 0 instructions: 110000000 cycles: 81985147 heartbeat IPC: 0.962509 cumulative IPC: 0.882262 (Simulation time: 0 hr 28 min 49 sec) 
Heartbeat CPU 3 instructions: 110000000 cycles: 83165154 heartbeat IPC: 0.875001 cumulative IPC: 0.874186 (Simulation time: 0 hr 29 min 8 sec) 
Heartbeat CPU 2 instructions: 110000000 cycles: 84035080 heartbeat IPC: 0.750814 cumulative IPC: 0.864506 (Simulation time: 0 hr 29 min 20 sec) 
Heartbeat CPU 1 instructions: 110000000 cycles: 87867209 heartbeat IPC: 0.871691 cumulative IPC: 0.815686 (Simulation time: 0 hr 30 min 8 sec) 
Heartbeat CPU 0 instructions: 120000001 cycles: 92672789 heartbeat IPC: 0.93566 cumulative IPC: 0.889575 (Simulation time: 0 hr 31 min 33 sec) 
Heartbeat CPU 3 instructions: 120000001 cycles: 94293796 heartbeat IPC: 0.898582 cumulative IPC: 0.877594 (Simulation time: 0 hr 32 min 0 sec) 
Heartbeat CPU 2 instructions: 120000002 cycles: 96867153 heartbeat IPC: 0.779297 cumulative IPC: 0.85121 (Simulation time: 0 hr 32 min 34 sec) 
Heartbeat CPU 1 instructions: 120000003 cycles: 99113213 heartbeat IPC: 0.889205 cumulative IPC: 0.825472 (Simulation time: 0 hr 32 min 59 sec) 
Heartbeat CPU 0 instructions: 130000001 cycles: 102527246 heartbeat IPC: 1.01477 cumulative IPC: 0.903611 (Simulation time: 0 hr 33 min 42 sec) 
Heartbeat CPU 3 instructions: 130000001 cycles: 108247239 heartbeat IPC: 0.716669 cumulative IPC: 0.853608 (Simulation time: 0 hr 34 min 57 sec) 
Heartbeat CPU 2 instructions: 130000001 cycles: 108966457 heartbeat IPC: 0.826494 cumulative IPC: 0.84804 (Simulation time: 0 hr 35 min 11 sec) 
Heartbeat CPU 1 instructions: 130000001 cycles: 111246415 heartbeat IPC: 0.824185 cumulative IPC: 0.825311 (Simulation time: 0 hr 35 min 58 sec) 
Heartbeat CPU 0 instructions: 140000002 cycles: 112940255 heartbeat IPC: 0.960337 cumulative IPC: 0.90962 (Simulation time: 0 hr 36 min 31 sec) 
Heartbeat CPU 3 instructions: 140000001 cycles: 118850531 heartbeat IPC: 0.943103 cumulative IPC: 0.862713 (Simulation time: 0 hr 38 min 21 sec) 
Heartbeat CPU 2 instructions: 140000000 cycles: 120462486 heartbeat IPC: 0.869865 cumulative IPC: 0.850411 (Simulation time: 0 hr 38 min 56 sec) 
Heartbeat CPU 1 instructions: 140000001 cycles: 122107552 heartbeat IPC: 0.920714 cumulative IPC: 0.834952 (Simulation time: 0 hr 39 min 29 sec) 
Heartbeat CPU 0 instructions: 150000002 cycles: 123570453 heartbeat IPC: 0.940716 cumulative IPC: 0.912654 (Simulation time: 0 hr 39 min 48 sec) 
Heartbeat CPU 3 instructions: 150000003 cycles: 130246117 heartbeat IPC: 0.877533 cumulative IPC: 0.864174 (Simulation time: 0 hr 41 min 7 sec) 
Heartbeat CPU 2 instructions: 150000001 cycles: 132424730 heartbeat IPC: 0.835964 cumulative IPC: 0.848944 (Simulation time: 0 hr 41 min 34 sec) 
Heartbeat CPU 0 instructions: 160000000 cycles: 135557678 heartbeat IPC: 0.834221 cumulative IPC: 0.904879 (Simulation time: 0 hr 42 min 17 sec) 
Heartbeat CPU 1 instructions: 150000001 cycles: 136107901 heartbeat IPC: 0.714268 cumulative IPC: 0.821043 (Simulation time: 0 hr 42 min 24 sec) 
Heartbeat CPU 3 instructions: 160000003 cycles: 143607571 heartbeat IPC: 0.748422 cumulative IPC: 0.852182 (Simulation time: 0 hr 44 min 1 sec) 
Heartbeat CPU 2 instructions: 160000001 cycles: 145118109 heartbeat IPC: 0.787812 cumulative IPC: 0.842997 (Simulation time: 0 hr 44 min 24 sec) 
Heartbeat CPU 0 instructions: 170000002 cycles: 148476108 heartbeat IPC: 0.774088 cumulative IPC: 0.892255 (Simulation time: 0 hr 45 min 25 sec) 
Heartbeat CPU 1 instructions: 160000000 cycles: 148820749 heartbeat IPC: 0.786606 cumulative IPC: 0.81778 (Simulation time: 0 hr 45 min 32 sec) 
Heartbeat CPU 3 instructions: 170000003 cycles: 154699216 heartbeat IPC: 0.901579 cumulative IPC: 0.856094 (Simulation time: 0 hr 47 min 15 sec) 
Heartbeat CPU 2 instructions: 170000000 cycles: 155954298 heartbeat IPC: 0.922834 cumulative IPC: 0.849119 (Simulation time: 0 hr 47 min 30 sec) 
Heartbeat CPU 0 instructions: 180000003 cycles: 159164524 heartbeat IPC: 0.935592 cumulative IPC: 0.89546 (Simulation time: 0 hr 48 min 16 sec) 
Heartbeat CPU 1 instructions: 170000003 cycles: 160247295 heartbeat IPC: 0.875155 cumulative IPC: 0.822282 (Simulation time: 0 hr 48 min 33 sec) 
Heartbeat CPU 3 instructions: 180000000 cycles: 165659080 heartbeat IPC: 0.91242 cumulative IPC: 0.860182 (Simulation time: 0 hr 49 min 55 sec) 
Heartbeat CPU 2 instructions: 180000002 cycles: 166950250 heartbeat IPC: 0.909426 cumulative IPC: 0.853472 (Simulation time: 0 hr 50 min 11 sec) 
Heartbeat CPU 0 instructions: 190000000 cycles: 170391390 heartbeat IPC: 0.89072 cumulative IPC: 0.895119 (Simulation time: 0 hr 50 min 59 sec) 
Heartbeat CPU 1 instructions: 180000000 cycles: 172512347 heartbeat IPC: 0.815324 cumulative IPC: 0.821742 (Simulation time: 0 hr 51 min 23 sec) 
Heartbeat CPU 3 instructions: 190000002 cycles: 176199055 heartbeat IPC: 0.948769 cumulative IPC: 0.865961 (Simulation time: 0 hr 52 min 10 sec) 
Heartbeat CPU 2 instructions: 190000003 cycles: 177627108 heartbeat IPC: 0.936605 cumulative IPC: 0.858918 (Simulation time: 0 hr 52 min 29 sec) 
Heartbeat CPU 0 instructions: 200000001 cycles: 181105480 heartbeat IPC: 0.933351 cumulative IPC: 0.897579 (Simulation time: 0 hr 53 min 17 sec) 
Heartbeat CPU 1 instructions: 190000002 cycles: 184468737 heartbeat IPC: 0.836373 cumulative IPC: 0.822772 (Simulation time: 0 hr 54 min 17 sec) 
Heartbeat CPU 3 instructions: 200000003 cycles: 187510274 heartbeat IPC: 0.884078 cumulative IPC: 0.867146 (Simulation time: 0 hr 55 min 7 sec) 
Heartbeat CPU 2 instructions: 200000001 cycles: 188866223 heartbeat IPC: 0.88975 cumulative IPC: 0.860907 (Simulation time: 0 hr 55 min 31 sec) 
Heartbeat CPU 0 instructions: 210000000 cycles: 191377717 heartbeat IPC: 0.973498 cumulative IPC: 0.901991 (Simulation time: 0 hr 56 min 14 sec) 
Heartbeat CPU 1 instructions: 200000001 cycles: 197489628 heartbeat IPC: 0.767997 cumulative IPC: 0.818872 (Simulation time: 0 hr 57 min 55 sec) 
Heartbeat CPU 3 instructions: 210000001 cycles: 198785535 heartbeat IPC: 0.886897 cumulative IPC: 0.868355 (Simulation time: 0 hr 58 min 20 sec) 
Heartbeat CPU 2 instructions: 210000003 cycles: 201953849 heartbeat IPC: 0.764081 cumulative IPC: 0.854142 (Simulation time: 0 hr 59 min 12 sec) 
Heartbeat CPU 0 instructions: 220000000 cycles: 202160233 heartbeat IPC: 0.927427 cumulative IPC: 0.903454 (Simulation time: 0 hr 59 min 14 sec) 
Heartbeat CPU 1 instructions: 210000003 cycles: 208862148 heartbeat IPC: 0.879313 cumulative IPC: 0.82241 (Simulation time: 1 hr 0 min 40 sec) 
Heartbeat CPU 3 instructions: 220000000 cycles: 209926628 heartbeat IPC: 0.897578 cumulative IPC: 0.870022 (Simulation time: 1 hr 0 min 52 sec) 
Heartbeat CPU 0 instructions: 230000000 cycles: 211978493 heartbeat IPC: 1.01851 cumulative IPC: 0.909178 (Simulation time: 1 hr 1 min 18 sec) 
Heartbeat CPU 2 instructions: 220000000 cycles: 214875749 heartbeat IPC: 0.77388 cumulative IPC: 0.848962 (Simulation time: 1 hr 1 min 51 sec) 
Heartbeat CPU 1 instructions: 220000000 cycles: 220139510 heartbeat IPC: 0.886732 cumulative IPC: 0.82594 (Simulation time: 1 hr 2 min 59 sec) 
Heartbeat CPU 0 instructions: 240000001 cycles: 222492824 heartbeat IPC: 0.951083 cumulative IPC: 0.911298 (Simulation time: 1 hr 3 min 33 sec) 
Heartbeat CPU 3 instructions: 230000003 cycles: 223902172 heartbeat IPC: 0.715536 cumulative IPC: 0.859705 (Simulation time: 1 hr 4 min 0 sec) 
Heartbeat CPU 2 instructions: 230000000 cycles: 226915523 heartbeat IPC: 0.83058 cumulative IPC: 0.84792 (Simulation time: 1 hr 4 min 53 sec) 
Heartbeat CPU 1 instructions: 230000001 cycles: 232235029 heartbeat IPC: 0.826753 cumulative IPC: 0.825985 (Simulation time: 1 hr 6 min 30 sec) 
Heartbeat CPU 0 instructions: 250000001 cycles: 232884406 heartbeat IPC: 0.962317 cumulative IPC: 0.913727 (Simulation time: 1 hr 6 min 43 sec) 
Finished CPU 0 instructions: 200000000 cycles: 218858677 cumulative IPC: 0.913832 (Simulation time: 1 hr 6 min 56 sec) 
Heartbeat CPU 3 instructions: 240000000 cycles: 234424171 heartbeat IPC: 0.950389 cumulative IPC: 0.864047 (Simulation time: 1 hr 7 min 15 sec) 
Heartbeat CPU 2 instructions: 240000003 cycles: 238372531 heartbeat IPC: 0.872828 cumulative IPC: 0.849195 (Simulation time: 1 hr 8 min 19 sec) 
Heartbeat CPU 1 instructions: 240000003 cycles: 243507576 heartbeat IPC: 0.887111 cumulative IPC: 0.828996 (Simulation time: 1 hr 9 min 39 sec) 
Heartbeat CPU 0 instructions: 260000001 cycles: 244965848 heartbeat IPC: 0.827716 cumulative IPC: 0.909216 (Simulation time: 1 hr 9 min 57 sec) 
Heartbeat CPU 3 instructions: 250000003 cycles: 245646893 heartbeat IPC: 0.89105 cumulative IPC: 0.865359 (Simulation time: 1 hr 10 min 6 sec) 
Finished CPU 3 instructions: 200000003 cycles: 231103088 cumulative IPC: 0.865415 (Simulation time: 1 hr 10 min 7 sec) 
Heartbeat CPU 2 instructions: 250000001 cycles: 250394944 heartbeat IPC: 0.83178 cumulative IPC: 0.848307 (Simulation time: 1 hr 11 min 17 sec) 
Finished CPU 2 instructions: 200000000 cycles: 235763653 cumulative IPC: 0.848307 (Simulation time: 1 hr 11 min 17 sec) 
Heartbeat CPU 1 instructions: 250000002 cycles: 257030273 heartbeat IPC: 0.739497 cumulative IPC: 0.824003 (Simulation time: 1 hr 12 min 36 sec) 
Finished CPU 1 instructions: 200000002 cycles: 242706204 cumulative IPC: 0.824042 (Simulation time: 1 hr 12 min 40 sec) 

ChampSim completed all CPUs

Total Simulation Statistics (not including warmup)

CPU 0 cumulative IPC: 0.900097 instructions: 218459141 cycles: 242706204
ITLB TOTAL     ACCESS:   32216540  HIT:   29407683  MISS:    2808857  HIT %:    91.2813  MISS %:    8.71868   MPKI: 12.8576
ITLB LOAD      ACCESS:          0  HIT:          0  MISS:          0  HIT %:       -nan  MISS %:       -nan   MPKI: 0
ITLB RFO       ACCESS:          0  HIT:          0  MISS:          0  HIT %:       -nan  MISS %:       -nan   MPKI: 0
ITLB PREFETCH  ACCESS:          0  HIT:          0  MISS:          0  HIT %:       -nan  MISS %:       -nan   MPKI: 0
ITLB WRITEBACK ACCESS:          0  HIT:          0  MISS:          0  HIT %:       -nan  MISS %:       -nan   MPKI: 0
DTLB TOTAL     ACCESS:   30918176  HIT:   23285879  MISS:    7632297  HIT %:    75.3145  MISS %:    24.6855   MPKI: 34.937
DTLB LOAD      ACCESS:          0  HIT:          0  MISS:          0  HIT %:       -nan  MISS %:       -nan   MPKI: 0
DTLB RFO       ACCESS:          0  HIT:          0  MISS:          0  HIT %:       -nan  MISS %:       -nan   MPKI: 0
DTLB PREFETCH  ACCESS:          0  HIT:          0  MISS:          0  HIT %:       -nan  MISS %:       -nan   MPKI: 0
DTLB WRITEBACK ACCESS:          0  HIT:          0  MISS:          0  HIT %:       -nan  MISS %:       -nan   MPKI: 0
STLB TOTAL     ACCESS:   13190059  HIT:    6583475  MISS:    6606584  HIT %:    49.9124  MISS %:    50.0876   MPKI: 30.2417
STLB LOAD      ACCESS:          0  HIT:          0  MISS:          0  HIT %:       -nan  MISS %:       -nan   MPKI: 0
STLB RFO       ACCESS:          0  HIT:          0  MISS:          0  HIT %:       -nan  MISS %:       -nan   MPKI: 0
STLB PREFETCH  ACCESS:          0  HIT:          0  MISS:          0  HIT %:       -nan  MISS %:       -nan   MPKI: 0
STLB WRITEBACK ACCESS:          0  HIT:          0  MISS:          0  HIT %:       -nan  MISS %:       -nan   MPKI: 0
L1D TOTAL     ACCESS:   47928401  HIT:   46559188  MISS:    1369213  HIT %:    97.1432  MISS %:    2.85679   MPKI: 6.26759
L1D LOAD      ACCESS:   22509394  HIT:   22115460  MISS:     393934  HIT %:    98.2499  MISS %:    1.75009   MPKI: 1.80324
L1D RFO       ACCESS:   19842873  HIT:   19696026  MISS:     146847  HIT %:      99.26  MISS %:   0.740049   MPKI: 0.672194
L1D PREFETCH  ACCESS:    5576134  HIT:    4747702  MISS:     828432  HIT %:    85.1433  MISS %:    14.8567   MPKI: 3.79216
L1D WRITEBACK ACCESS:          0  HIT:          0  MISS:          0  HIT %:       -nan  MISS %:       -nan   MPKI: 0
L1I TOTAL     ACCESS:   41811784  HIT:   40849961  MISS:     961823  HIT %:    97.6996  MISS %:    2.30036   MPKI: 4.40276
L1I LOAD      ACCESS:   41811784  HIT:   40849961  MISS:     961823  HIT %:    97.6996  MISS %:    2.30036   MPKI: 4.40276
L1I RFO       ACCESS:          0  HIT:          0  MISS:          0  HIT %:       -nan  MISS %:       -nan   MPKI: 0
L1I PREFETCH  ACCESS:          0  HIT:          0  MISS:          0  HIT %:       -nan  MISS %:       -nan   MPKI: 0
L1I WRITEBACK ACCESS:          0  HIT:          0  MISS:          0  HIT %:       -nan  MISS %:       -nan   MPKI: 0
L2C TOTAL     ACCESS:    9712549  HIT:    8598058  MISS:    1114491  HIT %:    88.5252  MISS %:    11.4748   MPKI: 5.1016
L2C LOAD      ACCESS:    1293042  HIT:     952140  MISS:     340902  HIT %:    73.6357  MISS %:    26.3643   MPKI: 1.56048
L2C RFO       ACCESS:     146314  HIT:      78993  MISS:      67321  HIT %:    53.9887  MISS %:    46.0113   MPKI: 0.308163
L2C PREFETCH  ACCESS:     891604  HIT:     259179  MISS:     632425  HIT %:    29.0688  MISS %:    70.9312   MPKI: 2.89493
L2C WRITEBACK ACCESS:     635904  HIT:     586176  MISS:      49728  HIT %:      92.18  MISS %:    7.82005   MPKI: 0.227631
PSCL5 TOTAL     ACCESS:    6606583  HIT:    6606583  MISS:          0  HIT %:        100  MISS %:          0   MPKI: 0
PSCL5 LOAD      ACCESS:          0  HIT:          0  MISS:          0  HIT %:       -nan  MISS %:       -nan   MPKI: 0
PSCL5 RFO       ACCESS:          0  HIT:          0  MISS:          0  HIT %:       -nan  MISS %:       -nan   MPKI: 0
PSCL5 PREFETCH  ACCESS:          0  HIT:          0  MISS:          0  HIT %:       -nan  MISS %:       -nan   MPKI: 0
PSCL5 WRITEBACK ACCESS:          0  HIT:          0  MISS:          0  HIT %:       -nan  MISS %:       -nan   MPKI: 0
PSCL4 TOTAL     ACCESS:    6592293  HIT:    6592088  MISS:        205  HIT %:    99.9969  MISS %: 0.00310969   MPKI: 0.000938391
PSCL4 LOAD      ACCESS:          0  HIT:          0  MISS:          0  HIT %:       -nan  MISS %:       -nan   MPKI: 0
PSCL4 RFO       ACCESS:          0  HIT:          0  MISS:          0  HIT %:       -nan  MISS %:       -nan   MPKI: 0
PSCL4 PREFETCH  ACCESS:          0  HIT:          0  MISS:          0  HIT %:       -nan  MISS %:       -nan   MPKI: 0
PSCL4 WRITEBACK ACCESS:          0  HIT:          0  MISS:          0  HIT %:       -nan  MISS %:       -nan   MPKI: 0
PSCL3 TOTAL     ACCESS:    6567817  HIT:    6561269  MISS:       6548  HIT %:    99.9003  MISS %:  0.0996983   MPKI: 0.0299736
PSCL3 LOAD      ACCESS:          0  HIT:          0  MISS:          0  HIT %:       -nan  MISS %:       -nan   MPKI: 0
PSCL3 RFO       ACCESS:          0  HIT:          0  MISS:          0  HIT %:       -nan  MISS %:       -nan   MPKI: 0
PSCL3 PREFETCH  ACCESS:          0  HIT:          0  MISS:          0  HIT %:       -nan  MISS %:       -nan   MPKI: 0
PSCL3 WRITEBACK ACCESS:          0  HIT:          0  MISS:          0  HIT %:       -nan  MISS %:       -nan   MPKI: 0
PSCL2 TOTAL     ACCESS:    6606583  HIT:    6474141  MISS:     132442  HIT %:    97.9953  MISS %:     2.0047   MPKI: 0.606255
PSCL2 LOAD      ACCESS:          0  HIT:          0  MISS:          0  HIT %:       -nan  MISS %:       -nan   MPKI: 0
PSCL2 RFO       ACCESS:          0  HIT:          0  MISS:          0  HIT %:       -nan  MISS %:       -nan   MPKI: 0
PSCL2 PREFETCH  ACCESS:          0  HIT:          0  MISS:          0  HIT %:       -nan  MISS %:       -nan   MPKI: 0
PSCL2 WRITEBACK ACCESS:          0  HIT:          0  MISS:          0  HIT %:       -nan  MISS %:       -nan   MPKI: 0

stream: 
stream:times selected: 6253286
stream:pref_filled: 347170
stream:pref_useful: 133412
stream:pref_late: 16365
stream:misses: 34928
stream:misses_by_poll: 0

CS: 
CS:times selected: 1401011
CS:pref_filled: 153752
CS:pref_useful: 142283
CS:pref_late: 39055
CS:misses: 81570
CS:misses_by_poll: 398

CPLX: 
CPLX:times selected: 4833026
CPLX:pref_filled: 562060
CPLX:pref_useful: 289976
CPLX:pref_late: 6747
CPLX:misses: 150441
CPLX:misses_by_poll: 2292

NL_L1: 
NL:times selected: 22261
NL:pref_filled: 2026
NL:pref_useful: 966
NL:pref_late: 84
NL:misses: 1118
NL:misses_by_poll: 0

total selections: 12509584
total_filled: 828432
total_useful: 429796
total_late: 63418
total_polluted: 2690
total_misses_after_warmup: 432449
conflicts: 9564663
Degree Incremented Times: 435048
Degree Decremented Times: 364202

L1 IP Table Write Accesses: 73536640
L1 IP Table Read Accesses: 63971977
L1 RST Write Accesses: 19038820
L1 RST Read Accesses: 38077640
L1 CSPT Write Accesses: 19038820
L1 CSPT Read Accesses: 40039300
L1 RR Filter Tag Write Accesses: 16934561
L1 RR Filter Tag Read Accesses: 1028309021
L1 IP Table Tag Write Accesses: 89477556
L1 IP Table Tag Read Accesses: 89477556
L1 RST Tag Write Accesses: 0
L1 RST Tag Read Accesses: 174186335
L1 RR Filter Write Accesses: 0
L1 RR Filter Read Accesses: 39338360
test: 7067846
LLC TOTAL     ACCESS:    1601399  HIT:     878437  MISS:     722962  HIT %:    54.8543  MISS %:    45.1457   MPKI: 3.30937
LLC LOAD      ACCESS:     340902  HIT:     176244  MISS:     164658  HIT %:    51.6993  MISS %:    48.3007   MPKI: 0.753724
LLC RFO       ACCESS:      67321  HIT:       9376  MISS:      57945  HIT %:    13.9273  MISS %:    86.0727   MPKI: 0.265244
LLC PREFETCH  ACCESS:     632423  HIT:     167752  MISS:     464671  HIT %:    26.5253  MISS %:    73.4747   MPKI: 2.12704
LLC WRITEBACK ACCESS:     536638  HIT:     507511  MISS:      29127  HIT %:    94.5723  MISS %:    5.42768   MPKI: 0.133329

RAW hits: 3061759
Loads Generated: 38651945
Loads sent to L1D: 35590185
Stores Generated: 21577900
Stores sent to L1D: 21577901

CPU 1 cumulative IPC: 0.824042 instructions: 200000002 cycles: 242706204
ITLB TOTAL     ACCESS:   29640324  HIT:   27203256  MISS:    2437068  HIT %:    91.7779  MISS %:    8.22214   MPKI: 12.1853
ITLB LOAD      ACCESS:          0  HIT:          0  MISS:          0  HIT %:       -nan  MISS %:       -nan   MPKI: 0
ITLB RFO       ACCESS:          0  HIT:          0  MISS:          0  HIT %:       -nan  MISS %:       -nan   MPKI: 0
ITLB PREFETCH  ACCESS:          0  HIT:          0  MISS:          0  HIT %:       -nan  MISS %:       -nan   MPKI: 0
ITLB WRITEBACK ACCESS:          0  HIT:          0  MISS:          0  HIT %:       -nan  MISS %:       -nan   MPKI: 0
DTLB TOTAL     ACCESS:   29725182  HIT:   22060009  MISS:    7665173  HIT %:    74.2132  MISS %:    25.7868   MPKI: 38.3259
DTLB LOAD      ACCESS:          0  HIT:          0  MISS:          0  HIT %:       -nan  MISS %:       -nan   MPKI: 0
DTLB RFO       ACCESS:          0  HIT:          0  MISS:          0  HIT %:       -nan  MISS %:       -nan   MPKI: 0
DTLB PREFETCH  ACCESS:          0  HIT:          0  MISS:          0  HIT %:       -nan  MISS %:       -nan   MPKI: 0
DTLB WRITEBACK ACCESS:          0  HIT:          0  MISS:          0  HIT %:       -nan  MISS %:       -nan   MPKI: 0
STLB TOTAL     ACCESS:   12400635  HIT:    7029388  MISS:    5371247  HIT %:    56.6857  MISS %:    43.3143   MPKI: 26.8562
STLB LOAD      ACCESS:          0  HIT:          0  MISS:          0  HIT %:       -nan  MISS %:       -nan   MPKI: 0
STLB RFO       ACCESS:          0  HIT:          0  MISS:          0  HIT %:       -nan  MISS %:       -nan   MPKI: 0
STLB PREFETCH  ACCESS:          0  HIT:          0  MISS:          0  HIT %:       -nan  MISS %:       -nan   MPKI: 0
STLB WRITEBACK ACCESS:          0  HIT:          0  MISS:          0  HIT %:       -nan  MISS %:       -nan   MPKI: 0
L1D TOTAL     ACCESS:   43629696  HIT:   42416063  MISS:    1213633  HIT %:    97.2183  MISS %:    2.78167   MPKI: 6.06816
L1D LOAD      ACCESS:   23316833  HIT:   22755697  MISS:     561136  HIT %:    97.5934  MISS %:    2.40657   MPKI: 2.80568
L1D RFO       ACCESS:   16774057  HIT:   16615498  MISS:     158559  HIT %:    99.0547  MISS %:   0.945263   MPKI: 0.792795
L1D PREFETCH  ACCESS:    3538806  HIT:    3044868  MISS:     493938  HIT %:    86.0422  MISS %:    13.9578   MPKI: 2.46969
L1D WRITEBACK ACCESS:          0  HIT:          0  MISS:          0  HIT %:       -nan  MISS %:       -nan   MPKI: 0
L1I TOTAL     ACCESS:   38386673  HIT:   36441679  MISS:    1944994  HIT %:    94.9332  MISS %:    5.06685   MPKI: 9.72497
L1I LOAD      ACCESS:   38386673  HIT:   36441679  MISS:    1944994  HIT %:    94.9332  MISS %:    5.06685   MPKI: 9.72497
L1I RFO       ACCESS:          0  HIT:          0  MISS:          0  HIT %:       -nan  MISS %:       -nan   MPKI: 0
L1I PREFETCH  ACCESS:          0  HIT:          0  MISS:          0  HIT %:       -nan  MISS %:       -nan   MPKI: 0
L1I WRITEBACK ACCESS:          0  HIT:          0  MISS:          0  HIT %:       -nan  MISS %:       -nan   MPKI: 0
L2C TOTAL     ACCESS:    9325763  HIT:    8425648  MISS:     900115  HIT %:    90.3481  MISS %:    9.65192   MPKI: 4.50057
L2C LOAD      ACCESS:    2465439  HIT:    1997356  MISS:     468083  HIT %:    81.0142  MISS %:    18.9858   MPKI: 2.34041
L2C RFO       ACCESS:     158308  HIT:      98716  MISS:      59592  HIT %:    62.3569  MISS %:    37.6431   MPKI: 0.29796
L2C PREFETCH  ACCESS:     534819  HIT:     238269  MISS:     296550  HIT %:    44.5513  MISS %:    55.4487   MPKI: 1.48275
L2C WRITEBACK ACCESS:     475706  HIT:     435750  MISS:      39956  HIT %:    91.6007  MISS %:    8.39931   MPKI: 0.19978
PSCL5 TOTAL     ACCESS:    5371247  HIT:    5371247  MISS:          0  HIT %:        100  MISS %:          0   MPKI: 0
PSCL5 LOAD      ACCESS:          0  HIT:          0  MISS:          0  HIT %:       -nan  MISS %:       -nan   MPKI: 0
PSCL5 RFO       ACCESS:          0  HIT:          0  MISS:          0  HIT %:       -nan  MISS %:       -nan   MPKI: 0
PSCL5 PREFETCH  ACCESS:          0  HIT:          0  MISS:          0  HIT %:       -nan  MISS %:       -nan   MPKI: 0
PSCL5 WRITEBACK ACCESS:          0  HIT:          0  MISS:          0  HIT %:       -nan  MISS %:       -nan   MPKI: 0
PSCL4 TOTAL     ACCESS:    5315314  HIT:    5314174  MISS:       1140  HIT %:    99.9786  MISS %:  0.0214475   MPKI: 0.0057
PSCL4 LOAD      ACCESS:          0  HIT:          0  MISS:          0  HIT %:       -nan  MISS %:       -nan   MPKI: 0
PSCL4 RFO       ACCESS:          0  HIT:          0  MISS:          0  HIT %:       -nan  MISS %:       -nan   MPKI: 0
PSCL4 PREFETCH  ACCESS:          0  HIT:          0  MISS:          0  HIT %:       -nan  MISS %:       -nan   MPKI: 0
PSCL4 WRITEBACK ACCESS:          0  HIT:          0  MISS:          0  HIT %:       -nan  MISS %:       -nan   MPKI: 0
PSCL3 TOTAL     ACCESS:    5311032  HIT:    5299608  MISS:      11424  HIT %:    99.7849  MISS %:   0.215099   MPKI: 0.05712
PSCL3 LOAD      ACCESS:          0  HIT:          0  MISS:          0  HIT %:       -nan  MISS %:       -nan   MPKI: 0
PSCL3 RFO       ACCESS:          0  HIT:          0  MISS:          0  HIT %:       -nan  MISS %:       -nan   MPKI: 0
PSCL3 PREFETCH  ACCESS:          0  HIT:          0  MISS:          0  HIT %:       -nan  MISS %:       -nan   MPKI: 0
PSCL3 WRITEBACK ACCESS:          0  HIT:          0  MISS:          0  HIT %:       -nan  MISS %:       -nan   MPKI: 0
PSCL2 TOTAL     ACCESS:    5371247  HIT:    5063495  MISS:     307752  HIT %:    94.2704  MISS %:    5.72962   MPKI: 1.53876
PSCL2 LOAD      ACCESS:          0  HIT:          0  MISS:          0  HIT %:       -nan  MISS %:       -nan   MPKI: 0
PSCL2 RFO       ACCESS:          0  HIT:          0  MISS:          0  HIT %:       -nan  MISS %:       -nan   MPKI: 0
PSCL2 PREFETCH  ACCESS:          0  HIT:          0  MISS:          0  HIT %:       -nan  MISS %:       -nan   MPKI: 0
PSCL2 WRITEBACK ACCESS:          0  HIT:          0  MISS:          0  HIT %:       -nan  MISS %:       -nan   MPKI: 0

stream: 
stream:times selected: 5967229
stream:pref_filled: 257098
stream:pref_useful: 88422
stream:pref_late: 15245
stream:misses: 37450
stream:misses_by_poll: 0

CS: 
CS:times selected: 797630
CS:pref_filled: 153633
CS:pref_useful: 134738
CS:pref_late: 23930
CS:misses: 56283
CS:misses_by_poll: 217

CPLX: 
CPLX:times selected: 5106683
CPLX:pref_filled: 226373
CPLX:pref_useful: 61720
CPLX:pref_late: 1674
CPLX:misses: 156870
CPLX:misses_by_poll: 374

NL_L1: 
NL:times selected: 28682
NL:pref_filled: 2665
NL:pref_useful: 1285
NL:pref_late: 88
NL:misses: 1376
NL:misses_by_poll: 0

total selections: 11900224
total_filled: 493938
total_useful: 199591
total_late: 41960
total_polluted: 591
total_misses_after_warmup: 619594
conflicts: 9564663
Degree Incremented Times: 435048
Degree Decremented Times: 364202

L1 IP Table Write Accesses: 73536640
L1 IP Table Read Accesses: 63971977
L1 RST Write Accesses: 19038820
L1 RST Read Accesses: 38077640
L1 CSPT Write Accesses: 19038820
L1 CSPT Read Accesses: 40039300
L1 RR Filter Tag Write Accesses: 16934561
L1 RR Filter Tag Read Accesses: 1028309021
L1 IP Table Tag Write Accesses: 89477556
L1 IP Table Tag Read Accesses: 89477556
L1 RST Tag Write Accesses: 0
L1 RST Tag Read Accesses: 174186335
L1 RR Filter Write Accesses: 0
L1 RR Filter Read Accesses: 39338360
test: 7067846
LLC TOTAL     ACCESS:    1149081  HIT:     671309  MISS:     477772  HIT %:    58.4214  MISS %:    41.5786   MPKI: 2.38886
LLC LOAD      ACCESS:     468083  HIT:     280204  MISS:     187879  HIT %:     59.862  MISS %:     40.138   MPKI: 0.939395
LLC RFO       ACCESS:      59591  HIT:      11872  MISS:      47719  HIT %:    19.9225  MISS %:    80.0775   MPKI: 0.238595
LLC PREFETCH  ACCESS:     296550  HIT:      84532  MISS:     212018  HIT %:    28.5051  MISS %:    71.4949   MPKI: 1.06009
LLC WRITEBACK ACCESS:     288923  HIT:     266679  MISS:      22244  HIT %:    92.3011  MISS %:    7.69894   MPKI: 0.11122

RAW hits: 3229160
Loads Generated: 40217204
Loads sent to L1D: 36988045
Stores Generated: 18166268
Stores sent to L1D: 18166268

CPU 2 cumulative IPC: 0.845198 instructions: 205134748 cycles: 242706204
ITLB TOTAL     ACCESS:   30185925  HIT:   27496061  MISS:    2689864  HIT %:     91.089  MISS %:    8.91099   MPKI: 13.1127
ITLB LOAD      ACCESS:          0  HIT:          0  MISS:          0  HIT %:       -nan  MISS %:       -nan   MPKI: 0
ITLB RFO       ACCESS:          0  HIT:          0  MISS:          0  HIT %:       -nan  MISS %:       -nan   MPKI: 0
ITLB PREFETCH  ACCESS:          0  HIT:          0  MISS:          0  HIT %:       -nan  MISS %:       -nan   MPKI: 0
ITLB WRITEBACK ACCESS:          0  HIT:          0  MISS:          0  HIT %:       -nan  MISS %:       -nan   MPKI: 0
DTLB TOTAL     ACCESS:   29638059  HIT:   22268243  MISS:    7369816  HIT %:    75.1339  MISS %:    24.8661   MPKI: 35.9267
DTLB LOAD      ACCESS:          0  HIT:          0  MISS:          0  HIT %:       -nan  MISS %:       -nan   MPKI: 0
DTLB RFO       ACCESS:          0  HIT:          0  MISS:          0  HIT %:       -nan  MISS %:       -nan   MPKI: 0
DTLB PREFETCH  ACCESS:          0  HIT:          0  MISS:          0  HIT %:       -nan  MISS %:       -nan   MPKI: 0
DTLB WRITEBACK ACCESS:          0  HIT:          0  MISS:          0  HIT %:       -nan  MISS %:       -nan   MPKI: 0
STLB TOTAL     ACCESS:   12475636  HIT:    6469633  MISS:    6006003  HIT %:    51.8581  MISS %:    48.1419   MPKI: 29.2783
STLB LOAD      ACCESS:          0  HIT:          0  MISS:          0  HIT %:       -nan  MISS %:       -nan   MPKI: 0
STLB RFO       ACCESS:          0  HIT:          0  MISS:          0  HIT %:       -nan  MISS %:       -nan   MPKI: 0
STLB PREFETCH  ACCESS:          0  HIT:          0  MISS:          0  HIT %:       -nan  MISS %:       -nan   MPKI: 0
STLB WRITEBACK ACCESS:          0  HIT:          0  MISS:          0  HIT %:       -nan  MISS %:       -nan   MPKI: 0
L1D TOTAL     ACCESS:   43796112  HIT:   42636890  MISS:    1159222  HIT %:    97.3531  MISS %:    2.64686   MPKI: 5.65103
L1D LOAD      ACCESS:   22093183  HIT:   21593921  MISS:     499262  HIT %:    97.7402  MISS %:     2.2598   MPKI: 2.43382
L1D RFO       ACCESS:   18163116  HIT:   17979522  MISS:     183594  HIT %:    98.9892  MISS %:    1.01081   MPKI: 0.894992
L1D PREFETCH  ACCESS:    3539813  HIT:    3063447  MISS:     476366  HIT %:    86.5426  MISS %:    13.4574   MPKI: 2.32221
L1D WRITEBACK ACCESS:          0  HIT:          0  MISS:          0  HIT %:       -nan  MISS %:       -nan   MPKI: 0
L1I TOTAL     ACCESS:   38817091  HIT:   37325443  MISS:    1491648  HIT %:    96.1572  MISS %:    3.84276   MPKI: 7.27155
L1I LOAD      ACCESS:   38817091  HIT:   37325443  MISS:    1491648  HIT %:    96.1572  MISS %:    3.84276   MPKI: 7.27155
L1I RFO       ACCESS:          0  HIT:          0  MISS:          0  HIT %:       -nan  MISS %:       -nan   MPKI: 0
L1I PREFETCH  ACCESS:          0  HIT:          0  MISS:          0  HIT %:       -nan  MISS %:       -nan   MPKI: 0
L1I WRITEBACK ACCESS:          0  HIT:          0  MISS:          0  HIT %:       -nan  MISS %:       -nan   MPKI: 0
L2C TOTAL     ACCESS:    9468527  HIT:    8513527  MISS:     955000  HIT %:     89.914  MISS %:     10.086   MPKI: 4.65548
L2C LOAD      ACCESS:    1921266  HIT:    1507768  MISS:     413498  HIT %:    78.4778  MISS %:    21.5222   MPKI: 2.01574
L2C RFO       ACCESS:     183156  HIT:      93003  MISS:      90153  HIT %:     50.778  MISS %:     49.222   MPKI: 0.439482
L2C PREFETCH  ACCESS:     546284  HIT:     171601  MISS:     374683  HIT %:    31.4124  MISS %:    68.5876   MPKI: 1.82652
L2C WRITEBACK ACCESS:     573831  HIT:     523540  MISS:      50291  HIT %:    91.2359  MISS %:    8.76408   MPKI: 0.245161
PSCL5 TOTAL     ACCESS:    6006004  HIT:    6006004  MISS:          0  HIT %:        100  MISS %:          0   MPKI: 0
PSCL5 LOAD      ACCESS:          0  HIT:          0  MISS:          0  HIT %:       -nan  MISS %:       -nan   MPKI: 0
PSCL5 RFO       ACCESS:          0  HIT:          0  MISS:          0  HIT %:       -nan  MISS %:       -nan   MPKI: 0
PSCL5 PREFETCH  ACCESS:          0  HIT:          0  MISS:          0  HIT %:       -nan  MISS %:       -nan   MPKI: 0
PSCL5 WRITEBACK ACCESS:          0  HIT:          0  MISS:          0  HIT %:       -nan  MISS %:       -nan   MPKI: 0
PSCL4 TOTAL     ACCESS:    5984248  HIT:    5983758  MISS:        490  HIT %:    99.9918  MISS %: 0.00818816   MPKI: 0.00238867
PSCL4 LOAD      ACCESS:          0  HIT:          0  MISS:          0  HIT %:       -nan  MISS %:       -nan   MPKI: 0
PSCL4 RFO       ACCESS:          0  HIT:          0  MISS:          0  HIT %:       -nan  MISS %:       -nan   MPKI: 0
PSCL4 PREFETCH  ACCESS:          0  HIT:          0  MISS:          0  HIT %:       -nan  MISS %:       -nan   MPKI: 0
PSCL4 WRITEBACK ACCESS:          0  HIT:          0  MISS:          0  HIT %:       -nan  MISS %:       -nan   MPKI: 0
PSCL3 TOTAL     ACCESS:    5956453  HIT:    5946787  MISS:       9666  HIT %:    99.8377  MISS %:   0.162278   MPKI: 0.0471202
PSCL3 LOAD      ACCESS:          0  HIT:          0  MISS:          0  HIT %:       -nan  MISS %:       -nan   MPKI: 0
PSCL3 RFO       ACCESS:          0  HIT:          0  MISS:          0  HIT %:       -nan  MISS %:       -nan   MPKI: 0
PSCL3 PREFETCH  ACCESS:          0  HIT:          0  MISS:          0  HIT %:       -nan  MISS %:       -nan   MPKI: 0
PSCL3 WRITEBACK ACCESS:          0  HIT:          0  MISS:          0  HIT %:       -nan  MISS %:       -nan   MPKI: 0
PSCL2 TOTAL     ACCESS:    6006004  HIT:    5778144  MISS:     227860  HIT %:    96.2061  MISS %:    3.79387   MPKI: 1.11078
PSCL2 LOAD      ACCESS:          0  HIT:          0  MISS:          0  HIT %:       -nan  MISS %:       -nan   MPKI: 0
PSCL2 RFO       ACCESS:          0  HIT:          0  MISS:          0  HIT %:       -nan  MISS %:       -nan   MPKI: 0
PSCL2 PREFETCH  ACCESS:          0  HIT:          0  MISS:          0  HIT %:       -nan  MISS %:       -nan   MPKI: 0
PSCL2 WRITEBACK ACCESS:          0  HIT:          0  MISS:          0  HIT %:       -nan  MISS %:       -nan   MPKI: 0

stream: 
stream:times selected: 5935396
stream:pref_filled: 240323
stream:pref_useful: 95662
stream:pref_late: 22523
stream:misses: 40907
stream:misses_by_poll: 0

CS: 
CS:times selected: 1174483
CS:pref_filled: 169403
CS:pref_useful: 151663
CS:pref_late: 44820
CS:misses: 84028
CS:misses_by_poll: 192

CPLX: 
CPLX:times selected: 4731604
CPLX:pref_filled: 201065
CPLX:pref_useful: 82324
CPLX:pref_late: 2092
CPLX:misses: 173768
CPLX:misses_by_poll: 285

NL_L1: 
NL:times selected: 29188
NL:pref_filled: 2425
NL:pref_useful: 1424
NL:pref_late: 109
NL:misses: 1527
NL:misses_by_poll: 0

total selections: 11870671
total_filled: 476366
total_useful: 263849
total_late: 70813
total_polluted: 477
total_misses_after_warmup: 549009
conflicts: 9564663
Degree Incremented Times: 435048
Degree Decremented Times: 364202

L1 IP Table Write Accesses: 73536640
L1 IP Table Read Accesses: 63971977
L1 RST Write Accesses: 19038820
L1 RST Read Accesses: 38077640
L1 CSPT Write Accesses: 19038820
L1 CSPT Read Accesses: 40039300
L1 RR Filter Tag Write Accesses: 16934561
L1 RR Filter Tag Read Accesses: 1028309021
L1 IP Table Tag Write Accesses: 89477556
L1 IP Table Tag Read Accesses: 89477556
L1 RST Tag Write Accesses: 0
L1 RST Tag Read Accesses: 174186335
L1 RR Filter Write Accesses: 0
L1 RR Filter Read Accesses: 39338360
test: 7067846
LLC TOTAL     ACCESS:    1345826  HIT:     719247  MISS:     626579  HIT %:    53.4428  MISS %:    46.5572   MPKI: 3.05448
LLC LOAD      ACCESS:     413495  HIT:     191733  MISS:     221762  HIT %:    46.3689  MISS %:    53.6311   MPKI: 1.08106
LLC RFO       ACCESS:      90152  HIT:      11077  MISS:      79075  HIT %:     12.287  MISS %:     87.713   MPKI: 0.385478
LLC PREFETCH  ACCESS:     374682  HIT:      84961  MISS:     289721  HIT %:    22.6755  MISS %:    77.3245   MPKI: 1.41234
LLC WRITEBACK ACCESS:     441122  HIT:     413173  MISS:      27949  HIT %:    93.6641  MISS %:    6.33589   MPKI: 0.136247

RAW hits: 3050598
Loads Generated: 38210588
Loads sent to L1D: 35159990
Stores Generated: 19988428
Stores sent to L1D: 19988430

CPU 3 cumulative IPC: 0.858594 instructions: 208385993 cycles: 242706205
ITLB TOTAL     ACCESS:   31093623  HIT:   28416461  MISS:    2677162  HIT %:      91.39  MISS %:       8.61   MPKI: 12.8471
ITLB LOAD      ACCESS:          0  HIT:          0  MISS:          0  HIT %:       -nan  MISS %:       -nan   MPKI: 0
ITLB RFO       ACCESS:          0  HIT:          0  MISS:          0  HIT %:       -nan  MISS %:       -nan   MPKI: 0
ITLB PREFETCH  ACCESS:          0  HIT:          0  MISS:          0  HIT %:       -nan  MISS %:       -nan   MPKI: 0
ITLB WRITEBACK ACCESS:          0  HIT:          0  MISS:          0  HIT %:       -nan  MISS %:       -nan   MPKI: 0
DTLB TOTAL     ACCESS:   28929684  HIT:   21805960  MISS:    7123724  HIT %:    75.3757  MISS %:    24.6243   MPKI: 34.1852
DTLB LOAD      ACCESS:          0  HIT:          0  MISS:          0  HIT %:       -nan  MISS %:       -nan   MPKI: 0
DTLB RFO       ACCESS:          0  HIT:          0  MISS:          0  HIT %:       -nan  MISS %:       -nan   MPKI: 0
DTLB PREFETCH  ACCESS:          0  HIT:          0  MISS:          0  HIT %:       -nan  MISS %:       -nan   MPKI: 0
DTLB WRITEBACK ACCESS:          0  HIT:          0  MISS:          0  HIT %:       -nan  MISS %:       -nan   MPKI: 0
STLB TOTAL     ACCESS:   12343964  HIT:    6385038  MISS:    5958926  HIT %:     51.726  MISS %:     48.274   MPKI: 28.5956
STLB LOAD      ACCESS:          0  HIT:          0  MISS:          0  HIT %:       -nan  MISS %:       -nan   MPKI: 0
STLB RFO       ACCESS:          0  HIT:          0  MISS:          0  HIT %:       -nan  MISS %:       -nan   MPKI: 0
STLB PREFETCH  ACCESS:          0  HIT:          0  MISS:          0  HIT %:       -nan  MISS %:       -nan   MPKI: 0
STLB WRITEBACK ACCESS:          0  HIT:          0  MISS:          0  HIT %:       -nan  MISS %:       -nan   MPKI: 0
L1D TOTAL     ACCESS:   43333234  HIT:   42199595  MISS:    1133639  HIT %:    97.3839  MISS %:     2.6161   MPKI: 5.44009
L1D LOAD      ACCESS:   21025947  HIT:   20565842  MISS:     460105  HIT %:    97.8117  MISS %:    2.18827   MPKI: 2.20795
L1D RFO       ACCESS:   18683708  HIT:   18496150  MISS:     187558  HIT %:    98.9961  MISS %:    1.00386   MPKI: 0.900051
L1D PREFETCH  ACCESS:    3623579  HIT:    3137603  MISS:     485976  HIT %:    86.5885  MISS %:    13.4115   MPKI: 2.3321
L1D WRITEBACK ACCESS:          0  HIT:          0  MISS:          0  HIT %:       -nan  MISS %:       -nan   MPKI: 0
L1I TOTAL     ACCESS:   39972273  HIT:   38870634  MISS:    1101639  HIT %:     97.244  MISS %:    2.75601   MPKI: 5.28653
L1I LOAD      ACCESS:   39972273  HIT:   38870634  MISS:    1101639  HIT %:     97.244  MISS %:    2.75601   MPKI: 5.28653
L1I RFO       ACCESS:          0  HIT:          0  MISS:          0  HIT %:       -nan  MISS %:       -nan   MPKI: 0
L1I PREFETCH  ACCESS:          0  HIT:          0  MISS:          0  HIT %:       -nan  MISS %:       -nan   MPKI: 0
L1I WRITEBACK ACCESS:          0  HIT:          0  MISS:          0  HIT %:       -nan  MISS %:       -nan   MPKI: 0
L2C TOTAL     ACCESS:    8984626  HIT:    7962564  MISS:    1022062  HIT %:    88.6243  MISS %:    11.3757   MPKI: 4.90466
L2C LOAD      ACCESS:    1469354  HIT:    1060427  MISS:     408927  HIT %:    72.1696  MISS %:    27.8304   MPKI: 1.96235
L2C RFO       ACCESS:     187013  HIT:     102481  MISS:      84532  HIT %:    54.7989  MISS %:    45.2011   MPKI: 0.405651
L2C PREFETCH  ACCESS:     578802  HIT:     134014  MISS:     444788  HIT %:    23.1537  MISS %:    76.8463   MPKI: 2.13444
L2C WRITEBACK ACCESS:     617518  HIT:     559556  MISS:      57962  HIT %:    90.6137  MISS %:    9.38629   MPKI: 0.278147
PSCL5 TOTAL     ACCESS:    5958925  HIT:    5958925  MISS:          0  HIT %:        100  MISS %:          0   MPKI: 0
PSCL5 LOAD      ACCESS:          0  HIT:          0  MISS:          0  HIT %:       -nan  MISS %:       -nan   MPKI: 0
PSCL5 RFO       ACCESS:          0  HIT:          0  MISS:          0  HIT %:       -nan  MISS %:       -nan   MPKI: 0
PSCL5 PREFETCH  ACCESS:          0  HIT:          0  MISS:          0  HIT %:       -nan  MISS %:       -nan   MPKI: 0
PSCL5 WRITEBACK ACCESS:          0  HIT:          0  MISS:          0  HIT %:       -nan  MISS %:       -nan   MPKI: 0
PSCL4 TOTAL     ACCESS:    5944520  HIT:    5944175  MISS:        345  HIT %:    99.9942  MISS %: 0.00580366   MPKI: 0.00165558
PSCL4 LOAD      ACCESS:          0  HIT:          0  MISS:          0  HIT %:       -nan  MISS %:       -nan   MPKI: 0
PSCL4 RFO       ACCESS:          0  HIT:          0  MISS:          0  HIT %:       -nan  MISS %:       -nan   MPKI: 0
PSCL4 PREFETCH  ACCESS:          0  HIT:          0  MISS:          0  HIT %:       -nan  MISS %:       -nan   MPKI: 0
PSCL4 WRITEBACK ACCESS:          0  HIT:          0  MISS:          0  HIT %:       -nan  MISS %:       -nan   MPKI: 0
PSCL3 TOTAL     ACCESS:    5931866  HIT:    5925646  MISS:       6220  HIT %:    99.8951  MISS %:   0.104857   MPKI: 0.0298485
PSCL3 LOAD      ACCESS:          0  HIT:          0  MISS:          0  HIT %:       -nan  MISS %:       -nan   MPKI: 0
PSCL3 RFO       ACCESS:          0  HIT:          0  MISS:          0  HIT %:       -nan  MISS %:       -nan   MPKI: 0
PSCL3 PREFETCH  ACCESS:          0  HIT:          0  MISS:          0  HIT %:       -nan  MISS %:       -nan   MPKI: 0
PSCL3 WRITEBACK ACCESS:          0  HIT:          0  MISS:          0  HIT %:       -nan  MISS %:       -nan   MPKI: 0
PSCL2 TOTAL     ACCESS:    5958925  HIT:    5792432  MISS:     166493  HIT %:     97.206  MISS %:    2.79401   MPKI: 0.798964
PSCL2 LOAD      ACCESS:          0  HIT:          0  MISS:          0  HIT %:       -nan  MISS %:       -nan   MPKI: 0
PSCL2 RFO       ACCESS:          0  HIT:          0  MISS:          0  HIT %:       -nan  MISS %:       -nan   MPKI: 0
PSCL2 PREFETCH  ACCESS:          0  HIT:          0  MISS:          0  HIT %:       -nan  MISS %:       -nan   MPKI: 0
PSCL2 WRITEBACK ACCESS:          0  HIT:          0  MISS:          0  HIT %:       -nan  MISS %:       -nan   MPKI: 0

stream: 
stream:times selected: 6352833
stream:pref_filled: 218323
stream:pref_useful: 101606
stream:pref_late: 25162
stream:misses: 38928
stream:misses_by_poll: 0

CS: 
CS:times selected: 1658622
CS:pref_filled: 241211
CS:pref_useful: 226303
CS:pref_late: 65142
CS:misses: 132643
CS:misses_by_poll: 542

CPLX: 
CPLX:times selected: 4673933
CPLX:pref_filled: 166957
CPLX:pref_useful: 95185
CPLX:pref_late: 1972
CPLX:misses: 173505
CPLX:misses_by_poll: 329

NL_L1: 
NL:times selected: 27083
NL:pref_filled: 1822
NL:pref_useful: 1345
NL:pref_late: 107
NL:misses: 1345
NL:misses_by_poll: 0

total selections: 12712471
total_filled: 485976
total_useful: 322917
total_late: 93988
total_polluted: 871
total_misses_after_warmup: 523070
conflicts: 9564663
Degree Incremented Times: 435048
Degree Decremented Times: 364202

L1 IP Table Write Accesses: 73536640
L1 IP Table Read Accesses: 63971977
L1 RST Write Accesses: 19038820
L1 RST Read Accesses: 38077640
L1 CSPT Write Accesses: 19038820
L1 CSPT Read Accesses: 40039300
L1 RR Filter Tag Write Accesses: 16934561
L1 RR Filter Tag Read Accesses: 1028309021
L1 IP Table Tag Write Accesses: 89477556
L1 IP Table Tag Read Accesses: 89477556
L1 RST Tag Write Accesses: 0
L1 RST Tag Read Accesses: 174186335
L1 RR Filter Write Accesses: 0
L1 RR Filter Read Accesses: 39338360
test: 7067846
LLC TOTAL     ACCESS:    1460932  HIT:     785288  MISS:     675644  HIT %:    53.7525  MISS %:    46.2475   MPKI: 3.24227
LLC LOAD      ACCESS:     408927  HIT:     192718  MISS:     216209  HIT %:    47.1277  MISS %:    52.8723   MPKI: 1.03754
LLC RFO       ACCESS:      84524  HIT:      17075  MISS:      67449  HIT %:    20.2014  MISS %:    79.7986   MPKI: 0.323673
LLC PREFETCH  ACCESS:     444788  HIT:      89582  MISS:     355206  HIT %:    20.1404  MISS %:    79.8596   MPKI: 1.70456
LLC WRITEBACK ACCESS:     496840  HIT:     467462  MISS:      29378  HIT %:     94.087  MISS %:    5.91297   MPKI: 0.140979

RAW hits: 3064507
Loads Generated: 37539480
Loads sent to L1D: 34474973
Stores Generated: 20500861
Stores sent to L1D: 20500866

Region of Interest Statistics

CPU 0 cumulative IPC: 0.913832 instructions: 200000000 cycles: 218858677
ITLB TOTAL     ACCESS:   29443092  HIT:   26926885  MISS:    2516207  HIT %:     91.454  MISS %:      8.546   MPKI: 12.581
ITLB LOAD TRANSLATION ACCESS:   29443092  HIT:   26926885  MISS:    2516207  HIT %:     91.454  MISS %:      8.546   MPKI: 12.581
ITLB PREFETCH  REQUESTED:          0  ISSUED:          0  USEFUL:          0  USELESS:          0
ITLB USEFUL LOAD PREFETCHES:          0 PREFETCH ISSUED TO LOWER LEVEL:          0  ACCURACY: -nan
ITLB TIMELY PREFETCHES:          0 LATE PREFETCHES: 0 DROPPED PREFETCHES: 0
ITLB PREFETCHES SAME FILL-ORIGIN LEVEL: 0 DIFFERENT FILL-ORIGIN LEVEL: 0
ITLB AVERAGE MISS LATENCY: 33.2535 cycles
ITLB RQ	ACCESS:   42144548	FORWARD:          0	MERGED:    8769607	TO_CACHE:   33374941

DTLB TOTAL     ACCESS:   28192943  HIT:   21225942  MISS:    6967001  HIT %:    75.2881  MISS %:    24.7119   MPKI: 34.835
DTLB LOAD TRANSLATION ACCESS:   28192943  HIT:   21225942  MISS:    6967001  HIT %:    75.2881  MISS %:    24.7119   MPKI: 34.835
DTLB PREFETCH  REQUESTED:          0  ISSUED:          0  USEFUL:          0  USELESS:          0
DTLB USEFUL LOAD PREFETCHES:          0 PREFETCH ISSUED TO LOWER LEVEL:          0  ACCURACY: -nan
DTLB TIMELY PREFETCHES:          0 LATE PREFETCHES: 0 DROPPED PREFETCHES: 0
DTLB PREFETCHES SAME FILL-ORIGIN LEVEL: 0 DIFFERENT FILL-ORIGIN LEVEL: 0
DTLB AVERAGE MISS LATENCY: 25.1887 cycles
DTLB RQ	ACCESS:   43023469	FORWARD:          0	MERGED:   11011693	TO_CACHE:   32011776

STLB TOTAL     ACCESS:   12045300  HIT:    6073224  MISS:    5972076  HIT %:    50.4199  MISS %:    49.5801   MPKI: 29.8604
STLB LOAD TRANSLATION ACCESS:    9483207  HIT:    3600248  MISS:    5882959  HIT %:    37.9645  MISS %:    62.0355   MPKI: 29.4148
STLB TRANSLATION FROM L1D PREFETCHER ACCESS:    2562093  HIT:    2472976  MISS:      89117  HIT %:    96.5217  MISS %:    3.47829   MPKI: 0.445585
STLB PREFETCH  REQUESTED:          0  ISSUED:          0  USEFUL:      66620  USELESS:      41369
STLB USEFUL LOAD PREFETCHES:      66620 PREFETCH ISSUED TO LOWER LEVEL:          0  ACCURACY: inf
STLB TIMELY PREFETCHES:      66620 LATE PREFETCHES: 0 DROPPED PREFETCHES: 0
STLB PREFETCHES SAME FILL-ORIGIN LEVEL: 0 DIFFERENT FILL-ORIGIN LEVEL: 0
STLB AVERAGE MISS LATENCY: 28.1005 cycles
STLB RQ	ACCESS:   16139434	FORWARD:          0	MERGED:    2938079	TO_CACHE:   13201355

STLB Hit, L1D data hit: 0
STLB Hit, L2C data hit: 0
STLB Hit, LLC data hit: 0
STLB Hit, LLC data miss: 0
STLB STLB hints to L2: 0
L1D TOTAL     ACCESS:   43851147  HIT:   42612413  MISS:    1238734  HIT %:    97.1751  MISS %:    2.82486   MPKI: 6.19367
L1D LOAD      ACCESS:   20469927  HIT:   20122361  MISS:     347566  HIT %:    98.3021  MISS %:    1.69793   MPKI: 1.73783
L1D RFO       ACCESS:   18152208  HIT:   18014753  MISS:     137455  HIT %:    99.2428  MISS %:   0.757236   MPKI: 0.687275
L1D PREFETCH  ACCESS:    5229012  HIT:    4475299  MISS:     753713  HIT %:    85.5859  MISS %:    14.4141   MPKI: 3.76857
L1D PREFETCH  REQUESTED:   11436896  ISSUED:   11401597  USEFUL:     429796  USELESS:     398867
L1D USEFUL LOAD PREFETCHES:     429796 PREFETCH ISSUED TO LOWER LEVEL:     891613  ACCURACY: 48.2043
L1D TIMELY PREFETCHES:     429796 LATE PREFETCHES: 62701 DROPPED PREFETCHES: 0
L1D PREFETCHES SAME FILL-ORIGIN LEVEL: 891613 DIFFERENT FILL-ORIGIN LEVEL: 0
L1D AVERAGE MISS LATENCY: 145.904 cycles
L1D RQ	ACCESS:   35590185	FORWARD:          0	MERGED:   12924420	TO_CACHE:   22547604
L1D WQ	ACCESS:   21577901	FORWARD:     123082	MERGED:    1102036	TO_CACHE:   20475865
L1D PQ	ACCESS:    5703315	FORWARD:          0	MERGED:        112	TO_CACHE:    5698282

L1D UNIQUE REGIONS ACCESSED: 0
L1D REGIONS CONFLICTS: 0
L1D Cross Page Prefetch Requests: 0
L1D Same Page Prefetch Requests: 9126432
L1D ROI Sum of L1D PQ occupancy: 76761905
L1D PREFETCHES PUSHED FROM L2C: 0
L1I TOTAL     ACCESS:   38219438  HIT:   37444507  MISS:     774931  HIT %:    97.9724  MISS %:    2.02758   MPKI: 3.87466
L1I LOAD      ACCESS:   38219438  HIT:   37444507  MISS:     774931  HIT %:    97.9724  MISS %:    2.02758   MPKI: 3.87466
L1I PREFETCH  REQUESTED:          0  ISSUED:          0  USEFUL:          0  USELESS:          0
L1I USEFUL LOAD PREFETCHES:          0 PREFETCH ISSUED TO LOWER LEVEL:          0  ACCURACY: -nan
L1I TIMELY PREFETCHES:          0 LATE PREFETCHES: 0 DROPPED PREFETCHES: 0
L1I PREFETCHES SAME FILL-ORIGIN LEVEL: 0 DIFFERENT FILL-ORIGIN LEVEL: 0
L1I AVERAGE MISS LATENCY: 30.6359 cycles
L1I RQ	ACCESS:   67249063	FORWARD:          0	MERGED:   25104515	TO_CACHE:   42144548

BTB BRANCH_DIRECT_JUMP	ACCESS:          0  HIT:          0  MISS:          0
BTB BRANCH_INDIRECT	ACCESS:          0  HIT:          0  MISS:          0
BTB BRANCH_CONDITIONAL	ACCESS:          0  HIT:          0  MISS:          0
BTB BRANCH_DIRECT_CALL	ACCESS:          0  HIT:          0  MISS:          0
BTB BRANCH_INDIRECT_CALL	ACCESS:          0  HIT:          0  MISS:          0
BTB BRANCH_RETURN	ACCESS:          0  HIT:          0  MISS:          0
BTB BRANCH_OTHER ACCESS:          0  HIT:          0  MISS:          0

L2C TOTAL     ACCESS:    8688605  HIT:    7673308  MISS:    1015297  HIT %:    88.3146  MISS %:    11.6854   MPKI: 5.07648
L2C LOAD      ACCESS:    1064427  HIT:     761171  MISS:     303256  HIT %:    71.5099  MISS %:    28.4901   MPKI: 1.51628
L2C DATA LOAD MPKI: 0.914165
L2C INSTRUCTION LOAD MPKI: 0.602115
L2C RFO       ACCESS:     136937  HIT:      73335  MISS:      63602  HIT %:    53.5538  MISS %:    46.4462   MPKI: 0.31801
L2C PREFETCH  ACCESS:     812229  HIT:     231613  MISS:     580616  HIT %:    28.5157  MISS %:    71.4843   MPKI: 2.90308
L2C DATA PREFETCH MPKI: 2.90308
L2C INSTRUCTION PREFETCH MPKI: 0
L2C WRITEBACK ACCESS:     591267  HIT:     544598  MISS:      46669  HIT %:    92.1069  MISS %:    7.89305   MPKI: 0.233345
L2C LOAD TRANSLATION ACCESS:    5992360  HIT:    5971365  MISS:      20995  HIT %:    99.6496  MISS %:   0.350363   MPKI: 0.104975
L2C TRANSLATION FROM L1D PREFETCHER ACCESS:      91385  HIT:      91226  MISS:        159  HIT %:     99.826  MISS %:   0.173989   MPKI: 0.000795
L2C PREFETCH  REQUESTED:          0  ISSUED:          0  USEFUL:      37324  USELESS:     597952
L2C USEFUL LOAD PREFETCHES:      37324 PREFETCH ISSUED TO LOWER LEVEL:     632425  ACCURACY: 5.90173
L2C TIMELY PREFETCHES:      37324 LATE PREFETCHES: 0 DROPPED PREFETCHES: 0
L2C PREFETCHES SAME FILL-ORIGIN LEVEL: 0 DIFFERENT FILL-ORIGIN LEVEL: 0
L2C AVERAGE MISS LATENCY: 189.839 cycles
L2C RQ	ACCESS:    8185108	FORWARD:          0	MERGED:          1	TO_CACHE:    8185046
L2C WQ	ACCESS:     635904	FORWARD:         70	MERGED:          0	TO_CACHE:     635904
L2C PQ	ACCESS:     891613	FORWARD:          0	MERGED:          0	TO_CACHE:     891604

L2C Instructions Evicting Data 108702
L2C Translations Evicting Data 19774
L2C Data Evicting Data 783473
L2C Instructions Evicting Instructions 25963
L2C Translations Evicting Instructions 3705
L2C Data Evicting Instructions 100429
L2C Instructions Evicting Translations 3555
L2C Translations Evicting Translations 636
L2C Data Evicting Translations 18526
L2C Dense regions hint from L2: 0
PSCL5 TOTAL     ACCESS:    5972075  HIT:    5972075  MISS:          0  HIT %:        100  MISS %:          0   MPKI: 0
PSCL5 LOAD TRANSLATION ACCESS:    5882958  HIT:    5882958  MISS:          0  HIT %:        100  MISS %:          0   MPKI: 0
PSCL5 TRANSLATION FROM L1D PREFETCHER ACCESS:      89117  HIT:      89117  MISS:          0  HIT %:        100  MISS %:          0   MPKI: 0
PSCL5 PREFETCH  REQUESTED:          0  ISSUED:          0  USEFUL:          0  USELESS:          0
PSCL5 USEFUL LOAD PREFETCHES:          0 PREFETCH ISSUED TO LOWER LEVEL:          0  ACCURACY: -nan
PSCL5 TIMELY PREFETCHES:          0 LATE PREFETCHES: 0 DROPPED PREFETCHES: 0
PSCL5 PREFETCHES SAME FILL-ORIGIN LEVEL: 0 DIFFERENT FILL-ORIGIN LEVEL: 0

PSCL4 TOTAL     ACCESS:    5962974  HIT:    5962834  MISS:        140  HIT %:    99.9977  MISS %: 0.00234782   MPKI: 0.0007
PSCL4 LOAD TRANSLATION ACCESS:    5874480  HIT:    5874340  MISS:        140  HIT %:    99.9976  MISS %: 0.00238319   MPKI: 0.0007
PSCL4 TRANSLATION FROM L1D PREFETCHER ACCESS:      88494  HIT:      88494  MISS:          0  HIT %:        100  MISS %:          0   MPKI: 0
PSCL4 PREFETCH  REQUESTED:          0  ISSUED:          0  USEFUL:          0  USELESS:          0
PSCL4 USEFUL LOAD PREFETCHES:          0 PREFETCH ISSUED TO LOWER LEVEL:          0  ACCURACY: -nan
PSCL4 TIMELY PREFETCHES:          0 LATE PREFETCHES: 0 DROPPED PREFETCHES: 0
PSCL4 PREFETCHES SAME FILL-ORIGIN LEVEL: 0 DIFFERENT FILL-ORIGIN LEVEL: 0

PSCL3 TOTAL     ACCESS:    5939423  HIT:    5934361  MISS:       5062  HIT %:    99.9148  MISS %:  0.0852271   MPKI: 0.02531
PSCL3 LOAD TRANSLATION ACCESS:    5852124  HIT:    5847062  MISS:       5062  HIT %:    99.9135  MISS %:  0.0864985   MPKI: 0.02531
PSCL3 TRANSLATION FROM L1D PREFETCHER ACCESS:      87299  HIT:      87299  MISS:          0  HIT %:        100  MISS %:          0   MPKI: 0
PSCL3 PREFETCH  REQUESTED:          0  ISSUED:          0  USEFUL:          0  USELESS:          0
PSCL3 USEFUL LOAD PREFETCHES:          0 PREFETCH ISSUED TO LOWER LEVEL:          0  ACCURACY: -nan
PSCL3 TIMELY PREFETCHES:          0 LATE PREFETCHES: 0 DROPPED PREFETCHES: 0
PSCL3 PREFETCHES SAME FILL-ORIGIN LEVEL: 0 DIFFERENT FILL-ORIGIN LEVEL: 0

PSCL2 TOTAL     ACCESS:    5972075  HIT:    5865514  MISS:     106561  HIT %:    98.2157  MISS %:    1.78432   MPKI: 0.532805
PSCL2 LOAD TRANSLATION ACCESS:    5885016  HIT:    5778455  MISS:     106561  HIT %:    98.1893  MISS %:    1.81072   MPKI: 0.532805
PSCL2 TRANSLATION FROM L1D PREFETCHER ACCESS:      87059  HIT:      87059  MISS:          0  HIT %:        100  MISS %:          0   MPKI: 0
PSCL2 PREFETCH  REQUESTED:          0  ISSUED:          0  USEFUL:          0  USELESS:          0
PSCL2 USEFUL LOAD PREFETCHES:          0 PREFETCH ISSUED TO LOWER LEVEL:          0  ACCURACY: -nan
PSCL2 TIMELY PREFETCHES:          0 LATE PREFETCHES: 0 DROPPED PREFETCHES: 0
PSCL2 PREFETCHES SAME FILL-ORIGIN LEVEL: 0 DIFFERENT FILL-ORIGIN LEVEL: 0

LLC TOTAL     ACCESS:    1466270  HIT:     808251  MISS:     658019  HIT %:    55.1229  MISS %:    44.8771   MPKI: 3.29009
LLC LOAD      ACCESS:     303256  HIT:     158208  MISS:     145048  HIT %:    52.1698  MISS %:    47.8302   MPKI: 0.72524
LLC RFO       ACCESS:      63602  HIT:       8811  MISS:      54791  HIT %:    13.8533  MISS %:    86.1467   MPKI: 0.273955
LLC PREFETCH  ACCESS:     580614  HIT:     153027  MISS:     427587  HIT %:    26.3561  MISS %:    73.6439   MPKI: 2.13794
LLC WRITEBACK ACCESS:     497644  HIT:     472492  MISS:      25152  HIT %:    94.9458  MISS %:    5.05422   MPKI: 0.12576
LLC LOAD TRANSLATION ACCESS:      20995  HIT:      15618  MISS:       5377  HIT %:    74.3891  MISS %:    25.6109   MPKI: 0.026885
LLC TRANSLATION FROM L1D PREFETCHER ACCESS:        159  HIT:         95  MISS:         64  HIT %:    59.7484  MISS %:    40.2516   MPKI: 0.00032
LLC PREFETCH  REQUESTED:          0  ISSUED:          0  USEFUL:      66004  USELESS:    1269155
LLC USEFUL LOAD PREFETCHES:      66004 PREFETCH ISSUED TO LOWER LEVEL:    1321616  ACCURACY: 4.99419
LLC TIMELY PREFETCHES:      66004 LATE PREFETCHES: 0 DROPPED PREFETCHES: 0
LLC PREFETCHES SAME FILL-ORIGIN LEVEL: 0 DIFFERENT FILL-ORIGIN LEVEL: 0
LLC AVERAGE MISS LATENCY: 850.035 cycles
LLC RQ	ACCESS:    2045285	FORWARD:          0	MERGED:          0	TO_CACHE:    2045272
LLC WQ	ACCESS:    1763523	FORWARD:         16	MERGED:          0	TO_CACHE:    1763523
LLC PQ	ACCESS:    1748446	FORWARD:          0	MERGED:          0	TO_CACHE:    1748443

LLC Dense regions hint to LLC: 0

RAW hits: 2804729
Loads Generated: 35192587
Loads sent to L1D: 32387854
Stores Generated: 19765428
Stores sent to L1D: 19765428
Major fault: 0 Minor fault: 6867
Allocated PAGES: 27230

CPU 1 cumulative IPC: 0.824042 instructions: 200000002 cycles: 242706204
ITLB TOTAL     ACCESS:   29640324  HIT:   27203256  MISS:    2437068  HIT %:    91.7779  MISS %:    8.22214   MPKI: 12.1853
ITLB LOAD TRANSLATION ACCESS:   29640324  HIT:   27203256  MISS:    2437068  HIT %:    91.7779  MISS %:    8.22214   MPKI: 12.1853
ITLB PREFETCH  REQUESTED:          0  ISSUED:          0  USEFUL:          0  USELESS:          0
ITLB USEFUL LOAD PREFETCHES:          0 PREFETCH ISSUED TO LOWER LEVEL:          0  ACCURACY: -nan
ITLB TIMELY PREFETCHES:          0 LATE PREFETCHES: 0 DROPPED PREFETCHES: 0
ITLB PREFETCHES SAME FILL-ORIGIN LEVEL: 0 DIFFERENT FILL-ORIGIN LEVEL: 0
ITLB AVERAGE MISS LATENCY: 29.8836 cycles
ITLB RQ	ACCESS:   39076538	FORWARD:          0	MERGED:    8505430	TO_CACHE:   30571108

DTLB TOTAL     ACCESS:   29725182  HIT:   22060009  MISS:    7665173  HIT %:    74.2132  MISS %:    25.7868   MPKI: 38.3259
DTLB LOAD TRANSLATION ACCESS:   29725182  HIT:   22060009  MISS:    7665173  HIT %:    74.2132  MISS %:    25.7868   MPKI: 38.3259
DTLB PREFETCH  REQUESTED:          0  ISSUED:          0  USEFUL:          0  USELESS:          0
DTLB USEFUL LOAD PREFETCHES:          0 PREFETCH ISSUED TO LOWER LEVEL:          0  ACCURACY: -nan
DTLB TIMELY PREFETCHES:          0 LATE PREFETCHES: 0 DROPPED PREFETCHES: 0
DTLB PREFETCHES SAME FILL-ORIGIN LEVEL: 0 DIFFERENT FILL-ORIGIN LEVEL: 0
DTLB AVERAGE MISS LATENCY: 20.3849 cycles
DTLB RQ	ACCESS:   40784697	FORWARD:          0	MERGED:    9978619	TO_CACHE:   30806078

STLB TOTAL     ACCESS:   12400635  HIT:    7029388  MISS:    5371247  HIT %:    56.6857  MISS %:    43.3143   MPKI: 26.8562
STLB LOAD TRANSLATION ACCESS:   10102241  HIT:    4946372  MISS:    5155869  HIT %:    48.9631  MISS %:    51.0369   MPKI: 25.7793
STLB TRANSLATION FROM L1D PREFETCHER ACCESS:    2298394  HIT:    2083016  MISS:     215378  HIT %:    90.6292  MISS %:     9.3708   MPKI: 1.07689
STLB PREFETCH  REQUESTED:          0  ISSUED:          0  USEFUL:     114001  USELESS:     101379
STLB USEFUL LOAD PREFETCHES:     114001 PREFETCH ISSUED TO LOWER LEVEL:          0  ACCURACY: inf
STLB TIMELY PREFETCHES:     114001 LATE PREFETCHES: 0 DROPPED PREFETCHES: 0
STLB PREFETCHES SAME FILL-ORIGIN LEVEL: 0 DIFFERENT FILL-ORIGIN LEVEL: 0
STLB AVERAGE MISS LATENCY: 26.7974 cycles
STLB RQ	ACCESS:   13726248	FORWARD:          0	MERGED:    1307056	TO_CACHE:   12419192

STLB Hit, L1D data hit: 0
STLB Hit, L2C data hit: 0
STLB Hit, LLC data hit: 0
STLB Hit, LLC data miss: 0
STLB STLB hints to L2: 0
L1D TOTAL     ACCESS:   43629696  HIT:   42416063  MISS:    1213633  HIT %:    97.2183  MISS %:    2.78167   MPKI: 6.06816
L1D LOAD      ACCESS:   23316833  HIT:   22755697  MISS:     561136  HIT %:    97.5934  MISS %:    2.40657   MPKI: 2.80568
L1D RFO       ACCESS:   16774057  HIT:   16615498  MISS:     158559  HIT %:    99.0547  MISS %:   0.945263   MPKI: 0.792795
L1D PREFETCH  ACCESS:    3538806  HIT:    3044868  MISS:     493938  HIT %:    86.0422  MISS %:    13.9578   MPKI: 2.46969
L1D PREFETCH  REQUESTED:    7252700  ISSUED:    7252657  USEFUL:     199591  USELESS:     294362
L1D USEFUL LOAD PREFETCHES:     199591 PREFETCH ISSUED TO LOWER LEVEL:     534830  ACCURACY: 37.3186
L1D TIMELY PREFETCHES:     199591 LATE PREFETCHES: 40674 DROPPED PREFETCHES: 0
L1D PREFETCHES SAME FILL-ORIGIN LEVEL: 534830 DIFFERENT FILL-ORIGIN LEVEL: 0
L1D AVERAGE MISS LATENCY: 98.692 cycles
L1D RQ	ACCESS:   36988045	FORWARD:          0	MERGED:   13480064	TO_CACHE:   23374735
L1D WQ	ACCESS:   18166268	FORWARD:     137856	MERGED:     756306	TO_CACHE:   17409962
L1D PQ	ACCESS:    3628650	FORWARD:          0	MERGED:         33	TO_CACHE:    3624007

L1D UNIQUE REGIONS ACCESSED: 0
L1D REGIONS CONFLICTS: 0
L1D Cross Page Prefetch Requests: 0
L1D Same Page Prefetch Requests: 4720724
L1D ROI Sum of L1D PQ occupancy: 50343042
L1D PREFETCHES PUSHED FROM L2C: 0
L1I TOTAL     ACCESS:   38386673  HIT:   36441679  MISS:    1944994  HIT %:    94.9332  MISS %:    5.06685   MPKI: 9.72497
L1I LOAD      ACCESS:   38386673  HIT:   36441679  MISS:    1944994  HIT %:    94.9332  MISS %:    5.06685   MPKI: 9.72497
L1I PREFETCH  REQUESTED:          0  ISSUED:          0  USEFUL:          0  USELESS:          0
L1I USEFUL LOAD PREFETCHES:          0 PREFETCH ISSUED TO LOWER LEVEL:          0  ACCURACY: -nan
L1I TIMELY PREFETCHES:          0 LATE PREFETCHES: 0 DROPPED PREFETCHES: 0
L1I PREFETCHES SAME FILL-ORIGIN LEVEL: 0 DIFFERENT FILL-ORIGIN LEVEL: 0
L1I AVERAGE MISS LATENCY: 21.9307 cycles
L1I RQ	ACCESS:   62306542	FORWARD:          0	MERGED:   23230004	TO_CACHE:   39076538

BTB BRANCH_DIRECT_JUMP	ACCESS:          0  HIT:          0  MISS:          0
BTB BRANCH_INDIRECT	ACCESS:          0  HIT:          0  MISS:          0
BTB BRANCH_CONDITIONAL	ACCESS:          0  HIT:          0  MISS:          0
BTB BRANCH_DIRECT_CALL	ACCESS:          0  HIT:          0  MISS:          0
BTB BRANCH_INDIRECT_CALL	ACCESS:          0  HIT:          0  MISS:          0
BTB BRANCH_RETURN	ACCESS:          0  HIT:          0  MISS:          0
BTB BRANCH_OTHER ACCESS:          0  HIT:          0  MISS:          0

L2C TOTAL     ACCESS:    9325763  HIT:    8425648  MISS:     900115  HIT %:    90.3481  MISS %:    9.65192   MPKI: 4.50057
L2C LOAD      ACCESS:    2465439  HIT:    1997356  MISS:     468083  HIT %:    81.0142  MISS %:    18.9858   MPKI: 2.34041
L2C DATA LOAD MPKI: 1.15155
L2C INSTRUCTION LOAD MPKI: 1.18886
L2C RFO       ACCESS:     158308  HIT:      98716  MISS:      59592  HIT %:    62.3569  MISS %:    37.6431   MPKI: 0.29796
L2C PREFETCH  ACCESS:     534819  HIT:     238269  MISS:     296550  HIT %:    44.5513  MISS %:    55.4487   MPKI: 1.48275
L2C DATA PREFETCH MPKI: 1.48275
L2C INSTRUCTION PREFETCH MPKI: 0
L2C WRITEBACK ACCESS:     475706  HIT:     435750  MISS:      39956  HIT %:    91.6007  MISS %:    8.39931   MPKI: 0.19978
L2C LOAD TRANSLATION ACCESS:    5467563  HIT:    5431802  MISS:      35761  HIT %:    99.3459  MISS %:   0.654057   MPKI: 0.178805
L2C TRANSLATION FROM L1D PREFETCHER ACCESS:     223928  HIT:     223755  MISS:        173  HIT %:    99.9227  MISS %:   0.077257   MPKI: 0.000865
L2C PREFETCH  REQUESTED:          0  ISSUED:          0  USEFUL:      21591  USELESS:     275112
L2C USEFUL LOAD PREFETCHES:      21591 PREFETCH ISSUED TO LOWER LEVEL:     296550  ACCURACY: 7.28073
L2C TIMELY PREFETCHES:      21591 LATE PREFETCHES: 0 DROPPED PREFETCHES: 0
L2C PREFETCHES SAME FILL-ORIGIN LEVEL: 0 DIFFERENT FILL-ORIGIN LEVEL: 0
L2C AVERAGE MISS LATENCY: 150.409 cycles
L2C RQ	ACCESS:    8315288	FORWARD:          0	MERGED:          0	TO_CACHE:    8315246
L2C WQ	ACCESS:     475706	FORWARD:         53	MERGED:          0	TO_CACHE:     475706
L2C PQ	ACCESS:     534830	FORWARD:          0	MERGED:          0	TO_CACHE:     534819

L2C Instructions Evicting Data 150754
L2C Translations Evicting Data 23264
L2C Data Evicting Data 423357
L2C Instructions Evicting Instructions 76402
L2C Translations Evicting Instructions 11199
L2C Data Evicting Instructions 140674
L2C Instructions Evicting Translations 10617
L2C Translations Evicting Translations 1471
L2C Data Evicting Translations 22421
L2C Dense regions hint from L2: 0
PSCL5 TOTAL     ACCESS:    5371247  HIT:    5371247  MISS:          0  HIT %:        100  MISS %:          0   MPKI: 0
PSCL5 LOAD TRANSLATION ACCESS:    5155869  HIT:    5155869  MISS:          0  HIT %:        100  MISS %:          0   MPKI: 0
PSCL5 TRANSLATION FROM L1D PREFETCHER ACCESS:     215378  HIT:     215378  MISS:          0  HIT %:        100  MISS %:          0   MPKI: 0
PSCL5 PREFETCH  REQUESTED:          0  ISSUED:          0  USEFUL:          0  USELESS:          0
PSCL5 USEFUL LOAD PREFETCHES:          0 PREFETCH ISSUED TO LOWER LEVEL:          0  ACCURACY: -nan
PSCL5 TIMELY PREFETCHES:          0 LATE PREFETCHES: 0 DROPPED PREFETCHES: 0
PSCL5 PREFETCHES SAME FILL-ORIGIN LEVEL: 0 DIFFERENT FILL-ORIGIN LEVEL: 0

PSCL4 TOTAL     ACCESS:    5315314  HIT:    5314174  MISS:       1140  HIT %:    99.9786  MISS %:  0.0214475   MPKI: 0.0057
PSCL4 LOAD TRANSLATION ACCESS:    5107187  HIT:    5106047  MISS:       1140  HIT %:    99.9777  MISS %:  0.0223215   MPKI: 0.0057
PSCL4 TRANSLATION FROM L1D PREFETCHER ACCESS:     208127  HIT:     208127  MISS:          0  HIT %:        100  MISS %:          0   MPKI: 0
PSCL4 PREFETCH  REQUESTED:          0  ISSUED:          0  USEFUL:          0  USELESS:          0
PSCL4 USEFUL LOAD PREFETCHES:          0 PREFETCH ISSUED TO LOWER LEVEL:          0  ACCURACY: -nan
PSCL4 TIMELY PREFETCHES:          0 LATE PREFETCHES: 0 DROPPED PREFETCHES: 0
PSCL4 PREFETCHES SAME FILL-ORIGIN LEVEL: 0 DIFFERENT FILL-ORIGIN LEVEL: 0

PSCL3 TOTAL     ACCESS:    5311032  HIT:    5299608  MISS:      11424  HIT %:    99.7849  MISS %:   0.215099   MPKI: 0.05712
PSCL3 LOAD TRANSLATION ACCESS:    5100686  HIT:    5089262  MISS:      11424  HIT %:     99.776  MISS %:    0.22397   MPKI: 0.05712
PSCL3 TRANSLATION FROM L1D PREFETCHER ACCESS:     210346  HIT:     210346  MISS:          0  HIT %:        100  MISS %:          0   MPKI: 0
PSCL3 PREFETCH  REQUESTED:          0  ISSUED:          0  USEFUL:          0  USELESS:          0
PSCL3 USEFUL LOAD PREFETCHES:          0 PREFETCH ISSUED TO LOWER LEVEL:          0  ACCURACY: -nan
PSCL3 TIMELY PREFETCHES:          0 LATE PREFETCHES: 0 DROPPED PREFETCHES: 0
PSCL3 PREFETCHES SAME FILL-ORIGIN LEVEL: 0 DIFFERENT FILL-ORIGIN LEVEL: 0

PSCL2 TOTAL     ACCESS:    5371247  HIT:    5063495  MISS:     307752  HIT %:    94.2704  MISS %:    5.72962   MPKI: 1.53876
PSCL2 LOAD TRANSLATION ACCESS:    5163650  HIT:    4855898  MISS:     307752  HIT %:      94.04  MISS %:    5.95997   MPKI: 1.53876
PSCL2 TRANSLATION FROM L1D PREFETCHER ACCESS:     207597  HIT:     207597  MISS:          0  HIT %:        100  MISS %:          0   MPKI: 0
PSCL2 PREFETCH  REQUESTED:          0  ISSUED:          0  USEFUL:          0  USELESS:          0
PSCL2 USEFUL LOAD PREFETCHES:          0 PREFETCH ISSUED TO LOWER LEVEL:          0  ACCURACY: -nan
PSCL2 TIMELY PREFETCHES:          0 LATE PREFETCHES: 0 DROPPED PREFETCHES: 0
PSCL2 PREFETCHES SAME FILL-ORIGIN LEVEL: 0 DIFFERENT FILL-ORIGIN LEVEL: 0

LLC TOTAL     ACCESS:    1149081  HIT:     671309  MISS:     477772  HIT %:    58.4214  MISS %:    41.5786   MPKI: 2.38886
LLC LOAD      ACCESS:     468083  HIT:     280204  MISS:     187879  HIT %:     59.862  MISS %:     40.138   MPKI: 0.939395
LLC RFO       ACCESS:      59591  HIT:      11872  MISS:      47719  HIT %:    19.9225  MISS %:    80.0775   MPKI: 0.238595
LLC PREFETCH  ACCESS:     296550  HIT:      84532  MISS:     212018  HIT %:    28.5051  MISS %:    71.4949   MPKI: 1.06009
LLC WRITEBACK ACCESS:     288923  HIT:     266679  MISS:      22244  HIT %:    92.3011  MISS %:    7.69894   MPKI: 0.11122
LLC LOAD TRANSLATION ACCESS:      35761  HIT:      27902  MISS:       7859  HIT %:    78.0235  MISS %:    21.9765   MPKI: 0.039295
LLC TRANSLATION FROM L1D PREFETCHER ACCESS:        173  HIT:        120  MISS:         53  HIT %:    69.3642  MISS %:    30.6358   MPKI: 0.000265
LLC PREFETCH  REQUESTED:          0  ISSUED:          0  USEFUL:      66004  USELESS:    1269155
LLC USEFUL LOAD PREFETCHES:      66004 PREFETCH ISSUED TO LOWER LEVEL:    1321616  ACCURACY: 4.99419
LLC TIMELY PREFETCHES:      66004 LATE PREFETCHES: 0 DROPPED PREFETCHES: 0
LLC PREFETCHES SAME FILL-ORIGIN LEVEL: 0 DIFFERENT FILL-ORIGIN LEVEL: 0
LLC AVERAGE MISS LATENCY: 1170.72 cycles
LLC RQ	ACCESS:    2045285	FORWARD:          0	MERGED:          0	TO_CACHE:    2045272
LLC WQ	ACCESS:    1763523	FORWARD:         16	MERGED:          0	TO_CACHE:    1763523
LLC PQ	ACCESS:    1748446	FORWARD:          0	MERGED:          0	TO_CACHE:    1748443

LLC Dense regions hint to LLC: 0

RAW hits: 3229160
Loads Generated: 40217204
Loads sent to L1D: 36988045
Stores Generated: 18166268
Stores sent to L1D: 18166268
Major fault: 0 Minor fault: 6144
Allocated PAGES: 27230

CPU 2 cumulative IPC: 0.848307 instructions: 200000000 cycles: 235763653
ITLB TOTAL     ACCESS:   29421668  HIT:   26809710  MISS:    2611958  HIT %:    91.1223  MISS %:    8.87767   MPKI: 13.0598
ITLB LOAD TRANSLATION ACCESS:   29421668  HIT:   26809710  MISS:    2611958  HIT %:    91.1223  MISS %:    8.87767   MPKI: 13.0598
ITLB PREFETCH  REQUESTED:          0  ISSUED:          0  USEFUL:          0  USELESS:          0
ITLB USEFUL LOAD PREFETCHES:          0 PREFETCH ISSUED TO LOWER LEVEL:          0  ACCURACY: -nan
ITLB TIMELY PREFETCHES:          0 LATE PREFETCHES: 0 DROPPED PREFETCHES: 0
ITLB PREFETCHES SAME FILL-ORIGIN LEVEL: 0 DIFFERENT FILL-ORIGIN LEVEL: 0
ITLB AVERAGE MISS LATENCY: 30.3227 cycles
ITLB RQ	ACCESS:   39331898	FORWARD:          0	MERGED:    8056407	TO_CACHE:   31275491

DTLB TOTAL     ACCESS:   28867287  HIT:   21704785  MISS:    7162502  HIT %:    75.1882  MISS %:    24.8118   MPKI: 35.8125
DTLB LOAD TRANSLATION ACCESS:   28867287  HIT:   21704785  MISS:    7162502  HIT %:    75.1882  MISS %:    24.8118   MPKI: 35.8125
DTLB PREFETCH  REQUESTED:          0  ISSUED:          0  USEFUL:          0  USELESS:          0
DTLB USEFUL LOAD PREFETCHES:          0 PREFETCH ISSUED TO LOWER LEVEL:          0  ACCURACY: -nan
DTLB TIMELY PREFETCHES:          0 LATE PREFETCHES: 0 DROPPED PREFETCHES: 0
DTLB PREFETCHES SAME FILL-ORIGIN LEVEL: 0 DIFFERENT FILL-ORIGIN LEVEL: 0
DTLB AVERAGE MISS LATENCY: 22.8188 cycles
DTLB RQ	ACCESS:   41212989	FORWARD:          0	MERGED:   10449889	TO_CACHE:   30763100

STLB TOTAL     ACCESS:   12132713  HIT:    6312483  MISS:    5820230  HIT %:    52.0286  MISS %:    47.9714   MPKI: 29.1012
STLB LOAD TRANSLATION ACCESS:    9774460  HIT:    4115717  MISS:    5658743  HIT %:    42.1068  MISS %:    57.8932   MPKI: 28.2937
STLB TRANSLATION FROM L1D PREFETCHER ACCESS:    2358253  HIT:    2196766  MISS:     161487  HIT %:    93.1523  MISS %:    6.84774   MPKI: 0.807435
STLB PREFETCH  REQUESTED:          0  ISSUED:          0  USEFUL:      94254  USELESS:      71718
STLB USEFUL LOAD PREFETCHES:      94254 PREFETCH ISSUED TO LOWER LEVEL:          0  ACCURACY: inf
STLB TIMELY PREFETCHES:      94254 LATE PREFETCHES: 0 DROPPED PREFETCHES: 0
STLB PREFETCHES SAME FILL-ORIGIN LEVEL: 0 DIFFERENT FILL-ORIGIN LEVEL: 0
STLB AVERAGE MISS LATENCY: 26.8733 cycles
STLB RQ	ACCESS:   13736478	FORWARD:          0	MERGED:    1243812	TO_CACHE:   12492666

STLB Hit, L1D data hit: 0
STLB Hit, L2C data hit: 0
STLB Hit, LLC data hit: 0
STLB Hit, LLC data miss: 0
STLB STLB hints to L2: 0
L1D TOTAL     ACCESS:   42666051  HIT:   41539969  MISS:    1126082  HIT %:    97.3607  MISS %:    2.63929   MPKI: 5.63041
L1D LOAD      ACCESS:   21526251  HIT:   21042336  MISS:     483915  HIT %:     97.752  MISS %:    2.24802   MPKI: 2.41958
L1D RFO       ACCESS:   17686287  HIT:   17505047  MISS:     181240  HIT %:    98.9753  MISS %:    1.02475   MPKI: 0.9062
L1D PREFETCH  ACCESS:    3453513  HIT:    2992586  MISS:     460927  HIT %:    86.6534  MISS %:    13.3466   MPKI: 2.30464
L1D PREFETCH  REQUESTED:    7358753  ISSUED:    7358683  USEFUL:     263849  USELESS:     212441
L1D USEFUL LOAD PREFETCHES:     263849 PREFETCH ISSUED TO LOWER LEVEL:     546346  ACCURACY: 48.2934
L1D TIMELY PREFETCHES:     263849 LATE PREFETCHES: 69606 DROPPED PREFETCHES: 0
L1D PREFETCHES SAME FILL-ORIGIN LEVEL: 546346 DIFFERENT FILL-ORIGIN LEVEL: 0
L1D AVERAGE MISS LATENCY: 130.826 cycles
L1D RQ	ACCESS:   35159990	FORWARD:          0	MERGED:   12892764	TO_CACHE:   22142931
L1D WQ	ACCESS:   19988430	FORWARD:     129334	MERGED:     918372	TO_CACHE:   19070058
L1D PQ	ACCESS:    3681887	FORWARD:          0	MERGED:         52	TO_CACHE:    3676796

L1D UNIQUE REGIONS ACCESSED: 0
L1D REGIONS CONFLICTS: 0
L1D Cross Page Prefetch Requests: 0
L1D Same Page Prefetch Requests: 4637734
L1D ROI Sum of L1D PQ occupancy: 48389183
L1D PREFETCHES PUSHED FROM L2C: 0
L1I TOTAL     ACCESS:   37811453  HIT:   36352589  MISS:    1458864  HIT %:    96.1417  MISS %:    3.85826   MPKI: 7.29432
L1I LOAD      ACCESS:   37811453  HIT:   36352589  MISS:    1458864  HIT %:    96.1417  MISS %:    3.85826   MPKI: 7.29432
L1I PREFETCH  REQUESTED:          0  ISSUED:          0  USEFUL:          0  USELESS:          0
L1I USEFUL LOAD PREFETCHES:          0 PREFETCH ISSUED TO LOWER LEVEL:          0  ACCURACY: -nan
L1I TIMELY PREFETCHES:          0 LATE PREFETCHES: 0 DROPPED PREFETCHES: 0
L1I PREFETCHES SAME FILL-ORIGIN LEVEL: 0 DIFFERENT FILL-ORIGIN LEVEL: 0
L1I AVERAGE MISS LATENCY: 23.3694 cycles
L1I RQ	ACCESS:   63536662	FORWARD:          0	MERGED:   24204764	TO_CACHE:   39331898

BTB BRANCH_DIRECT_JUMP	ACCESS:          0  HIT:          0  MISS:          0
BTB BRANCH_INDIRECT	ACCESS:          0  HIT:          0  MISS:          0
BTB BRANCH_CONDITIONAL	ACCESS:          0  HIT:          0  MISS:          0
BTB BRANCH_DIRECT_CALL	ACCESS:          0  HIT:          0  MISS:          0
BTB BRANCH_INDIRECT_CALL	ACCESS:          0  HIT:          0  MISS:          0
BTB BRANCH_RETURN	ACCESS:          0  HIT:          0  MISS:          0
BTB BRANCH_OTHER ACCESS:          0  HIT:          0  MISS:          0

L2C TOTAL     ACCESS:    9196816  HIT:    8271093  MISS:     925723  HIT %:    89.9343  MISS %:    10.0657   MPKI: 4.62861
L2C LOAD      ACCESS:    1874263  HIT:    1474592  MISS:     399671  HIT %:    78.6758  MISS %:    21.3242   MPKI: 1.99836
L2C DATA LOAD MPKI: 1.18988
L2C INSTRUCTION LOAD MPKI: 0.80848
L2C RFO       ACCESS:     180810  HIT:      91790  MISS:      89020  HIT %:     50.766  MISS %:     49.234   MPKI: 0.4451
L2C PREFETCH  ACCESS:     529711  HIT:     166989  MISS:     362722  HIT %:    31.5245  MISS %:    68.4755   MPKI: 1.81361
L2C DATA PREFETCH MPKI: 1.81361
L2C INSTRUCTION PREFETCH MPKI: 0
L2C WRITEBACK ACCESS:     559321  HIT:     510465  MISS:      48856  HIT %:    91.2651  MISS %:    8.73488   MPKI: 0.24428
L2C LOAD TRANSLATION ACCESS:    5884273  HIT:    5858951  MISS:      25322  HIT %:    99.5697  MISS %:   0.430334   MPKI: 0.12661
L2C TRANSLATION FROM L1D PREFETCHER ACCESS:     168438  HIT:     168306  MISS:        132  HIT %:    99.9216  MISS %:  0.0783671   MPKI: 0.00066
[...]
LLC RQ	ACCESS:    2045285	FORWARD:          0	MERGED:          0	TO_CACHE:    2045272
LLC WQ	ACCESS:    1763523	FORWARD:         16	MERGED:          0	TO_CACHE:    1763523
LLC PQ	ACCESS:    1748446	FORWARD:          0	MERGED:          0	TO_CACHE:    1748443

LLC Dense regions hint to LLC: 0

RAW hits: 2961803
Loads Generated: 37250860
Loads sent to L1D: 34289053
Stores Generated: 19476012
Stores sent to L1D: 19476013
Major fault: 0 Minor fault: 7154
Allocated PAGES: 27230

CPU 3 cumulative IPC: 0.865415 instructions: 200000003 cycles: 231103088
ITLB TOTAL     ACCESS:   29813511  HIT:   27269487  MISS:    2544024  HIT %:    91.4669  MISS %:    8.53312   MPKI: 12.7201
ITLB LOAD TRANSLATION ACCESS:   29813511  HIT:   27269487  MISS:    2544024  HIT %:    91.4669  MISS %:    8.53312   MPKI: 12.7201
ITLB PREFETCH  REQUESTED:          0  ISSUED:          0  USEFUL:          0  USELESS:          0
ITLB USEFUL LOAD PREFETCHES:          0 PREFETCH ISSUED TO LOWER LEVEL:          0  ACCURACY: -nan
ITLB TIMELY PREFETCHES:          0 LATE PREFETCHES: 0 DROPPED PREFETCHES: 0
ITLB PREFETCHES SAME FILL-ORIGIN LEVEL: 0 DIFFERENT FILL-ORIGIN LEVEL: 0
ITLB AVERAGE MISS LATENCY: 30.6815 cycles
ITLB RQ	ACCESS:   40346023	FORWARD:          0	MERGED:    8117951	TO_CACHE:   32228072

DTLB TOTAL     ACCESS:   27739284  HIT:   20920242  MISS:    6819042  HIT %:    75.4174  MISS %:    24.5826   MPKI: 34.0952
DTLB LOAD TRANSLATION ACCESS:   27739284  HIT:   20920242  MISS:    6819042  HIT %:    75.4174  MISS %:    24.5826   MPKI: 34.0952
DTLB PREFETCH  REQUESTED:          0  ISSUED:          0  USEFUL:          0  USELESS:          0
DTLB USEFUL LOAD PREFETCHES:          0 PREFETCH ISSUED TO LOWER LEVEL:          0  ACCURACY: -nan
DTLB TIMELY PREFETCHES:          0 LATE PREFETCHES: 0 DROPPED PREFETCHES: 0
DTLB PREFETCHES SAME FILL-ORIGIN LEVEL: 0 DIFFERENT FILL-ORIGIN LEVEL: 0
DTLB AVERAGE MISS LATENCY: 23.5935 cycles
DTLB RQ	ACCESS:   40585719	FORWARD:          0	MERGED:   10554334	TO_CACHE:   30031385

STLB TOTAL     ACCESS:   11805498  HIT:    6134773  MISS:    5670725  HIT %:    51.9654  MISS %:    48.0346   MPKI: 28.3536
STLB LOAD TRANSLATION ACCESS:    9363067  HIT:    3797472  MISS:    5565595  HIT %:     40.558  MISS %:     59.442   MPKI: 27.828
STLB TRANSLATION FROM L1D PREFETCHER ACCESS:    2442431  HIT:    2337301  MISS:     105130  HIT %:    95.6957  MISS %:    4.30432   MPKI: 0.52565
STLB PREFETCH  REQUESTED:          0  ISSUED:          0  USEFUL:      66458  USELESS:      46231
STLB USEFUL LOAD PREFETCHES:      66458 PREFETCH ISSUED TO LOWER LEVEL:          0  ACCURACY: inf
STLB TIMELY PREFETCHES:      66458 LATE PREFETCHES: 0 DROPPED PREFETCHES: 0
STLB PREFETCHES SAME FILL-ORIGIN LEVEL: 0 DIFFERENT FILL-ORIGIN LEVEL: 0
STLB AVERAGE MISS LATENCY: 27.0835 cycles
STLB RQ	ACCESS:   13595232	FORWARD:          0	MERGED:    1240416	TO_CACHE:   12354816

STLB Hit, L1D data hit: 0
STLB Hit, L2C data hit: 0
STLB Hit, LLC data hit: 0
STLB Hit, LLC data miss: 0
STLB STLB hints to L2: 0
L1D TOTAL     ACCESS:   41551659  HIT:   40473298  MISS:    1078361  HIT %:    97.4048  MISS %:    2.59523   MPKI: 5.3918
L1D LOAD      ACCESS:   20150224  HIT:   19715759  MISS:     434465  HIT %:    97.8439  MISS %:    2.15613   MPKI: 2.17232
L1D RFO       ACCESS:   17922429  HIT:   17741540  MISS:     180889  HIT %:    98.9907  MISS %:    1.00929   MPKI: 0.904445
L1D PREFETCH  ACCESS:    3479006  HIT:    3015999  MISS:     463007  HIT %:    86.6914  MISS %:    13.3086   MPKI: 2.31503
L1D PREFETCH  REQUESTED:    7593660  ISSUED:    7593490  USEFUL:     322917  USELESS:     163126
L1D USEFUL LOAD PREFETCHES:     322917 PREFETCH ISSUED TO LOWER LEVEL:     578863  ACCURACY: 55.7847
L1D TIMELY PREFETCHES:     322917 LATE PREFETCHES: 92365 DROPPED PREFETCHES: 0
L1D PREFETCHES SAME FILL-ORIGIN LEVEL: 578863 DIFFERENT FILL-ORIGIN LEVEL: 0
L1D AVERAGE MISS LATENCY: 142.189 cycles
L1D RQ	ACCESS:   34474973	FORWARD:          0	MERGED:   13266374	TO_CACHE:   21088846
L1D WQ	ACCESS:   20500866	FORWARD:     124463	MERGED:    1003993	TO_CACHE:   19496873
L1D PQ	ACCESS:    3799144	FORWARD:          0	MERGED:         88	TO_CACHE:    3794346

L1D UNIQUE REGIONS ACCESSED: 0
L1D REGIONS CONFLICTS: 0
L1D Cross Page Prefetch Requests: 0
L1D Same Page Prefetch Requests: 4853456
L1D ROI Sum of L1D PQ occupancy: 48100801
L1D PREFETCHES PUSHED FROM L2C: 0
L1I TOTAL     ACCESS:   38324473  HIT:   37295100  MISS:    1029373  HIT %:    97.3141  MISS %:    2.68594   MPKI: 5.14686
L1I LOAD      ACCESS:   38324473  HIT:   37295100  MISS:    1029373  HIT %:    97.3141  MISS %:    2.68594   MPKI: 5.14686
L1I PREFETCH  REQUESTED:          0  ISSUED:          0  USEFUL:          0  USELESS:          0
L1I USEFUL LOAD PREFETCHES:          0 PREFETCH ISSUED TO LOWER LEVEL:          0  ACCURACY: -nan
L1I TIMELY PREFETCHES:          0 LATE PREFETCHES: 0 DROPPED PREFETCHES: 0
L1I PREFETCHES SAME FILL-ORIGIN LEVEL: 0 DIFFERENT FILL-ORIGIN LEVEL: 0
L1I AVERAGE MISS LATENCY: 25.9131 cycles
L1I RQ	ACCESS:   65012344	FORWARD:          0	MERGED:   24666321	TO_CACHE:   40346023

BTB BRANCH_DIRECT_JUMP	ACCESS:          0  HIT:          0  MISS:          0
BTB BRANCH_INDIRECT	ACCESS:          0  HIT:          0  MISS:          0
BTB BRANCH_CONDITIONAL	ACCESS:          0  HIT:          0  MISS:          0
BTB BRANCH_DIRECT_CALL	ACCESS:          0  HIT:          0  MISS:          0
BTB BRANCH_INDIRECT_CALL	ACCESS:          0  HIT:          0  MISS:          0
BTB BRANCH_RETURN	ACCESS:          0  HIT:          0  MISS:          0
BTB BRANCH_OTHER ACCESS:          0  HIT:          0  MISS:          0

L2C TOTAL     ACCESS:    8531546  HIT:    7563734  MISS:     967812  HIT %:    88.6561  MISS %:    11.3439   MPKI: 4.83906
L2C LOAD      ACCESS:    1374617  HIT:     992068  MISS:     382549  HIT %:    72.1705  MISS %:    27.8295   MPKI: 1.91274
L2C DATA LOAD MPKI: 1.17797
L2C INSTRUCTION LOAD MPKI: 0.73477
L2C RFO       ACCESS:     180361  HIT:      98909  MISS:      81452  HIT %:    54.8395  MISS %:    45.1605   MPKI: 0.40726
L2C PREFETCH  ACCESS:     552648  HIT:     128156  MISS:     424492  HIT %:    23.1894  MISS %:    76.8106   MPKI: 2.12246
L2C DATA PREFETCH MPKI: 2.12246
L2C INSTRUCTION PREFETCH MPKI: 0
L2C WRITEBACK ACCESS:     591943  HIT:     536514  MISS:      55429  HIT %:    90.6361  MISS %:    9.36391   MPKI: 0.277145
L2C LOAD TRANSLATION ACCESS:    5723861  HIT:    5700107  MISS:      23754  HIT %:     99.585  MISS %:      0.415   MPKI: 0.11877
L2C TRANSLATION FROM L1D PREFETCHER ACCESS:     108116  HIT:     107980  MISS:        136  HIT %:    99.8742  MISS %:   0.125791   MPKI: 0.00068
L2C PREFETCH  REQUESTED:          0  ISSUED:          0  USEFUL:      37382  USELESS:     408605
L2C USEFUL LOAD PREFETCHES:      37382 PREFETCH ISSUED TO LOWER LEVEL:     444788  ACCURACY: 8.40445
L2C TIMELY PREFETCHES:      37382 LATE PREFETCHES: 0 DROPPED PREFETCHES: 0
L2C PREFETCHES SAME FILL-ORIGIN LEVEL: 0 DIFFERENT FILL-ORIGIN LEVEL: 0
L2C AVERAGE MISS LATENCY: 183.191 cycles
L2C RQ	ACCESS:    7788354	FORWARD:          0	MERGED:          0	TO_CACHE:    7788314
L2C WQ	ACCESS:     617518	FORWARD:        101	MERGED:          0	TO_CACHE:     617518
L2C PQ	ACCESS:     578863	FORWARD:          0	MERGED:          0	TO_CACHE:     578802

L2C Instructions Evicting Data 118761
L2C Translations Evicting Data 20144
L2C Data Evicting Data 651520
L2C Instructions Evicting Instructions 35797
L2C Translations Evicting Instructions 5037
L2C Data Evicting Instructions 108506
L2C Instructions Evicting Translations 4962
L2C Translations Evicting Translations 672
L2C Data Evicting Translations 18701
L2C Dense regions hint from L2: 0
PSCL5 TOTAL     ACCESS:    5670724  HIT:    5670724  MISS:          0  HIT %:        100  MISS %:          0   MPKI: 0
PSCL5 LOAD TRANSLATION ACCESS:    5565594  HIT:    5565594  MISS:          0  HIT %:        100  MISS %:          0   MPKI: 0
PSCL5 TRANSLATION FROM L1D PREFETCHER ACCESS:     105130  HIT:     105130  MISS:          0  HIT %:        100  MISS %:          0   MPKI: 0
PSCL5 PREFETCH  REQUESTED:          0  ISSUED:          0  USEFUL:          0  USELESS:          0
PSCL5 USEFUL LOAD PREFETCHES:          0 PREFETCH ISSUED TO LOWER LEVEL:          0  ACCURACY: -nan
PSCL5 TIMELY PREFETCHES:          0 LATE PREFETCHES: 0 DROPPED PREFETCHES: 0
PSCL5 PREFETCHES SAME FILL-ORIGIN LEVEL: 0 DIFFERENT FILL-ORIGIN LEVEL: 0

PSCL4 TOTAL     ACCESS:    5659700  HIT:    5659420  MISS:        280  HIT %:    99.9951  MISS %: 0.00494726   MPKI: 0.0014
PSCL4 LOAD TRANSLATION ACCESS:    5555875  HIT:    5555595  MISS:        280  HIT %:     99.995  MISS %: 0.00503971   MPKI: 0.0014
PSCL4 TRANSLATION FROM L1D PREFETCHER ACCESS:     103825  HIT:     103825  MISS:          0  HIT %:        100  MISS %:          0   MPKI: 0
PSCL4 PREFETCH  REQUESTED:          0  ISSUED:          0  USEFUL:          0  USELESS:          0
PSCL4 USEFUL LOAD PREFETCHES:          0 PREFETCH ISSUED TO LOWER LEVEL:          0  ACCURACY: -nan
PSCL4 TIMELY PREFETCHES:          0 LATE PREFETCHES: 0 DROPPED PREFETCHES: 0
PSCL4 PREFETCHES SAME FILL-ORIGIN LEVEL: 0 DIFFERENT FILL-ORIGIN LEVEL: 0

PSCL3 TOTAL     ACCESS:    5644992  HIT:    5639144  MISS:       5848  HIT %:    99.8964  MISS %:   0.103596   MPKI: 0.02924
PSCL3 LOAD TRANSLATION ACCESS:    5542027  HIT:    5536179  MISS:       5848  HIT %:    99.8945  MISS %:   0.105521   MPKI: 0.02924
PSCL3 TRANSLATION FROM L1D PREFETCHER ACCESS:     102965  HIT:     102965  MISS:          0  HIT %:        100  MISS %:          0   MPKI: 0
PSCL3 PREFETCH  REQUESTED:          0  ISSUED:          0  USEFUL:          0  USELESS:          0
PSCL3 USEFUL LOAD PREFETCHES:          0 PREFETCH ISSUED TO LOWER LEVEL:          0  ACCURACY: -nan
PSCL3 TIMELY PREFETCHES:          0 LATE PREFETCHES: 0 DROPPED PREFETCHES: 0
PSCL3 PREFETCHES SAME FILL-ORIGIN LEVEL: 0 DIFFERENT FILL-ORIGIN LEVEL: 0

PSCL2 TOTAL     ACCESS:    5670724  HIT:    5515555  MISS:     155169  HIT %:    97.2637  MISS %:    2.73632   MPKI: 0.775845
PSCL2 LOAD TRANSLATION ACCESS:    5568180  HIT:    5413011  MISS:     155169  HIT %:    97.2133  MISS %:    2.78671   MPKI: 0.775845
PSCL2 TRANSLATION FROM L1D PREFETCHER ACCESS:     102544  HIT:     102544  MISS:          0  HIT %:        100  MISS %:          0   MPKI: 0
PSCL2 PREFETCH  REQUESTED:          0  ISSUED:          0  USEFUL:          0  USELESS:          0
PSCL2 USEFUL LOAD PREFETCHES:          0 PREFETCH ISSUED TO LOWER LEVEL:          0  ACCURACY: -nan
PSCL2 TIMELY PREFETCHES:          0 LATE PREFETCHES: 0 DROPPED PREFETCHES: 0
PSCL2 PREFETCHES SAME FILL-ORIGIN LEVEL: 0 DIFFERENT FILL-ORIGIN LEVEL: 0

LLC TOTAL     ACCESS:    1385712  HIT:     744952  MISS:     640760  HIT %:    53.7595  MISS %:    46.2405   MPKI: 3.2038
LLC LOAD      ACCESS:     382549  HIT:     180597  MISS:     201952  HIT %:    47.2089  MISS %:    52.7911   MPKI: 1.00976
LLC RFO       ACCESS:      81444  HIT:      16552  MISS:      64892  HIT %:    20.3232  MISS %:    79.6768   MPKI: 0.32446
LLC PREFETCH  ACCESS:     424492  HIT:      84955  MISS:     339537  HIT %:    20.0133  MISS %:    79.9867   MPKI: 1.69768
LLC WRITEBACK ACCESS:     473337  HIT:     445601  MISS:      27736  HIT %:    94.1403  MISS %:    5.85967   MPKI: 0.13868
LLC LOAD TRANSLATION ACCESS:      23754  HIT:      17158  MISS:       6596  HIT %:     72.232  MISS %:     27.768   MPKI: 0.03298
LLC TRANSLATION FROM L1D PREFETCHER ACCESS:        136  HIT:         89  MISS:         47  HIT %:    65.4412  MISS %:    34.5588   MPKI: 0.000235
LLC PREFETCH  REQUESTED:          0  ISSUED:          0  USEFUL:      66004  USELESS:    1269155
LLC USEFUL LOAD PREFETCHES:      66004 PREFETCH ISSUED TO LOWER LEVEL:    1321616  ACCURACY: 4.99419
LLC TIMELY PREFETCHES:      66004 LATE PREFETCHES: 0 DROPPED PREFETCHES: 0
LLC PREFETCHES SAME FILL-ORIGIN LEVEL: 0 DIFFERENT FILL-ORIGIN LEVEL: 0
LLC AVERAGE MISS LATENCY: 872.931 cycles
LLC RQ	ACCESS:    2045285	FORWARD:          0	MERGED:          0	TO_CACHE:    2045272
LLC WQ	ACCESS:    1763523	FORWARD:         16	MERGED:          0	TO_CACHE:    1763523
LLC PQ	ACCESS:    1748446	FORWARD:          0	MERGED:          0	TO_CACHE:    1748443

LLC Dense regions hint to LLC: 0

RAW hits: 2927634
Loads Generated: 35995115
Loads sent to L1D: 33067475
Stores Generated: 19668388
Stores sent to L1D: 19668383
Major fault: 0 Minor fault: 7065
Allocated PAGES: 27230

stream: 
stream:times selected: 6253286
stream:pref_filled: 347170
stream:pref_useful: 133412
stream:pref_late: 16365
stream:misses: 34928
stream:misses_by_poll: 0

CS: 
CS:times selected: 1401011
CS:pref_filled: 153752
CS:pref_useful: 142283
CS:pref_late: 39055
CS:misses: 81570
CS:misses_by_poll: 398

CPLX: 
CPLX:times selected: 4833026
CPLX:pref_filled: 562060
CPLX:pref_useful: 289976
CPLX:pref_late: 6747
CPLX:misses: 150441
CPLX:misses_by_poll: 2292

NL_L1: 
NL:times selected: 22261
NL:pref_filled: 2026
NL:pref_useful: 966
NL:pref_late: 84
NL:misses: 1118
NL:misses_by_poll: 0

total selections: 12509584
total_filled: 828432
total_useful: 429796
total_late: 63418
total_polluted: 2690
total_misses_after_warmup: 432449
conflicts: 9564663
Degree Incremented Times: 435048
Degree Decremented Times: 364202

L1 IP Table Write Accesses: 73536640
L1 IP Table Read Accesses: 63971977
L1 RST Write Accesses: 19038820
L1 RST Read Accesses: 38077640
L1 CSPT Write Accesses: 19038820
L1 CSPT Read Accesses: 40039300
L1 RR Filter Tag Write Accesses: 16934561
L1 RR Filter Tag Read Accesses: 1028309021
L1 IP Table Tag Write Accesses: 89477556
L1 IP Table Tag Read Accesses: 89477556
L1 RST Tag Write Accesses: 0
L1 RST Tag Read Accesses: 174186335
L1 RR Filter Write Accesses: 0
L1 RR Filter Read Accesses: 39338360
test: 7067846

stream: 
stream:times selected: 5967229
stream:pref_filled: 257098
stream:pref_useful: 88422
stream:pref_late: 15245
stream:misses: 37450
stream:misses_by_poll: 0

CS: 
CS:times selected: 797630
CS:pref_filled: 153633
CS:pref_useful: 134738
CS:pref_late: 23930
CS:misses: 56283
CS:misses_by_poll: 217

CPLX: 
CPLX:times selected: 5106683
CPLX:pref_filled: 226373
CPLX:pref_useful: 61720
CPLX:pref_late: 1674
CPLX:misses: 156870
CPLX:misses_by_poll: 374

NL_L1: 
NL:times selected: 28682
NL:pref_filled: 2665
NL:pref_useful: 1285
NL:pref_late: 88
NL:misses: 1376
NL:misses_by_poll: 0

total selections: 11900224
total_filled: 493938
total_useful: 199591
total_late: 41960
total_polluted: 591
total_misses_after_warmup: 619594
conflicts: 9564663
Degree Incremented Times: 435048
Degree Decremented Times: 364202

L1 IP Table Write Accesses: 73536640
L1 IP Table Read Accesses: 63971977
L1 RST Write Accesses: 19038820
L1 RST Read Accesses: 38077640
L1 CSPT Write Accesses: 19038820
L1 CSPT Read Accesses: 40039300
L1 RR Filter Tag Write Accesses: 16934561
L1 RR Filter Tag Read Accesses: 1028309021
L1 IP Table Tag Write Accesses: 89477556
L1 IP Table Tag Read Accesses: 89477556
L1 RST Tag Write Accesses: 0
L1 RST Tag Read Accesses: 174186335
L1 RR Filter Write Accesses: 0
L1 RR Filter Read Accesses: 39338360
test: 7067846

stream: 
stream:times selected: 5935396
stream:pref_filled: 240323
stream:pref_useful: 95662
stream:pref_late: 22523
stream:misses: 40907
stream:misses_by_poll: 0

CS: 
CS:times selected: 1174483
CS:pref_filled: 169403
CS:pref_useful: 151663
CS:pref_late: 44820
CS:misses: 84028
CS:misses_by_poll: 192

CPLX: 
CPLX:times selected: 4731604
CPLX:pref_filled: 201065
CPLX:pref_useful: 82324
CPLX:pref_late: 2092
CPLX:misses: 173768
CPLX:misses_by_poll: 285

NL_L1: 
NL:times selected: 29188
NL:pref_filled: 2425
NL:pref_useful: 1424
NL:pref_late: 109
NL:misses: 1527
NL:misses_by_poll: 0

total selections: 11870671
total_filled: 476366
total_useful: 263849
total_late: 70813
total_polluted: 477
total_misses_after_warmup: 549009
conflicts: 9564663
Degree Incremented Times: 435048
Degree Decremented Times: 364202

L1 IP Table Write Accesses: 73536640
L1 IP Table Read Accesses: 63971977
L1 RST Write Accesses: 19038820
L1 RST Read Accesses: 38077640
L1 CSPT Write Accesses: 19038820
L1 CSPT Read Accesses: 40039300
L1 RR Filter Tag Write Accesses: 16934561
L1 RR Filter Tag Read Accesses: 1028309021
L1 IP Table Tag Write Accesses: 89477556
L1 IP Table Tag Read Accesses: 89477556
L1 RST Tag Write Accesses: 0
L1 RST Tag Read Accesses: 174186335
L1 RR Filter Write Accesses: 0
L1 RR Filter Read Accesses: 39338360
test: 7067846

stream: 
stream:times selected: 6352833
stream:pref_filled: 218323
stream:pref_useful: 101606
stream:pref_late: 25162
stream:misses: 38928
stream:misses_by_poll: 0

CS: 
CS:times selected: 1658622
CS:pref_filled: 241211
CS:pref_useful: 226303
CS:pref_late: 65142
CS:misses: 132643
CS:misses_by_poll: 542

CPLX: 
CPLX:times selected: 4673933
CPLX:pref_filled: 166957
CPLX:pref_useful: 95185
CPLX:pref_late: 1972
CPLX:misses: 173505
CPLX:misses_by_poll: 329

NL_L1: 
NL:times selected: 27083
NL:pref_filled: 1822
NL:pref_useful: 1345
NL:pref_late: 107
NL:misses: 1345
NL:misses_by_poll: 0

total selections: 12712471
total_filled: 485976
total_useful: 322917
total_late: 93988
total_polluted: 871
total_misses_after_warmup: 523070
conflicts: 9564663
Degree Incremented Times: 435048
Degree Decremented Times: 364202

L1 IP Table Write Accesses: 73536640
L1 IP Table Read Accesses: 63971977
L1 RST Write Accesses: 19038820
L1 RST Read Accesses: 38077640
L1 CSPT Write Accesses: 19038820
L1 CSPT Read Accesses: 40039300
L1 RR Filter Tag Write Accesses: 16934561
L1 RR Filter Tag Read Accesses: 1028309021
L1 IP Table Tag Write Accesses: 89477556
L1 IP Table Tag Read Accesses: 89477556
L1 RST Tag Write Accesses: 0
L1 RST Tag Read Accesses: 174186335
L1 RR Filter Write Accesses: 0
L1 RR Filter Read Accesses: 39338360
test: 7067846

DRAM Statistics
 CHANNEL 0
 RQ ROW_BUFFER_HIT:     419343  ROW_BUFFER_MISS:    1974814
 DBUS_CONGESTED:       1617
 WQ ROW_BUFFER_HIT:     366404  ROW_BUFFER_MISS:    1311303  FULL:          0

 AVG_CONGESTED_CYCLE: 5
 All warmup complete: 5
Channel 0 Bank busy for read cycles: 0
Channel 0 Bank busy for write cycles: 0
Channel 0
Rank 0
0banks busy for read cycles: 28289930
0banks busy for write cycles: 95592
1banks busy for read cycles: 59653802
1banks busy for write cycles: 11809805
2banks busy for read cycles: 37213460
2banks busy for write cycles: 8364915
3banks busy for read cycles: 20457921
3banks busy for write cycles: 6456601
4banks busy for read cycles: 10342057
4banks busy for write cycles: 5339239
5banks busy for read cycles: 5252835
5banks busy for write cycles: 4753459
6banks busy for read cycles: 3112757
6banks busy for write cycles: 4823066
7banks busy for read cycles: 2216047
7banks busy for write cycles: 7288446
8banks busy for read cycles: 3420348
8banks busy for write cycles: 23815925

CPU 0 Branch Prediction Accuracy: 98.5119% MPKI: 2.47371 Average ROB Occupancy at Mispredict: 56.1071
Branch types
NOT_BRANCH: 0 0%
BRANCH_DIRECT_JUMP: 0 0%
BRANCH_INDIRECT: 0 0%
BRANCH_CONDITIONAL: 0 0%
BRANCH_DIRECT_CALL: 0 0%
BRANCH_INDIRECT_CALL: 0 0%
BRANCH_RETURN: 0 0%
BRANCH_OTHER: 0 0%


CPU 1 Branch Prediction Accuracy: 97.7513% MPKI: 3.85495 Average ROB Occupancy at Mispredict: 57.2347
Branch types
NOT_BRANCH: 0 0%
BRANCH_DIRECT_JUMP: 0 0%
BRANCH_INDIRECT: 0 0%
BRANCH_CONDITIONAL: 0 0%
BRANCH_DIRECT_CALL: 0 0%
BRANCH_INDIRECT_CALL: 0 0%
BRANCH_RETURN: 0 0%
BRANCH_OTHER: 0 0%


CPU 2 Branch Prediction Accuracy: 98.2657% MPKI: 2.92614 Average ROB Occupancy at Mispredict: 59.0321
Branch types
NOT_BRANCH: 0 0%
BRANCH_DIRECT_JUMP: 0 0%
BRANCH_INDIRECT: 0 0%
BRANCH_CONDITIONAL: 0 0%
BRANCH_DIRECT_CALL: 0 0%
BRANCH_INDIRECT_CALL: 0 0%
BRANCH_RETURN: 0 0%
BRANCH_OTHER: 0 0%


CPU 3 Branch Prediction Accuracy: 98.2824% MPKI: 2.84805 Average ROB Occupancy at Mispredict: 57.0614
Branch types
NOT_BRANCH: 0 0%
BRANCH_DIRECT_JUMP: 0 0%
BRANCH_INDIRECT: 0 0%
BRANCH_CONDITIONAL: 0 0%
BRANCH_DIRECT_CALL: 0 0%
BRANCH_INDIRECT_CALL: 0 0%
BRANCH_RETURN: 0 0%
BRANCH_OTHER: 0 0%

DRAM PAGES: 1048576
Allocated PAGES: 27230
