
*** ChampSim Multicore Out-of-Order Simulator ***

Warmup Instructions: 50000000
Simulation Instructions: 200000000
Number of CPUs: 4
LLC sets: 8192
LLC ways: 16
Off-chip DRAM Size: 4096 MB Channels: 1 Width: 64-bit Data Rate: 6400 MT/s
CPU 0 runs ./traces/spec/459.GemsFDTD-1491B.champsimtrace.xz
.xz
CPU 1 runs ./traces/spec/459.GemsFDTD-1491B.champsimtrace.xz
.xz
CPU 2 runs ./traces/spec/459.GemsFDTD-1491B.champsimtrace.xz
.xz
CPU 3 runs ./traces/spec/459.GemsFDTD-1491B.champsimtrace.xz
.xz
BTB has LRU replacement policy
ITLB has LRU replacement policy
DTLB has LRU replacement policy
STLB has LRU replacement policy
L1I has LRU replacement policy
IP Table Entries: 1024
CSPT Entries: 128
RR_ENTRIES: 32
RST_ENTRIES: 8
L1D has LRU replacement policy
Initialize SRRIP state for L2C
Initialize DRRIP state for LLC
BTB has LRU replacement policy
ITLB has LRU replacement policy
DTLB has LRU replacement policy
STLB has LRU replacement policy
L1I has LRU replacement policy
IP Table Entries: 1024
CSPT Entries: 128
RR_ENTRIES: 32
RST_ENTRIES: 8
L1D has LRU replacement policy
Initialize SRRIP state for L2C
Initialize DRRIP state for LLC
BTB has LRU replacement policy
ITLB has LRU replacement policy
DTLB has LRU replacement policy
STLB has LRU replacement policy
L1I has LRU replacement policy
IP Table Entries: 1024
CSPT Entries: 128
RR_ENTRIES: 32
RST_ENTRIES: 8
L1D has LRU replacement policy
Initialize SRRIP state for L2C
Initialize DRRIP state for LLC
BTB has LRU replacement policy
ITLB has LRU replacement policy
DTLB has LRU replacement policy
STLB has LRU replacement policy
L1I has LRU replacement policy
IP Table Entries: 1024
CSPT Entries: 128
RR_ENTRIES: 32
RST_ENTRIES: 8
L1D has LRU replacement policy
Initialize SRRIP state for L2C
Initialize DRRIP state for LLC
Heartbeat CPU 1 instructions: 10000001 cycles: 3010859 heartbeat IPC: 3.32131 cumulative IPC: 3.32131 (Simulation time: 0 hr 4 min 35 sec) 
Heartbeat CPU 0 instructions: 10000001 cycles: 3011224 heartbeat IPC: 3.32091 cumulative IPC: 3.32091 (Simulation time: 0 hr 4 min 35 sec) 
Heartbeat CPU 2 instructions: 10000001 cycles: 3011268 heartbeat IPC: 3.32086 cumulative IPC: 3.32086 (Simulation time: 0 hr 4 min 35 sec) 
Heartbeat CPU 3 instructions: 10000001 cycles: 3011651 heartbeat IPC: 3.32044 cumulative IPC: 3.32044 (Simulation time: 0 hr 4 min 35 sec) 
Heartbeat CPU 1 instructions: 20000001 cycles: 6021290 heartbeat IPC: 3.32178 cumulative IPC: 3.32155 (Simulation time: 0 hr 8 min 46 sec) 
Heartbeat CPU 0 instructions: 20000001 cycles: 6021730 heartbeat IPC: 3.3217 cumulative IPC: 3.3213 (Simulation time: 0 hr 8 min 46 sec) 
Heartbeat CPU 2 instructions: 20000001 cycles: 6021887 heartbeat IPC: 3.32158 cumulative IPC: 3.32122 (Simulation time: 0 hr 8 min 46 sec) 
Heartbeat CPU 3 instructions: 20000001 cycles: 6022260 heartbeat IPC: 3.32159 cumulative IPC: 3.32101 (Simulation time: 0 hr 8 min 46 sec) 
Heartbeat CPU 1 instructions: 30000002 cycles: 9032219 heartbeat IPC: 3.32123 cumulative IPC: 3.32144 (Simulation time: 0 hr 12 min 53 sec) 
Heartbeat CPU 0 instructions: 30000002 cycles: 9032923 heartbeat IPC: 3.32094 cumulative IPC: 3.32118 (Simulation time: 0 hr 12 min 53 sec) 
Heartbeat CPU 2 instructions: 30000002 cycles: 9033058 heartbeat IPC: 3.32097 cumulative IPC: 3.32113 (Simulation time: 0 hr 12 min 53 sec) 
Heartbeat CPU 3 instructions: 30000002 cycles: 9033471 heartbeat IPC: 3.32092 cumulative IPC: 3.32098 (Simulation time: 0 hr 12 min 53 sec) 
Heartbeat CPU 1 instructions: 40000003 cycles: 12042813 heartbeat IPC: 3.3216 cumulative IPC: 3.32148 (Simulation time: 0 hr 17 min 9 sec) 
Heartbeat CPU 0 instructions: 40000003 cycles: 12043411 heartbeat IPC: 3.32172 cumulative IPC: 3.32132 (Simulation time: 0 hr 17 min 9 sec) 
Heartbeat CPU 2 instructions: 40000003 cycles: 12043580 heartbeat IPC: 3.32168 cumulative IPC: 3.32127 (Simulation time: 0 hr 17 min 9 sec) 
Heartbeat CPU 3 instructions: 40000003 cycles: 12044097 heartbeat IPC: 3.32157 cumulative IPC: 3.32113 (Simulation time: 0 hr 17 min 9 sec) 
Heartbeat CPU 1 instructions: 50000003 cycles: 15053705 heartbeat IPC: 3.32127 cumulative IPC: 3.32144 (Simulation time: 0 hr 21 min 10 sec) 
Heartbeat CPU 0 instructions: 50000003 cycles: 15054333 heartbeat IPC: 3.32124 cumulative IPC: 3.3213 (Simulation time: 0 hr 21 min 10 sec) 
Heartbeat CPU 2 instructions: 50000003 cycles: 15054523 heartbeat IPC: 3.32122 cumulative IPC: 3.32126 (Simulation time: 0 hr 21 min 10 sec) 
Heartbeat CPU 3 instructions: 50000003 cycles: 15055070 heartbeat IPC: 3.32119 cumulative IPC: 3.32114 (Simulation time: 0 hr 21 min 10 sec) 

Warmup complete CPU 0 instructions: 50002431 cycles: 15055070 (Simulation time: 0 hr 21 min 10 sec) 
Warmup complete CPU 1 instructions: 50004493 cycles: 15055070 (Simulation time: 0 hr 21 min 10 sec) 
Warmup complete CPU 2 instructions: 50001827 cycles: 15055070 (Simulation time: 0 hr 21 min 10 sec) 
Warmup complete CPU 3 instructions: 50000003 cycles: 15055070 (Simulation time: 0 hr 21 min 10 sec) 

Heartbeat CPU 2 instructions: 60000002 cycles: 38615927 heartbeat IPC: 0.424423 cumulative IPC: 0.424355 (Simulation time: 0 hr 26 min 9 sec) 
Heartbeat CPU 3 instructions: 60000001 cycles: 38775329 heartbeat IPC: 0.42158 cumulative IPC: 0.42158 (Simulation time: 0 hr 26 min 11 sec) 
Heartbeat CPU 0 instructions: 60000001 cycles: 38777216 heartbeat IPC: 0.421534 cumulative IPC: 0.421445 (Simulation time: 0 hr 26 min 11 sec) 
Heartbeat CPU 1 instructions: 60000002 cycles: 39007104 heartbeat IPC: 0.417477 cumulative IPC: 0.417314 (Simulation time: 0 hr 26 min 13 sec) 
Heartbeat CPU 2 instructions: 70000003 cycles: 62413362 heartbeat IPC: 0.420213 cumulative IPC: 0.422274 (Simulation time: 0 hr 31 min 2 sec) 
Heartbeat CPU 0 instructions: 70000003 cycles: 62706314 heartbeat IPC: 0.417901 cumulative IPC: 0.419665 (Simulation time: 0 hr 31 min 6 sec) 
Heartbeat CPU 3 instructions: 70000000 cycles: 62766418 heartbeat IPC: 0.416821 cumulative IPC: 0.419187 (Simulation time: 0 hr 31 min 7 sec) 
Heartbeat CPU 1 instructions: 70000003 cycles: 62776605 heartbeat IPC: 0.420707 cumulative IPC: 0.419004 (Simulation time: 0 hr 31 min 7 sec) 
Heartbeat CPU 2 instructions: 80000003 cycles: 86209638 heartbeat IPC: 0.420234 cumulative IPC: 0.421592 (Simulation time: 0 hr 36 min 13 sec) 
Heartbeat CPU 0 instructions: 80000001 cycles: 86518743 heartbeat IPC: 0.419949 cumulative IPC: 0.41976 (Simulation time: 0 hr 36 min 17 sec) 
Heartbeat CPU 3 instructions: 80000003 cycles: 86556681 heartbeat IPC: 0.42034 cumulative IPC: 0.419571 (Simulation time: 0 hr 36 min 18 sec) 
Heartbeat CPU 1 instructions: 80000003 cycles: 87079014 heartbeat IPC: 0.411482 cumulative IPC: 0.416466 (Simulation time: 0 hr 36 min 26 sec) 
Heartbeat CPU 2 instructions: 90000003 cycles: 110086244 heartbeat IPC: 0.41882 cumulative IPC: 0.420895 (Simulation time: 0 hr 41 min 14 sec) 
Heartbeat CPU 3 instructions: 90000000 cycles: 110489537 heartbeat IPC: 0.417836 cumulative IPC: 0.419136 (Simulation time: 0 hr 41 min 19 sec) 
Heartbeat CPU 0 instructions: 90000000 cycles: 110599635 heartbeat IPC: 0.415267 cumulative IPC: 0.418627 (Simulation time: 0 hr 41 min 20 sec) 
Heartbeat CPU 1 instructions: 90000000 cycles: 110915199 heartbeat IPC: 0.41953 cumulative IPC: 0.417228 (Simulation time: 0 hr 41 min 24 sec) 
Heartbeat CPU 2 instructions: 100000003 cycles: 133989690 heartbeat IPC: 0.41835 cumulative IPC: 0.420384 (Simulation time: 0 hr 46 min 28 sec) 
Heartbeat CPU 3 instructions: 100000003 cycles: 134550007 heartbeat IPC: 0.41562 cumulative IPC: 0.418428 (Simulation time: 0 hr 46 min 35 sec) 
Heartbeat CPU 0 instructions: 100000003 cycles: 134663663 heartbeat IPC: 0.415558 cumulative IPC: 0.41801 (Simulation time: 0 hr 46 min 36 sec) 
Heartbeat CPU 1 instructions: 100000003 cycles: 134895995 heartbeat IPC: 0.417 cumulative IPC: 0.417182 (Simulation time: 0 hr 46 min 39 sec) 
Heartbeat CPU 2 instructions: 110000000 cycles: 157769664 heartbeat IPC: 0.420522 cumulative IPC: 0.420407 (Simulation time: 0 hr 51 min 36 sec) 
Heartbeat CPU 0 instructions: 110000000 cycles: 158514019 heartbeat IPC: 0.419281 cumulative IPC: 0.418221 (Simulation time: 0 hr 51 min 45 sec) 
Heartbeat CPU 3 instructions: 110000000 cycles: 158527597 heartbeat IPC: 0.417056 cumulative IPC: 0.418198 (Simulation time: 0 hr 51 min 45 sec) 
Heartbeat CPU 1 instructions: 110000000 cycles: 158710252 heartbeat IPC: 0.419916 cumulative IPC: 0.417636 (Simulation time: 0 hr 51 min 47 sec) 
Heartbeat CPU 2 instructions: 120000003 cycles: 181698319 heartbeat IPC: 0.417909 cumulative IPC: 0.420048 (Simulation time: 0 hr 56 min 43 sec) 
Heartbeat CPU 3 instructions: 120000003 cycles: 182363637 heartbeat IPC: 0.419533 cumulative IPC: 0.418389 (Simulation time: 0 hr 56 min 52 sec) 
Heartbeat CPU 1 instructions: 120000003 cycles: 182489273 heartbeat IPC: 0.420539 cumulative IPC: 0.418048 (Simulation time: 0 hr 56 min 54 sec) 
Heartbeat CPU 0 instructions: 120000003 cycles: 182507640 heartbeat IPC: 0.416778 cumulative IPC: 0.418014 (Simulation time: 0 hr 56 min 55 sec) 
Heartbeat CPU 2 instructions: 130000002 cycles: 205704059 heartbeat IPC: 0.416567 cumulative IPC: 0.41961 (Simulation time: 1 hr 2 min 13 sec) 
Heartbeat CPU 3 instructions: 130000003 cycles: 206127963 heartbeat IPC: 0.420799 cumulative IPC: 0.418688 (Simulation time: 1 hr 2 min 18 sec) 
Heartbeat CPU 1 instructions: 130000003 cycles: 206292938 heartbeat IPC: 0.420103 cumulative IPC: 0.418304 (Simulation time: 1 hr 2 min 19 sec) 
Heartbeat CPU 0 instructions: 130000003 cycles: 206405959 heartbeat IPC: 0.418439 cumulative IPC: 0.418067 (Simulation time: 1 hr 2 min 21 sec) 
Heartbeat CPU 2 instructions: 140000000 cycles: 229500856 heartbeat IPC: 0.420225 cumulative IPC: 0.419678 (Simulation time: 1 hr 7 min 28 sec) 
Heartbeat CPU 1 instructions: 140000000 cycles: 230035535 heartbeat IPC: 0.421184 cumulative IPC: 0.418622 (Simulation time: 1 hr 7 min 36 sec) 
Heartbeat CPU 3 instructions: 140000000 cycles: 230161685 heartbeat IPC: 0.416082 cumulative IPC: 0.418397 (Simulation time: 1 hr 7 min 37 sec) 
Heartbeat CPU 0 instructions: 140000000 cycles: 230208558 heartbeat IPC: 0.420122 cumulative IPC: 0.418295 (Simulation time: 1 hr 7 min 38 sec) 
Heartbeat CPU 2 instructions: 150000002 cycles: 253163457 heartbeat IPC: 0.422608 cumulative IPC: 0.419969 (Simulation time: 1 hr 12 min 55 sec) 
Heartbeat CPU 3 instructions: 150000001 cycles: 253908580 heartbeat IPC: 0.421108 cumulative IPC: 0.418667 (Simulation time: 1 hr 13 min 6 sec) 
Heartbeat CPU 1 instructions: 150000002 cycles: 253928363 heartbeat IPC: 0.418536 cumulative IPC: 0.418613 (Simulation time: 1 hr 13 min 6 sec) 
Heartbeat CPU 0 instructions: 150000002 cycles: 254049044 heartbeat IPC: 0.419455 cumulative IPC: 0.41841 (Simulation time: 1 hr 13 min 8 sec) 
Heartbeat CPU 2 instructions: 160000003 cycles: 276919864 heartbeat IPC: 0.420939 cumulative IPC: 0.420057 (Simulation time: 1 hr 18 min 13 sec) 
Heartbeat CPU 1 instructions: 160000001 cycles: 277736767 heartbeat IPC: 0.42002 cumulative IPC: 0.418741 (Simulation time: 1 hr 18 min 25 sec) 
Heartbeat CPU 0 instructions: 160000001 cycles: 277945162 heartbeat IPC: 0.418478 cumulative IPC: 0.418417 (Simulation time: 1 hr 18 min 28 sec) 
Heartbeat CPU 3 instructions: 160000001 cycles: 278013565 heartbeat IPC: 0.414852 cumulative IPC: 0.418317 (Simulation time: 1 hr 18 min 29 sec) 
Heartbeat CPU 2 instructions: 170000001 cycles: 300826698 heartbeat IPC: 0.41829 cumulative IPC: 0.419909 (Simulation time: 1 hr 23 min 38 sec) 
Heartbeat CPU 1 instructions: 170000000 cycles: 301677399 heartbeat IPC: 0.4177 cumulative IPC: 0.418654 (Simulation time: 1 hr 23 min 48 sec) 
Heartbeat CPU 3 instructions: 170000000 cycles: 301898913 heartbeat IPC: 0.418667 cumulative IPC: 0.418346 (Simulation time: 1 hr 23 min 51 sec) 
Heartbeat CPU 0 instructions: 170000000 cycles: 301964320 heartbeat IPC: 0.416334 cumulative IPC: 0.418242 (Simulation time: 1 hr 23 min 51 sec) 
Heartbeat CPU 2 instructions: 180000000 cycles: 324785091 heartbeat IPC: 0.41739 cumulative IPC: 0.419714 (Simulation time: 1 hr 28 min 44 sec) 
Heartbeat CPU 1 instructions: 180000000 cycles: 325436047 heartbeat IPC: 0.420899 cumulative IPC: 0.418826 (Simulation time: 1 hr 28 min 54 sec) 
Heartbeat CPU 3 instructions: 180000000 cycles: 325797688 heartbeat IPC: 0.418431 cumulative IPC: 0.418353 (Simulation time: 1 hr 28 min 59 sec) 
Heartbeat CPU 0 instructions: 180000001 cycles: 325988726 heartbeat IPC: 0.416243 cumulative IPC: 0.418088 (Simulation time: 1 hr 29 min 2 sec) 
Heartbeat CPU 2 instructions: 190000001 cycles: 348537967 heartbeat IPC: 0.421002 cumulative IPC: 0.419806 (Simulation time: 1 hr 33 min 41 sec) 
Heartbeat CPU 1 instructions: 190000000 cycles: 349263689 heartbeat IPC: 0.419681 cumulative IPC: 0.418887 (Simulation time: 1 hr 33 min 49 sec) 
Heartbeat CPU 3 instructions: 190000002 cycles: 349682470 heartbeat IPC: 0.418677 cumulative IPC: 0.418376 (Simulation time: 1 hr 33 min 54 sec) 
Heartbeat CPU 0 instructions: 190000000 cycles: 349788267 heartbeat IPC: 0.420176 cumulative IPC: 0.418236 (Simulation time: 1 hr 33 min 55 sec) 
Heartbeat CPU 2 instructions: 200000003 cycles: 372379126 heartbeat IPC: 0.419443 cumulative IPC: 0.419782 (Simulation time: 1 hr 38 min 44 sec) 
Heartbeat CPU 1 instructions: 200000001 cycles: 373176983 heartbeat IPC: 0.418177 cumulative IPC: 0.418839 (Simulation time: 1 hr 38 min 54 sec) 
Heartbeat CPU 0 instructions: 200000000 cycles: 373688314 heartbeat IPC: 0.418409 cumulative IPC: 0.418248 (Simulation time: 1 hr 39 min 0 sec) 
Heartbeat CPU 3 instructions: 200000000 cycles: 373748225 heartbeat IPC: 0.415528 cumulative IPC: 0.418185 (Simulation time: 1 hr 39 min 0 sec) 
Heartbeat CPU 2 instructions: 210000002 cycles: 396272093 heartbeat IPC: 0.418533 cumulative IPC: 0.419704 (Simulation time: 1 hr 43 min 41 sec) 
Heartbeat CPU 1 instructions: 210000002 cycles: 397031841 heartbeat IPC: 0.419202 cumulative IPC: 0.418862 (Simulation time: 1 hr 43 min 50 sec) 
Heartbeat CPU 0 instructions: 210000002 cycles: 397584626 heartbeat IPC: 0.418475 cumulative IPC: 0.418262 (Simulation time: 1 hr 43 min 57 sec) 
Heartbeat CPU 3 instructions: 210000002 cycles: 397831540 heartbeat IPC: 0.415225 cumulative IPC: 0.417999 (Simulation time: 1 hr 44 min 0 sec) 
Heartbeat CPU 2 instructions: 220000000 cycles: 420051277 heartbeat IPC: 0.420536 cumulative IPC: 0.419753 (Simulation time: 1 hr 48 min 44 sec) 
Heartbeat CPU 1 instructions: 220000000 cycles: 420890608 heartbeat IPC: 0.419133 cumulative IPC: 0.418878 (Simulation time: 1 hr 48 min 54 sec) 
Heartbeat CPU 0 instructions: 220000000 cycles: 421446246 heartbeat IPC: 0.419083 cumulative IPC: 0.41831 (Simulation time: 1 hr 49 min 1 sec) 
Heartbeat CPU 3 instructions: 220000000 cycles: 421558073 heartbeat IPC: 0.421469 cumulative IPC: 0.418201 (Simulation time: 1 hr 49 min 2 sec) 
Heartbeat CPU 2 instructions: 230000003 cycles: 443958471 heartbeat IPC: 0.418284 cumulative IPC: 0.419671 (Simulation time: 1 hr 53 min 37 sec) 
Heartbeat CPU 1 instructions: 230000003 cycles: 444970507 heartbeat IPC: 0.415284 cumulative IPC: 0.418677 (Simulation time: 1 hr 53 min 50 sec) 
Heartbeat CPU 0 instructions: 230000003 cycles: 445155856 heartbeat IPC: 0.42177 cumulative IPC: 0.418501 (Simulation time: 1 hr 53 min 52 sec) 
Heartbeat CPU 3 instructions: 230000003 cycles: 445474484 heartbeat IPC: 0.418123 cumulative IPC: 0.418197 (Simulation time: 1 hr 53 min 56 sec) 
Heartbeat CPU 2 instructions: 240000000 cycles: 467769825 heartbeat IPC: 0.419968 cumulative IPC: 0.419686 (Simulation time: 1 hr 58 min 55 sec) 
Heartbeat CPU 1 instructions: 240000000 cycles: 468836275 heartbeat IPC: 0.41901 cumulative IPC: 0.418694 (Simulation time: 1 hr 59 min 9 sec) 
Heartbeat CPU 0 instructions: 240000000 cycles: 468934564 heartbeat IPC: 0.420544 cumulative IPC: 0.418608 (Simulation time: 1 hr 59 min 10 sec) 
Heartbeat CPU 3 instructions: 240000000 cycles: 469457264 heartbeat IPC: 0.416966 cumulative IPC: 0.418132 (Simulation time: 1 hr 59 min 18 sec) 
Heartbeat CPU 2 instructions: 250000002 cycles: 491554053 heartbeat IPC: 0.420447 cumulative IPC: 0.419724 (Simulation time: 2 hr 4 min 4 sec) 
Finished CPU 2 instructions: 200000002 cycles: 476503014 cumulative IPC: 0.419725 (Simulation time: 2 hr 4 min 4 sec) 
Heartbeat CPU 1 instructions: 250000001 cycles: 492719361 heartbeat IPC: 0.418706 cumulative IPC: 0.418695 (Simulation time: 2 hr 4 min 21 sec) 
Finished CPU 1 instructions: 200000003 cycles: 477676168 cumulative IPC: 0.418694 (Simulation time: 2 hr 4 min 21 sec) 
Heartbeat CPU 0 instructions: 250000001 cycles: 492807685 heartbeat IPC: 0.418881 cumulative IPC: 0.418622 (Simulation time: 2 hr 4 min 22 sec) 
Finished CPU 0 instructions: 200000000 cycles: 477756475 cumulative IPC: 0.418623 (Simulation time: 2 hr 4 min 22 sec) 
Heartbeat CPU 3 instructions: 250000001 cycles: 493360089 heartbeat IPC: 0.418361 cumulative IPC: 0.418143 (Simulation time: 2 hr 4 min 30 sec) 
Finished CPU 3 instructions: 200000002 cycles: 478305020 cumulative IPC: 0.418143 (Simulation time: 2 hr 4 min 30 sec) 

ChampSim completed all CPUs

Total Simulation Statistics (not including warmup)

CPU 0 cumulative IPC: 0.418616 instructions: 200226356 cycles: 478305020
ITLB TOTAL     ACCESS:   29466965  HIT:   29466965  MISS:          0  HIT %:        100  MISS %:          0   MPKI: 0
ITLB LOAD      ACCESS:          0  HIT:          0  MISS:          0  HIT %:       -nan  MISS %:       -nan   MPKI: 0
ITLB RFO       ACCESS:          0  HIT:          0  MISS:          0  HIT %:       -nan  MISS %:       -nan   MPKI: 0
ITLB PREFETCH  ACCESS:          0  HIT:          0  MISS:          0  HIT %:       -nan  MISS %:       -nan   MPKI: 0
ITLB WRITEBACK ACCESS:          0  HIT:          0  MISS:          0  HIT %:       -nan  MISS %:       -nan   MPKI: 0
DTLB TOTAL     ACCESS:   61281449  HIT:   61197319  MISS:      84130  HIT %:    99.8627  MISS %:   0.137285   MPKI: 0.420174
DTLB LOAD      ACCESS:          0  HIT:          0  MISS:          0  HIT %:       -nan  MISS %:       -nan   MPKI: 0
DTLB RFO       ACCESS:          0  HIT:          0  MISS:          0  HIT %:       -nan  MISS %:       -nan   MPKI: 0
DTLB PREFETCH  ACCESS:          0  HIT:          0  MISS:          0  HIT %:       -nan  MISS %:       -nan   MPKI: 0
DTLB WRITEBACK ACCESS:          0  HIT:          0  MISS:          0  HIT %:       -nan  MISS %:       -nan   MPKI: 0
STLB TOTAL     ACCESS:    4446578  HIT:    4383504  MISS:      63074  HIT %:    98.5815  MISS %:    1.41848   MPKI: 0.315013
STLB LOAD      ACCESS:          0  HIT:          0  MISS:          0  HIT %:       -nan  MISS %:       -nan   MPKI: 0
STLB RFO       ACCESS:          0  HIT:          0  MISS:          0  HIT %:       -nan  MISS %:       -nan   MPKI: 0
STLB PREFETCH  ACCESS:          0  HIT:          0  MISS:          0  HIT %:       -nan  MISS %:       -nan   MPKI: 0
STLB WRITEBACK ACCESS:          0  HIT:          0  MISS:          0  HIT %:       -nan  MISS %:       -nan   MPKI: 0
L1D TOTAL     ACCESS:   81080521  HIT:   75773405  MISS:    5307116  HIT %:    93.4545  MISS %:    6.54549   MPKI: 26.5056
L1D LOAD      ACCESS:   48273460  HIT:   47641112  MISS:     632348  HIT %:    98.6901  MISS %:    1.30993   MPKI: 3.15817
L1D RFO       ACCESS:   14389600  HIT:   14389600  MISS:          0  HIT %:        100  MISS %:          0   MPKI: 0
L1D PREFETCH  ACCESS:   18417461  HIT:   13742693  MISS:    4674768  HIT %:    74.6177  MISS %:    25.3823   MPKI: 23.3474
L1D WRITEBACK ACCESS:          0  HIT:          0  MISS:          0  HIT %:       -nan  MISS %:       -nan   MPKI: 0
L1I TOTAL     ACCESS:   43581911  HIT:   43581911  MISS:          0  HIT %:        100  MISS %:          0   MPKI: 0
L1I LOAD      ACCESS:   43581911  HIT:   43581911  MISS:          0  HIT %:        100  MISS %:          0   MPKI: 0
L1I RFO       ACCESS:          0  HIT:          0  MISS:          0  HIT %:       -nan  MISS %:       -nan   MPKI: 0
L1I PREFETCH  ACCESS:          0  HIT:          0  MISS:          0  HIT %:       -nan  MISS %:       -nan   MPKI: 0
L1I WRITEBACK ACCESS:          0  HIT:          0  MISS:          0  HIT %:       -nan  MISS %:       -nan   MPKI: 0
L2C TOTAL     ACCESS:    7208352  HIT:    1856004  MISS:    5352348  HIT %:     25.748  MISS %:     74.252   MPKI: 26.7315
L2C LOAD      ACCESS:     223112  HIT:         70  MISS:     223042  HIT %:  0.0313744  MISS %:    99.9686   MPKI: 1.11395
L2C RFO       ACCESS:          0  HIT:          0  MISS:          0  HIT %:       -nan  MISS %:       -nan   MPKI: 0
L2C PREFETCH  ACCESS:    5084004  HIT:       2209  MISS:    5081795  HIT %:    0.04345  MISS %:    99.9565   MPKI: 25.3803
L2C WRITEBACK ACCESS:    1838162  HIT:    1799306  MISS:      38856  HIT %:    97.8861  MISS %:    2.11385   MPKI: 0.19406
PSCL5 TOTAL     ACCESS:      63074  HIT:      63074  MISS:          0  HIT %:        100  MISS %:          0   MPKI: 0
PSCL5 LOAD      ACCESS:          0  HIT:          0  MISS:          0  HIT %:       -nan  MISS %:       -nan   MPKI: 0
PSCL5 RFO       ACCESS:          0  HIT:          0  MISS:          0  HIT %:       -nan  MISS %:       -nan   MPKI: 0
PSCL5 PREFETCH  ACCESS:          0  HIT:          0  MISS:          0  HIT %:       -nan  MISS %:       -nan   MPKI: 0
PSCL5 WRITEBACK ACCESS:          0  HIT:          0  MISS:          0  HIT %:       -nan  MISS %:       -nan   MPKI: 0
PSCL4 TOTAL     ACCESS:      63074  HIT:      63074  MISS:          0  HIT %:        100  MISS %:          0   MPKI: 0
PSCL4 LOAD      ACCESS:          0  HIT:          0  MISS:          0  HIT %:       -nan  MISS %:       -nan   MPKI: 0
PSCL4 RFO       ACCESS:          0  HIT:          0  MISS:          0  HIT %:       -nan  MISS %:       -nan   MPKI: 0
PSCL4 PREFETCH  ACCESS:          0  HIT:          0  MISS:          0  HIT %:       -nan  MISS %:       -nan   MPKI: 0
PSCL4 WRITEBACK ACCESS:          0  HIT:          0  MISS:          0  HIT %:       -nan  MISS %:       -nan   MPKI: 0
PSCL3 TOTAL     ACCESS:      63074  HIT:      63074  MISS:          0  HIT %:        100  MISS %:          0   MPKI: 0
PSCL3 LOAD      ACCESS:          0  HIT:          0  MISS:          0  HIT %:       -nan  MISS %:       -nan   MPKI: 0
PSCL3 RFO       ACCESS:          0  HIT:          0  MISS:          0  HIT %:       -nan  MISS %:       -nan   MPKI: 0
PSCL3 PREFETCH  ACCESS:          0  HIT:          0  MISS:          0  HIT %:       -nan  MISS %:       -nan   MPKI: 0
PSCL3 WRITEBACK ACCESS:          0  HIT:          0  MISS:          0  HIT %:       -nan  MISS %:       -nan   MPKI: 0
PSCL2 TOTAL     ACCESS:      63074  HIT:      62936  MISS:        138  HIT %:    99.7812  MISS %:   0.218791   MPKI: 0.00068922
PSCL2 LOAD      ACCESS:          0  HIT:          0  MISS:          0  HIT %:       -nan  MISS %:       -nan   MPKI: 0
PSCL2 RFO       ACCESS:          0  HIT:          0  MISS:          0  HIT %:       -nan  MISS %:       -nan   MPKI: 0
PSCL2 PREFETCH  ACCESS:          0  HIT:          0  MISS:          0  HIT %:       -nan  MISS %:       -nan   MPKI: 0
PSCL2 WRITEBACK ACCESS:          0  HIT:          0  MISS:          0  HIT %:       -nan  MISS %:       -nan   MPKI: 0

stream: 
stream:times selected: 10175569
stream:pref_filled: 5958566
stream:pref_useful: 5458356
stream:pref_late: 405080
stream:misses: 187
stream:misses_by_poll: 0

CS: 
CS:times selected: 10144748
CS:pref_filled: 19542
CS:pref_useful: 18165
CS:pref_late: 3141
CS:misses: 1507333
CS:misses_by_poll: 162

CPLX: 
CPLX:times selected: 30772
CPLX:pref_filled: 896
CPLX:pref_useful: 869
CPLX:pref_late: 123
CPLX:misses: 7018
CPLX:misses_by_poll: 0

NL_L1: 
NL:times selected: 4
NL:pref_filled: 4
NL:pref_useful: 4
NL:pref_late: 0
NL:misses: 0
NL:misses_by_poll: 0

total selections: 20351093
total_filled: 4674768
total_useful: 4275413
total_late: 409369
total_polluted: 162
total_misses_after_warmup: 1490854
conflicts: 11
Degree Incremented Times: 2916452
Degree Decremented Times: 0

L1 IP Table Write Accesses: 196617172
L1 IP Table Read Accesses: 196617161
L1 RST Write Accesses: 33338326
L1 RST Read Accesses: 66676652
L1 CSPT Write Accesses: 33338326
L1 CSPT Read Accesses: 33670498
L1 RR Filter Tag Write Accesses: 158930730
L1 RR Filter Tag Read Accesses: 8228739486
L1 IP Table Tag Write Accesses: 196617172
L1 IP Table Tag Read Accesses: 196617172
L1 RST Tag Write Accesses: 0
L1 RST Tag Read Accesses: 300187626
L1 RR Filter Write Accesses: 0
L1 RR Filter Read Accesses: 286002109
test: 622464
LLC TOTAL     ACCESS:    7151958  HIT:    1773469  MISS:    5378489  HIT %:     24.797  MISS %:     75.203   MPKI: 26.862
LLC LOAD      ACCESS:     223042  HIT:         44  MISS:     222998  HIT %:  0.0197272  MISS %:    99.9803   MPKI: 1.11373
LLC RFO       ACCESS:          0  HIT:          0  MISS:          0  HIT %:       -nan  MISS %:       -nan   MPKI: 0
LLC PREFETCH  ACCESS:    5081795  HIT:        299  MISS:    5081496  HIT %: 0.00588375  MISS %:    99.9941   MPKI: 25.3788
LLC WRITEBACK ACCESS:    1838466  HIT:    1773059  MISS:      65407  HIT %:    96.4423  MISS %:    3.55769   MPKI: 0.326665

RAW hits: 151797
Loads Generated: 62273480
Loads sent to L1D: 62121684
Stores Generated: 14389594
Stores sent to L1D: 14389597

CPU 1 cumulative IPC: 0.418686 instructions: 200259404 cycles: 478305020
ITLB TOTAL     ACCESS:   29470944  HIT:   29470944  MISS:          0  HIT %:        100  MISS %:          0   MPKI: 0
ITLB LOAD      ACCESS:          0  HIT:          0  MISS:          0  HIT %:       -nan  MISS %:       -nan   MPKI: 0
ITLB RFO       ACCESS:          0  HIT:          0  MISS:          0  HIT %:       -nan  MISS %:       -nan   MPKI: 0
ITLB PREFETCH  ACCESS:          0  HIT:          0  MISS:          0  HIT %:       -nan  MISS %:       -nan   MPKI: 0
ITLB WRITEBACK ACCESS:          0  HIT:          0  MISS:          0  HIT %:       -nan  MISS %:       -nan   MPKI: 0
DTLB TOTAL     ACCESS:   61284257  HIT:   61200111  MISS:      84146  HIT %:    99.8627  MISS %:   0.137304   MPKI: 0.420185
DTLB LOAD      ACCESS:          0  HIT:          0  MISS:          0  HIT %:       -nan  MISS %:       -nan   MPKI: 0
DTLB RFO       ACCESS:          0  HIT:          0  MISS:          0  HIT %:       -nan  MISS %:       -nan   MPKI: 0
DTLB PREFETCH  ACCESS:          0  HIT:          0  MISS:          0  HIT %:       -nan  MISS %:       -nan   MPKI: 0
DTLB WRITEBACK ACCESS:          0  HIT:          0  MISS:          0  HIT %:       -nan  MISS %:       -nan   MPKI: 0
STLB TOTAL     ACCESS:    4449920  HIT:    4386834  MISS:      63086  HIT %:    98.5823  MISS %:    1.41769   MPKI: 0.315021
STLB LOAD      ACCESS:          0  HIT:          0  MISS:          0  HIT %:       -nan  MISS %:       -nan   MPKI: 0
STLB RFO       ACCESS:          0  HIT:          0  MISS:          0  HIT %:       -nan  MISS %:       -nan   MPKI: 0
STLB PREFETCH  ACCESS:          0  HIT:          0  MISS:          0  HIT %:       -nan  MISS %:       -nan   MPKI: 0
STLB WRITEBACK ACCESS:          0  HIT:          0  MISS:          0  HIT %:       -nan  MISS %:       -nan   MPKI: 0
L1D TOTAL     ACCESS:   81115683  HIT:   75807503  MISS:    5308180  HIT %:     93.456  MISS %:    6.54396   MPKI: 26.5065
L1D LOAD      ACCESS:   48278330  HIT:   47647890  MISS:     630440  HIT %:    98.6942  MISS %:    1.30584   MPKI: 3.14812
L1D RFO       ACCESS:   14391974  HIT:   14391974  MISS:          0  HIT %:        100  MISS %:          0   MPKI: 0
L1D PREFETCH  ACCESS:   18445379  HIT:   13767639  MISS:    4677740  HIT %:      74.64  MISS %:      25.36   MPKI: 23.3584
L1D WRITEBACK ACCESS:          0  HIT:          0  MISS:          0  HIT %:       -nan  MISS %:       -nan   MPKI: 0
L1I TOTAL     ACCESS:   43588441  HIT:   43588441  MISS:          0  HIT %:        100  MISS %:          0   MPKI: 0
L1I LOAD      ACCESS:   43588441  HIT:   43588441  MISS:          0  HIT %:        100  MISS %:          0   MPKI: 0
L1I RFO       ACCESS:          0  HIT:          0  MISS:          0  HIT %:       -nan  MISS %:       -nan   MPKI: 0
L1I PREFETCH  ACCESS:          0  HIT:          0  MISS:          0  HIT %:       -nan  MISS %:       -nan   MPKI: 0
L1I WRITEBACK ACCESS:          0  HIT:          0  MISS:          0  HIT %:       -nan  MISS %:       -nan   MPKI: 0
L2C TOTAL     ACCESS:    7209730  HIT:    1856905  MISS:    5352825  HIT %:    25.7555  MISS %:    74.2445   MPKI: 26.7295
L2C LOAD      ACCESS:     222712  HIT:         73  MISS:     222639  HIT %:  0.0327778  MISS %:    99.9672   MPKI: 1.11175
L2C RFO       ACCESS:          0  HIT:          0  MISS:          0  HIT %:       -nan  MISS %:       -nan   MPKI: 0
L2C PREFETCH  ACCESS:    5085468  HIT:       2100  MISS:    5083368  HIT %:  0.0412941  MISS %:    99.9587   MPKI: 25.3839
L2C WRITEBACK ACCESS:    1838464  HIT:    1800321  MISS:      38143  HIT %:    97.9253  MISS %:    2.07472   MPKI: 0.190468
PSCL5 TOTAL     ACCESS:      63086  HIT:      63086  MISS:          0  HIT %:        100  MISS %:          0   MPKI: 0
PSCL5 LOAD      ACCESS:          0  HIT:          0  MISS:          0  HIT %:       -nan  MISS %:       -nan   MPKI: 0
PSCL5 RFO       ACCESS:          0  HIT:          0  MISS:          0  HIT %:       -nan  MISS %:       -nan   MPKI: 0
PSCL5 PREFETCH  ACCESS:          0  HIT:          0  MISS:          0  HIT %:       -nan  MISS %:       -nan   MPKI: 0
PSCL5 WRITEBACK ACCESS:          0  HIT:          0  MISS:          0  HIT %:       -nan  MISS %:       -nan   MPKI: 0
PSCL4 TOTAL     ACCESS:      63086  HIT:      63086  MISS:          0  HIT %:        100  MISS %:          0   MPKI: 0
PSCL4 LOAD      ACCESS:          0  HIT:          0  MISS:          0  HIT %:       -nan  MISS %:       -nan   MPKI: 0
PSCL4 RFO       ACCESS:          0  HIT:          0  MISS:          0  HIT %:       -nan  MISS %:       -nan   MPKI: 0
PSCL4 PREFETCH  ACCESS:          0  HIT:          0  MISS:          0  HIT %:       -nan  MISS %:       -nan   MPKI: 0
PSCL4 WRITEBACK ACCESS:          0  HIT:          0  MISS:          0  HIT %:       -nan  MISS %:       -nan   MPKI: 0
PSCL3 TOTAL     ACCESS:      63086  HIT:      63086  MISS:          0  HIT %:        100  MISS %:          0   MPKI: 0
PSCL3 LOAD      ACCESS:          0  HIT:          0  MISS:          0  HIT %:       -nan  MISS %:       -nan   MPKI: 0
PSCL3 RFO       ACCESS:          0  HIT:          0  MISS:          0  HIT %:       -nan  MISS %:       -nan   MPKI: 0
PSCL3 PREFETCH  ACCESS:          0  HIT:          0  MISS:          0  HIT %:       -nan  MISS %:       -nan   MPKI: 0
PSCL3 WRITEBACK ACCESS:          0  HIT:          0  MISS:          0  HIT %:       -nan  MISS %:       -nan   MPKI: 0
PSCL2 TOTAL     ACCESS:      63086  HIT:      62948  MISS:        138  HIT %:    99.7813  MISS %:   0.218749   MPKI: 0.000689106
PSCL2 LOAD      ACCESS:          0  HIT:          0  MISS:          0  HIT %:       -nan  MISS %:       -nan   MPKI: 0
PSCL2 RFO       ACCESS:          0  HIT:          0  MISS:          0  HIT %:       -nan  MISS %:       -nan   MPKI: 0
PSCL2 PREFETCH  ACCESS:          0  HIT:          0  MISS:          0  HIT %:       -nan  MISS %:       -nan   MPKI: 0
PSCL2 WRITEBACK ACCESS:          0  HIT:          0  MISS:          0  HIT %:       -nan  MISS %:       -nan   MPKI: 0

stream: 
stream:times selected: 10176499
stream:pref_filled: 5962375
stream:pref_useful: 5461807
stream:pref_late: 403644
stream:misses: 168
stream:misses_by_poll: 0

CS: 
CS:times selected: 10145462
CS:pref_filled: 19627
CS:pref_useful: 18250
CS:pref_late: 3099
CS:misses: 1500355
CS:misses_by_poll: 192

CPLX: 
CPLX:times selected: 30988
CPLX:pref_filled: 866
CPLX:pref_useful: 848
CPLX:pref_late: 120
CPLX:misses: 6969
CPLX:misses_by_poll: 0

NL_L1: 
NL:times selected: 5
NL:pref_filled: 0
NL:pref_useful: 0
NL:pref_late: 0
NL:misses: 2
NL:misses_by_poll: 0

total selections: 20352954
total_filled: 4677740
total_useful: 4278127
total_late: 407854
total_polluted: 192
total_misses_after_warmup: 1484588
conflicts: 11
Degree Incremented Times: 2916452
Degree Decremented Times: 0

L1 IP Table Write Accesses: 196617172
L1 IP Table Read Accesses: 196617161
L1 RST Write Accesses: 33338326
L1 RST Read Accesses: 66676652
L1 CSPT Write Accesses: 33338326
L1 CSPT Read Accesses: 33670498
L1 RR Filter Tag Write Accesses: 158930730
L1 RR Filter Tag Read Accesses: 8228739486
L1 IP Table Tag Write Accesses: 196617172
L1 IP Table Tag Read Accesses: 196617172
L1 RST Tag Write Accesses: 0
L1 RST Tag Read Accesses: 300187626
L1 RR Filter Write Accesses: 0
L1 RR Filter Read Accesses: 286002109
test: 622464
LLC TOTAL     ACCESS:    7153027  HIT:    1773235  MISS:    5379792  HIT %:      24.79  MISS %:      75.21   MPKI: 26.8641
LLC LOAD      ACCESS:     222639  HIT:         45  MISS:     222594  HIT %:  0.0202121  MISS %:    99.9798   MPKI: 1.11153
LLC RFO       ACCESS:          0  HIT:          0  MISS:          0  HIT %:       -nan  MISS %:       -nan   MPKI: 0
LLC PREFETCH  ACCESS:    5083368  HIT:        363  MISS:    5083005  HIT %: 0.00714093  MISS %:    99.9929   MPKI: 25.3821
LLC WRITEBACK ACCESS:    1838345  HIT:    1772741  MISS:      65604  HIT %:    96.4314  MISS %:    3.56864   MPKI: 0.327595

RAW hits: 151825
Loads Generated: 62283728
Loads sent to L1D: 62131903
Stores Generated: 14391970
Stores sent to L1D: 14391972

CPU 2 cumulative IPC: 0.41973 instructions: 200758823 cycles: 478305020
ITLB TOTAL     ACCESS:   29543711  HIT:   29543711  MISS:          0  HIT %:        100  MISS %:          0   MPKI: 0
ITLB LOAD      ACCESS:          0  HIT:          0  MISS:          0  HIT %:       -nan  MISS %:       -nan   MPKI: 0
ITLB RFO       ACCESS:          0  HIT:          0  MISS:          0  HIT %:       -nan  MISS %:       -nan   MPKI: 0
ITLB PREFETCH  ACCESS:          0  HIT:          0  MISS:          0  HIT %:       -nan  MISS %:       -nan   MPKI: 0
ITLB WRITEBACK ACCESS:          0  HIT:          0  MISS:          0  HIT %:       -nan  MISS %:       -nan   MPKI: 0
DTLB TOTAL     ACCESS:   61456379  HIT:   61372019  MISS:      84360  HIT %:    99.8627  MISS %:   0.137268   MPKI: 0.420206
DTLB LOAD      ACCESS:          0  HIT:          0  MISS:          0  HIT %:       -nan  MISS %:       -nan   MPKI: 0
DTLB RFO       ACCESS:          0  HIT:          0  MISS:          0  HIT %:       -nan  MISS %:       -nan   MPKI: 0
DTLB PREFETCH  ACCESS:          0  HIT:          0  MISS:          0  HIT %:       -nan  MISS %:       -nan   MPKI: 0
DTLB WRITEBACK ACCESS:          0  HIT:          0  MISS:          0  HIT %:       -nan  MISS %:       -nan   MPKI: 0
STLB TOTAL     ACCESS:    4458027  HIT:    4394780  MISS:      63247  HIT %:    98.5813  MISS %:    1.41872   MPKI: 0.31504
STLB LOAD      ACCESS:          0  HIT:          0  MISS:          0  HIT %:       -nan  MISS %:       -nan   MPKI: 0
STLB RFO       ACCESS:          0  HIT:          0  MISS:          0  HIT %:       -nan  MISS %:       -nan   MPKI: 0
STLB PREFETCH  ACCESS:          0  HIT:          0  MISS:          0  HIT %:       -nan  MISS %:       -nan   MPKI: 0
STLB WRITEBACK ACCESS:          0  HIT:          0  MISS:          0  HIT %:       -nan  MISS %:       -nan   MPKI: 0
L1D TOTAL     ACCESS:   81331965  HIT:   76010851  MISS:    5321114  HIT %:    93.4575  MISS %:    6.54246   MPKI: 26.505
L1D LOAD      ACCESS:   48419443  HIT:   47787169  MISS:     632274  HIT %:    98.6942  MISS %:    1.30583   MPKI: 3.14942
L1D RFO       ACCESS:   14427878  HIT:   14427878  MISS:          0  HIT %:        100  MISS %:          0   MPKI: 0
L1D PREFETCH  ACCESS:   18484644  HIT:   13795804  MISS:    4688840  HIT %:    74.6339  MISS %:    25.3661   MPKI: 23.3556
L1D WRITEBACK ACCESS:          0  HIT:          0  MISS:          0  HIT %:       -nan  MISS %:       -nan   MPKI: 0
L1I TOTAL     ACCESS:   43696569  HIT:   43696569  MISS:          0  HIT %:        100  MISS %:          0   MPKI: 0
L1I LOAD      ACCESS:   43696569  HIT:   43696569  MISS:          0  HIT %:        100  MISS %:          0   MPKI: 0
L1I RFO       ACCESS:          0  HIT:          0  MISS:          0  HIT %:       -nan  MISS %:       -nan   MPKI: 0
L1I PREFETCH  ACCESS:          0  HIT:          0  MISS:          0  HIT %:       -nan  MISS %:       -nan   MPKI: 0
L1I WRITEBACK ACCESS:          0  HIT:          0  MISS:          0  HIT %:       -nan  MISS %:       -nan   MPKI: 0
L2C TOTAL     ACCESS:    7227400  HIT:    1860229  MISS:    5367171  HIT %:    25.7386  MISS %:    74.2614   MPKI: 26.7344
L2C LOAD      ACCESS:     222454  HIT:         80  MISS:     222374  HIT %:  0.0359625  MISS %:     99.964   MPKI: 1.10767
L2C RFO       ACCESS:          0  HIT:          0  MISS:          0  HIT %:       -nan  MISS %:       -nan   MPKI: 0
L2C PREFETCH  ACCESS:    5098660  HIT:       2236  MISS:    5096424  HIT %:  0.0438547  MISS %:    99.9561   MPKI: 25.3858
L2C WRITEBACK ACCESS:    1843039  HIT:    1803348  MISS:      39691  HIT %:    97.8464  MISS %:    2.15356   MPKI: 0.197705
PSCL5 TOTAL     ACCESS:      63247  HIT:      63247  MISS:          0  HIT %:        100  MISS %:          0   MPKI: 0
PSCL5 LOAD      ACCESS:          0  HIT:          0  MISS:          0  HIT %:       -nan  MISS %:       -nan   MPKI: 0
PSCL5 RFO       ACCESS:          0  HIT:          0  MISS:          0  HIT %:       -nan  MISS %:       -nan   MPKI: 0
PSCL5 PREFETCH  ACCESS:          0  HIT:          0  MISS:          0  HIT %:       -nan  MISS %:       -nan   MPKI: 0
PSCL5 WRITEBACK ACCESS:          0  HIT:          0  MISS:          0  HIT %:       -nan  MISS %:       -nan   MPKI: 0
PSCL4 TOTAL     ACCESS:      63247  HIT:      63247  MISS:          0  HIT %:        100  MISS %:          0   MPKI: 0
PSCL4 LOAD      ACCESS:          0  HIT:          0  MISS:          0  HIT %:       -nan  MISS %:       -nan   MPKI: 0
PSCL4 RFO       ACCESS:          0  HIT:          0  MISS:          0  HIT %:       -nan  MISS %:       -nan   MPKI: 0
PSCL4 PREFETCH  ACCESS:          0  HIT:          0  MISS:          0  HIT %:       -nan  MISS %:       -nan   MPKI: 0
PSCL4 WRITEBACK ACCESS:          0  HIT:          0  MISS:          0  HIT %:       -nan  MISS %:       -nan   MPKI: 0
PSCL3 TOTAL     ACCESS:      63247  HIT:      63247  MISS:          0  HIT %:        100  MISS %:          0   MPKI: 0
PSCL3 LOAD      ACCESS:          0  HIT:          0  MISS:          0  HIT %:       -nan  MISS %:       -nan   MPKI: 0
PSCL3 RFO       ACCESS:          0  HIT:          0  MISS:          0  HIT %:       -nan  MISS %:       -nan   MPKI: 0
PSCL3 PREFETCH  ACCESS:          0  HIT:          0  MISS:          0  HIT %:       -nan  MISS %:       -nan   MPKI: 0
PSCL3 WRITEBACK ACCESS:          0  HIT:          0  MISS:          0  HIT %:       -nan  MISS %:       -nan   MPKI: 0
PSCL2 TOTAL     ACCESS:      63247  HIT:      63109  MISS:        138  HIT %:    99.7818  MISS %:   0.218192   MPKI: 0.000687392
PSCL2 LOAD      ACCESS:          0  HIT:          0  MISS:          0  HIT %:       -nan  MISS %:       -nan   MPKI: 0
PSCL2 RFO       ACCESS:          0  HIT:          0  MISS:          0  HIT %:       -nan  MISS %:       -nan   MPKI: 0
PSCL2 PREFETCH  ACCESS:          0  HIT:          0  MISS:          0  HIT %:       -nan  MISS %:       -nan   MPKI: 0
PSCL2 WRITEBACK ACCESS:          0  HIT:          0  MISS:          0  HIT %:       -nan  MISS %:       -nan   MPKI: 0

stream: 
stream:times selected: 10196187
stream:pref_filled: 5973079
stream:pref_useful: 5471977
stream:pref_late: 405754
stream:misses: 193
stream:misses_by_poll: 0

CS: 
CS:times selected: 10165341
CS:pref_filled: 19717
CS:pref_useful: 18265
CS:pref_late: 3066
CS:misses: 1503592
CS:misses_by_poll: 166

CPLX: 
CPLX:times selected: 30798
CPLX:pref_filled: 904
CPLX:pref_useful: 877
CPLX:pref_late: 148
CPLX:misses: 7098
CPLX:misses_by_poll: 2

NL_L1: 
NL:times selected: 5
NL:pref_filled: 0
NL:pref_useful: 0
NL:pref_late: 0
NL:misses: 2
NL:misses_by_poll: 0

total selections: 20392331
total_filled: 4688840
total_useful: 4288574
total_late: 409963
total_polluted: 168
total_misses_after_warmup: 1487758
conflicts: 11
Degree Incremented Times: 2916452
Degree Decremented Times: 0

L1 IP Table Write Accesses: 196617172
L1 IP Table Read Accesses: 196617161
L1 RST Write Accesses: 33338326
L1 RST Read Accesses: 66676652
L1 CSPT Write Accesses: 33338326
L1 CSPT Read Accesses: 33670498
L1 RR Filter Tag Write Accesses: 158930730
L1 RR Filter Tag Read Accesses: 8228739486
L1 IP Table Tag Write Accesses: 196617172
L1 IP Table Tag Read Accesses: 196617172
L1 RST Tag Write Accesses: 0
L1 RST Tag Read Accesses: 300187626
L1 RR Filter Write Accesses: 0
L1 RR Filter Read Accesses: 286002109
test: 622464
LLC TOTAL     ACCESS:    7170575  HIT:    1778606  MISS:    5391969  HIT %:    24.8042  MISS %:    75.1958   MPKI: 26.8579
LLC LOAD      ACCESS:     222374  HIT:         34  MISS:     222340  HIT %:  0.0152896  MISS %:    99.9847   MPKI: 1.1075
LLC RFO       ACCESS:          0  HIT:          0  MISS:          0  HIT %:       -nan  MISS %:       -nan   MPKI: 0
LLC PREFETCH  ACCESS:    5096424  HIT:        314  MISS:    5096110  HIT %: 0.00616118  MISS %:    99.9938   MPKI: 25.3842
LLC WRITEBACK ACCESS:    1843095  HIT:    1778192  MISS:      64903  HIT %:    96.4786  MISS %:    3.52141   MPKI: 0.323288

RAW hits: 152207
Loads Generated: 62439093
Loads sent to L1D: 62286886
Stores Generated: 14427874
Stores sent to L1D: 14427875

CPU 3 cumulative IPC: 0.418143 instructions: 200000002 cycles: 478305020
ITLB TOTAL     ACCESS:   29434144  HIT:   29434144  MISS:          0  HIT %:        100  MISS %:          0   MPKI: 0
ITLB LOAD      ACCESS:          0  HIT:          0  MISS:          0  HIT %:       -nan  MISS %:       -nan   MPKI: 0
ITLB RFO       ACCESS:          0  HIT:          0  MISS:          0  HIT %:       -nan  MISS %:       -nan   MPKI: 0
ITLB PREFETCH  ACCESS:          0  HIT:          0  MISS:          0  HIT %:       -nan  MISS %:       -nan   MPKI: 0
ITLB WRITEBACK ACCESS:          0  HIT:          0  MISS:          0  HIT %:       -nan  MISS %:       -nan   MPKI: 0
DTLB TOTAL     ACCESS:   61209452  HIT:   61125418  MISS:      84034  HIT %:    99.8627  MISS %:   0.137289   MPKI: 0.42017
DTLB LOAD      ACCESS:          0  HIT:          0  MISS:          0  HIT %:       -nan  MISS %:       -nan   MPKI: 0
DTLB RFO       ACCESS:          0  HIT:          0  MISS:          0  HIT %:       -nan  MISS %:       -nan   MPKI: 0
DTLB PREFETCH  ACCESS:          0  HIT:          0  MISS:          0  HIT %:       -nan  MISS %:       -nan   MPKI: 0
DTLB WRITEBACK ACCESS:          0  HIT:          0  MISS:          0  HIT %:       -nan  MISS %:       -nan   MPKI: 0
STLB TOTAL     ACCESS:    4442300  HIT:    4379298  MISS:      63002  HIT %:    98.5818  MISS %:    1.41823   MPKI: 0.31501
STLB LOAD      ACCESS:          0  HIT:          0  MISS:          0  HIT %:       -nan  MISS %:       -nan   MPKI: 0
STLB RFO       ACCESS:          0  HIT:          0  MISS:          0  HIT %:       -nan  MISS %:       -nan   MPKI: 0
STLB PREFETCH  ACCESS:          0  HIT:          0  MISS:          0  HIT %:       -nan  MISS %:       -nan   MPKI: 0
STLB WRITEBACK ACCESS:          0  HIT:          0  MISS:          0  HIT %:       -nan  MISS %:       -nan   MPKI: 0
L1D TOTAL     ACCESS:   80988489  HIT:   75687532  MISS:    5300957  HIT %:    93.4547  MISS %:    6.54532   MPKI: 26.5048
L1D LOAD      ACCESS:   48217887  HIT:   47586859  MISS:     631028  HIT %:    98.6913  MISS %:     1.3087   MPKI: 3.15514
L1D RFO       ACCESS:   14373332  HIT:   14373332  MISS:          0  HIT %:        100  MISS %:          0   MPKI: 0
L1D PREFETCH  ACCESS:   18397270  HIT:   13727341  MISS:    4669929  HIT %:    74.6162  MISS %:    25.3838   MPKI: 23.3496
L1D WRITEBACK ACCESS:          0  HIT:          0  MISS:          0  HIT %:       -nan  MISS %:       -nan   MPKI: 0
L1I TOTAL     ACCESS:   43533195  HIT:   43533195  MISS:          0  HIT %:        100  MISS %:          0   MPKI: 0
L1I LOAD      ACCESS:   43533195  HIT:   43533195  MISS:          0  HIT %:        100  MISS %:          0   MPKI: 0
L1I RFO       ACCESS:          0  HIT:          0  MISS:          0  HIT %:       -nan  MISS %:       -nan   MPKI: 0
L1I PREFETCH  ACCESS:          0  HIT:          0  MISS:          0  HIT %:       -nan  MISS %:       -nan   MPKI: 0
L1I WRITEBACK ACCESS:          0  HIT:          0  MISS:          0  HIT %:       -nan  MISS %:       -nan   MPKI: 0
L2C TOTAL     ACCESS:    7199992  HIT:    1853739  MISS:    5346253  HIT %:    25.7464  MISS %:    74.2536   MPKI: 26.7313
L2C LOAD      ACCESS:     222323  HIT:         65  MISS:     222258  HIT %:  0.0292367  MISS %:    99.9708   MPKI: 1.11129
L2C RFO       ACCESS:          0  HIT:          0  MISS:          0  HIT %:       -nan  MISS %:       -nan   MPKI: 0
L2C PREFETCH  ACCESS:    5078634  HIT:       2157  MISS:    5076477  HIT %:  0.0424721  MISS %:    99.9575   MPKI: 25.3824
L2C WRITEBACK ACCESS:    1836033  HIT:    1797170  MISS:      38863  HIT %:    97.8833  MISS %:    2.11668   MPKI: 0.194315
PSCL5 TOTAL     ACCESS:      63002  HIT:      63002  MISS:          0  HIT %:        100  MISS %:          0   MPKI: 0
PSCL5 LOAD      ACCESS:          0  HIT:          0  MISS:          0  HIT %:       -nan  MISS %:       -nan   MPKI: 0
PSCL5 RFO       ACCESS:          0  HIT:          0  MISS:          0  HIT %:       -nan  MISS %:       -nan   MPKI: 0
PSCL5 PREFETCH  ACCESS:          0  HIT:          0  MISS:          0  HIT %:       -nan  MISS %:       -nan   MPKI: 0
PSCL5 WRITEBACK ACCESS:          0  HIT:          0  MISS:          0  HIT %:       -nan  MISS %:       -nan   MPKI: 0
PSCL4 TOTAL     ACCESS:      63002  HIT:      63002  MISS:          0  HIT %:        100  MISS %:          0   MPKI: 0
PSCL4 LOAD      ACCESS:          0  HIT:          0  MISS:          0  HIT %:       -nan  MISS %:       -nan   MPKI: 0
PSCL4 RFO       ACCESS:          0  HIT:          0  MISS:          0  HIT %:       -nan  MISS %:       -nan   MPKI: 0
PSCL4 PREFETCH  ACCESS:          0  HIT:          0  MISS:          0  HIT %:       -nan  MISS %:       -nan   MPKI: 0
PSCL4 WRITEBACK ACCESS:          0  HIT:          0  MISS:          0  HIT %:       -nan  MISS %:       -nan   MPKI: 0
PSCL3 TOTAL     ACCESS:      63002  HIT:      63002  MISS:          0  HIT %:        100  MISS %:          0   MPKI: 0
PSCL3 LOAD      ACCESS:          0  HIT:          0  MISS:          0  HIT %:       -nan  MISS %:       -nan   MPKI: 0
PSCL3 RFO       ACCESS:          0  HIT:          0  MISS:          0  HIT %:       -nan  MISS %:       -nan   MPKI: 0
PSCL3 PREFETCH  ACCESS:          0  HIT:          0  MISS:          0  HIT %:       -nan  MISS %:       -nan   MPKI: 0
PSCL3 WRITEBACK ACCESS:          0  HIT:          0  MISS:          0  HIT %:       -nan  MISS %:       -nan   MPKI: 0
PSCL2 TOTAL     ACCESS:      63002  HIT:      62864  MISS:        138  HIT %:     99.781  MISS %:   0.219041   MPKI: 0.00069
PSCL2 LOAD      ACCESS:          0  HIT:          0  MISS:          0  HIT %:       -nan  MISS %:       -nan   MPKI: 0
PSCL2 RFO       ACCESS:          0  HIT:          0  MISS:          0  HIT %:       -nan  MISS %:       -nan   MPKI: 0
PSCL2 PREFETCH  ACCESS:          0  HIT:          0  MISS:          0  HIT %:       -nan  MISS %:       -nan   MPKI: 0
PSCL2 WRITEBACK ACCESS:          0  HIT:          0  MISS:          0  HIT %:       -nan  MISS %:       -nan   MPKI: 0

stream: 
stream:times selected: 10165987
stream:pref_filled: 5954642
stream:pref_useful: 5455135
stream:pref_late: 404695
stream:misses: 217
stream:misses_by_poll: 0

CS: 
CS:times selected: 10135137
CS:pref_filled: 19362
CS:pref_useful: 17901
CS:pref_late: 3076
CS:misses: 1502810
CS:misses_by_poll: 202

CPLX: 
CPLX:times selected: 30800
CPLX:pref_filled: 883
CPLX:pref_useful: 862
CPLX:pref_late: 105
CPLX:misses: 7028
CPLX:misses_by_poll: 1

NL_L1: 
NL:times selected: 6
NL:pref_filled: 1
NL:pref_useful: 1
NL:pref_late: 0
NL:misses: 2
NL:misses_by_poll: 0

total selections: 20331930
total_filled: 4669929
total_useful: 4271192
total_late: 408843
total_polluted: 203
total_misses_after_warmup: 1487106
conflicts: 11
Degree Incremented Times: 2916452
Degree Decremented Times: 0

L1 IP Table Write Accesses: 196617172
L1 IP Table Read Accesses: 196617161
L1 RST Write Accesses: 33338326
L1 RST Read Accesses: 66676652
L1 CSPT Write Accesses: 33338326
L1 CSPT Read Accesses: 33670498
L1 RR Filter Tag Write Accesses: 158930730
L1 RR Filter Tag Read Accesses: 8228739486
L1 IP Table Tag Write Accesses: 196617172
L1 IP Table Tag Read Accesses: 196617172
L1 RST Tag Write Accesses: 0
L1 RST Tag Read Accesses: 300187626
L1 RR Filter Write Accesses: 0
L1 RR Filter Read Accesses: 286002109
test: 622464
LLC TOTAL     ACCESS:    7143439  HIT:    1771566  MISS:    5371873  HIT %:    24.7999  MISS %:    75.2001   MPKI: 26.8594
LLC LOAD      ACCESS:     222258  HIT:         45  MISS:     222213  HIT %:  0.0202467  MISS %:    99.9798   MPKI: 1.11106
LLC RFO       ACCESS:          0  HIT:          0  MISS:          0  HIT %:       -nan  MISS %:       -nan   MPKI: 0
LLC PREFETCH  ACCESS:    5076477  HIT:        303  MISS:    5076174  HIT %: 0.00596871  MISS %:     99.994   MPKI: 25.3809
LLC WRITEBACK ACCESS:    1836049  HIT:    1771142  MISS:      64907  HIT %:    96.4649  MISS %:    3.53515   MPKI: 0.324535

RAW hits: 151626
Loads Generated: 62203074
Loads sent to L1D: 62051442
Stores Generated: 14373330
Stores sent to L1D: 14373330

Region of Interest Statistics

CPU 0 cumulative IPC: 0.418623 instructions: 200000000 cycles: 477756475
ITLB TOTAL     ACCESS:   29433586  HIT:   29433586  MISS:          0  HIT %:        100  MISS %:          0   MPKI: 0
ITLB LOAD TRANSLATION ACCESS:   29433586  HIT:   29433586  MISS:          0  HIT %:        100  MISS %:          0   MPKI: 0
ITLB PREFETCH  REQUESTED:          0  ISSUED:          0  USEFUL:          0  USELESS:          0
ITLB USEFUL LOAD PREFETCHES:          0 PREFETCH ISSUED TO LOWER LEVEL:          0  ACCURACY: -nan
ITLB TIMELY PREFETCHES:          0 LATE PREFETCHES: 0 DROPPED PREFETCHES: 0
ITLB PREFETCHES SAME FILL-ORIGIN LEVEL: 0 DIFFERENT FILL-ORIGIN LEVEL: 0
ITLB AVERAGE MISS LATENCY: -nan cycles
ITLB RQ	ACCESS:   43581911	FORWARD:          0	MERGED:   14114946	TO_CACHE:   29466965

DTLB TOTAL     ACCESS:   61212088  HIT:   61128052  MISS:      84036  HIT %:    99.8627  MISS %:   0.137287   MPKI: 0.42018
DTLB LOAD TRANSLATION ACCESS:   61212088  HIT:   61128052  MISS:      84036  HIT %:    99.8627  MISS %:   0.137287   MPKI: 0.42018
DTLB PREFETCH  REQUESTED:          0  ISSUED:          0  USEFUL:          0  USELESS:          0
DTLB USEFUL LOAD PREFETCHES:          0 PREFETCH ISSUED TO LOWER LEVEL:          0  ACCURACY: -nan
DTLB TIMELY PREFETCHES:          0 LATE PREFETCHES: 0 DROPPED PREFETCHES: 0
DTLB PREFETCHES SAME FILL-ORIGIN LEVEL: 0 DIFFERENT FILL-ORIGIN LEVEL: 0
DTLB AVERAGE MISS LATENCY: 460.8 cycles
DTLB RQ	ACCESS:   63521551	FORWARD:          0	MERGED:    2239066	TO_CACHE:   61282485

STLB TOTAL     ACCESS:    4441671  HIT:    4378669  MISS:      63002  HIT %:    98.5816  MISS %:    1.41843   MPKI: 0.31501
STLB LOAD TRANSLATION ACCESS:      84036  HIT:      21034  MISS:      63002  HIT %:    25.0297  MISS %:    74.9703   MPKI: 0.31501
STLB TRANSLATION FROM L1D PREFETCHER ACCESS:    4357635  HIT:    4357635  MISS:          0  HIT %:        100  MISS %:          0   MPKI: 0
STLB PREFETCH  REQUESTED:          0  ISSUED:          0  USEFUL:          0  USELESS:          0
STLB USEFUL LOAD PREFETCHES:          0 PREFETCH ISSUED TO LOWER LEVEL:          0  ACCURACY: -nan
STLB TIMELY PREFETCHES:          0 LATE PREFETCHES: 0 DROPPED PREFETCHES: 0
STLB PREFETCHES SAME FILL-ORIGIN LEVEL: 0 DIFFERENT FILL-ORIGIN LEVEL: 0
STLB AVERAGE MISS LATENCY: 598.819 cycles
STLB RQ	ACCESS:   21711869	FORWARD:          0	MERGED:   17265291	TO_CACHE:    4446578

STLB Hit, L1D data hit: 0
STLB Hit, L2C data hit: 0
STLB Hit, LLC data hit: 0
STLB Hit, LLC data miss: 0
STLB STLB hints to L2: 0
L1D TOTAL     ACCESS:   80989373  HIT:   75688273  MISS:    5301100  HIT %:    93.4546  MISS %:    6.54543   MPKI: 26.5055
L1D LOAD      ACCESS:   48218834  HIT:   47587208  MISS:     631626  HIT %:    98.6901  MISS %:    1.30992   MPKI: 3.15813
L1D RFO       ACCESS:   14373332  HIT:   14373332  MISS:          0  HIT %:        100  MISS %:          0   MPKI: 0
L1D PREFETCH  ACCESS:   18397207  HIT:   13727733  MISS:    4669474  HIT %:    74.6186  MISS %:    25.3814   MPKI: 23.3474
L1D PREFETCH  REQUESTED:   61322433  ISSUED:   43453184  USEFUL:    4275413  USELESS:     399385
L1D USEFUL LOAD PREFETCHES:    4275413 PREFETCH ISSUED TO LOWER LEVEL:    5084020  ACCURACY: 84.0951
L1D TIMELY PREFETCHES:    4275413 LATE PREFETCHES: 409237 DROPPED PREFETCHES: 0
L1D PREFETCHES SAME FILL-ORIGIN LEVEL: 5084020 DIFFERENT FILL-ORIGIN LEVEL: 0
L1D AVERAGE MISS LATENCY: 957.55 cycles
L1D RQ	ACCESS:   62121684	FORWARD:          0	MERGED:   12989565	TO_CACHE:   49131954
L1D WQ	ACCESS:   14389597	FORWARD:        165	MERGED:          0	TO_CACHE:   14389597
L1D PQ	ACCESS:   21825445	FORWARD:          0	MERGED:     197706	TO_CACHE:   21627739

L1D UNIQUE REGIONS ACCESSED: 0
L1D REGIONS CONFLICTS: 0
L1D Cross Page Prefetch Requests: 0
L1D Same Page Prefetch Requests: 30206941
L1D ROI Sum of L1D PQ occupancy: 2481613260
L1D PREFETCHES PUSHED FROM L2C: 0
L1I TOTAL     ACCESS:   43532545  HIT:   43532545  MISS:          0  HIT %:        100  MISS %:          0   MPKI: 0
L1I LOAD      ACCESS:   43532545  HIT:   43532545  MISS:          0  HIT %:        100  MISS %:          0   MPKI: 0
L1I PREFETCH  REQUESTED:          0  ISSUED:          0  USEFUL:          0  USELESS:          0
L1I USEFUL LOAD PREFETCHES:          0 PREFETCH ISSUED TO LOWER LEVEL:          0  ACCURACY: -nan
L1I TIMELY PREFETCHES:          0 LATE PREFETCHES: 0 DROPPED PREFETCHES: 0
L1I PREFETCHES SAME FILL-ORIGIN LEVEL: 0 DIFFERENT FILL-ORIGIN LEVEL: 0
L1I AVERAGE MISS LATENCY: -nan cycles
L1I RQ	ACCESS:   48862080	FORWARD:          0	MERGED:    5280169	TO_CACHE:   43581911

BTB TOTAL     ACCESS:    4782693  HIT:    4782690  MISS:          3  HIT %:    99.9999  MISS %: 6.27262e-05   MPKI: 1.5e-05
BTB BRANCH_DIRECT_JUMP	ACCESS:      22667  HIT:      22665  MISS:          2
BTB BRANCH_INDIRECT	ACCESS:          0  HIT:          0  MISS:          0
BTB BRANCH_CONDITIONAL	ACCESS:    4760026  HIT:    4760025  MISS:          1
BTB BRANCH_DIRECT_CALL	ACCESS:          0  HIT:          0  MISS:          0
BTB BRANCH_INDIRECT_CALL	ACCESS:          0  HIT:          0  MISS:          0
BTB BRANCH_RETURN	ACCESS:          0  HIT:          0  MISS:          0
BTB BRANCH_OTHER ACCESS:          0  HIT:          0  MISS:          0

L2C TOTAL     ACCESS:    7200137  HIT:    1853861  MISS:    5346276  HIT %:    25.7476  MISS %:    74.2524   MPKI: 26.7314
L2C LOAD      ACCESS:     222864  HIT:         70  MISS:     222794  HIT %:  0.0314093  MISS %:    99.9686   MPKI: 1.11397
L2C DATA LOAD MPKI: 1.11397
L2C INSTRUCTION LOAD MPKI: 0
L2C PREFETCH  ACCESS:    5078236  HIT:       2205  MISS:    5076031  HIT %:  0.0434206  MISS %:    99.9566   MPKI: 25.3802
L2C DATA PREFETCH MPKI: 25.3802
L2C INSTRUCTION PREFETCH MPKI: 0
L2C WRITEBACK ACCESS:    1836035  HIT:    1797230  MISS:      38805  HIT %:    97.8865  MISS %:    2.11352   MPKI: 0.194025
L2C LOAD TRANSLATION ACCESS:      63002  HIT:      54356  MISS:       8646  HIT %:    86.2766  MISS %:    13.7234   MPKI: 0.04323
L2C PREFETCH  REQUESTED:          0  ISSUED:          0  USEFUL:         19  USELESS:    5082012
L2C USEFUL LOAD PREFETCHES:         19 PREFETCH ISSUED TO LOWER LEVEL:    5081811  ACCURACY: 0.000373882
L2C TIMELY PREFETCHES:         19 LATE PREFETCHES: 0 DROPPED PREFETCHES: 0
L2C PREFETCHES SAME FILL-ORIGIN LEVEL: 0 DIFFERENT FILL-ORIGIN LEVEL: 0
L2C AVERAGE MISS LATENCY: 1066.47 cycles
L2C RQ	ACCESS:     286186	FORWARD:          0	MERGED:          0	TO_CACHE:     286186
L2C WQ	ACCESS:    1838162	FORWARD:          0	MERGED:          0	TO_CACHE:    1838162
L2C PQ	ACCESS:    5084020	FORWARD:          0	MERGED:          0	TO_CACHE:    5084020

L2C Instructions Evicting Data 0
L2C Translations Evicting Data 8648
L2C Data Evicting Data 5296250
L2C Instructions Evicting Instructions 0
L2C Translations Evicting Instructions 0
L2C Data Evicting Instructions 0
L2C Instructions Evicting Translations 0
L2C Translations Evicting Translations 7
L2C Data Evicting Translations 8587
L2C Dense regions hint from L2: 0
PSCL5 TOTAL     ACCESS:      63002  HIT:      63002  MISS:          0  HIT %:        100  MISS %:          0   MPKI: 0
PSCL5 LOAD TRANSLATION ACCESS:      63002  HIT:      63002  MISS:          0  HIT %:        100  MISS %:          0   MPKI: 0
PSCL5 PREFETCH  REQUESTED:          0  ISSUED:          0  USEFUL:          0  USELESS:          0
PSCL5 USEFUL LOAD PREFETCHES:          0 PREFETCH ISSUED TO LOWER LEVEL:          0  ACCURACY: -nan
PSCL5 TIMELY PREFETCHES:          0 LATE PREFETCHES: 0 DROPPED PREFETCHES: 0
PSCL5 PREFETCHES SAME FILL-ORIGIN LEVEL: 0 DIFFERENT FILL-ORIGIN LEVEL: 0

PSCL4 TOTAL     ACCESS:      63002  HIT:      63002  MISS:          0  HIT %:        100  MISS %:          0   MPKI: 0
PSCL4 LOAD TRANSLATION ACCESS:      63002  HIT:      63002  MISS:          0  HIT %:        100  MISS %:          0   MPKI: 0
PSCL4 PREFETCH  REQUESTED:          0  ISSUED:          0  USEFUL:          0  USELESS:          0
PSCL4 USEFUL LOAD PREFETCHES:          0 PREFETCH ISSUED TO LOWER LEVEL:          0  ACCURACY: -nan
PSCL4 TIMELY PREFETCHES:          0 LATE PREFETCHES: 0 DROPPED PREFETCHES: 0
PSCL4 PREFETCHES SAME FILL-ORIGIN LEVEL: 0 DIFFERENT FILL-ORIGIN LEVEL: 0

PSCL3 TOTAL     ACCESS:      63002  HIT:      63002  MISS:          0  HIT %:        100  MISS %:          0   MPKI: 0
PSCL3 LOAD TRANSLATION ACCESS:      63002  HIT:      63002  MISS:          0  HIT %:        100  MISS %:          0   MPKI: 0
PSCL3 PREFETCH  REQUESTED:          0  ISSUED:          0  USEFUL:          0  USELESS:          0
PSCL3 USEFUL LOAD PREFETCHES:          0 PREFETCH ISSUED TO LOWER LEVEL:          0  ACCURACY: -nan
PSCL3 TIMELY PREFETCHES:          0 LATE PREFETCHES: 0 DROPPED PREFETCHES: 0
PSCL3 PREFETCHES SAME FILL-ORIGIN LEVEL: 0 DIFFERENT FILL-ORIGIN LEVEL: 0

PSCL2 TOTAL     ACCESS:      63002  HIT:      62864  MISS:        138  HIT %:     99.781  MISS %:   0.219041   MPKI: 0.00069
PSCL2 LOAD TRANSLATION ACCESS:      63002  HIT:      62864  MISS:        138  HIT %:     99.781  MISS %:   0.219041   MPKI: 0.00069
PSCL2 PREFETCH  REQUESTED:          0  ISSUED:          0  USEFUL:          0  USELESS:          0
PSCL2 USEFUL LOAD PREFETCHES:          0 PREFETCH ISSUED TO LOWER LEVEL:          0  ACCURACY: -nan
PSCL2 TIMELY PREFETCHES:          0 LATE PREFETCHES: 0 DROPPED PREFETCHES: 0
PSCL2 PREFETCHES SAME FILL-ORIGIN LEVEL: 0 DIFFERENT FILL-ORIGIN LEVEL: 0

LLC TOTAL     ACCESS:    7143851  HIT:    1771437  MISS:    5372414  HIT %:    24.7967  MISS %:    75.2033   MPKI: 26.8621
LLC LOAD      ACCESS:     222794  HIT:         44  MISS:     222750  HIT %:  0.0197492  MISS %:    99.9803   MPKI: 1.11375
LLC PREFETCH  ACCESS:    5076031  HIT:        299  MISS:    5075732  HIT %: 0.00589043  MISS %:    99.9941   MPKI: 25.3787
LLC WRITEBACK ACCESS:    1836380  HIT:    1771027  MISS:      65353  HIT %:    96.4412  MISS %:     3.5588   MPKI: 0.326765
LLC LOAD TRANSLATION ACCESS:       8646  HIT:         67  MISS:       8579  HIT %:   0.774925  MISS %:    99.2251   MPKI: 0.042895
LLC PREFETCH  REQUESTED:          0  ISSUED:          0  USEFUL:         18  USELESS:   20339676
LLC USEFUL LOAD PREFETCHES:         18 PREFETCH ISSUED TO LOWER LEVEL:   22626008  ACCURACY: 7.95545e-05
LLC TIMELY PREFETCHES:         18 LATE PREFETCHES: 0 DROPPED PREFETCHES: 0
LLC PREFETCHES SAME FILL-ORIGIN LEVEL: 0 DIFFERENT FILL-ORIGIN LEVEL: 0
LLC AVERAGE MISS LATENCY: 4128.26 cycles
LLC RQ	ACCESS:     924982	FORWARD:          0	MERGED:          0	TO_CACHE:     924982
LLC WQ	ACCESS:    7355955	FORWARD:          0	MERGED:          0	TO_CACHE:    7355955
LLC PQ	ACCESS:   20338121	FORWARD:          0	MERGED:          0	TO_CACHE:   20338121

LLC Dense regions hint to LLC: 0

RAW hits: 151627
Loads Generated: 62203076
Loads sent to L1D: 62051444
Stores Generated: 14373332
Stores sent to L1D: 14373329
Major fault: 0 Minor fault: 79219
Allocated PAGES: 316989

CPU 1 cumulative IPC: 0.418694 instructions: 200000003 cycles: 477676168
ITLB TOTAL     ACCESS:   29432652  HIT:   29432652  MISS:          0  HIT %:        100  MISS %:          0   MPKI: 0
ITLB LOAD TRANSLATION ACCESS:   29432652  HIT:   29432652  MISS:          0  HIT %:        100  MISS %:          0   MPKI: 0
ITLB PREFETCH  REQUESTED:          0  ISSUED:          0  USEFUL:          0  USELESS:          0
ITLB USEFUL LOAD PREFETCHES:          0 PREFETCH ISSUED TO LOWER LEVEL:          0  ACCURACY: -nan
ITLB TIMELY PREFETCHES:          0 LATE PREFETCHES: 0 DROPPED PREFETCHES: 0
ITLB PREFETCHES SAME FILL-ORIGIN LEVEL: 0 DIFFERENT FILL-ORIGIN LEVEL: 0
ITLB AVERAGE MISS LATENCY: -nan cycles
ITLB RQ	ACCESS:   43588440	FORWARD:          0	MERGED:   14117497	TO_CACHE:   29470943

DTLB TOTAL     ACCESS:   61204816  HIT:   61120774  MISS:      84042  HIT %:    99.8627  MISS %:   0.137313   MPKI: 0.42021
DTLB LOAD TRANSLATION ACCESS:   61204816  HIT:   61120774  MISS:      84042  HIT %:    99.8627  MISS %:   0.137313   MPKI: 0.42021
DTLB PREFETCH  REQUESTED:          0  ISSUED:          0  USEFUL:          0  USELESS:          0
DTLB USEFUL LOAD PREFETCHES:          0 PREFETCH ISSUED TO LOWER LEVEL:          0  ACCURACY: -nan
DTLB TIMELY PREFETCHES:          0 LATE PREFETCHES: 0 DROPPED PREFETCHES: 0
DTLB PREFETCHES SAME FILL-ORIGIN LEVEL: 0 DIFFERENT FILL-ORIGIN LEVEL: 0
DTLB AVERAGE MISS LATENCY: 460.079 cycles
DTLB RQ	ACCESS:   63524440	FORWARD:          0	MERGED:    2239143	TO_CACHE:   61285297

STLB TOTAL     ACCESS:    4444200  HIT:    4381192  MISS:      63008  HIT %:    98.5822  MISS %:    1.41776   MPKI: 0.31504
STLB LOAD TRANSLATION ACCESS:      84042  HIT:      21034  MISS:      63008  HIT %:     25.028  MISS %:     74.972   MPKI: 0.31504
STLB TRANSLATION FROM L1D PREFETCHER ACCESS:    4360158  HIT:    4360158  MISS:          0  HIT %:        100  MISS %:          0   MPKI: 0
STLB PREFETCH  REQUESTED:          0  ISSUED:          0  USEFUL:          0  USELESS:          0
STLB USEFUL LOAD PREFETCHES:          0 PREFETCH ISSUED TO LOWER LEVEL:          0  ACCURACY: -nan
STLB TIMELY PREFETCHES:          0 LATE PREFETCHES: 0 DROPPED PREFETCHES: 0
STLB PREFETCHES SAME FILL-ORIGIN LEVEL: 0 DIFFERENT FILL-ORIGIN LEVEL: 0
STLB AVERAGE MISS LATENCY: 597.803 cycles
STLB RQ	ACCESS:   21741852	FORWARD:          0	MERGED:   17291932	TO_CACHE:    4449920

STLB Hit, L1D data hit: 0
STLB Hit, L2C data hit: 0
STLB Hit, LLC data hit: 0
STLB Hit, LLC data miss: 0
STLB STLB hints to L2: 0
L1D TOTAL     ACCESS:   81011103  HIT:   75709792  MISS:    5301311  HIT %:    93.4561  MISS %:    6.54393   MPKI: 26.5066
L1D LOAD      ACCESS:   48215855  HIT:   47586271  MISS:     629584  HIT %:    98.6942  MISS %:    1.30576   MPKI: 3.14792
L1D RFO       ACCESS:   14373335  HIT:   14373335  MISS:          0  HIT %:        100  MISS %:          0   MPKI: 0
L1D PREFETCH  ACCESS:   18421913  HIT:   13750186  MISS:    4671727  HIT %:    74.6404  MISS %:    25.3596   MPKI: 23.3586
L1D PREFETCH  REQUESTED:   61382730  ISSUED:   43513011  USEFUL:    4278127  USELESS:     399625
L1D USEFUL LOAD PREFETCHES:    4278127 PREFETCH ISSUED TO LOWER LEVEL:    5085480  ACCURACY: 84.1244
L1D TIMELY PREFETCHES:    4278127 LATE PREFETCHES: 407728 DROPPED PREFETCHES: 0
L1D PREFETCHES SAME FILL-ORIGIN LEVEL: 5085480 DIFFERENT FILL-ORIGIN LEVEL: 0
L1D AVERAGE MISS LATENCY: 958.726 cycles
L1D RQ	ACCESS:   62131903	FORWARD:          0	MERGED:   12999270	TO_CACHE:   49132468
L1D WQ	ACCESS:   14391972	FORWARD:        165	MERGED:          0	TO_CACHE:   14391972
L1D PQ	ACCESS:   21855305	FORWARD:          0	MERGED:     197599	TO_CACHE:   21657706

L1D UNIQUE REGIONS ACCESSED: 0
L1D REGIONS CONFLICTS: 0
L1D Cross Page Prefetch Requests: 0
L1D Same Page Prefetch Requests: 30864395
L1D ROI Sum of L1D PQ occupancy: 2484716316
L1D PREFETCHES PUSHED FROM L2C: 0
L1I TOTAL     ACCESS:   43531878  HIT:   43531878  MISS:          0  HIT %:        100  MISS %:          0   MPKI: 0
L1I LOAD      ACCESS:   43531878  HIT:   43531878  MISS:          0  HIT %:        100  MISS %:          0   MPKI: 0
L1I PREFETCH  REQUESTED:          0  ISSUED:          0  USEFUL:          0  USELESS:          0
L1I USEFUL LOAD PREFETCHES:          0 PREFETCH ISSUED TO LOWER LEVEL:          0  ACCURACY: -nan
L1I TIMELY PREFETCHES:          0 LATE PREFETCHES: 0 DROPPED PREFETCHES: 0
L1I PREFETCHES SAME FILL-ORIGIN LEVEL: 0 DIFFERENT FILL-ORIGIN LEVEL: 0
L1I AVERAGE MISS LATENCY: -nan cycles
L1I RQ	ACCESS:   48869477	FORWARD:          0	MERGED:    5281037	TO_CACHE:   43588440

BTB TOTAL     ACCESS:    4782699  HIT:    4782696  MISS:          3  HIT %:    99.9999  MISS %: 6.27261e-05   MPKI: 1.5e-05
BTB BRANCH_DIRECT_JUMP	ACCESS:      22668  HIT:      22666  MISS:          2
BTB BRANCH_INDIRECT	ACCESS:          0  HIT:          0  MISS:          0
BTB BRANCH_CONDITIONAL	ACCESS:    4760031  HIT:    4760030  MISS:          1
BTB BRANCH_DIRECT_CALL	ACCESS:          0  HIT:          0  MISS:          0
BTB BRANCH_INDIRECT_CALL	ACCESS:          0  HIT:          0  MISS:          0
BTB BRANCH_RETURN	ACCESS:          0  HIT:          0  MISS:          0
BTB BRANCH_OTHER ACCESS:          0  HIT:          0  MISS:          0

L2C TOTAL     ACCESS:    7200364  HIT:    1854501  MISS:    5345863  HIT %:    25.7557  MISS %:    74.2443   MPKI: 26.7293
L2C LOAD      ACCESS:     222432  HIT:         73  MISS:     222359  HIT %:   0.032819  MISS %:    99.9672   MPKI: 1.11179
L2C DATA LOAD MPKI: 1.11179
L2C INSTRUCTION LOAD MPKI: 0
L2C PREFETCH  ACCESS:    5078879  HIT:       2097  MISS:    5076782  HIT %:  0.0412886  MISS %:    99.9587   MPKI: 25.3839
L2C DATA PREFETCH MPKI: 25.3839
L2C INSTRUCTION PREFETCH MPKI: 0
L2C WRITEBACK ACCESS:    1836045  HIT:    1797988  MISS:      38057  HIT %:    97.9272  MISS %:    2.07277   MPKI: 0.190285
L2C LOAD TRANSLATION ACCESS:      63008  HIT:      54343  MISS:       8665  HIT %:    86.2478  MISS %:    13.7522   MPKI: 0.043325
L2C PREFETCH  REQUESTED:          0  ISSUED:          0  USEFUL:         24  USELESS:    5083591
L2C USEFUL LOAD PREFETCHES:         24 PREFETCH ISSUED TO LOWER LEVEL:    5083380  ACCURACY: 0.000472127
L2C TIMELY PREFETCHES:         24 LATE PREFETCHES: 0 DROPPED PREFETCHES: 0
L2C PREFETCHES SAME FILL-ORIGIN LEVEL: 0 DIFFERENT FILL-ORIGIN LEVEL: 0
L2C AVERAGE MISS LATENCY: 1067.42 cycles
L2C RQ	ACCESS:     285799	FORWARD:          0	MERGED:          0	TO_CACHE:     285799
L2C WQ	ACCESS:    1838464	FORWARD:          0	MERGED:          0	TO_CACHE:    1838464
L2C PQ	ACCESS:    5085480	FORWARD:          0	MERGED:          0	TO_CACHE:    5085480

L2C Instructions Evicting Data 0
L2C Translations Evicting Data 8658
L2C Data Evicting Data 5297440
L2C Instructions Evicting Instructions 0
L2C Translations Evicting Instructions 0
L2C Data Evicting Instructions 0
L2C Instructions Evicting Translations 0
L2C Translations Evicting Translations 17
L2C Data Evicting Translations 8567
L2C Dense regions hint from L2: 0
PSCL5 TOTAL     ACCESS:      63008  HIT:      63008  MISS:          0  HIT %:        100  MISS %:          0   MPKI: 0
PSCL5 LOAD TRANSLATION ACCESS:      63008  HIT:      63008  MISS:          0  HIT %:        100  MISS %:          0   MPKI: 0
PSCL5 PREFETCH  REQUESTED:          0  ISSUED:          0  USEFUL:          0  USELESS:          0
PSCL5 USEFUL LOAD PREFETCHES:          0 PREFETCH ISSUED TO LOWER LEVEL:          0  ACCURACY: -nan
PSCL5 TIMELY PREFETCHES:          0 LATE PREFETCHES: 0 DROPPED PREFETCHES: 0
PSCL5 PREFETCHES SAME FILL-ORIGIN LEVEL: 0 DIFFERENT FILL-ORIGIN LEVEL: 0

PSCL4 TOTAL     ACCESS:      63008  HIT:      63008  MISS:          0  HIT %:        100  MISS %:          0   MPKI: 0
PSCL4 LOAD TRANSLATION ACCESS:      63008  HIT:      63008  MISS:          0  HIT %:        100  MISS %:          0   MPKI: 0
PSCL4 PREFETCH  REQUESTED:          0  ISSUED:          0  USEFUL:          0  USELESS:          0
PSCL4 USEFUL LOAD PREFETCHES:          0 PREFETCH ISSUED TO LOWER LEVEL:          0  ACCURACY: -nan
PSCL4 TIMELY PREFETCHES:          0 LATE PREFETCHES: 0 DROPPED PREFETCHES: 0
PSCL4 PREFETCHES SAME FILL-ORIGIN LEVEL: 0 DIFFERENT FILL-ORIGIN LEVEL: 0

PSCL3 TOTAL     ACCESS:      63008  HIT:      63008  MISS:          0  HIT %:        100  MISS %:          0   MPKI: 0
PSCL3 LOAD TRANSLATION ACCESS:      63008  HIT:      63008  MISS:          0  HIT %:        100  MISS %:          0   MPKI: 0
PSCL3 PREFETCH  REQUESTED:          0  ISSUED:          0  USEFUL:          0  USELESS:          0
PSCL3 USEFUL LOAD PREFETCHES:          0 PREFETCH ISSUED TO LOWER LEVEL:          0  ACCURACY: -nan
PSCL3 TIMELY PREFETCHES:          0 LATE PREFETCHES: 0 DROPPED PREFETCHES: 0
PSCL3 PREFETCHES SAME FILL-ORIGIN LEVEL: 0 DIFFERENT FILL-ORIGIN LEVEL: 0

PSCL2 TOTAL     ACCESS:      63008  HIT:      62870  MISS:        138  HIT %:     99.781  MISS %:    0.21902   MPKI: 0.00069
PSCL2 LOAD TRANSLATION ACCESS:      63008  HIT:      62870  MISS:        138  HIT %:     99.781  MISS %:    0.21902   MPKI: 0.00069
PSCL2 PREFETCH  REQUESTED:          0  ISSUED:          0  USEFUL:          0  USELESS:          0
PSCL2 USEFUL LOAD PREFETCHES:          0 PREFETCH ISSUED TO LOWER LEVEL:          0  ACCURACY: -nan
PSCL2 TIMELY PREFETCHES:          0 LATE PREFETCHES: 0 DROPPED PREFETCHES: 0
PSCL2 PREFETCHES SAME FILL-ORIGIN LEVEL: 0 DIFFERENT FILL-ORIGIN LEVEL: 0

LLC TOTAL     ACCESS:    7143850  HIT:    1771009  MISS:    5372841  HIT %:    24.7907  MISS %:    75.2093   MPKI: 26.8642
LLC LOAD      ACCESS:     222359  HIT:         45  MISS:     222314  HIT %:  0.0202375  MISS %:    99.9798   MPKI: 1.11157
LLC PREFETCH  ACCESS:    5076782  HIT:        363  MISS:    5076419  HIT %:  0.0071502  MISS %:    99.9928   MPKI: 25.3821
LLC WRITEBACK ACCESS:    1836044  HIT:    1770515  MISS:      65529  HIT %:     96.431  MISS %:    3.56903   MPKI: 0.327645
LLC LOAD TRANSLATION ACCESS:       8665  HIT:         86  MISS:       8579  HIT %:   0.992499  MISS %:    99.0075   MPKI: 0.042895
LLC PREFETCH  REQUESTED:          0  ISSUED:          0  USEFUL:         18  USELESS:   20339676
LLC USEFUL LOAD PREFETCHES:         18 PREFETCH ISSUED TO LOWER LEVEL:   22626008  ACCURACY: 7.95545e-05
LLC TIMELY PREFETCHES:         18 LATE PREFETCHES: 0 DROPPED PREFETCHES: 0
LLC PREFETCHES SAME FILL-ORIGIN LEVEL: 0 DIFFERENT FILL-ORIGIN LEVEL: 0
LLC AVERAGE MISS LATENCY: 4127.93 cycles
LLC RQ	ACCESS:     924982	FORWARD:          0	MERGED:          0	TO_CACHE:     924982
LLC WQ	ACCESS:    7355955	FORWARD:          0	MERGED:          0	TO_CACHE:    7355955
LLC PQ	ACCESS:   20338121	FORWARD:          0	MERGED:          0	TO_CACHE:   20338121

LLC Dense regions hint to LLC: 0

RAW hits: 151634
Loads Generated: 62203088
Loads sent to L1D: 62051453
Stores Generated: 14373332
Stores sent to L1D: 14373334
Major fault: 0 Minor fault: 79231
Allocated PAGES: 316989

CPU 2 cumulative IPC: 0.419725 instructions: 200000002 cycles: 476503014
ITLB TOTAL     ACCESS:   29431972  HIT:   29431972  MISS:          0  HIT %:        100  MISS %:          0   MPKI: 0
ITLB LOAD TRANSLATION ACCESS:   29431972  HIT:   29431972  MISS:          0  HIT %:        100  MISS %:          0   MPKI: 0
ITLB PREFETCH  REQUESTED:          0  ISSUED:          0  USEFUL:          0  USELESS:          0
ITLB USEFUL LOAD PREFETCHES:          0 PREFETCH ISSUED TO LOWER LEVEL:          0  ACCURACY: -nan
ITLB TIMELY PREFETCHES:          0 LATE PREFETCHES: 0 DROPPED PREFETCHES: 0
ITLB PREFETCHES SAME FILL-ORIGIN LEVEL: 0 DIFFERENT FILL-ORIGIN LEVEL: 0
ITLB AVERAGE MISS LATENCY: -nan cycles
ITLB RQ	ACCESS:   43696569	FORWARD:          0	MERGED:   14152858	TO_CACHE:   29543711

DTLB TOTAL     ACCESS:   61223952  HIT:   61139916  MISS:      84036  HIT %:    99.8627  MISS %:    0.13726   MPKI: 0.42018
DTLB LOAD TRANSLATION ACCESS:   61223952  HIT:   61139916  MISS:      84036  HIT %:    99.8627  MISS %:    0.13726   MPKI: 0.42018
DTLB PREFETCH  REQUESTED:          0  ISSUED:          0  USEFUL:          0  USELESS:          0
DTLB USEFUL LOAD PREFETCHES:          0 PREFETCH ISSUED TO LOWER LEVEL:          0  ACCURACY: -nan
DTLB TIMELY PREFETCHES:          0 LATE PREFETCHES: 0 DROPPED PREFETCHES: 0
DTLB PREFETCHES SAME FILL-ORIGIN LEVEL: 0 DIFFERENT FILL-ORIGIN LEVEL: 0
DTLB AVERAGE MISS LATENCY: 460.883 cycles
DTLB RQ	ACCESS:   63702795	FORWARD:          0	MERGED:    2245368	TO_CACHE:   61457427

STLB TOTAL     ACCESS:    4441407  HIT:    4378405  MISS:      63002  HIT %:    98.5815  MISS %:    1.41851   MPKI: 0.31501
STLB LOAD TRANSLATION ACCESS:      84036  HIT:      21034  MISS:      63002  HIT %:    25.0297  MISS %:    74.9703   MPKI: 0.31501
STLB TRANSLATION FROM L1D PREFETCHER ACCESS:    4357371  HIT:    4357371  MISS:          0  HIT %:        100  MISS %:          0   MPKI: 0
STLB PREFETCH  REQUESTED:          0  ISSUED:          0  USEFUL:          0  USELESS:          0
STLB USEFUL LOAD PREFETCHES:          0 PREFETCH ISSUED TO LOWER LEVEL:          0  ACCURACY: -nan
STLB TIMELY PREFETCHES:          0 LATE PREFETCHES: 0 DROPPED PREFETCHES: 0
STLB PREFETCHES SAME FILL-ORIGIN LEVEL: 0 DIFFERENT FILL-ORIGIN LEVEL: 0
STLB AVERAGE MISS LATENCY: 598.911 cycles
STLB RQ	ACCESS:   21796847	FORWARD:          0	MERGED:   17338820	TO_CACHE:    4458027

STLB Hit, L1D data hit: 0
STLB Hit, L2C data hit: 0
STLB Hit, LLC data hit: 0
STLB Hit, LLC data miss: 0
STLB STLB hints to L2: 0
L1D TOTAL     ACCESS:   81025764  HIT:   75724805  MISS:    5300959  HIT %:    93.4577  MISS %:    6.54231   MPKI: 26.5048
L1D LOAD      ACCESS:   48236313  HIT:   47606456  MISS:     629857  HIT %:    98.6942  MISS %:    1.30577   MPKI: 3.14928
L1D RFO       ACCESS:   14373332  HIT:   14373332  MISS:          0  HIT %:        100  MISS %:          0   MPKI: 0
L1D PREFETCH  ACCESS:   18416119  HIT:   13745017  MISS:    4671102  HIT %:    74.6358  MISS %:    25.3642   MPKI: 23.3555
L1D PREFETCH  REQUESTED:   61585388  ISSUED:   43624065  USEFUL:    4288574  USELESS:     400296
L1D USEFUL LOAD PREFETCHES:    4288574 PREFETCH ISSUED TO LOWER LEVEL:    5098673  ACCURACY: 84.1116
L1D TIMELY PREFETCHES:    4288574 LATE PREFETCHES: 409820 DROPPED PREFETCHES: 0
L1D PREFETCHES SAME FILL-ORIGIN LEVEL: 5098673 DIFFERENT FILL-ORIGIN LEVEL: 0
L1D AVERAGE MISS LATENCY: 959.702 cycles
L1D RQ	ACCESS:   62286886	FORWARD:          0	MERGED:   13011801	TO_CACHE:   49274920
L1D WQ	ACCESS:   14427875	FORWARD:        165	MERGED:          0	TO_CACHE:   14427875
L1D PQ	ACCESS:   21911578	FORWARD:          0	MERGED:     199091	TO_CACHE:   21712487

L1D UNIQUE REGIONS ACCESSED: 0
L1D REGIONS CONFLICTS: 0
L1D Cross Page Prefetch Requests: 0
L1D Same Page Prefetch Requests: 30227855
L1D ROI Sum of L1D PQ occupancy: 2491669526
L1D PREFETCHES PUSHED FROM L2C: 0
L1I TOTAL     ACCESS:   43531345  HIT:   43531345  MISS:          0  HIT %:        100  MISS %:          0   MPKI: 0
L1I LOAD      ACCESS:   43531345  HIT:   43531345  MISS:          0  HIT %:        100  MISS %:          0   MPKI: 0
L1I PREFETCH  REQUESTED:          0  ISSUED:          0  USEFUL:          0  USELESS:          0
L1I USEFUL LOAD PREFETCHES:          0 PREFETCH ISSUED TO LOWER LEVEL:          0  ACCURACY: -nan
L1I TIMELY PREFETCHES:          0 LATE PREFETCHES: 0 DROPPED PREFETCHES: 0
L1I PREFETCHES SAME FILL-ORIGIN LEVEL: 0 DIFFERENT FILL-ORIGIN LEVEL: 0
L1I AVERAGE MISS LATENCY: -nan cycles
L1I RQ	ACCESS:   48991433	FORWARD:          0	MERGED:    5294864	TO_CACHE:   43696569

BTB TOTAL     ACCESS:    4782697  HIT:    4782694  MISS:          3  HIT %:    99.9999  MISS %: 6.27261e-05   MPKI: 1.5e-05
BTB BRANCH_DIRECT_JUMP	ACCESS:      22667  HIT:      22665  MISS:          2
BTB BRANCH_INDIRECT	ACCESS:          0  HIT:          0  MISS:          0
BTB BRANCH_CONDITIONAL	ACCESS:    4760030  HIT:    4760029  MISS:          1
BTB BRANCH_DIRECT_CALL	ACCESS:          0  HIT:          0  MISS:          0
BTB BRANCH_INDIRECT_CALL	ACCESS:          0  HIT:          0  MISS:          0
BTB BRANCH_RETURN	ACCESS:          0  HIT:          0  MISS:          0
BTB BRANCH_OTHER ACCESS:          0  HIT:          0  MISS:          0

L2C TOTAL     ACCESS:    7199996  HIT:    1853199  MISS:    5346797  HIT %:    25.7389  MISS %:    74.2611   MPKI: 26.734
L2C LOAD      ACCESS:     221613  HIT:         80  MISS:     221533  HIT %:   0.036099  MISS %:    99.9639   MPKI: 1.10766
L2C DATA LOAD MPKI: 1.10766
L2C INSTRUCTION LOAD MPKI: 0
L2C PREFETCH  ACCESS:    5079346  HIT:       2225  MISS:    5077121  HIT %:  0.0438049  MISS %:    99.9562   MPKI: 25.3856
L2C DATA PREFETCH MPKI: 25.3856
L2C INSTRUCTION PREFETCH MPKI: 0
L2C WRITEBACK ACCESS:    1836035  HIT:    1796537  MISS:      39498  HIT %:    97.8487  MISS %:    2.15127   MPKI: 0.19749
L2C LOAD TRANSLATION ACCESS:      63002  HIT:      54357  MISS:       8645  HIT %:    86.2782  MISS %:    13.7218   MPKI: 0.043225
L2C PREFETCH  REQUESTED:          0  ISSUED:          0  USEFUL:         32  USELESS:    5096635
L2C USEFUL LOAD PREFETCHES:         32 PREFETCH ISSUED TO LOWER LEVEL:    5096437  ACCURACY: 0.00062789
L2C TIMELY PREFETCHES:         32 LATE PREFETCHES: 0 DROPPED PREFETCHES: 0
L2C PREFETCHES SAME FILL-ORIGIN LEVEL: 0 DIFFERENT FILL-ORIGIN LEVEL: 0
L2C AVERAGE MISS LATENCY: 1068.6 cycles
L2C RQ	ACCESS:     285702	FORWARD:          0	MERGED:          0	TO_CACHE:     285702
L2C WQ	ACCESS:    1843039	FORWARD:          0	MERGED:          0	TO_CACHE:    1843039
L2C PQ	ACCESS:    5098673	FORWARD:          0	MERGED:          0	TO_CACHE:    5098673

L2C Instructions Evicting Data 0
L2C Translations Evicting Data 8657
L2C Data Evicting Data 5310220
L2C Instructions Evicting Instructions 0
L2C Translations Evicting Instructions 0
L2C Data Evicting Instructions 0
L2C Instructions Evicting Translations 0
L2C Translations Evicting Translations 25
L2C Data Evicting Translations 8578
L2C Dense regions hint from L2: 0
PSCL5 TOTAL     ACCESS:      63002  HIT:      63002  MISS:          0  HIT %:        100  MISS %:          0   MPKI: 0
PSCL5 LOAD TRANSLATION ACCESS:      63002  HIT:      63002  MISS:          0  HIT %:        100  MISS %:          0   MPKI: 0
PSCL5 PREFETCH  REQUESTED:          0  ISSUED:          0  USEFUL:          0  USELESS:          0
PSCL5 USEFUL LOAD PREFETCHES:          0 PREFETCH ISSUED TO LOWER LEVEL:          0  ACCURACY: -nan
PSCL5 TIMELY PREFETCHES:          0 LATE PREFETCHES: 0 DROPPED PREFETCHES: 0
PSCL5 PREFETCHES SAME FILL-ORIGIN LEVEL: 0 DIFFERENT FILL-ORIGIN LEVEL: 0

PSCL4 TOTAL     ACCESS:      63002  HIT:      63002  MISS:          0  HIT %:        100  MISS %:          0   MPKI: 0
PSCL4 LOAD TRANSLATION ACCESS:      63002  HIT:      63002  MISS:          0  HIT %:        100  MISS %:          0   MPKI: 0
PSCL4 PREFETCH  REQUESTED:          0  ISSUED:          0  USEFUL:          0  USELESS:          0
PSCL4 USEFUL LOAD PREFETCHES:          0 PREFETCH ISSUED TO LOWER LEVEL:          0  ACCURACY: -nan
PSCL4 TIMELY PREFETCHES:          0 LATE PREFETCHES: 0 DROPPED PREFETCHES: 0
PSCL4 PREFETCHES SAME FILL-ORIGIN LEVEL: 0 DIFFERENT FILL-ORIGIN LEVEL: 0

PSCL3 TOTAL     ACCESS:      63002  HIT:      63002  MISS:          0  HIT %:        100  MISS %:          0   MPKI: 0
PSCL3 LOAD TRANSLATION ACCESS:      63002  HIT:      63002  MISS:          0  HIT %:        100  MISS %:          0   MPKI: 0
PSCL3 PREFETCH  REQUESTED:          0  ISSUED:          0  USEFUL:          0  USELESS:          0
PSCL3 USEFUL LOAD PREFETCHES:          0 PREFETCH ISSUED TO LOWER LEVEL:          0  ACCURACY: -nan
PSCL3 TIMELY PREFETCHES:          0 LATE PREFETCHES: 0 DROPPED PREFETCHES: 0
[...]

LLC TOTAL     ACCESS:    7143327  HIT:    1771812  MISS:    5371515  HIT %:    24.8037  MISS %:    75.1963   MPKI: 26.8576
LLC LOAD      ACCESS:     221533  HIT:         34  MISS:     221499  HIT %:  0.0153476  MISS %:    99.9847   MPKI: 1.10749
LLC PREFETCH  ACCESS:    5077121  HIT:        314  MISS:    5076807  HIT %: 0.00618461  MISS %:    99.9938   MPKI: 25.384
LLC WRITEBACK ACCESS:    1836028  HIT:    1771398  MISS:      64630  HIT %:    96.4799  MISS %:     3.5201   MPKI: 0.32315
LLC LOAD TRANSLATION ACCESS:       8645  HIT:         66  MISS:       8579  HIT %:   0.763447  MISS %:    99.2366   MPKI: 0.042895
LLC PREFETCH  REQUESTED:          0  ISSUED:          0  USEFUL:         18  USELESS:   20339676
LLC USEFUL LOAD PREFETCHES:         18 PREFETCH ISSUED TO LOWER LEVEL:   22626008  ACCURACY: 7.95545e-05
LLC TIMELY PREFETCHES:         18 LATE PREFETCHES: 0 DROPPED PREFETCHES: 0
LLC PREFETCHES SAME FILL-ORIGIN LEVEL: 0 DIFFERENT FILL-ORIGIN LEVEL: 0
LLC AVERAGE MISS LATENCY: 4128.95 cycles
LLC RQ	ACCESS:     924982	FORWARD:          0	MERGED:          0	TO_CACHE:     924982
LLC WQ	ACCESS:    7355955	FORWARD:          0	MERGED:          0	TO_CACHE:    7355955
LLC PQ	ACCESS:   20338121	FORWARD:          0	MERGED:          0	TO_CACHE:   20338121

LLC Dense regions hint to LLC: 0

RAW hits: 151627
Loads Generated: 62203071
Loads sent to L1D: 62051438
Stores Generated: 14373329
Stores sent to L1D: 14373331
Major fault: 0 Minor fault: 79392
Allocated PAGES: 316989

CPU 3 cumulative IPC: 0.418143 instructions: 200000002 cycles: 478305020
ITLB TOTAL     ACCESS:   29434144  HIT:   29434144  MISS:          0  HIT %:        100  MISS %:          0   MPKI: 0
ITLB LOAD TRANSLATION ACCESS:   29434144  HIT:   29434144  MISS:          0  HIT %:        100  MISS %:          0   MPKI: 0
ITLB PREFETCH  REQUESTED:          0  ISSUED:          0  USEFUL:          0  USELESS:          0
ITLB USEFUL LOAD PREFETCHES:          0 PREFETCH ISSUED TO LOWER LEVEL:          0  ACCURACY: -nan
ITLB TIMELY PREFETCHES:          0 LATE PREFETCHES: 0 DROPPED PREFETCHES: 0
ITLB PREFETCHES SAME FILL-ORIGIN LEVEL: 0 DIFFERENT FILL-ORIGIN LEVEL: 0
ITLB AVERAGE MISS LATENCY: -nan cycles
ITLB RQ	ACCESS:   43533196	FORWARD:          0	MERGED:   14099053	TO_CACHE:   29434143

DTLB TOTAL     ACCESS:   61209452  HIT:   61125418  MISS:      84034  HIT %:    99.8627  MISS %:   0.137289   MPKI: 0.42017
DTLB LOAD TRANSLATION ACCESS:   61209452  HIT:   61125418  MISS:      84034  HIT %:    99.8627  MISS %:   0.137289   MPKI: 0.42017
DTLB PREFETCH  REQUESTED:          0  ISSUED:          0  USEFUL:          0  USELESS:          0
DTLB USEFUL LOAD PREFETCHES:          0 PREFETCH ISSUED TO LOWER LEVEL:          0  ACCURACY: -nan
DTLB TIMELY PREFETCHES:          0 LATE PREFETCHES: 0 DROPPED PREFETCHES: 0
DTLB PREFETCHES SAME FILL-ORIGIN LEVEL: 0 DIFFERENT FILL-ORIGIN LEVEL: 0
DTLB AVERAGE MISS LATENCY: 459.855 cycles
DTLB RQ	ACCESS:   63447291	FORWARD:          0	MERGED:    2236802	TO_CACHE:   61210489

STLB TOTAL     ACCESS:    4442300  HIT:    4379298  MISS:      63002  HIT %:    98.5818  MISS %:    1.41823   MPKI: 0.31501
STLB LOAD TRANSLATION ACCESS:      84034  HIT:      21032  MISS:      63002  HIT %:     25.028  MISS %:     74.972   MPKI: 0.31501
STLB TRANSLATION FROM L1D PREFETCHER ACCESS:    4358266  HIT:    4358266  MISS:          0  HIT %:        100  MISS %:          0   MPKI: 0
STLB PREFETCH  REQUESTED:          0  ISSUED:          0  USEFUL:          0  USELESS:          0
STLB USEFUL LOAD PREFETCHES:          0 PREFETCH ISSUED TO LOWER LEVEL:          0  ACCURACY: -nan
STLB TIMELY PREFETCHES:          0 LATE PREFETCHES: 0 DROPPED PREFETCHES: 0
STLB PREFETCHES SAME FILL-ORIGIN LEVEL: 0 DIFFERENT FILL-ORIGIN LEVEL: 0
STLB AVERAGE MISS LATENCY: 597.624 cycles
STLB RQ	ACCESS:   21685133	FORWARD:          0	MERGED:   17242833	TO_CACHE:    4442300

STLB Hit, L1D data hit: 0
STLB Hit, L2C data hit: 0
STLB Hit, LLC data hit: 0
STLB Hit, LLC data miss: 0
STLB STLB hints to L2: 0
L1D TOTAL     ACCESS:   80988489  HIT:   75687532  MISS:    5300957  HIT %:    93.4547  MISS %:    6.54532   MPKI: 26.5048
L1D LOAD      ACCESS:   48217887  HIT:   47586859  MISS:     631028  HIT %:    98.6913  MISS %:     1.3087   MPKI: 3.15514
L1D RFO       ACCESS:   14373332  HIT:   14373332  MISS:          0  HIT %:        100  MISS %:          0   MPKI: 0
L1D PREFETCH  ACCESS:   18397270  HIT:   13727341  MISS:    4669929  HIT %:    74.6162  MISS %:    25.3838   MPKI: 23.3496
L1D PREFETCH  REQUESTED:   61235797  ISSUED:   43398898  USEFUL:    4271192  USELESS:     398783
L1D USEFUL LOAD PREFETCHES:    4271192 PREFETCH ISSUED TO LOWER LEVEL:    5078650  ACCURACY: 84.1009
L1D TIMELY PREFETCHES:    4271192 LATE PREFETCHES: 408706 DROPPED PREFETCHES: 0
L1D PREFETCHES SAME FILL-ORIGIN LEVEL: 5078650 DIFFERENT FILL-ORIGIN LEVEL: 0
L1D AVERAGE MISS LATENCY: 958.139 cycles
L1D RQ	ACCESS:   62051442	FORWARD:          0	MERGED:   12977301	TO_CACHE:   49073961
L1D WQ	ACCESS:   14373330	FORWARD:        180	MERGED:          0	TO_CACHE:   14373330
L1D PQ	ACCESS:   21797799	FORWARD:          0	MERGED:     196700	TO_CACHE:   21601099

L1D UNIQUE REGIONS ACCESSED: 0
L1D REGIONS CONFLICTS: 0
L1D Cross Page Prefetch Requests: 0
L1D Same Page Prefetch Requests: 30600803
L1D ROI Sum of L1D PQ occupancy: 2481807552
L1D PREFETCHES PUSHED FROM L2C: 0
L1I TOTAL     ACCESS:   43533195  HIT:   43533195  MISS:          0  HIT %:        100  MISS %:          0   MPKI: 0
L1I LOAD      ACCESS:   43533195  HIT:   43533195  MISS:          0  HIT %:        100  MISS %:          0   MPKI: 0
L1I PREFETCH  REQUESTED:          0  ISSUED:          0  USEFUL:          0  USELESS:          0
L1I USEFUL LOAD PREFETCHES:          0 PREFETCH ISSUED TO LOWER LEVEL:          0  ACCURACY: -nan
L1I TIMELY PREFETCHES:          0 LATE PREFETCHES: 0 DROPPED PREFETCHES: 0
L1I PREFETCHES SAME FILL-ORIGIN LEVEL: 0 DIFFERENT FILL-ORIGIN LEVEL: 0
L1I AVERAGE MISS LATENCY: -nan cycles
L1I RQ	ACCESS:   48807082	FORWARD:          0	MERGED:    5273886	TO_CACHE:   43533196

BTB TOTAL     ACCESS:    4782694  HIT:    4782690  MISS:          4  HIT %:    99.9999  MISS %: 8.36349e-05   MPKI: 2e-05
BTB BRANCH_DIRECT_JUMP	ACCESS:      22667  HIT:      22665  MISS:          2
BTB BRANCH_INDIRECT	ACCESS:          0  HIT:          0  MISS:          0
BTB BRANCH_CONDITIONAL	ACCESS:    4760027  HIT:    4760025  MISS:          2
BTB BRANCH_DIRECT_CALL	ACCESS:          0  HIT:          0  MISS:          0
BTB BRANCH_INDIRECT_CALL	ACCESS:          0  HIT:          0  MISS:          0
BTB BRANCH_RETURN	ACCESS:          0  HIT:          0  MISS:          0
BTB BRANCH_OTHER ACCESS:          0  HIT:          0  MISS:          0

L2C TOTAL     ACCESS:    7199992  HIT:    1853739  MISS:    5346253  HIT %:    25.7464  MISS %:    74.2536   MPKI: 26.7313
L2C LOAD      ACCESS:     222323  HIT:         65  MISS:     222258  HIT %:  0.0292367  MISS %:    99.9708   MPKI: 1.11129
L2C DATA LOAD MPKI: 1.11129
L2C INSTRUCTION LOAD MPKI: 0
L2C PREFETCH  ACCESS:    5078634  HIT:       2157  MISS:    5076477  HIT %:  0.0424721  MISS %:    99.9575   MPKI: 25.3824
L2C DATA PREFETCH MPKI: 25.3824
L2C INSTRUCTION PREFETCH MPKI: 0
L2C WRITEBACK ACCESS:    1836033  HIT:    1797170  MISS:      38863  HIT %:    97.8833  MISS %:    2.11668   MPKI: 0.194315
L2C LOAD TRANSLATION ACCESS:      63002  HIT:      54347  MISS:       8655  HIT %:    86.2623  MISS %:    13.7377   MPKI: 0.043275
L2C PREFETCH  REQUESTED:          0  ISSUED:          0  USEFUL:         13  USELESS:    5076711
L2C USEFUL LOAD PREFETCHES:         13 PREFETCH ISSUED TO LOWER LEVEL:    5076493  ACCURACY: 0.000256082
L2C TIMELY PREFETCHES:         13 LATE PREFETCHES: 0 DROPPED PREFETCHES: 0
L2C PREFETCHES SAME FILL-ORIGIN LEVEL: 0 DIFFERENT FILL-ORIGIN LEVEL: 0
L2C AVERAGE MISS LATENCY: 1067.17 cycles
L2C RQ	ACCESS:     285325	FORWARD:          0	MERGED:          0	TO_CACHE:     285325
L2C WQ	ACCESS:    1836033	FORWARD:          0	MERGED:          0	TO_CACHE:    1836033
L2C PQ	ACCESS:    5078650	FORWARD:          0	MERGED:          0	TO_CACHE:    5078650

L2C Instructions Evicting Data 0
L2C Translations Evicting Data 8643
L2C Data Evicting Data 5290188
L2C Instructions Evicting Instructions 0
L2C Translations Evicting Instructions 0
L2C Data Evicting Instructions 0
L2C Instructions Evicting Translations 0
L2C Translations Evicting Translations 12
L2C Data Evicting Translations 8547
L2C Dense regions hint from L2: 0
PSCL5 TOTAL     ACCESS:      63002  HIT:      63002  MISS:          0  HIT %:        100  MISS %:          0   MPKI: 0
PSCL5 LOAD TRANSLATION ACCESS:      63002  HIT:      63002  MISS:          0  HIT %:        100  MISS %:          0   MPKI: 0
PSCL5 PREFETCH  REQUESTED:          0  ISSUED:          0  USEFUL:          0  USELESS:          0
PSCL5 USEFUL LOAD PREFETCHES:          0 PREFETCH ISSUED TO LOWER LEVEL:          0  ACCURACY: -nan
PSCL5 TIMELY PREFETCHES:          0 LATE PREFETCHES: 0 DROPPED PREFETCHES: 0
PSCL5 PREFETCHES SAME FILL-ORIGIN LEVEL: 0 DIFFERENT FILL-ORIGIN LEVEL: 0

PSCL4 TOTAL     ACCESS:      63002  HIT:      63002  MISS:          0  HIT %:        100  MISS %:          0   MPKI: 0
PSCL4 LOAD TRANSLATION ACCESS:      63002  HIT:      63002  MISS:          0  HIT %:        100  MISS %:          0   MPKI: 0
PSCL4 PREFETCH  REQUESTED:          0  ISSUED:          0  USEFUL:          0  USELESS:          0
PSCL4 USEFUL LOAD PREFETCHES:          0 PREFETCH ISSUED TO LOWER LEVEL:          0  ACCURACY: -nan
PSCL4 TIMELY PREFETCHES:          0 LATE PREFETCHES: 0 DROPPED PREFETCHES: 0
PSCL4 PREFETCHES SAME FILL-ORIGIN LEVEL: 0 DIFFERENT FILL-ORIGIN LEVEL: 0

PSCL3 TOTAL     ACCESS:      63002  HIT:      63002  MISS:          0  HIT %:        100  MISS %:          0   MPKI: 0
PSCL3 LOAD TRANSLATION ACCESS:      63002  HIT:      63002  MISS:          0  HIT %:        100  MISS %:          0   MPKI: 0
PSCL3 PREFETCH  REQUESTED:          0  ISSUED:          0  USEFUL:          0  USELESS:          0
PSCL3 USEFUL LOAD PREFETCHES:          0 PREFETCH ISSUED TO LOWER LEVEL:          0  ACCURACY: -nan
PSCL3 TIMELY PREFETCHES:          0 LATE PREFETCHES: 0 DROPPED PREFETCHES: 0
PSCL3 PREFETCHES SAME FILL-ORIGIN LEVEL: 0 DIFFERENT FILL-ORIGIN LEVEL: 0

PSCL2 TOTAL     ACCESS:      63002  HIT:      62864  MISS:        138  HIT %:     99.781  MISS %:   0.219041   MPKI: 0.00069
PSCL2 LOAD TRANSLATION ACCESS:      63002  HIT:      62864  MISS:        138  HIT %:     99.781  MISS %:   0.219041   MPKI: 0.00069
PSCL2 PREFETCH  REQUESTED:          0  ISSUED:          0  USEFUL:          0  USELESS:          0
PSCL2 USEFUL LOAD PREFETCHES:          0 PREFETCH ISSUED TO LOWER LEVEL:          0  ACCURACY: -nan
PSCL2 TIMELY PREFETCHES:          0 LATE PREFETCHES: 0 DROPPED PREFETCHES: 0
PSCL2 PREFETCHES SAME FILL-ORIGIN LEVEL: 0 DIFFERENT FILL-ORIGIN LEVEL: 0

LLC TOTAL     ACCESS:    7143439  HIT:    1771566  MISS:    5371873  HIT %:    24.7999  MISS %:    75.2001   MPKI: 26.8594
LLC LOAD      ACCESS:     222258  HIT:         45  MISS:     222213  HIT %:  0.0202467  MISS %:    99.9798   MPKI: 1.11106
LLC PREFETCH  ACCESS:    5076477  HIT:        303  MISS:    5076174  HIT %: 0.00596871  MISS %:     99.994   MPKI: 25.3809
LLC WRITEBACK ACCESS:    1836049  HIT:    1771142  MISS:      64907  HIT %:    96.4649  MISS %:    3.53515   MPKI: 0.324535
LLC LOAD TRANSLATION ACCESS:       8655  HIT:         76  MISS:       8579  HIT %:   0.878105  MISS %:    99.1219   MPKI: 0.042895
LLC PREFETCH  REQUESTED:          0  ISSUED:          0  USEFUL:         18  USELESS:   20339676
LLC USEFUL LOAD PREFETCHES:         18 PREFETCH ISSUED TO LOWER LEVEL:   22626008  ACCURACY: 7.95545e-05
LLC TIMELY PREFETCHES:         18 LATE PREFETCHES: 0 DROPPED PREFETCHES: 0
LLC PREFETCHES SAME FILL-ORIGIN LEVEL: 0 DIFFERENT FILL-ORIGIN LEVEL: 0
LLC AVERAGE MISS LATENCY: 4128.68 cycles
LLC RQ	ACCESS:     924982	FORWARD:          0	MERGED:          0	TO_CACHE:     924982
LLC WQ	ACCESS:    7355955	FORWARD:          0	MERGED:          0	TO_CACHE:    7355955
LLC PQ	ACCESS:   20338121	FORWARD:          0	MERGED:          0	TO_CACHE:   20338121

LLC Dense regions hint to LLC: 0

RAW hits: 151626
Loads Generated: 62203074
Loads sent to L1D: 62051442
Stores Generated: 14373330
Stores sent to L1D: 14373330
Major fault: 0 Minor fault: 79147
Allocated PAGES: 316989

stream: 
stream:times selected: 10175569
stream:pref_filled: 5958566
stream:pref_useful: 5458356
stream:pref_late: 405080
stream:misses: 187
stream:misses_by_poll: 0

CS: 
CS:times selected: 10144748
CS:pref_filled: 19542
CS:pref_useful: 18165
CS:pref_late: 3141
CS:misses: 1507333
CS:misses_by_poll: 162

CPLX: 
CPLX:times selected: 30772
CPLX:pref_filled: 896
CPLX:pref_useful: 869
CPLX:pref_late: 123
CPLX:misses: 7018
CPLX:misses_by_poll: 0

NL_L1: 
NL:times selected: 4
NL:pref_filled: 4
NL:pref_useful: 4
NL:pref_late: 0
NL:misses: 0
NL:misses_by_poll: 0

total selections: 20351093
total_filled: 4674768
total_useful: 4275413
total_late: 409369
total_polluted: 162
total_misses_after_warmup: 1490854
conflicts: 11
Degree Incremented Times: 2916452
Degree Decremented Times: 0

L1 IP Table Write Accesses: 196617172
L1 IP Table Read Accesses: 196617161
L1 RST Write Accesses: 33338326
L1 RST Read Accesses: 66676652
L1 CSPT Write Accesses: 33338326
L1 CSPT Read Accesses: 33670498
L1 RR Filter Tag Write Accesses: 158930730
L1 RR Filter Tag Read Accesses: 8228739486
L1 IP Table Tag Write Accesses: 196617172
L1 IP Table Tag Read Accesses: 196617172
L1 RST Tag Write Accesses: 0
L1 RST Tag Read Accesses: 300187626
L1 RR Filter Write Accesses: 0
L1 RR Filter Read Accesses: 286002109
test: 622464

stream: 
stream:times selected: 10176499
stream:pref_filled: 5962375
stream:pref_useful: 5461807
stream:pref_late: 403644
stream:misses: 168
stream:misses_by_poll: 0

CS: 
CS:times selected: 10145462
CS:pref_filled: 19627
CS:pref_useful: 18250
CS:pref_late: 3099
CS:misses: 1500355
CS:misses_by_poll: 192

CPLX: 
CPLX:times selected: 30988
CPLX:pref_filled: 866
CPLX:pref_useful: 848
CPLX:pref_late: 120
CPLX:misses: 6969
CPLX:misses_by_poll: 0

NL_L1: 
NL:times selected: 5
NL:pref_filled: 0
NL:pref_useful: 0
NL:pref_late: 0
NL:misses: 2
NL:misses_by_poll: 0

total selections: 20352954
total_filled: 4677740
total_useful: 4278127
total_late: 407854
total_polluted: 192
total_misses_after_warmup: 1484588
conflicts: 11
Degree Incremented Times: 2916452
Degree Decremented Times: 0

L1 IP Table Write Accesses: 196617172
L1 IP Table Read Accesses: 196617161
L1 RST Write Accesses: 33338326
L1 RST Read Accesses: 66676652
L1 CSPT Write Accesses: 33338326
L1 CSPT Read Accesses: 33670498
L1 RR Filter Tag Write Accesses: 158930730
L1 RR Filter Tag Read Accesses: 8228739486
L1 IP Table Tag Write Accesses: 196617172
L1 IP Table Tag Read Accesses: 196617172
L1 RST Tag Write Accesses: 0
L1 RST Tag Read Accesses: 300187626
L1 RR Filter Write Accesses: 0
L1 RR Filter Read Accesses: 286002109
test: 622464

stream: 
stream:times selected: 10196187
stream:pref_filled: 5973079
stream:pref_useful: 5471977
stream:pref_late: 405754
stream:misses: 193
stream:misses_by_poll: 0

CS: 
CS:times selected: 10165341
CS:pref_filled: 19717
CS:pref_useful: 18265
CS:pref_late: 3066
CS:misses: 1503592
CS:misses_by_poll: 166

CPLX: 
CPLX:times selected: 30798
CPLX:pref_filled: 904
CPLX:pref_useful: 877
CPLX:pref_late: 148
CPLX:misses: 7098
CPLX:misses_by_poll: 2

NL_L1: 
NL:times selected: 5
NL:pref_filled: 0
NL:pref_useful: 0
NL:pref_late: 0
NL:misses: 2
NL:misses_by_poll: 0

total selections: 20392331
total_filled: 4688840
total_useful: 4288574
total_late: 409963
total_polluted: 168
total_misses_after_warmup: 1487758
conflicts: 11
Degree Incremented Times: 2916452
Degree Decremented Times: 0

L1 IP Table Write Accesses: 196617172
L1 IP Table Read Accesses: 196617161
L1 RST Write Accesses: 33338326
L1 RST Read Accesses: 66676652
L1 CSPT Write Accesses: 33338326
L1 CSPT Read Accesses: 33670498
L1 RR Filter Tag Write Accesses: 158930730
L1 RR Filter Tag Read Accesses: 8228739486
L1 IP Table Tag Write Accesses: 196617172
L1 IP Table Tag Read Accesses: 196617172
L1 RST Tag Write Accesses: 0
L1 RST Tag Read Accesses: 300187626
L1 RR Filter Write Accesses: 0
L1 RR Filter Read Accesses: 286002109
test: 622464

stream: 
stream:times selected: 10165987
stream:pref_filled: 5954642
stream:pref_useful: 5455135
stream:pref_late: 404695
stream:misses: 217
stream:misses_by_poll: 0

CS: 
CS:times selected: 10135137
CS:pref_filled: 19362
CS:pref_useful: 17901
CS:pref_late: 3076
CS:misses: 1502810
CS:misses_by_poll: 202

CPLX: 
CPLX:times selected: 30800
CPLX:pref_filled: 883
CPLX:pref_useful: 862
CPLX:pref_late: 105
CPLX:misses: 7028
CPLX:misses_by_poll: 1

NL_L1: 
NL:times selected: 6
NL:pref_filled: 1
NL:pref_useful: 1
NL:pref_late: 0
NL:misses: 2
NL:misses_by_poll: 0

total selections: 20331930
total_filled: 4669929
total_useful: 4271192
total_late: 408843
total_polluted: 203
total_misses_after_warmup: 1487106
conflicts: 11
Degree Incremented Times: 2916452
Degree Decremented Times: 0

L1 IP Table Write Accesses: 196617172
L1 IP Table Read Accesses: 196617161
L1 RST Write Accesses: 33338326
L1 RST Read Accesses: 66676652
L1 CSPT Write Accesses: 33338326
L1 CSPT Read Accesses: 33670498
L1 RR Filter Tag Write Accesses: 158930730
L1 RR Filter Tag Read Accesses: 8228739486
L1 IP Table Tag Write Accesses: 196617172
L1 IP Table Tag Read Accesses: 196617172
L1 RST Tag Write Accesses: 0
L1 RST Tag Read Accesses: 300187626
L1 RR Filter Write Accesses: 0
L1 RR Filter Read Accesses: 286002109
test: 622464

DRAM Statistics
 CHANNEL 0
 RQ ROW_BUFFER_HIT:   11755656  ROW_BUFFER_MISS:    9505646
 DBUS_CONGESTED:          0
 WQ ROW_BUFFER_HIT:     888453  ROW_BUFFER_MISS:    6466239  FULL:          0

 AVG_CONGESTED_CYCLE: -
 All warmup complete: 5
Channel 0 Bank busy for read cycles: 0
Channel 0 Bank busy for write cycles: 0
Channel 0
Rank 0
0banks busy for read cycles: 40
0banks busy for write cycles: 0
1banks busy for read cycles: 761971
1banks busy for write cycles: 755196
2banks busy for read cycles: 787391
2banks busy for write cycles: 755196
3banks busy for read cycles: 870092
3banks busy for write cycles: 755196
4banks busy for read cycles: 1118350
4banks busy for write cycles: 755225
5banks busy for read cycles: 2014278
5banks busy for write cycles: 762066
6banks busy for read cycles: 6203524
6banks busy for write cycles: 1316490
7banks busy for read cycles: 40149449
7banks busy for write cycles: 18548461
8banks busy for read cycles: 242990626
8banks busy for write cycles: 159761470

CPU 0 Branch Prediction Accuracy: 99.5261% MPKI: 0.113875 Average ROB Occupancy at Mispredict: 242.619
Branch types
NOT_BRANCH: 195415208 97.5971%
BRANCH_DIRECT_JUMP: 22693 0.0113337%
BRANCH_INDIRECT: 0 0%
BRANCH_CONDITIONAL: 4788464 2.39153%
BRANCH_DIRECT_CALL: 0 0%
BRANCH_INDIRECT_CALL: 0 0%
BRANCH_RETURN: 0 0%
BRANCH_OTHER: 0 0%


CPU 1 Branch Prediction Accuracy: 99.5261% MPKI: 0.113875 Average ROB Occupancy at Mispredict: 243.62
Branch types
NOT_BRANCH: 195447453 97.5971%
BRANCH_DIRECT_JUMP: 22697 0.0113338%
BRANCH_INDIRECT: 0 0%
BRANCH_CONDITIONAL: 4789254 2.39153%
BRANCH_DIRECT_CALL: 0 0%
BRANCH_INDIRECT_CALL: 0 0%
BRANCH_RETURN: 0 0%
BRANCH_OTHER: 0 0%


CPU 2 Branch Prediction Accuracy: 99.5261% MPKI: 0.113877 Average ROB Occupancy at Mispredict: 242.466
Branch types
NOT_BRANCH: 195934878 97.5971%
BRANCH_DIRECT_JUMP: 22753 0.0113335%
BRANCH_INDIRECT: 0 0%
BRANCH_CONDITIONAL: 4801199 2.39153%
BRANCH_DIRECT_CALL: 0 0%
BRANCH_INDIRECT_CALL: 0 0%
BRANCH_RETURN: 0 0%
BRANCH_OTHER: 0 0%


CPU 3 Branch Prediction Accuracy: 99.5261% MPKI: 0.113875 Average ROB Occupancy at Mispredict: 243.132
Branch types
NOT_BRANCH: 195194095 97.597%
BRANCH_DIRECT_JUMP: 22667 0.0113335%
BRANCH_INDIRECT: 0 0%
BRANCH_CONDITIONAL: 4783046 2.39152%
BRANCH_DIRECT_CALL: 0 0%
BRANCH_INDIRECT_CALL: 0 0%
BRANCH_RETURN: 0 0%
BRANCH_OTHER: 0 0%

DRAM PAGES: 1048576
Allocated PAGES: 316989
