
*** ChampSim Multicore Out-of-Order Simulator ***

Warmup Instructions: 50000000
Simulation Instructions: 200000000
Number of CPUs: 4
LLC sets: 8192
LLC ways: 16
Off-chip DRAM Size: 4096 MB Channels: 1 Width: 64-bit Data Rate: 6400 MT/s
CPU 0 runs ./traces/ligra/ligra_PageRankDelta.com-lj.ungraph.gcc_6.3.0_O3.drop_1250M.length_250M.champsimtrace.xz
.xz
CPU 1 runs ./traces/ligra/ligra_PageRankDelta.com-lj.ungraph.gcc_6.3.0_O3.drop_1250M.length_250M.champsimtrace.xz
.xz
CPU 2 runs ./traces/ligra/ligra_PageRankDelta.com-lj.ungraph.gcc_6.3.0_O3.drop_1250M.length_250M.champsimtrace.xz
.xz
CPU 3 runs ./traces/ligra/ligra_PageRankDelta.com-lj.ungraph.gcc_6.3.0_O3.drop_1250M.length_250M.champsimtrace.xz
.xz
BTB has LRU replacement policy
ITLB has LRU replacement policy
DTLB has LRU replacement policy
STLB has LRU replacement policy
L1I has LRU replacement policy
IP Table Entries: 1024
CSPT Entries: 128
RR_ENTRIES: 32
RST_ENTRIES: 8
L1D has LRU replacement policy
Initialize SRRIP state for L2C
Initialize DRRIP state for LLC
BTB has LRU replacement policy
ITLB has LRU replacement policy
DTLB has LRU replacement policy
STLB has LRU replacement policy
L1I has LRU replacement policy
IP Table Entries: 1024
CSPT Entries: 128
RR_ENTRIES: 32
RST_ENTRIES: 8
L1D has LRU replacement policy
Initialize SRRIP state for L2C
Initialize DRRIP state for LLC
BTB has LRU replacement policy
ITLB has LRU replacement policy
DTLB has LRU replacement policy
STLB has LRU replacement policy
L1I has LRU replacement policy
IP Table Entries: 1024
CSPT Entries: 128
RR_ENTRIES: 32
RST_ENTRIES: 8
L1D has LRU replacement policy
Initialize SRRIP state for L2C
Initialize DRRIP state for LLC
BTB has LRU replacement policy
ITLB has LRU replacement policy
DTLB has LRU replacement policy
STLB has LRU replacement policy
L1I has LRU replacement policy
IP Table Entries: 1024
CSPT Entries: 128
RR_ENTRIES: 32
RST_ENTRIES: 8
L1D has LRU replacement policy
Initialize SRRIP state for L2C
Initialize DRRIP state for LLC
Heartbeat CPU 0 instructions: 10000000 cycles: 3333346 heartbeat IPC: 2.99999 cumulative IPC: 2.99999 (Simulation time: 0 hr 1 min 49 sec) 
Heartbeat CPU 1 instructions: 10000000 cycles: 3333347 heartbeat IPC: 2.99999 cumulative IPC: 2.99999 (Simulation time: 0 hr 1 min 49 sec) 
Heartbeat CPU 2 instructions: 10000000 cycles: 3333348 heartbeat IPC: 2.99999 cumulative IPC: 2.99999 (Simulation time: 0 hr 1 min 49 sec) 
Heartbeat CPU 3 instructions: 10000000 cycles: 3333349 heartbeat IPC: 2.99999 cumulative IPC: 2.99999 (Simulation time: 0 hr 1 min 49 sec) 
Heartbeat CPU 0 instructions: 20000002 cycles: 6666679 heartbeat IPC: 3 cumulative IPC: 2.99999 (Simulation time: 0 hr 3 min 40 sec) 
Heartbeat CPU 1 instructions: 20000002 cycles: 6666680 heartbeat IPC: 3 cumulative IPC: 2.99999 (Simulation time: 0 hr 3 min 40 sec) 
Heartbeat CPU 2 instructions: 20000002 cycles: 6666681 heartbeat IPC: 3 cumulative IPC: 2.99999 (Simulation time: 0 hr 3 min 40 sec) 
Heartbeat CPU 3 instructions: 20000002 cycles: 6666682 heartbeat IPC: 3 cumulative IPC: 2.99999 (Simulation time: 0 hr 3 min 40 sec) 
Heartbeat CPU 0 instructions: 30000002 cycles: 10000012 heartbeat IPC: 3 cumulative IPC: 3 (Simulation time: 0 hr 5 min 29 sec) 
Heartbeat CPU 1 instructions: 30000002 cycles: 10000013 heartbeat IPC: 3 cumulative IPC: 3 (Simulation time: 0 hr 5 min 29 sec) 
Heartbeat CPU 2 instructions: 30000002 cycles: 10000014 heartbeat IPC: 3 cumulative IPC: 3 (Simulation time: 0 hr 5 min 29 sec) 
Heartbeat CPU 3 instructions: 30000002 cycles: 10000015 heartbeat IPC: 3 cumulative IPC: 3 (Simulation time: 0 hr 5 min 29 sec) 
Heartbeat CPU 0 instructions: 40000002 cycles: 13333345 heartbeat IPC: 3 cumulative IPC: 3 (Simulation time: 0 hr 7 min 9 sec) 
Heartbeat CPU 1 instructions: 40000002 cycles: 13333346 heartbeat IPC: 3 cumulative IPC: 3 (Simulation time: 0 hr 7 min 9 sec) 
Heartbeat CPU 2 instructions: 40000002 cycles: 13333347 heartbeat IPC: 3 cumulative IPC: 3 (Simulation time: 0 hr 7 min 9 sec) 
Heartbeat CPU 3 instructions: 40000002 cycles: 13333348 heartbeat IPC: 3 cumulative IPC: 3 (Simulation time: 0 hr 7 min 9 sec) 
Heartbeat CPU 0 instructions: 50000001 cycles: 16666678 heartbeat IPC: 3 cumulative IPC: 3 (Simulation time: 0 hr 8 min 56 sec) 
Heartbeat CPU 1 instructions: 50000001 cycles: 16666679 heartbeat IPC: 3 cumulative IPC: 3 (Simulation time: 0 hr 8 min 56 sec) 
Heartbeat CPU 2 instructions: 50000001 cycles: 16666680 heartbeat IPC: 3 cumulative IPC: 3 (Simulation time: 0 hr 8 min 56 sec) 
Heartbeat CPU 3 instructions: 50000001 cycles: 16666681 heartbeat IPC: 3 cumulative IPC: 3 (Simulation time: 0 hr 8 min 56 sec) 

Warmup complete CPU 0 instructions: 50000008 cycles: 16666681 (Simulation time: 0 hr 8 min 56 sec) 
Warmup complete CPU 1 instructions: 50000007 cycles: 16666681 (Simulation time: 0 hr 8 min 56 sec) 
Warmup complete CPU 2 instructions: 50000004 cycles: 16666681 (Simulation time: 0 hr 8 min 56 sec) 
Warmup complete CPU 3 instructions: 50000001 cycles: 16666681 (Simulation time: 0 hr 8 min 56 sec) 

Heartbeat CPU 0 instructions: 60000001 cycles: 25333241 heartbeat IPC: 1.15386 cumulative IPC: 1.15386 (Simulation time: 0 hr 11 min 40 sec) 
Heartbeat CPU 1 instructions: 60000001 cycles: 25343015 heartbeat IPC: 1.15256 cumulative IPC: 1.15256 (Simulation time: 0 hr 11 min 40 sec) 
Heartbeat CPU 2 instructions: 60000001 cycles: 25349379 heartbeat IPC: 1.15172 cumulative IPC: 1.15172 (Simulation time: 0 hr 11 min 40 sec) 
Heartbeat CPU 3 instructions: 60000001 cycles: 25354927 heartbeat IPC: 1.15098 cumulative IPC: 1.15098 (Simulation time: 0 hr 11 min 41 sec) 
Heartbeat CPU 0 instructions: 70000002 cycles: 34093622 heartbeat IPC: 1.1415 cumulative IPC: 1.14765 (Simulation time: 0 hr 14 min 17 sec) 
Heartbeat CPU 1 instructions: 70000002 cycles: 34105278 heartbeat IPC: 1.14126 cumulative IPC: 1.14688 (Simulation time: 0 hr 14 min 17 sec) 
Heartbeat CPU 2 instructions: 70000002 cycles: 34111914 heartbeat IPC: 1.14122 cumulative IPC: 1.14644 (Simulation time: 0 hr 14 min 17 sec) 
Heartbeat CPU 3 instructions: 70000002 cycles: 34120380 heartbeat IPC: 1.14084 cumulative IPC: 1.14589 (Simulation time: 0 hr 14 min 17 sec) 
Heartbeat CPU 0 instructions: 80000002 cycles: 42906768 heartbeat IPC: 1.13467 cumulative IPC: 1.14329 (Simulation time: 0 hr 16 min 57 sec) 
Heartbeat CPU 1 instructions: 80000002 cycles: 42918419 heartbeat IPC: 1.13467 cumulative IPC: 1.14278 (Simulation time: 0 hr 16 min 57 sec) 
Heartbeat CPU 2 instructions: 80000002 cycles: 42927700 heartbeat IPC: 1.13433 cumulative IPC: 1.14238 (Simulation time: 0 hr 16 min 58 sec) 
Heartbeat CPU 3 instructions: 80000002 cycles: 42934626 heartbeat IPC: 1.13453 cumulative IPC: 1.14208 (Simulation time: 0 hr 16 min 58 sec) 
Heartbeat CPU 0 instructions: 90000003 cycles: 51742967 heartbeat IPC: 1.13171 cumulative IPC: 1.14037 (Simulation time: 0 hr 19 min 19 sec) 
Heartbeat CPU 1 instructions: 90000003 cycles: 51756059 heartbeat IPC: 1.13152 cumulative IPC: 1.13995 (Simulation time: 0 hr 19 min 19 sec) 
Heartbeat CPU 2 instructions: 90000003 cycles: 51764256 heartbeat IPC: 1.13166 cumulative IPC: 1.13968 (Simulation time: 0 hr 19 min 20 sec) 
Heartbeat CPU 3 instructions: 90000003 cycles: 51772834 heartbeat IPC: 1.13145 cumulative IPC: 1.1394 (Simulation time: 0 hr 19 min 20 sec) 
Heartbeat CPU 0 instructions: 100000000 cycles: 60518007 heartbeat IPC: 1.1396 cumulative IPC: 1.14022 (Simulation time: 0 hr 21 min 39 sec) 
Heartbeat CPU 1 instructions: 100000000 cycles: 60530732 heartbeat IPC: 1.13964 cumulative IPC: 1.13989 (Simulation time: 0 hr 21 min 39 sec) 
Heartbeat CPU 2 instructions: 100000000 cycles: 60539502 heartbeat IPC: 1.13957 cumulative IPC: 1.13966 (Simulation time: 0 hr 21 min 39 sec) 
Heartbeat CPU 3 instructions: 100000000 cycles: 60548147 heartbeat IPC: 1.13956 cumulative IPC: 1.13943 (Simulation time: 0 hr 21 min 39 sec) 
Heartbeat CPU 0 instructions: 110000000 cycles: 69280333 heartbeat IPC: 1.14125 cumulative IPC: 1.14039 (Simulation time: 0 hr 24 min 1 sec) 
Heartbeat CPU 1 instructions: 110000000 cycles: 69292924 heartbeat IPC: 1.14127 cumulative IPC: 1.14012 (Simulation time: 0 hr 24 min 1 sec) 
Heartbeat CPU 2 instructions: 110000000 cycles: 69301556 heartbeat IPC: 1.14128 cumulative IPC: 1.13993 (Simulation time: 0 hr 24 min 1 sec) 
Heartbeat CPU 3 instructions: 110000000 cycles: 69312865 heartbeat IPC: 1.14094 cumulative IPC: 1.13968 (Simulation time: 0 hr 24 min 2 sec) 
Heartbeat CPU 0 instructions: 120000002 cycles: 78019705 heartbeat IPC: 1.14425 cumulative IPC: 1.14094 (Simulation time: 0 hr 26 min 32 sec) 
Heartbeat CPU 1 instructions: 120000002 cycles: 78031947 heartbeat IPC: 1.14429 cumulative IPC: 1.14071 (Simulation time: 0 hr 26 min 32 sec) 
Heartbeat CPU 2 instructions: 120000002 cycles: 78040484 heartbeat IPC: 1.14431 cumulative IPC: 1.14055 (Simulation time: 0 hr 26 min 32 sec) 
Heartbeat CPU 3 instructions: 120000002 cycles: 78051134 heartbeat IPC: 1.14439 cumulative IPC: 1.14035 (Simulation time: 0 hr 26 min 32 sec) 
Heartbeat CPU 0 instructions: 130000000 cycles: 86783232 heartbeat IPC: 1.14109 cumulative IPC: 1.14096 (Simulation time: 0 hr 28 min 46 sec) 
Heartbeat CPU 1 instructions: 130000000 cycles: 86795679 heartbeat IPC: 1.14107 cumulative IPC: 1.14075 (Simulation time: 0 hr 28 min 47 sec) 
Heartbeat CPU 2 instructions: 130000000 cycles: 86802573 heartbeat IPC: 1.14128 cumulative IPC: 1.14064 (Simulation time: 0 hr 28 min 47 sec) 
Heartbeat CPU 3 instructions: 130000000 cycles: 86814486 heartbeat IPC: 1.14112 cumulative IPC: 1.14045 (Simulation time: 0 hr 28 min 47 sec) 
Heartbeat CPU 0 instructions: 140000000 cycles: 95577176 heartbeat IPC: 1.13715 cumulative IPC: 1.14053 (Simulation time: 0 hr 31 min 4 sec) 
Heartbeat CPU 1 instructions: 140000000 cycles: 95591868 heartbeat IPC: 1.13686 cumulative IPC: 1.14032 (Simulation time: 0 hr 31 min 4 sec) 
Heartbeat CPU 2 instructions: 140000000 cycles: 95598313 heartbeat IPC: 1.13691 cumulative IPC: 1.14023 (Simulation time: 0 hr 31 min 4 sec) 
Heartbeat CPU 3 instructions: 140000000 cycles: 95610143 heartbeat IPC: 1.13692 cumulative IPC: 1.14006 (Simulation time: 0 hr 31 min 5 sec) 
Heartbeat CPU 0 instructions: 150000003 cycles: 104276969 heartbeat IPC: 1.14945 cumulative IPC: 1.14142 (Simulation time: 0 hr 33 min 28 sec) 
Heartbeat CPU 1 instructions: 150000003 cycles: 104291915 heartbeat IPC: 1.14942 cumulative IPC: 1.14122 (Simulation time: 0 hr 33 min 28 sec) 
Heartbeat CPU 2 instructions: 150000003 cycles: 104298033 heartbeat IPC: 1.14946 cumulative IPC: 1.14114 (Simulation time: 0 hr 33 min 28 sec) 
Heartbeat CPU 3 instructions: 150000003 cycles: 104310962 heartbeat IPC: 1.14932 cumulative IPC: 1.14098 (Simulation time: 0 hr 33 min 28 sec) 
Heartbeat CPU 0 instructions: 160000002 cycles: 113038236 heartbeat IPC: 1.14139 cumulative IPC: 1.14142 (Simulation time: 0 hr 35 min 39 sec) 
Heartbeat CPU 1 instructions: 160000002 cycles: 113057903 heartbeat IPC: 1.14077 cumulative IPC: 1.14118 (Simulation time: 0 hr 35 min 39 sec) 
Heartbeat CPU 2 instructions: 160000002 cycles: 113063686 heartbeat IPC: 1.14082 cumulative IPC: 1.14111 (Simulation time: 0 hr 35 min 39 sec) 
Heartbeat CPU 3 instructions: 160000002 cycles: 113074125 heartbeat IPC: 1.14114 cumulative IPC: 1.14099 (Simulation time: 0 hr 35 min 39 sec) 
Heartbeat CPU 0 instructions: 170000003 cycles: 121827586 heartbeat IPC: 1.13774 cumulative IPC: 1.14111 (Simulation time: 0 hr 38 min 4 sec) 
Heartbeat CPU 1 instructions: 170000003 cycles: 121844955 heartbeat IPC: 1.13804 cumulative IPC: 1.14092 (Simulation time: 0 hr 38 min 4 sec) 
Heartbeat CPU 2 instructions: 170000003 cycles: 121856037 heartbeat IPC: 1.13735 cumulative IPC: 1.1408 (Simulation time: 0 hr 38 min 4 sec) 
Heartbeat CPU 3 instructions: 170000003 cycles: 121861608 heartbeat IPC: 1.13798 cumulative IPC: 1.14074 (Simulation time: 0 hr 38 min 4 sec) 
Heartbeat CPU 0 instructions: 180000002 cycles: 130596947 heartbeat IPC: 1.14033 cumulative IPC: 1.14105 (Simulation time: 0 hr 40 min 18 sec) 
Heartbeat CPU 1 instructions: 180000002 cycles: 130613426 heartbeat IPC: 1.14045 cumulative IPC: 1.14088 (Simulation time: 0 hr 40 min 19 sec) 
Heartbeat CPU 2 instructions: 180000002 cycles: 130625489 heartbeat IPC: 1.14032 cumulative IPC: 1.14076 (Simulation time: 0 hr 40 min 19 sec) 
Heartbeat CPU 3 instructions: 180000002 cycles: 130633944 heartbeat IPC: 1.13995 cumulative IPC: 1.14068 (Simulation time: 0 hr 40 min 19 sec) 
Heartbeat CPU 0 instructions: 190000000 cycles: 139349920 heartbeat IPC: 1.14247 cumulative IPC: 1.14115 (Simulation time: 0 hr 42 min 36 sec) 
Heartbeat CPU 1 instructions: 190000000 cycles: 139367000 heartbeat IPC: 1.14239 cumulative IPC: 1.14099 (Simulation time: 0 hr 42 min 36 sec) 
Heartbeat CPU 2 instructions: 190000000 cycles: 139377884 heartbeat IPC: 1.14254 cumulative IPC: 1.14089 (Simulation time: 0 hr 42 min 36 sec) 
Heartbeat CPU 3 instructions: 190000000 cycles: 139385716 heartbeat IPC: 1.14263 cumulative IPC: 1.14082 (Simulation time: 0 hr 42 min 37 sec) 
Heartbeat CPU 0 instructions: 200000000 cycles: 148065320 heartbeat IPC: 1.14739 cumulative IPC: 1.14156 (Simulation time: 0 hr 45 min 21 sec) 
Heartbeat CPU 1 instructions: 200000000 cycles: 148084862 heartbeat IPC: 1.14707 cumulative IPC: 1.14139 (Simulation time: 0 hr 45 min 21 sec) 
Heartbeat CPU 2 instructions: 200000000 cycles: 148094453 heartbeat IPC: 1.14724 cumulative IPC: 1.14131 (Simulation time: 0 hr 45 min 21 sec) 
Heartbeat CPU 3 instructions: 200000000 cycles: 148103241 heartbeat IPC: 1.14711 cumulative IPC: 1.14123 (Simulation time: 0 hr 45 min 21 sec) 
Heartbeat CPU 0 instructions: 210000001 cycles: 156761836 heartbeat IPC: 1.14989 cumulative IPC: 1.14208 (Simulation time: 0 hr 47 min 34 sec) 
Heartbeat CPU 1 instructions: 210000001 cycles: 156782063 heartbeat IPC: 1.1498 cumulative IPC: 1.14192 (Simulation time: 0 hr 47 min 35 sec) 
Heartbeat CPU 2 instructions: 210000001 cycles: 156788601 heartbeat IPC: 1.1502 cumulative IPC: 1.14186 (Simulation time: 0 hr 47 min 35 sec) 
Heartbeat CPU 3 instructions: 210000001 cycles: 156795360 heartbeat IPC: 1.15047 cumulative IPC: 1.14181 (Simulation time: 0 hr 47 min 35 sec) 
Heartbeat CPU 0 instructions: 220000000 cycles: 165452946 heartbeat IPC: 1.1506 cumulative IPC: 1.14258 (Simulation time: 0 hr 50 min 1 sec) 
Heartbeat CPU 1 instructions: 220000000 cycles: 165473817 heartbeat IPC: 1.15052 cumulative IPC: 1.14242 (Simulation time: 0 hr 50 min 1 sec) 
Heartbeat CPU 2 instructions: 220000000 cycles: 165481866 heartbeat IPC: 1.15032 cumulative IPC: 1.14236 (Simulation time: 0 hr 50 min 2 sec) 
Heartbeat CPU 3 instructions: 220000000 cycles: 165491446 heartbeat IPC: 1.14994 cumulative IPC: 1.14228 (Simulation time: 0 hr 50 min 2 sec) 
Heartbeat CPU 0 instructions: 230000000 cycles: 173960788 heartbeat IPC: 1.17539 cumulative IPC: 1.14435 (Simulation time: 0 hr 52 min 30 sec) 
Heartbeat CPU 1 instructions: 230000000 cycles: 173981425 heartbeat IPC: 1.17542 cumulative IPC: 1.1442 (Simulation time: 0 hr 52 min 31 sec) 
Heartbeat CPU 2 instructions: 230000000 cycles: 173988427 heartbeat IPC: 1.17556 cumulative IPC: 1.14415 (Simulation time: 0 hr 52 min 31 sec) 
Heartbeat CPU 3 instructions: 230000000 cycles: 173998635 heartbeat IPC: 1.17548 cumulative IPC: 1.14408 (Simulation time: 0 hr 52 min 31 sec) 
Heartbeat CPU 0 instructions: 240000000 cycles: 182342708 heartbeat IPC: 1.19304 cumulative IPC: 1.14682 (Simulation time: 0 hr 54 min 57 sec) 
Heartbeat CPU 1 instructions: 240000000 cycles: 182362083 heartbeat IPC: 1.19322 cumulative IPC: 1.14668 (Simulation time: 0 hr 54 min 57 sec) 
Heartbeat CPU 2 instructions: 240000000 cycles: 182370223 heartbeat IPC: 1.19306 cumulative IPC: 1.14663 (Simulation time: 0 hr 54 min 57 sec) 
Heartbeat CPU 3 instructions: 240000000 cycles: 182379644 heartbeat IPC: 1.19317 cumulative IPC: 1.14656 (Simulation time: 0 hr 54 min 57 sec) 
*** Reached end of trace for Core: 0 Repeating trace: ./traces/ligra/ligra_PageRankDelta.com-lj.ungraph.gcc_6.3.0_O3.drop_1250M.length_250M.champsimtrace.xz
Heartbeat CPU 0 instructions: 250000002 cycles: 190724963 heartbeat IPC: 1.193 cumulative IPC: 1.14904 (Simulation time: 0 hr 57 min 20 sec) 
Finished CPU 0 instructions: 200000003 cycles: 174058730 cumulative IPC: 1.14904 (Simulation time: 0 hr 57 min 20 sec) 
*** Reached end of trace for Core: 1 Repeating trace: ./traces/ligra/ligra_PageRankDelta.com-lj.ungraph.gcc_6.3.0_O3.drop_1250M.length_250M.champsimtrace.xz
Heartbeat CPU 1 instructions: 250000001 cycles: 190742686 heartbeat IPC: 1.19323 cumulative IPC: 1.14892 (Simulation time: 0 hr 57 min 21 sec) 
Finished CPU 1 instructions: 200000000 cycles: 174076007 cumulative IPC: 1.14892 (Simulation time: 0 hr 57 min 21 sec) 
*** Reached end of trace for Core: 2 Repeating trace: ./traces/ligra/ligra_PageRankDelta.com-lj.ungraph.gcc_6.3.0_O3.drop_1250M.length_250M.champsimtrace.xz
Heartbeat CPU 2 instructions: 250000002 cycles: 190753229 heartbeat IPC: 1.19289 cumulative IPC: 1.14885 (Simulation time: 0 hr 57 min 21 sec) 
Finished CPU 2 instructions: 200000002 cycles: 174086550 cumulative IPC: 1.14885 (Simulation time: 0 hr 57 min 21 sec) 
*** Reached end of trace for Core: 3 Repeating trace: ./traces/ligra/ligra_PageRankDelta.com-lj.ungraph.gcc_6.3.0_O3.drop_1250M.length_250M.champsimtrace.xz
Heartbeat CPU 3 instructions: 250000002 cycles: 190762878 heartbeat IPC: 1.19286 cumulative IPC: 1.14879 (Simulation time: 0 hr 57 min 21 sec) 
Finished CPU 3 instructions: 200000001 cycles: 174096197 cumulative IPC: 1.14879 (Simulation time: 0 hr 57 min 21 sec) 

ChampSim completed all CPUs

Total Simulation Statistics (not including warmup)

CPU 0 cumulative IPC: 1.14904 instructions: 200042832 cycles: 174096197
ITLB TOTAL     ACCESS:   33148557  HIT:   33148557  MISS:          0  HIT %:        100  MISS %:          0   MPKI: 0
ITLB LOAD      ACCESS:          0  HIT:          0  MISS:          0  HIT %:       -nan  MISS %:       -nan   MPKI: 0
ITLB RFO       ACCESS:          0  HIT:          0  MISS:          0  HIT %:       -nan  MISS %:       -nan   MPKI: 0
ITLB PREFETCH  ACCESS:          0  HIT:          0  MISS:          0  HIT %:       -nan  MISS %:       -nan   MPKI: 0
ITLB WRITEBACK ACCESS:          0  HIT:          0  MISS:          0  HIT %:       -nan  MISS %:       -nan   MPKI: 0
DTLB TOTAL     ACCESS:   18076086  HIT:   18068735  MISS:       7351  HIT %:    99.9593  MISS %:   0.040667   MPKI: 0.0367471
DTLB LOAD      ACCESS:          0  HIT:          0  MISS:          0  HIT %:       -nan  MISS %:       -nan   MPKI: 0
DTLB RFO       ACCESS:          0  HIT:          0  MISS:          0  HIT %:       -nan  MISS %:       -nan   MPKI: 0
DTLB PREFETCH  ACCESS:          0  HIT:          0  MISS:          0  HIT %:       -nan  MISS %:       -nan   MPKI: 0
DTLB WRITEBACK ACCESS:          0  HIT:          0  MISS:          0  HIT %:       -nan  MISS %:       -nan   MPKI: 0
STLB TOTAL     ACCESS:     434944  HIT:     427593  MISS:       7351  HIT %:    98.3099  MISS %:     1.6901   MPKI: 0.0367471
STLB LOAD      ACCESS:          0  HIT:          0  MISS:          0  HIT %:       -nan  MISS %:       -nan   MPKI: 0
STLB RFO       ACCESS:          0  HIT:          0  MISS:          0  HIT %:       -nan  MISS %:       -nan   MPKI: 0
STLB PREFETCH  ACCESS:          0  HIT:          0  MISS:          0  HIT %:       -nan  MISS %:       -nan   MPKI: 0
STLB WRITEBACK ACCESS:          0  HIT:          0  MISS:          0  HIT %:       -nan  MISS %:       -nan   MPKI: 0
L1D TOTAL     ACCESS:   19023985  HIT:   18553616  MISS:     470369  HIT %:    97.5275  MISS %:    2.47251   MPKI: 2.35134
L1D LOAD      ACCESS:   14655971  HIT:   14648471  MISS:       7500  HIT %:    99.9488  MISS %:  0.0511737   MPKI: 0.037492
L1D RFO       ACCESS:    3884722  HIT:    3884722  MISS:          0  HIT %:        100  MISS %:          0   MPKI: 0
L1D PREFETCH  ACCESS:     483292  HIT:      20423  MISS:     462869  HIT %:    4.22581  MISS %:    95.7742   MPKI: 2.31385
L1D WRITEBACK ACCESS:          0  HIT:          0  MISS:          0  HIT %:       -nan  MISS %:       -nan   MPKI: 0
L1I TOTAL     ACCESS:   33148556  HIT:   33148556  MISS:          0  HIT %:        100  MISS %:          0   MPKI: 0
L1I LOAD      ACCESS:   33148556  HIT:   33148556  MISS:          0  HIT %:        100  MISS %:          0   MPKI: 0
L1I RFO       ACCESS:          0  HIT:          0  MISS:          0  HIT %:       -nan  MISS %:       -nan   MPKI: 0
L1I PREFETCH  ACCESS:          0  HIT:          0  MISS:          0  HIT %:       -nan  MISS %:       -nan   MPKI: 0
L1I WRITEBACK ACCESS:          0  HIT:          0  MISS:          0  HIT %:       -nan  MISS %:       -nan   MPKI: 0
L2C TOTAL     ACCESS:     948089  HIT:     247496  MISS:     700593  HIT %:    26.1047  MISS %:    73.8953   MPKI: 3.50221
L2C LOAD      ACCESS:       7351  HIT:          0  MISS:       7351  HIT %:          0  MISS %:        100   MPKI: 0.0367471
L2C RFO       ACCESS:          0  HIT:          0  MISS:          0  HIT %:       -nan  MISS %:       -nan   MPKI: 0
L2C PREFETCH  ACCESS:     463018  HIT:          0  MISS:     463018  HIT %:          0  MISS %:        100   MPKI: 2.31459
L2C WRITEBACK ACCESS:     470369  HIT:     241078  MISS:     229291  HIT %:     51.253  MISS %:     48.747   MPKI: 1.14621
PSCL5 TOTAL     ACCESS:       7351  HIT:       7351  MISS:          0  HIT %:        100  MISS %:          0   MPKI: 0
PSCL5 LOAD      ACCESS:          0  HIT:          0  MISS:          0  HIT %:       -nan  MISS %:       -nan   MPKI: 0
PSCL5 RFO       ACCESS:          0  HIT:          0  MISS:          0  HIT %:       -nan  MISS %:       -nan   MPKI: 0
PSCL5 PREFETCH  ACCESS:          0  HIT:          0  MISS:          0  HIT %:       -nan  MISS %:       -nan   MPKI: 0
PSCL5 WRITEBACK ACCESS:          0  HIT:          0  MISS:          0  HIT %:       -nan  MISS %:       -nan   MPKI: 0
PSCL4 TOTAL     ACCESS:       7351  HIT:       7351  MISS:          0  HIT %:        100  MISS %:          0   MPKI: 0
PSCL4 LOAD      ACCESS:          0  HIT:          0  MISS:          0  HIT %:       -nan  MISS %:       -nan   MPKI: 0
PSCL4 RFO       ACCESS:          0  HIT:          0  MISS:          0  HIT %:       -nan  MISS %:       -nan   MPKI: 0
PSCL4 PREFETCH  ACCESS:          0  HIT:          0  MISS:          0  HIT %:       -nan  MISS %:       -nan   MPKI: 0
PSCL4 WRITEBACK ACCESS:          0  HIT:          0  MISS:          0  HIT %:       -nan  MISS %:       -nan   MPKI: 0
PSCL3 TOTAL     ACCESS:       7351  HIT:       7351  MISS:          0  HIT %:        100  MISS %:          0   MPKI: 0
PSCL3 LOAD      ACCESS:          0  HIT:          0  MISS:          0  HIT %:       -nan  MISS %:       -nan   MPKI: 0
PSCL3 RFO       ACCESS:          0  HIT:          0  MISS:          0  HIT %:       -nan  MISS %:       -nan   MPKI: 0
PSCL3 PREFETCH  ACCESS:          0  HIT:          0  MISS:          0  HIT %:       -nan  MISS %:       -nan   MPKI: 0
PSCL3 WRITEBACK ACCESS:          0  HIT:          0  MISS:          0  HIT %:       -nan  MISS %:       -nan   MPKI: 0
PSCL2 TOTAL     ACCESS:       7351  HIT:       7337  MISS:         14  HIT %:    99.8095  MISS %:    0.19045   MPKI: 6.9985e-05
PSCL2 LOAD      ACCESS:          0  HIT:          0  MISS:          0  HIT %:       -nan  MISS %:       -nan   MPKI: 0
PSCL2 RFO       ACCESS:          0  HIT:          0  MISS:          0  HIT %:       -nan  MISS %:       -nan   MPKI: 0
PSCL2 PREFETCH  ACCESS:          0  HIT:          0  MISS:          0  HIT %:       -nan  MISS %:       -nan   MPKI: 0
PSCL2 WRITEBACK ACCESS:          0  HIT:          0  MISS:          0  HIT %:       -nan  MISS %:       -nan   MPKI: 0

stream: 
stream:times selected: 650667
stream:pref_filled: 576381
stream:pref_useful: 576370
stream:pref_late: 145
stream:misses: 19
stream:misses_by_poll: 0

CS: 
CS:times selected: 650660
CS:pref_filled: 2069
CS:pref_useful: 2069
CS:pref_late: 3
CS:misses: 48154
CS:misses_by_poll: 6

CPLX: 
CPLX:times selected: 5
CPLX:pref_filled: 0
CPLX:pref_useful: 0
CPLX:pref_late: 0
CPLX:misses: 0
CPLX:misses_by_poll: 0

NL_L1: 
NL:times selected: 0
NL:pref_filled: 0
NL:pref_useful: 0
NL:pref_late: 0
NL:misses: 0
NL:misses_by_poll: 0

total selections: 1301332
total_filled: 462869
total_useful: 462864
total_late: 149
total_polluted: 6
total_misses_after_warmup: 44760
conflicts: 0
Degree Incremented Times: 639865
Degree Decremented Times: 0

L1 IP Table Write Accesses: 58754740
L1 IP Table Read Accesses: 58754740
L1 RST Write Accesses: 2132736
L1 RST Read Accesses: 4265472
L1 CSPT Write Accesses: 2132736
L1 CSPT Read Accesses: 2132736
L1 RR Filter Tag Write Accesses: 1932561
L1 RR Filter Tag Read Accesses: 374929517
L1 IP Table Tag Write Accesses: 58754740
L1 IP Table Tag Read Accesses: 58754740
L1 RST Tag Write Accesses: 0
L1 RST Tag Read Accesses: 19200046
L1 RR Filter Write Accesses: 0
L1 RR Filter Read Accesses: 18287543
test: 36459
LLC TOTAL     ACCESS:     941728  HIT:     424122  MISS:     517606  HIT %:    45.0366  MISS %:    54.9634   MPKI: 2.58748
LLC LOAD      ACCESS:       7351  HIT:          0  MISS:       7351  HIT %:          0  MISS %:        100   MPKI: 0.0367471
LLC RFO       ACCESS:          0  HIT:          0  MISS:          0  HIT %:       -nan  MISS %:       -nan   MPKI: 0
LLC PREFETCH  ACCESS:     463018  HIT:          0  MISS:     463018  HIT %:          0  MISS %:        100   MPKI: 2.31459
LLC WRITEBACK ACCESS:     470426  HIT:     424121  MISS:      46305  HIT %:    90.1568  MISS %:    9.84321   MPKI: 0.231475

RAW hits: 0
Loads Generated: 30103204
Loads sent to L1D: 30103203
Stores Generated: 3884721
Stores sent to L1D: 3884722

CPU 1 cumulative IPC: 1.14892 instructions: 200022561 cycles: 174096197
ITLB TOTAL     ACCESS:   33145186  HIT:   33145186  MISS:          0  HIT %:        100  MISS %:          0   MPKI: 0
ITLB LOAD      ACCESS:          0  HIT:          0  MISS:          0  HIT %:       -nan  MISS %:       -nan   MPKI: 0
ITLB RFO       ACCESS:          0  HIT:          0  MISS:          0  HIT %:       -nan  MISS %:       -nan   MPKI: 0
ITLB PREFETCH  ACCESS:          0  HIT:          0  MISS:          0  HIT %:       -nan  MISS %:       -nan   MPKI: 0
ITLB WRITEBACK ACCESS:          0  HIT:          0  MISS:          0  HIT %:       -nan  MISS %:       -nan   MPKI: 0
DTLB TOTAL     ACCESS:   18072252  HIT:   18064902  MISS:       7350  HIT %:    99.9593  MISS %:  0.0406701   MPKI: 0.0367459
DTLB LOAD      ACCESS:          0  HIT:          0  MISS:          0  HIT %:       -nan  MISS %:       -nan   MPKI: 0
DTLB RFO       ACCESS:          0  HIT:          0  MISS:          0  HIT %:       -nan  MISS %:       -nan   MPKI: 0
DTLB PREFETCH  ACCESS:          0  HIT:          0  MISS:          0  HIT %:       -nan  MISS %:       -nan   MPKI: 0
DTLB WRITEBACK ACCESS:          0  HIT:          0  MISS:          0  HIT %:       -nan  MISS %:       -nan   MPKI: 0
STLB TOTAL     ACCESS:     434983  HIT:     427633  MISS:       7350  HIT %:    98.3103  MISS %:    1.68972   MPKI: 0.0367459
STLB LOAD      ACCESS:          0  HIT:          0  MISS:          0  HIT %:       -nan  MISS %:       -nan   MPKI: 0
STLB RFO       ACCESS:          0  HIT:          0  MISS:          0  HIT %:       -nan  MISS %:       -nan   MPKI: 0
STLB PREFETCH  ACCESS:          0  HIT:          0  MISS:          0  HIT %:       -nan  MISS %:       -nan   MPKI: 0
STLB WRITEBACK ACCESS:          0  HIT:          0  MISS:          0  HIT %:       -nan  MISS %:       -nan   MPKI: 0
L1D TOTAL     ACCESS:   19018645  HIT:   18548318  MISS:     470327  HIT %:     97.527  MISS %:    2.47298   MPKI: 2.35137
L1D LOAD      ACCESS:   14651264  HIT:   14643558  MISS:       7706  HIT %:    99.9474  MISS %:  0.0525961   MPKI: 0.0385257
L1D RFO       ACCESS:    3884323  HIT:    3884323  MISS:          0  HIT %:        100  MISS %:          0   MPKI: 0
L1D PREFETCH  ACCESS:     483058  HIT:      20437  MISS:     462621  HIT %:    4.23075  MISS %:    95.7692   MPKI: 2.31284
L1D WRITEBACK ACCESS:          0  HIT:          0  MISS:          0  HIT %:       -nan  MISS %:       -nan   MPKI: 0
L1I TOTAL     ACCESS:   33145185  HIT:   33145185  MISS:          0  HIT %:        100  MISS %:          0   MPKI: 0
L1I LOAD      ACCESS:   33145185  HIT:   33145185  MISS:          0  HIT %:        100  MISS %:          0   MPKI: 0
L1I RFO       ACCESS:          0  HIT:          0  MISS:          0  HIT %:       -nan  MISS %:       -nan   MPKI: 0
L1I PREFETCH  ACCESS:          0  HIT:          0  MISS:          0  HIT %:       -nan  MISS %:       -nan   MPKI: 0
L1I WRITEBACK ACCESS:          0  HIT:          0  MISS:          0  HIT %:       -nan  MISS %:       -nan   MPKI: 0
L2C TOTAL     ACCESS:     948004  HIT:     243675  MISS:     704329  HIT %:     25.704  MISS %:     74.296   MPKI: 3.52125
L2C LOAD      ACCESS:       7546  HIT:          0  MISS:       7546  HIT %:          0  MISS %:        100   MPKI: 0.0377257
L2C RFO       ACCESS:          0  HIT:          0  MISS:          0  HIT %:       -nan  MISS %:       -nan   MPKI: 0
L2C PREFETCH  ACCESS:     462781  HIT:          0  MISS:     462781  HIT %:          0  MISS %:        100   MPKI: 2.31364
L2C WRITEBACK ACCESS:     470327  HIT:     237255  MISS:     233072  HIT %:    50.4447  MISS %:    49.5553   MPKI: 1.16523
PSCL5 TOTAL     ACCESS:       7350  HIT:       7350  MISS:          0  HIT %:        100  MISS %:          0   MPKI: 0
PSCL5 LOAD      ACCESS:          0  HIT:          0  MISS:          0  HIT %:       -nan  MISS %:       -nan   MPKI: 0
PSCL5 RFO       ACCESS:          0  HIT:          0  MISS:          0  HIT %:       -nan  MISS %:       -nan   MPKI: 0
PSCL5 PREFETCH  ACCESS:          0  HIT:          0  MISS:          0  HIT %:       -nan  MISS %:       -nan   MPKI: 0
PSCL5 WRITEBACK ACCESS:          0  HIT:          0  MISS:          0  HIT %:       -nan  MISS %:       -nan   MPKI: 0
PSCL4 TOTAL     ACCESS:       7350  HIT:       7350  MISS:          0  HIT %:        100  MISS %:          0   MPKI: 0
PSCL4 LOAD      ACCESS:          0  HIT:          0  MISS:          0  HIT %:       -nan  MISS %:       -nan   MPKI: 0
PSCL4 RFO       ACCESS:          0  HIT:          0  MISS:          0  HIT %:       -nan  MISS %:       -nan   MPKI: 0
PSCL4 PREFETCH  ACCESS:          0  HIT:          0  MISS:          0  HIT %:       -nan  MISS %:       -nan   MPKI: 0
PSCL4 WRITEBACK ACCESS:          0  HIT:          0  MISS:          0  HIT %:       -nan  MISS %:       -nan   MPKI: 0
PSCL3 TOTAL     ACCESS:       7350  HIT:       7350  MISS:          0  HIT %:        100  MISS %:          0   MPKI: 0
PSCL3 LOAD      ACCESS:          0  HIT:          0  MISS:          0  HIT %:       -nan  MISS %:       -nan   MPKI: 0
PSCL3 RFO       ACCESS:          0  HIT:          0  MISS:          0  HIT %:       -nan  MISS %:       -nan   MPKI: 0
PSCL3 PREFETCH  ACCESS:          0  HIT:          0  MISS:          0  HIT %:       -nan  MISS %:       -nan   MPKI: 0
PSCL3 WRITEBACK ACCESS:          0  HIT:          0  MISS:          0  HIT %:       -nan  MISS %:       -nan   MPKI: 0
PSCL2 TOTAL     ACCESS:       7350  HIT:       7336  MISS:         14  HIT %:    99.8095  MISS %:   0.190476   MPKI: 6.99921e-05
PSCL2 LOAD      ACCESS:          0  HIT:          0  MISS:          0  HIT %:       -nan  MISS %:       -nan   MPKI: 0
PSCL2 RFO       ACCESS:          0  HIT:          0  MISS:          0  HIT %:       -nan  MISS %:       -nan   MPKI: 0
PSCL2 PREFETCH  ACCESS:          0  HIT:          0  MISS:          0  HIT %:       -nan  MISS %:       -nan   MPKI: 0
PSCL2 WRITEBACK ACCESS:          0  HIT:          0  MISS:          0  HIT %:       -nan  MISS %:       -nan   MPKI: 0

stream: 
stream:times selected: 650599
stream:pref_filled: 460909
stream:pref_useful: 460898
stream:pref_late: 154
stream:misses: 25
stream:misses_by_poll: 0

CS: 
CS:times selected: 650592
CS:pref_filled: 1712
CS:pref_useful: 1712
CS:pref_late: 6
CS:misses: 267178
CS:misses_by_poll: 4

CPLX: 
CPLX:times selected: 5
CPLX:pref_filled: 0
CPLX:pref_useful: 0
CPLX:pref_late: 0
CPLX:misses: 10
CPLX:misses_by_poll: 0

NL_L1: 
NL:times selected: 0
NL:pref_filled: 0
NL:pref_useful: 0
NL:pref_late: 0
NL:misses: 0
NL:misses_by_poll: 0

total selections: 1301196
total_filled: 462621
total_useful: 462610
total_late: 160
total_polluted: 4
total_misses_after_warmup: 46433
conflicts: 0
Degree Incremented Times: 639865
Degree Decremented Times: 0

L1 IP Table Write Accesses: 58754740
L1 IP Table Read Accesses: 58754740
L1 RST Write Accesses: 2132736
L1 RST Read Accesses: 4265472
L1 CSPT Write Accesses: 2132736
L1 CSPT Read Accesses: 2132736
L1 RR Filter Tag Write Accesses: 1932561
L1 RR Filter Tag Read Accesses: 374929517
L1 IP Table Tag Write Accesses: 58754740
L1 IP Table Tag Read Accesses: 58754740
L1 RST Tag Write Accesses: 0
L1 RST Tag Read Accesses: 19200046
L1 RR Filter Write Accesses: 0
L1 RR Filter Read Accesses: 18287543
test: 36459
LLC TOTAL     ACCESS:     941565  HIT:     423204  MISS:     518361  HIT %:    44.9469  MISS %:    55.0531   MPKI: 2.59151
LLC LOAD      ACCESS:       7546  HIT:          0  MISS:       7546  HIT %:          0  MISS %:        100   MPKI: 0.0377257
LLC RFO       ACCESS:          0  HIT:          0  MISS:          0  HIT %:       -nan  MISS %:       -nan   MPKI: 0
LLC PREFETCH  ACCESS:     462781  HIT:          0  MISS:     462781  HIT %:          0  MISS %:        100   MPKI: 2.31364
LLC WRITEBACK ACCESS:     470308  HIT:     423204  MISS:      47104  HIT %:    89.9844  MISS %:    10.0156   MPKI: 0.235493

RAW hits: 0
Loads Generated: 30100158
Loads sent to L1D: 30100158
Stores Generated: 3884323
Stores sent to L1D: 3884323

CPU 2 cumulative IPC: 1.14885 instructions: 200010579 cycles: 174096197
ITLB TOTAL     ACCESS:   33143253  HIT:   33143253  MISS:          0  HIT %:        100  MISS %:          0   MPKI: 0
ITLB LOAD      ACCESS:          0  HIT:          0  MISS:          0  HIT %:       -nan  MISS %:       -nan   MPKI: 0
ITLB RFO       ACCESS:          0  HIT:          0  MISS:          0  HIT %:       -nan  MISS %:       -nan   MPKI: 0
ITLB PREFETCH  ACCESS:          0  HIT:          0  MISS:          0  HIT %:       -nan  MISS %:       -nan   MPKI: 0
ITLB WRITEBACK ACCESS:          0  HIT:          0  MISS:          0  HIT %:       -nan  MISS %:       -nan   MPKI: 0
DTLB TOTAL     ACCESS:   18068537  HIT:   18061187  MISS:       7350  HIT %:    99.9593  MISS %:  0.0406784   MPKI: 0.0367481
DTLB LOAD      ACCESS:          0  HIT:          0  MISS:          0  HIT %:       -nan  MISS %:       -nan   MPKI: 0
DTLB RFO       ACCESS:          0  HIT:          0  MISS:          0  HIT %:       -nan  MISS %:       -nan   MPKI: 0
DTLB PREFETCH  ACCESS:          0  HIT:          0  MISS:          0  HIT %:       -nan  MISS %:       -nan   MPKI: 0
DTLB WRITEBACK ACCESS:          0  HIT:          0  MISS:          0  HIT %:       -nan  MISS %:       -nan   MPKI: 0
STLB TOTAL     ACCESS:     432855  HIT:     425505  MISS:       7350  HIT %:     98.302  MISS %:    1.69803   MPKI: 0.0367481
STLB LOAD      ACCESS:          0  HIT:          0  MISS:          0  HIT %:       -nan  MISS %:       -nan   MPKI: 0
STLB RFO       ACCESS:          0  HIT:          0  MISS:          0  HIT %:       -nan  MISS %:       -nan   MPKI: 0
STLB PREFETCH  ACCESS:          0  HIT:          0  MISS:          0  HIT %:       -nan  MISS %:       -nan   MPKI: 0
STLB WRITEBACK ACCESS:          0  HIT:          0  MISS:          0  HIT %:       -nan  MISS %:       -nan   MPKI: 0
L1D TOTAL     ACCESS:   19013012  HIT:   18542713  MISS:     470299  HIT %:    97.5264  MISS %:    2.47356   MPKI: 2.35137
L1D LOAD      ACCESS:   14646040  HIT:   14638037  MISS:       8003  HIT %:    99.9454  MISS %:  0.0546428   MPKI: 0.0400129
L1D RFO       ACCESS:    3884088  HIT:    3884088  MISS:          0  HIT %:        100  MISS %:          0   MPKI: 0
L1D PREFETCH  ACCESS:     482884  HIT:      20588  MISS:     462296  HIT %:    4.26355  MISS %:    95.7365   MPKI: 2.31136
L1D WRITEBACK ACCESS:          0  HIT:          0  MISS:          0  HIT %:       -nan  MISS %:       -nan   MPKI: 0
L1I TOTAL     ACCESS:   33143252  HIT:   33143252  MISS:          0  HIT %:        100  MISS %:          0   MPKI: 0
L1I LOAD      ACCESS:   33143252  HIT:   33143252  MISS:          0  HIT %:        100  MISS %:          0   MPKI: 0
L1I RFO       ACCESS:          0  HIT:          0  MISS:          0  HIT %:       -nan  MISS %:       -nan   MPKI: 0
L1I PREFETCH  ACCESS:          0  HIT:          0  MISS:          0  HIT %:       -nan  MISS %:       -nan   MPKI: 0
L1I WRITEBACK ACCESS:          0  HIT:          0  MISS:          0  HIT %:       -nan  MISS %:       -nan   MPKI: 0
L2C TOTAL     ACCESS:     947948  HIT:     245117  MISS:     702831  HIT %:    25.8576  MISS %:    74.1424   MPKI: 3.51397
L2C LOAD      ACCESS:       7842  HIT:          0  MISS:       7842  HIT %:          0  MISS %:        100   MPKI: 0.0392079
L2C RFO       ACCESS:          0  HIT:          0  MISS:          0  HIT %:       -nan  MISS %:       -nan   MPKI: 0
L2C PREFETCH  ACCESS:     462457  HIT:          0  MISS:     462457  HIT %:          0  MISS %:        100   MPKI: 2.31216
L2C WRITEBACK ACCESS:     470299  HIT:     238699  MISS:     231600  HIT %:    50.7547  MISS %:    49.2453   MPKI: 1.15794
PSCL5 TOTAL     ACCESS:       7350  HIT:       7350  MISS:          0  HIT %:        100  MISS %:          0   MPKI: 0
PSCL5 LOAD      ACCESS:          0  HIT:          0  MISS:          0  HIT %:       -nan  MISS %:       -nan   MPKI: 0
PSCL5 RFO       ACCESS:          0  HIT:          0  MISS:          0  HIT %:       -nan  MISS %:       -nan   MPKI: 0
PSCL5 PREFETCH  ACCESS:          0  HIT:          0  MISS:          0  HIT %:       -nan  MISS %:       -nan   MPKI: 0
PSCL5 WRITEBACK ACCESS:          0  HIT:          0  MISS:          0  HIT %:       -nan  MISS %:       -nan   MPKI: 0
PSCL4 TOTAL     ACCESS:       7350  HIT:       7350  MISS:          0  HIT %:        100  MISS %:          0   MPKI: 0
PSCL4 LOAD      ACCESS:          0  HIT:          0  MISS:          0  HIT %:       -nan  MISS %:       -nan   MPKI: 0
PSCL4 RFO       ACCESS:          0  HIT:          0  MISS:          0  HIT %:       -nan  MISS %:       -nan   MPKI: 0
PSCL4 PREFETCH  ACCESS:          0  HIT:          0  MISS:          0  HIT %:       -nan  MISS %:       -nan   MPKI: 0
PSCL4 WRITEBACK ACCESS:          0  HIT:          0  MISS:          0  HIT %:       -nan  MISS %:       -nan   MPKI: 0
PSCL3 TOTAL     ACCESS:       7350  HIT:       7350  MISS:          0  HIT %:        100  MISS %:          0   MPKI: 0
PSCL3 LOAD      ACCESS:          0  HIT:          0  MISS:          0  HIT %:       -nan  MISS %:       -nan   MPKI: 0
PSCL3 RFO       ACCESS:          0  HIT:          0  MISS:          0  HIT %:       -nan  MISS %:       -nan   MPKI: 0
PSCL3 PREFETCH  ACCESS:          0  HIT:          0  MISS:          0  HIT %:       -nan  MISS %:       -nan   MPKI: 0
PSCL3 WRITEBACK ACCESS:          0  HIT:          0  MISS:          0  HIT %:       -nan  MISS %:       -nan   MPKI: 0
PSCL2 TOTAL     ACCESS:       7350  HIT:       7336  MISS:         14  HIT %:    99.8095  MISS %:   0.190476   MPKI: 6.99963e-05
PSCL2 LOAD      ACCESS:          0  HIT:          0  MISS:          0  HIT %:       -nan  MISS %:       -nan   MPKI: 0
PSCL2 RFO       ACCESS:          0  HIT:          0  MISS:          0  HIT %:       -nan  MISS %:       -nan   MPKI: 0
PSCL2 PREFETCH  ACCESS:          0  HIT:          0  MISS:          0  HIT %:       -nan  MISS %:       -nan   MPKI: 0
PSCL2 WRITEBACK ACCESS:          0  HIT:          0  MISS:          0  HIT %:       -nan  MISS %:       -nan   MPKI: 0

stream: 
stream:times selected: 650581
stream:pref_filled: 460168
stream:pref_useful: 460157
stream:pref_late: 151
stream:misses: 29
stream:misses_by_poll: 0

CS: 
CS:times selected: 650574
CS:pref_filled: 2128
CS:pref_useful: 2128
CS:pref_late: 7
CS:misses: 271977
CS:misses_by_poll: 5

CPLX: 
CPLX:times selected: 5
CPLX:pref_filled: 0
CPLX:pref_useful: 0
CPLX:pref_late: 0
CPLX:misses: 10
CPLX:misses_by_poll: 0

NL_L1: 
NL:times selected: 0
NL:pref_filled: 0
NL:pref_useful: 0
NL:pref_late: 0
NL:misses: 0
NL:misses_by_poll: 0

total selections: 1301160
total_filled: 462296
total_useful: 462285
total_late: 161
total_polluted: 5
total_misses_after_warmup: 48630
conflicts: 0
Degree Incremented Times: 639865
Degree Decremented Times: 0

L1 IP Table Write Accesses: 58754740
L1 IP Table Read Accesses: 58754740
L1 RST Write Accesses: 2132736
L1 RST Read Accesses: 4265472
L1 CSPT Write Accesses: 2132736
L1 CSPT Read Accesses: 2132736
L1 RR Filter Tag Write Accesses: 1932561
L1 RR Filter Tag Read Accesses: 374929517
L1 IP Table Tag Write Accesses: 58754740
L1 IP Table Tag Read Accesses: 58754740
L1 RST Tag Write Accesses: 0
L1 RST Tag Read Accesses: 19200046
L1 RR Filter Write Accesses: 0
L1 RR Filter Read Accesses: 18287543
test: 36459
LLC TOTAL     ACCESS:     941454  HIT:     422867  MISS:     518587  HIT %:    44.9164  MISS %:    55.0836   MPKI: 2.5928
LLC LOAD      ACCESS:       7842  HIT:          0  MISS:       7842  HIT %:          0  MISS %:        100   MPKI: 0.0392079
LLC RFO       ACCESS:          0  HIT:          0  MISS:          0  HIT %:       -nan  MISS %:       -nan   MPKI: 0
LLC PREFETCH  ACCESS:     462457  HIT:          0  MISS:     462457  HIT %:          0  MISS %:        100   MPKI: 2.31216
LLC WRITEBACK ACCESS:     470223  HIT:     422863  MISS:      47360  HIT %:    89.9282  MISS %:    10.0718   MPKI: 0.236787

RAW hits: 0
Loads Generated: 30098372
Loads sent to L1D: 30098370
Stores Generated: 3884090
Stores sent to L1D: 3884089

CPU 3 cumulative IPC: 1.14879 instructions: 200000001 cycles: 174096197
ITLB TOTAL     ACCESS:   33141489  HIT:   33141489  MISS:          0  HIT %:        100  MISS %:          0   MPKI: 0
ITLB LOAD      ACCESS:          0  HIT:          0  MISS:          0  HIT %:       -nan  MISS %:       -nan   MPKI: 0
ITLB RFO       ACCESS:          0  HIT:          0  MISS:          0  HIT %:       -nan  MISS %:       -nan   MPKI: 0
ITLB PREFETCH  ACCESS:          0  HIT:          0  MISS:          0  HIT %:       -nan  MISS %:       -nan   MPKI: 0
ITLB WRITEBACK ACCESS:          0  HIT:          0  MISS:          0  HIT %:       -nan  MISS %:       -nan   MPKI: 0
DTLB TOTAL     ACCESS:   18066438  HIT:   18059090  MISS:       7348  HIT %:    99.9593  MISS %:  0.0406721   MPKI: 0.03674
DTLB LOAD      ACCESS:          0  HIT:          0  MISS:          0  HIT %:       -nan  MISS %:       -nan   MPKI: 0
DTLB RFO       ACCESS:          0  HIT:          0  MISS:          0  HIT %:       -nan  MISS %:       -nan   MPKI: 0
DTLB PREFETCH  ACCESS:          0  HIT:          0  MISS:          0  HIT %:       -nan  MISS %:       -nan   MPKI: 0
DTLB WRITEBACK ACCESS:          0  HIT:          0  MISS:          0  HIT %:       -nan  MISS %:       -nan   MPKI: 0
STLB TOTAL     ACCESS:     432348  HIT:     425000  MISS:       7348  HIT %:    98.3004  MISS %:    1.69956   MPKI: 0.03674
STLB LOAD      ACCESS:          0  HIT:          0  MISS:          0  HIT %:       -nan  MISS %:       -nan   MPKI: 0
STLB RFO       ACCESS:          0  HIT:          0  MISS:          0  HIT %:       -nan  MISS %:       -nan   MPKI: 0
STLB PREFETCH  ACCESS:          0  HIT:          0  MISS:          0  HIT %:       -nan  MISS %:       -nan   MPKI: 0
STLB WRITEBACK ACCESS:          0  HIT:          0  MISS:          0  HIT %:       -nan  MISS %:       -nan   MPKI: 0
L1D TOTAL     ACCESS:   19009838  HIT:   18539570  MISS:     470268  HIT %:    97.5262  MISS %:    2.47381   MPKI: 2.35134
L1D LOAD      ACCESS:   14643309  HIT:   14635176  MISS:       8133  HIT %:    99.9445  MISS %:  0.0555407   MPKI: 0.040665
L1D RFO       ACCESS:    3883881  HIT:    3883881  MISS:          0  HIT %:        100  MISS %:          0   MPKI: 0
L1D PREFETCH  ACCESS:     482648  HIT:      20513  MISS:     462135  HIT %:     4.2501  MISS %:    95.7499   MPKI: 2.31067
L1D WRITEBACK ACCESS:          0  HIT:          0  MISS:          0  HIT %:       -nan  MISS %:       -nan   MPKI: 0
L1I TOTAL     ACCESS:   33141489  HIT:   33141489  MISS:          0  HIT %:        100  MISS %:          0   MPKI: 0
L1I LOAD      ACCESS:   33141489  HIT:   33141489  MISS:          0  HIT %:        100  MISS %:          0   MPKI: 0
L1I RFO       ACCESS:          0  HIT:          0  MISS:          0  HIT %:       -nan  MISS %:       -nan   MPKI: 0
L1I PREFETCH  ACCESS:          0  HIT:          0  MISS:          0  HIT %:       -nan  MISS %:       -nan   MPKI: 0
L1I WRITEBACK ACCESS:          0  HIT:          0  MISS:          0  HIT %:       -nan  MISS %:       -nan   MPKI: 0
L2C TOTAL     ACCESS:     947884  HIT:     243596  MISS:     704288  HIT %:    25.6989  MISS %:    74.3011   MPKI: 3.52144
L2C LOAD      ACCESS:       7951  HIT:          0  MISS:       7951  HIT %:          0  MISS %:        100   MPKI: 0.039755
L2C RFO       ACCESS:          0  HIT:          0  MISS:          0  HIT %:       -nan  MISS %:       -nan   MPKI: 0
L2C PREFETCH  ACCESS:     462317  HIT:          0  MISS:     462317  HIT %:          0  MISS %:        100   MPKI: 2.31158
L2C WRITEBACK ACCESS:     470268  HIT:     237182  MISS:     233086  HIT %:    50.4355  MISS %:    49.5645   MPKI: 1.16543
PSCL5 TOTAL     ACCESS:       7348  HIT:       7348  MISS:          0  HIT %:        100  MISS %:          0   MPKI: 0
PSCL5 LOAD      ACCESS:          0  HIT:          0  MISS:          0  HIT %:       -nan  MISS %:       -nan   MPKI: 0
PSCL5 RFO       ACCESS:          0  HIT:          0  MISS:          0  HIT %:       -nan  MISS %:       -nan   MPKI: 0
PSCL5 PREFETCH  ACCESS:          0  HIT:          0  MISS:          0  HIT %:       -nan  MISS %:       -nan   MPKI: 0
PSCL5 WRITEBACK ACCESS:          0  HIT:          0  MISS:          0  HIT %:       -nan  MISS %:       -nan   MPKI: 0
PSCL4 TOTAL     ACCESS:       7348  HIT:       7348  MISS:          0  HIT %:        100  MISS %:          0   MPKI: 0
PSCL4 LOAD      ACCESS:          0  HIT:          0  MISS:          0  HIT %:       -nan  MISS %:       -nan   MPKI: 0
PSCL4 RFO       ACCESS:          0  HIT:          0  MISS:          0  HIT %:       -nan  MISS %:       -nan   MPKI: 0
PSCL4 PREFETCH  ACCESS:          0  HIT:          0  MISS:          0  HIT %:       -nan  MISS %:       -nan   MPKI: 0
PSCL4 WRITEBACK ACCESS:          0  HIT:          0  MISS:          0  HIT %:       -nan  MISS %:       -nan   MPKI: 0
PSCL3 TOTAL     ACCESS:       7348  HIT:       7348  MISS:          0  HIT %:        100  MISS %:          0   MPKI: 0
PSCL3 LOAD      ACCESS:          0  HIT:          0  MISS:          0  HIT %:       -nan  MISS %:       -nan   MPKI: 0
PSCL3 RFO       ACCESS:          0  HIT:          0  MISS:          0  HIT %:       -nan  MISS %:       -nan   MPKI: 0
PSCL3 PREFETCH  ACCESS:          0  HIT:          0  MISS:          0  HIT %:       -nan  MISS %:       -nan   MPKI: 0
PSCL3 WRITEBACK ACCESS:          0  HIT:          0  MISS:          0  HIT %:       -nan  MISS %:       -nan   MPKI: 0
PSCL2 TOTAL     ACCESS:       7348  HIT:       7334  MISS:         14  HIT %:    99.8095  MISS %:   0.190528   MPKI: 7e-05
PSCL2 LOAD      ACCESS:          0  HIT:          0  MISS:          0  HIT %:       -nan  MISS %:       -nan   MPKI: 0
PSCL2 RFO       ACCESS:          0  HIT:          0  MISS:          0  HIT %:       -nan  MISS %:       -nan   MPKI: 0
PSCL2 PREFETCH  ACCESS:          0  HIT:          0  MISS:          0  HIT %:       -nan  MISS %:       -nan   MPKI: 0
PSCL2 WRITEBACK ACCESS:          0  HIT:          0  MISS:          0  HIT %:       -nan  MISS %:       -nan   MPKI: 0

stream: 
stream:times selected: 650533
stream:pref_filled: 460118
stream:pref_useful: 460112
stream:pref_late: 174
stream:misses: 28
stream:misses_by_poll: 0

CS: 
CS:times selected: 650526
CS:pref_filled: 2017
CS:pref_useful: 2017
CS:pref_late: 8
CS:misses: 273136
CS:misses_by_poll: 7

CPLX: 
CPLX:times selected: 5
CPLX:pref_filled: 0
CPLX:pref_useful: 0
CPLX:pref_late: 0
CPLX:misses: 10
CPLX:misses_by_poll: 0

NL_L1: 
NL:times selected: 0
NL:pref_filled: 0
NL:pref_useful: 0
NL:pref_late: 0
NL:misses: 0
NL:misses_by_poll: 0

total selections: 1301064
total_filled: 462135
total_useful: 462129
total_late: 182
total_polluted: 7
total_misses_after_warmup: 49674
conflicts: 0
Degree Incremented Times: 639865
Degree Decremented Times: 0

L1 IP Table Write Accesses: 58754740
L1 IP Table Read Accesses: 58754740
L1 RST Write Accesses: 2132736
L1 RST Read Accesses: 4265472
L1 CSPT Write Accesses: 2132736
L1 CSPT Read Accesses: 2132736
L1 RR Filter Tag Write Accesses: 1932561
L1 RR Filter Tag Read Accesses: 374929517
L1 IP Table Tag Write Accesses: 58754740
L1 IP Table Tag Read Accesses: 58754740
L1 RST Tag Write Accesses: 0
L1 RST Tag Read Accesses: 19200046
L1 RR Filter Write Accesses: 0
L1 RR Filter Read Accesses: 18287543
test: 36459
LLC TOTAL     ACCESS:     941361  HIT:     422305  MISS:     519056  HIT %:    44.8611  MISS %:    55.1389   MPKI: 2.59528
LLC LOAD      ACCESS:       7951  HIT:          0  MISS:       7951  HIT %:          0  MISS %:        100   MPKI: 0.039755
LLC RFO       ACCESS:          0  HIT:          0  MISS:          0  HIT %:       -nan  MISS %:       -nan   MPKI: 0
LLC PREFETCH  ACCESS:     462317  HIT:          0  MISS:     462317  HIT %:          0  MISS %:        100   MPKI: 2.31158
LLC WRITEBACK ACCESS:     470159  HIT:     422304  MISS:      47855  HIT %:    89.8215  MISS %:    10.1785   MPKI: 0.239275

RAW hits: 0
Loads Generated: 30096765
Loads sent to L1D: 30096765
Stores Generated: 3883880
Stores sent to L1D: 3883881

Region of Interest Statistics

CPU 0 cumulative IPC: 1.14904 instructions: 200000003 cycles: 174058730
ITLB TOTAL     ACCESS:   33141521  HIT:   33141521  MISS:          0  HIT %:        100  MISS %:          0   MPKI: 0
ITLB LOAD TRANSLATION ACCESS:   33141521  HIT:   33141521  MISS:          0  HIT %:        100  MISS %:          0   MPKI: 0
ITLB PREFETCH  REQUESTED:          0  ISSUED:          0  USEFUL:          0  USELESS:          0
ITLB USEFUL LOAD PREFETCHES:          0 PREFETCH ISSUED TO LOWER LEVEL:          0  ACCURACY: -nan
ITLB TIMELY PREFETCHES:          0 LATE PREFETCHES: 0 DROPPED PREFETCHES: 0
ITLB PREFETCHES SAME FILL-ORIGIN LEVEL: 0 DIFFERENT FILL-ORIGIN LEVEL: 0
ITLB AVERAGE MISS LATENCY: -nan cycles
ITLB RQ	ACCESS:   33148557	FORWARD:          0	MERGED:          0	TO_CACHE:   33148557

DTLB TOTAL     ACCESS:   18072187  HIT:   18064838  MISS:       7349  HIT %:    99.9593  MISS %:  0.0406647   MPKI: 0.036745
DTLB LOAD TRANSLATION ACCESS:   18072187  HIT:   18064838  MISS:       7349  HIT %:    99.9593  MISS %:  0.0406647   MPKI: 0.036745
DTLB PREFETCH  REQUESTED:          0  ISSUED:          0  USEFUL:          0  USELESS:          0
DTLB USEFUL LOAD PREFETCHES:          0 PREFETCH ISSUED TO LOWER LEVEL:          0  ACCURACY: -nan
DTLB TIMELY PREFETCHES:          0 LATE PREFETCHES: 0 DROPPED PREFETCHES: 0
DTLB PREFETCHES SAME FILL-ORIGIN LEVEL: 0 DIFFERENT FILL-ORIGIN LEVEL: 0
DTLB AVERAGE MISS LATENCY: 147.776 cycles
DTLB RQ	ACCESS:   18577954	FORWARD:          0	MERGED:     501868	TO_CACHE:   18076086

STLB TOTAL     ACCESS:     434853  HIT:     427504  MISS:       7349  HIT %:      98.31  MISS %:       1.69   MPKI: 0.036745
STLB LOAD TRANSLATION ACCESS:       7349  HIT:          0  MISS:       7349  HIT %:          0  MISS %:        100   MPKI: 0.036745
STLB TRANSLATION FROM L1D PREFETCHER ACCESS:     427504  HIT:     427504  MISS:          0  HIT %:        100  MISS %:          0   MPKI: 0
STLB PREFETCH  REQUESTED:          0  ISSUED:          0  USEFUL:          0  USELESS:          0
STLB USEFUL LOAD PREFETCHES:          0 PREFETCH ISSUED TO LOWER LEVEL:          0  ACCURACY: -nan
STLB TIMELY PREFETCHES:          0 LATE PREFETCHES: 0 DROPPED PREFETCHES: 0
STLB PREFETCHES SAME FILL-ORIGIN LEVEL: 0 DIFFERENT FILL-ORIGIN LEVEL: 0
STLB AVERAGE MISS LATENCY: 138.774 cycles
STLB RQ	ACCESS:     490793	FORWARD:          0	MERGED:      55849	TO_CACHE:     434944

STLB Hit, L1D data hit: 0
STLB Hit, L2C data hit: 0
STLB Hit, LLC data hit: 0
STLB Hit, LLC data miss: 0
STLB STLB hints to L2: 0
L1D TOTAL     ACCESS:   19019905  HIT:   18549641  MISS:     470264  HIT %:    97.5275  MISS %:    2.47248   MPKI: 2.35132
L1D LOAD      ACCESS:   14652835  HIT:   14645337  MISS:       7498  HIT %:    99.9488  MISS %:   0.051171   MPKI: 0.03749
L1D RFO       ACCESS:    3883881  HIT:    3883881  MISS:          0  HIT %:        100  MISS %:          0   MPKI: 0
L1D PREFETCH  ACCESS:     483189  HIT:      20423  MISS:     462766  HIT %:    4.22671  MISS %:    95.7733   MPKI: 2.31383
L1D PREFETCH  REQUESTED:     966884  ISSUED:     966884  USEFUL:     462864  USELESS:          0
L1D USEFUL LOAD PREFETCHES:     462864 PREFETCH ISSUED TO LOWER LEVEL:     463019  ACCURACY: 99.9665
L1D TIMELY PREFETCHES:     462864 LATE PREFETCHES: 149 DROPPED PREFETCHES: 0
L1D PREFETCHES SAME FILL-ORIGIN LEVEL: 463019 DIFFERENT FILL-ORIGIN LEVEL: 0
L1D AVERAGE MISS LATENCY: 230.815 cycles
L1D RQ	ACCESS:   30103203	FORWARD:          0	MERGED:   15409971	TO_CACHE:   14693232
L1D WQ	ACCESS:    3884722	FORWARD:          0	MERGED:          0	TO_CACHE:    3884722
L1D PQ	ACCESS:     483442	FORWARD:          0	MERGED:          0	TO_CACHE:     483442

L1D UNIQUE REGIONS ACCESSED: 0
L1D REGIONS CONFLICTS: 0
L1D Cross Page Prefetch Requests: 0
L1D Same Page Prefetch Requests: 599052
L1D ROI Sum of L1D PQ occupancy: 5357822
L1D PREFETCHES PUSHED FROM L2C: 0
L1I TOTAL     ACCESS:   33141521  HIT:   33141521  MISS:          0  HIT %:        100  MISS %:          0   MPKI: 0
L1I LOAD      ACCESS:   33141521  HIT:   33141521  MISS:          0  HIT %:        100  MISS %:          0   MPKI: 0
L1I PREFETCH  REQUESTED:          0  ISSUED:          0  USEFUL:          0  USELESS:          0
L1I USEFUL LOAD PREFETCHES:          0 PREFETCH ISSUED TO LOWER LEVEL:          0  ACCURACY: -nan
L1I TIMELY PREFETCHES:          0 LATE PREFETCHES: 0 DROPPED PREFETCHES: 0
L1I PREFETCHES SAME FILL-ORIGIN LEVEL: 0 DIFFERENT FILL-ORIGIN LEVEL: 0
L1I AVERAGE MISS LATENCY: -nan cycles
L1I RQ	ACCESS:   80993994	FORWARD:          0	MERGED:   47845437	TO_CACHE:   33148557

BTB TOTAL     ACCESS:   60193643  HIT:   60193640  MISS:          3  HIT %:        100  MISS %: 4.98391e-06   MPKI: 1.5e-05
BTB BRANCH_DIRECT_JUMP	ACCESS:          0  HIT:          0  MISS:          0
BTB BRANCH_INDIRECT	ACCESS:          0  HIT:          0  MISS:          0
BTB BRANCH_CONDITIONAL	ACCESS:   60193643  HIT:   60193640  MISS:          3
BTB BRANCH_DIRECT_CALL	ACCESS:          0  HIT:          0  MISS:          0
BTB BRANCH_INDIRECT_CALL	ACCESS:          0  HIT:          0  MISS:          0
BTB BRANCH_RETURN	ACCESS:          0  HIT:          0  MISS:          0
BTB BRANCH_OTHER ACCESS:          0  HIT:          0  MISS:          0

L2C TOTAL     ACCESS:     947876  HIT:     247388  MISS:     700488  HIT %:    26.0992  MISS %:    73.9008   MPKI: 3.50244
L2C LOAD      ACCESS:       7349  HIT:          0  MISS:       7349  HIT %:          0  MISS %:        100   MPKI: 0.036745
L2C DATA LOAD MPKI: 0.036745
L2C INSTRUCTION LOAD MPKI: 0
L2C PREFETCH  ACCESS:     462915  HIT:          0  MISS:     462915  HIT %:          0  MISS %:        100   MPKI: 2.31457
L2C DATA PREFETCH MPKI: 2.31457
L2C INSTRUCTION PREFETCH MPKI: 0
L2C WRITEBACK ACCESS:     470263  HIT:     240972  MISS:     229291  HIT %:     51.242  MISS %:     48.758   MPKI: 1.14645
L2C LOAD TRANSLATION ACCESS:       7349  HIT:       6416  MISS:        933  HIT %:    87.3044  MISS %:    12.6956   MPKI: 0.004665
L2C PREFETCH  REQUESTED:          0  ISSUED:          0  USEFUL:          0  USELESS:     463435
L2C USEFUL LOAD PREFETCHES:          0 PREFETCH ISSUED TO LOWER LEVEL:     463019  ACCURACY: 0
L2C TIMELY PREFETCHES:          0 LATE PREFETCHES: 0 DROPPED PREFETCHES: 0
L2C PREFETCHES SAME FILL-ORIGIN LEVEL: 0 DIFFERENT FILL-ORIGIN LEVEL: 0
L2C AVERAGE MISS LATENCY: 146.555 cycles
L2C RQ	ACCESS:      14702	FORWARD:          0	MERGED:          0	TO_CACHE:      14702
L2C WQ	ACCESS:     470369	FORWARD:          0	MERGED:          0	TO_CACHE:     470369
L2C PQ	ACCESS:     463019	FORWARD:          0	MERGED:          0	TO_CACHE:     463019

L2C Instructions Evicting Data 0
L2C Translations Evicting Data 933
L2C Data Evicting Data 469628
L2C Instructions Evicting Instructions 0
L2C Translations Evicting Instructions 0
L2C Data Evicting Instructions 0
L2C Instructions Evicting Translations 0
L2C Translations Evicting Translations 0
L2C Data Evicting Translations 741
L2C Dense regions hint from L2: 0
PSCL5 TOTAL     ACCESS:       7349  HIT:       7349  MISS:          0  HIT %:        100  MISS %:          0   MPKI: 0
PSCL5 LOAD TRANSLATION ACCESS:       7349  HIT:       7349  MISS:          0  HIT %:        100  MISS %:          0   MPKI: 0
PSCL5 PREFETCH  REQUESTED:          0  ISSUED:          0  USEFUL:          0  USELESS:          0
PSCL5 USEFUL LOAD PREFETCHES:          0 PREFETCH ISSUED TO LOWER LEVEL:          0  ACCURACY: -nan
PSCL5 TIMELY PREFETCHES:          0 LATE PREFETCHES: 0 DROPPED PREFETCHES: 0
PSCL5 PREFETCHES SAME FILL-ORIGIN LEVEL: 0 DIFFERENT FILL-ORIGIN LEVEL: 0

PSCL4 TOTAL     ACCESS:       7349  HIT:       7349  MISS:          0  HIT %:        100  MISS %:          0   MPKI: 0
PSCL4 LOAD TRANSLATION ACCESS:       7349  HIT:       7349  MISS:          0  HIT %:        100  MISS %:          0   MPKI: 0
PSCL4 PREFETCH  REQUESTED:          0  ISSUED:          0  USEFUL:          0  USELESS:          0
PSCL4 USEFUL LOAD PREFETCHES:          0 PREFETCH ISSUED TO LOWER LEVEL:          0  ACCURACY: -nan
PSCL4 TIMELY PREFETCHES:          0 LATE PREFETCHES: 0 DROPPED PREFETCHES: 0
PSCL4 PREFETCHES SAME FILL-ORIGIN LEVEL: 0 DIFFERENT FILL-ORIGIN LEVEL: 0

PSCL3 TOTAL     ACCESS:       7349  HIT:       7349  MISS:          0  HIT %:        100  MISS %:          0   MPKI: 0
PSCL3 LOAD TRANSLATION ACCESS:       7349  HIT:       7349  MISS:          0  HIT %:        100  MISS %:          0   MPKI: 0
PSCL3 PREFETCH  REQUESTED:          0  ISSUED:          0  USEFUL:          0  USELESS:          0
PSCL3 USEFUL LOAD PREFETCHES:          0 PREFETCH ISSUED TO LOWER LEVEL:          0  ACCURACY: -nan
PSCL3 TIMELY PREFETCHES:          0 LATE PREFETCHES: 0 DROPPED PREFETCHES: 0
PSCL3 PREFETCHES SAME FILL-ORIGIN LEVEL: 0 DIFFERENT FILL-ORIGIN LEVEL: 0

PSCL2 TOTAL     ACCESS:       7349  HIT:       7335  MISS:         14  HIT %:    99.8095  MISS %:   0.190502   MPKI: 7e-05
PSCL2 LOAD TRANSLATION ACCESS:       7349  HIT:       7335  MISS:         14  HIT %:    99.8095  MISS %:   0.190502   MPKI: 7e-05
PSCL2 PREFETCH  REQUESTED:          0  ISSUED:          0  USEFUL:          0  USELESS:          0
PSCL2 USEFUL LOAD PREFETCHES:          0 PREFETCH ISSUED TO LOWER LEVEL:          0  ACCURACY: -nan
PSCL2 TIMELY PREFETCHES:          0 LATE PREFETCHES: 0 DROPPED PREFETCHES: 0
PSCL2 PREFETCHES SAME FILL-ORIGIN LEVEL: 0 DIFFERENT FILL-ORIGIN LEVEL: 0

LLC TOTAL     ACCESS:     941522  HIT:     424031  MISS:     517491  HIT %:    45.0368  MISS %:    54.9632   MPKI: 2.58745
LLC LOAD      ACCESS:       7349  HIT:          0  MISS:       7349  HIT %:          0  MISS %:        100   MPKI: 0.036745
LLC PREFETCH  ACCESS:     462918  HIT:          0  MISS:     462918  HIT %:          0  MISS %:        100   MPKI: 2.31459
LLC WRITEBACK ACCESS:     470322  HIT:     424030  MISS:      46292  HIT %:    90.1574  MISS %:    9.84262   MPKI: 0.23146
LLC LOAD TRANSLATION ACCESS:        933  HIT:          1  MISS:        932  HIT %:   0.107181  MISS %:    99.8928   MPKI: 0.00466
LLC PREFETCH  REQUESTED:          0  ISSUED:          0  USEFUL:          0  USELESS:    1761347
LLC USEFUL LOAD PREFETCHES:          0 PREFETCH ISSUED TO LOWER LEVEL:    1850575  ACCURACY: 0
LLC TIMELY PREFETCHES:          0 LATE PREFETCHES: 0 DROPPED PREFETCHES: 0
LLC PREFETCHES SAME FILL-ORIGIN LEVEL: 0 DIFFERENT FILL-ORIGIN LEVEL: 0
LLC AVERAGE MISS LATENCY: 686.074 cycles
LLC RQ	ACCESS:      34419	FORWARD:          0	MERGED:          0	TO_CACHE:      34419
LLC WQ	ACCESS:    1881119	FORWARD:          0	MERGED:          0	TO_CACHE:    1881119
LLC PQ	ACCESS:    1850576	FORWARD:          0	MERGED:          0	TO_CACHE:    1850576

LLC Dense regions hint to LLC: 0

RAW hits: 0
Loads Generated: 30096784
Loads sent to L1D: 30096784
Stores Generated: 3883883
Stores sent to L1D: 3883881
Major fault: 0 Minor fault: 9209
Allocated PAGES: 36836

CPU 1 cumulative IPC: 1.14892 instructions: 200000000 cycles: 174076007
ITLB TOTAL     ACCESS:   33141450  HIT:   33141450  MISS:          0  HIT %:        100  MISS %:          0   MPKI: 0
ITLB LOAD TRANSLATION ACCESS:   33141450  HIT:   33141450  MISS:          0  HIT %:        100  MISS %:          0   MPKI: 0
ITLB PREFETCH  REQUESTED:          0  ISSUED:          0  USEFUL:          0  USELESS:          0
ITLB USEFUL LOAD PREFETCHES:          0 PREFETCH ISSUED TO LOWER LEVEL:          0  ACCURACY: -nan
ITLB TIMELY PREFETCHES:          0 LATE PREFETCHES: 0 DROPPED PREFETCHES: 0
ITLB PREFETCHES SAME FILL-ORIGIN LEVEL: 0 DIFFERENT FILL-ORIGIN LEVEL: 0
ITLB AVERAGE MISS LATENCY: -nan cycles
ITLB RQ	ACCESS:   33145186	FORWARD:          0	MERGED:          0	TO_CACHE:   33145186

DTLB TOTAL     ACCESS:   18070207  HIT:   18062859  MISS:       7348  HIT %:    99.9593  MISS %:  0.0406636   MPKI: 0.03674
DTLB LOAD TRANSLATION ACCESS:   18070207  HIT:   18062859  MISS:       7348  HIT %:    99.9593  MISS %:  0.0406636   MPKI: 0.03674
DTLB PREFETCH  REQUESTED:          0  ISSUED:          0  USEFUL:          0  USELESS:          0
DTLB USEFUL LOAD PREFETCHES:          0 PREFETCH ISSUED TO LOWER LEVEL:          0  ACCURACY: -nan
DTLB TIMELY PREFETCHES:          0 LATE PREFETCHES: 0 DROPPED PREFETCHES: 0
DTLB PREFETCHES SAME FILL-ORIGIN LEVEL: 0 DIFFERENT FILL-ORIGIN LEVEL: 0
DTLB AVERAGE MISS LATENCY: 148.166 cycles
DTLB RQ	ACCESS:   18574314	FORWARD:          0	MERGED:     502062	TO_CACHE:   18072252

STLB TOTAL     ACCESS:     434933  HIT:     427585  MISS:       7348  HIT %:    98.3105  MISS %:    1.68946   MPKI: 0.03674
STLB LOAD TRANSLATION ACCESS:       7348  HIT:          0  MISS:       7348  HIT %:          0  MISS %:        100   MPKI: 0.03674
STLB TRANSLATION FROM L1D PREFETCHER ACCESS:     427585  HIT:     427585  MISS:          0  HIT %:        100  MISS %:          0   MPKI: 0
STLB PREFETCH  REQUESTED:          0  ISSUED:          0  USEFUL:          0  USELESS:          0
STLB USEFUL LOAD PREFETCHES:          0 PREFETCH ISSUED TO LOWER LEVEL:          0  ACCURACY: -nan
STLB TIMELY PREFETCHES:          0 LATE PREFETCHES: 0 DROPPED PREFETCHES: 0
STLB PREFETCHES SAME FILL-ORIGIN LEVEL: 0 DIFFERENT FILL-ORIGIN LEVEL: 0
STLB AVERAGE MISS LATENCY: 139.164 cycles
STLB RQ	ACCESS:     490569	FORWARD:          0	MERGED:      55586	TO_CACHE:     434983

STLB Hit, L1D data hit: 0
STLB Hit, L2C data hit: 0
STLB Hit, LLC data hit: 0
STLB Hit, LLC data miss: 0
STLB STLB hints to L2: 0
L1D TOTAL     ACCESS:   19016497  HIT:   18546229  MISS:     470268  HIT %:    97.5271  MISS %:    2.47295   MPKI: 2.35134
L1D LOAD      ACCESS:   14649617  HIT:   14641913  MISS:       7704  HIT %:    99.9474  MISS %:  0.0525884   MPKI: 0.03852
L1D RFO       ACCESS:    3883881  HIT:    3883881  MISS:          0  HIT %:        100  MISS %:          0   MPKI: 0
L1D PREFETCH  ACCESS:     482999  HIT:      20435  MISS:     462564  HIT %:    4.23086  MISS %:    95.7691   MPKI: 2.31282
L1D PREFETCH  REQUESTED:     966438  ISSUED:     966438  USEFUL:     462610  USELESS:          0
L1D USEFUL LOAD PREFETCHES:     462610 PREFETCH ISSUED TO LOWER LEVEL:     462782  ACCURACY: 99.9628
L1D TIMELY PREFETCHES:     462610 LATE PREFETCHES: 160 DROPPED PREFETCHES: 0
L1D PREFETCHES SAME FILL-ORIGIN LEVEL: 462782 DIFFERENT FILL-ORIGIN LEVEL: 0
L1D AVERAGE MISS LATENCY: 231.705 cycles
L1D RQ	ACCESS:   30100158	FORWARD:          0	MERGED:   15410167	TO_CACHE:   14689991
L1D WQ	ACCESS:    3884323	FORWARD:          0	MERGED:          0	TO_CACHE:    3884323
L1D PQ	ACCESS:     483219	FORWARD:          0	MERGED:          0	TO_CACHE:     483219

L1D UNIQUE REGIONS ACCESSED: 0
L1D REGIONS CONFLICTS: 0
L1D Cross Page Prefetch Requests: 0
L1D Same Page Prefetch Requests: 483219
L1D ROI Sum of L1D PQ occupancy: 5355299
L1D PREFETCHES PUSHED FROM L2C: 0
L1I TOTAL     ACCESS:   33141450  HIT:   33141450  MISS:          0  HIT %:        100  MISS %:          0   MPKI: 0
L1I LOAD      ACCESS:   33141450  HIT:   33141450  MISS:          0  HIT %:        100  MISS %:          0   MPKI: 0
L1I PREFETCH  REQUESTED:          0  ISSUED:          0  USEFUL:          0  USELESS:          0
L1I USEFUL LOAD PREFETCHES:          0 PREFETCH ISSUED TO LOWER LEVEL:          0  ACCURACY: -nan
L1I TIMELY PREFETCHES:          0 LATE PREFETCHES: 0 DROPPED PREFETCHES: 0
L1I PREFETCHES SAME FILL-ORIGIN LEVEL: 0 DIFFERENT FILL-ORIGIN LEVEL: 0
L1I AVERAGE MISS LATENCY: -nan cycles
L1I RQ	ACCESS:   80985700	FORWARD:          0	MERGED:   47840514	TO_CACHE:   33145186

BTB TOTAL     ACCESS:   60193528  HIT:   60193525  MISS:          3  HIT %:        100  MISS %: 4.98392e-06   MPKI: 1.5e-05
BTB BRANCH_DIRECT_JUMP	ACCESS:          0  HIT:          0  MISS:          0
BTB BRANCH_INDIRECT	ACCESS:          0  HIT:          0  MISS:          0
BTB BRANCH_CONDITIONAL	ACCESS:   60193528  HIT:   60193525  MISS:          3
BTB BRANCH_DIRECT_CALL	ACCESS:          0  HIT:          0  MISS:          0
BTB BRANCH_INDIRECT_CALL	ACCESS:          0  HIT:          0  MISS:          0
BTB BRANCH_RETURN	ACCESS:          0  HIT:          0  MISS:          0
BTB BRANCH_OTHER ACCESS:          0  HIT:          0  MISS:          0

L2C TOTAL     ACCESS:     947884  HIT:     243615  MISS:     704269  HIT %:    25.7009  MISS %:    74.2991   MPKI: 3.52135
L2C LOAD      ACCESS:       7544  HIT:          0  MISS:       7544  HIT %:          0  MISS %:        100   MPKI: 0.03772
L2C DATA LOAD MPKI: 0.03772
L2C INSTRUCTION LOAD MPKI: 0
L2C PREFETCH  ACCESS:     462724  HIT:          0  MISS:     462724  HIT %:          0  MISS %:        100   MPKI: 2.31362
L2C DATA PREFETCH MPKI: 2.31362
L2C INSTRUCTION PREFETCH MPKI: 0
L2C WRITEBACK ACCESS:     470268  HIT:     237196  MISS:     233072  HIT %:    50.4385  MISS %:    49.5615   MPKI: 1.16536
L2C LOAD TRANSLATION ACCESS:       7348  HIT:       6419  MISS:        929  HIT %:    87.3571  MISS %:    12.6429   MPKI: 0.004645
L2C PREFETCH  REQUESTED:          0  ISSUED:          0  USEFUL:          0  USELESS:     457012
L2C USEFUL LOAD PREFETCHES:          0 PREFETCH ISSUED TO LOWER LEVEL:     462782  ACCURACY: 0
L2C TIMELY PREFETCHES:          0 LATE PREFETCHES: 0 DROPPED PREFETCHES: 0
L2C PREFETCHES SAME FILL-ORIGIN LEVEL: 0 DIFFERENT FILL-ORIGIN LEVEL: 0
L2C AVERAGE MISS LATENCY: 146.38 cycles
L2C RQ	ACCESS:      14896	FORWARD:          0	MERGED:          0	TO_CACHE:      14896
L2C WQ	ACCESS:     470327	FORWARD:          0	MERGED:          0	TO_CACHE:     470327
L2C PQ	ACCESS:     462782	FORWARD:          0	MERGED:          0	TO_CACHE:     462782

L2C Instructions Evicting Data 0
L2C Translations Evicting Data 928
L2C Data Evicting Data 469585
L2C Instructions Evicting Instructions 0
L2C Translations Evicting Instructions 0
L2C Data Evicting Instructions 0
L2C Instructions Evicting Translations 0
L2C Translations Evicting Translations 2
L2C Data Evicting Translations 742
L2C Dense regions hint from L2: 0
PSCL5 TOTAL     ACCESS:       7348  HIT:       7348  MISS:          0  HIT %:        100  MISS %:          0   MPKI: 0
PSCL5 LOAD TRANSLATION ACCESS:       7348  HIT:       7348  MISS:          0  HIT %:        100  MISS %:          0   MPKI: 0
PSCL5 PREFETCH  REQUESTED:          0  ISSUED:          0  USEFUL:          0  USELESS:          0
PSCL5 USEFUL LOAD PREFETCHES:          0 PREFETCH ISSUED TO LOWER LEVEL:          0  ACCURACY: -nan
PSCL5 TIMELY PREFETCHES:          0 LATE PREFETCHES: 0 DROPPED PREFETCHES: 0
PSCL5 PREFETCHES SAME FILL-ORIGIN LEVEL: 0 DIFFERENT FILL-ORIGIN LEVEL: 0

PSCL4 TOTAL     ACCESS:       7348  HIT:       7348  MISS:          0  HIT %:        100  MISS %:          0   MPKI: 0
PSCL4 LOAD TRANSLATION ACCESS:       7348  HIT:       7348  MISS:          0  HIT %:        100  MISS %:          0   MPKI: 0
PSCL4 PREFETCH  REQUESTED:          0  ISSUED:          0  USEFUL:          0  USELESS:          0
PSCL4 USEFUL LOAD PREFETCHES:          0 PREFETCH ISSUED TO LOWER LEVEL:          0  ACCURACY: -nan
PSCL4 TIMELY PREFETCHES:          0 LATE PREFETCHES: 0 DROPPED PREFETCHES: 0
PSCL4 PREFETCHES SAME FILL-ORIGIN LEVEL: 0 DIFFERENT FILL-ORIGIN LEVEL: 0

PSCL3 TOTAL     ACCESS:       7348  HIT:       7348  MISS:          0  HIT %:        100  MISS %:          0   MPKI: 0
PSCL3 LOAD TRANSLATION ACCESS:       7348  HIT:       7348  MISS:          0  HIT %:        100  MISS %:          0   MPKI: 0
PSCL3 PREFETCH  REQUESTED:          0  ISSUED:          0  USEFUL:          0  USELESS:          0
PSCL3 USEFUL LOAD PREFETCHES:          0 PREFETCH ISSUED TO LOWER LEVEL:          0  ACCURACY: -nan
PSCL3 TIMELY PREFETCHES:          0 LATE PREFETCHES: 0 DROPPED PREFETCHES: 0
PSCL3 PREFETCHES SAME FILL-ORIGIN LEVEL: 0 DIFFERENT FILL-ORIGIN LEVEL: 0

PSCL2 TOTAL     ACCESS:       7348  HIT:       7334  MISS:         14  HIT %:    99.8095  MISS %:   0.190528   MPKI: 7e-05
PSCL2 LOAD TRANSLATION ACCESS:       7348  HIT:       7334  MISS:         14  HIT %:    99.8095  MISS %:   0.190528   MPKI: 7e-05
PSCL2 PREFETCH  REQUESTED:          0  ISSUED:          0  USEFUL:          0  USELESS:          0
PSCL2 USEFUL LOAD PREFETCHES:          0 PREFETCH ISSUED TO LOWER LEVEL:          0  ACCURACY: -nan
PSCL2 TIMELY PREFETCHES:          0 LATE PREFETCHES: 0 DROPPED PREFETCHES: 0
PSCL2 PREFETCHES SAME FILL-ORIGIN LEVEL: 0 DIFFERENT FILL-ORIGIN LEVEL: 0

LLC TOTAL     ACCESS:     941445  HIT:     423154  MISS:     518291  HIT %:    44.9473  MISS %:    55.0527   MPKI: 2.59145
LLC LOAD      ACCESS:       7544  HIT:          0  MISS:       7544  HIT %:          0  MISS %:        100   MPKI: 0.03772
LLC PREFETCH  ACCESS:     462724  HIT:          0  MISS:     462724  HIT %:          0  MISS %:        100   MPKI: 2.31362
LLC WRITEBACK ACCESS:     470248  HIT:     423154  MISS:      47094  HIT %:    89.9853  MISS %:    10.0147   MPKI: 0.23547
LLC LOAD TRANSLATION ACCESS:        929  HIT:          0  MISS:        929  HIT %:          0  MISS %:        100   MPKI: 0.004645
LLC PREFETCH  REQUESTED:          0  ISSUED:          0  USEFUL:          0  USELESS:    1761347
LLC USEFUL LOAD PREFETCHES:          0 PREFETCH ISSUED TO LOWER LEVEL:    1850575  ACCURACY: 0
LLC TIMELY PREFETCHES:          0 LATE PREFETCHES: 0 DROPPED PREFETCHES: 0
LLC PREFETCHES SAME FILL-ORIGIN LEVEL: 0 DIFFERENT FILL-ORIGIN LEVEL: 0
LLC AVERAGE MISS LATENCY: 685.015 cycles
LLC RQ	ACCESS:      34419	FORWARD:          0	MERGED:          0	TO_CACHE:      34419
LLC WQ	ACCESS:    1881119	FORWARD:          0	MERGED:          0	TO_CACHE:    1881119
LLC PQ	ACCESS:    1850576	FORWARD:          0	MERGED:          0	TO_CACHE:    1850576

LLC Dense regions hint to LLC: 0

RAW hits: 0
Loads Generated: 30096766
Loads sent to L1D: 30096765
Stores Generated: 3883880
Stores sent to L1D: 3883881
Major fault: 0 Minor fault: 9209
Allocated PAGES: 36836

CPU 2 cumulative IPC: 1.14885 instructions: 200000002 cycles: 174086550
ITLB TOTAL     ACCESS:   33141478  HIT:   33141478  MISS:          0  HIT %:        100  MISS %:          0   MPKI: 0
ITLB LOAD TRANSLATION ACCESS:   33141478  HIT:   33141478  MISS:          0  HIT %:        100  MISS %:          0   MPKI: 0
ITLB PREFETCH  REQUESTED:          0  ISSUED:          0  USEFUL:          0  USELESS:          0
ITLB USEFUL LOAD PREFETCHES:          0 PREFETCH ISSUED TO LOWER LEVEL:          0  ACCURACY: -nan
ITLB TIMELY PREFETCHES:          0 LATE PREFETCHES: 0 DROPPED PREFETCHES: 0
ITLB PREFETCHES SAME FILL-ORIGIN LEVEL: 0 DIFFERENT FILL-ORIGIN LEVEL: 0
ITLB AVERAGE MISS LATENCY: -nan cycles
ITLB RQ	ACCESS:   33143252	FORWARD:          0	MERGED:          0	TO_CACHE:   33143252

DTLB TOTAL     ACCESS:   18067600  HIT:   18060252  MISS:       7348  HIT %:    99.9593  MISS %:  0.0406695   MPKI: 0.03674
DTLB LOAD TRANSLATION ACCESS:   18067600  HIT:   18060252  MISS:       7348  HIT %:    99.9593  MISS %:  0.0406695   MPKI: 0.03674
DTLB PREFETCH  REQUESTED:          0  ISSUED:          0  USEFUL:          0  USELESS:          0
DTLB USEFUL LOAD PREFETCHES:          0 PREFETCH ISSUED TO LOWER LEVEL:          0  ACCURACY: -nan
DTLB TIMELY PREFETCHES:          0 LATE PREFETCHES: 0 DROPPED PREFETCHES: 0
DTLB PREFETCHES SAME FILL-ORIGIN LEVEL: 0 DIFFERENT FILL-ORIGIN LEVEL: 0
DTLB AVERAGE MISS LATENCY: 147.985 cycles
DTLB RQ	ACCESS:   18570757	FORWARD:          0	MERGED:     502220	TO_CACHE:   18068537

STLB TOTAL     ACCESS:     432833  HIT:     425485  MISS:       7348  HIT %:    98.3023  MISS %:    1.69765   MPKI: 0.03674
STLB LOAD TRANSLATION ACCESS:       7348  HIT:          0  MISS:       7348  HIT %:          0  MISS %:        100   MPKI: 0.03674
STLB TRANSLATION FROM L1D PREFETCHER ACCESS:     425485  HIT:     425485  MISS:          0  HIT %:        100  MISS %:          0   MPKI: 0
STLB PREFETCH  REQUESTED:          0  ISSUED:          0  USEFUL:          0  USELESS:          0
STLB USEFUL LOAD PREFETCHES:          0 PREFETCH ISSUED TO LOWER LEVEL:          0  ACCURACY: -nan
STLB TIMELY PREFETCHES:          0 LATE PREFETCHES: 0 DROPPED PREFETCHES: 0
STLB PREFETCHES SAME FILL-ORIGIN LEVEL: 0 DIFFERENT FILL-ORIGIN LEVEL: 0
STLB AVERAGE MISS LATENCY: 138.982 cycles
STLB RQ	ACCESS:     490405	FORWARD:          0	MERGED:      57550	TO_CACHE:     432855

STLB Hit, L1D data hit: 0
STLB Hit, L2C data hit: 0
STLB Hit, LLC data hit: 0
STLB Hit, LLC data miss: 0
STLB STLB hints to L2: 0
L1D TOTAL     ACCESS:   19012027  HIT:   18541759  MISS:     470268  HIT %:    97.5265  MISS %:    2.47353   MPKI: 2.35134
L1D LOAD      ACCESS:   14645290  HIT:   14637290  MISS:       8000  HIT %:    99.9454  MISS %:  0.0546251   MPKI: 0.04
L1D RFO       ACCESS:    3883881  HIT:    3883881  MISS:          0  HIT %:        100  MISS %:          0   MPKI: 0
L1D PREFETCH  ACCESS:     482856  HIT:      20588  MISS:     462268  HIT %:     4.2638  MISS %:    95.7362   MPKI: 2.31134
L1D PREFETCH  REQUESTED:     966110  ISSUED:     966110  USEFUL:     462285  USELESS:          0
L1D USEFUL LOAD PREFETCHES:     462285 PREFETCH ISSUED TO LOWER LEVEL:     462458  ACCURACY: 99.9626
L1D TIMELY PREFETCHES:     462285 LATE PREFETCHES: 161 DROPPED PREFETCHES: 0
L1D PREFETCHES SAME FILL-ORIGIN LEVEL: 462458 DIFFERENT FILL-ORIGIN LEVEL: 0
L1D AVERAGE MISS LATENCY: 231.02 cycles
L1D RQ	ACCESS:   30098370	FORWARD:          0	MERGED:   15411702	TO_CACHE:   14686668
L1D WQ	ACCESS:    3884089	FORWARD:          0	MERGED:          0	TO_CACHE:    3884089
L1D PQ	ACCESS:     483055	FORWARD:          0	MERGED:          0	TO_CACHE:     483055

L1D UNIQUE REGIONS ACCESSED: 0
L1D REGIONS CONFLICTS: 0
L1D Cross Page Prefetch Requests: 0
L1D Same Page Prefetch Requests: 483055
L1D ROI Sum of L1D PQ occupancy: 5355045
L1D PREFETCHES PUSHED FROM L2C: 0
L1I TOTAL     ACCESS:   33141478  HIT:   33141478  MISS:          0  HIT %:        100  MISS %:          0   MPKI: 0
L1I LOAD      ACCESS:   33141478  HIT:   33141478  MISS:          0  HIT %:        100  MISS %:          0   MPKI: 0
L1I PREFETCH  REQUESTED:          0  ISSUED:          0  USEFUL:          0  USELESS:          0
L1I USEFUL LOAD PREFETCHES:          0 PREFETCH ISSUED TO LOWER LEVEL:          0  ACCURACY: -nan
L1I TIMELY PREFETCHES:          0 LATE PREFETCHES: 0 DROPPED PREFETCHES: 0
L1I PREFETCHES SAME FILL-ORIGIN LEVEL: 0 DIFFERENT FILL-ORIGIN LEVEL: 0
L1I AVERAGE MISS LATENCY: -nan cycles
L1I RQ	ACCESS:   80980982	FORWARD:          0	MERGED:   47837730	TO_CACHE:   33143252

BTB TOTAL     ACCESS:   60193528  HIT:   60193525  MISS:          3  HIT %:        100  MISS %: 4.98392e-06   MPKI: 1.5e-05
BTB BRANCH_DIRECT_JUMP	ACCESS:          0  HIT:          0  MISS:          0
BTB BRANCH_INDIRECT	ACCESS:          0  HIT:          0  MISS:          0
BTB BRANCH_CONDITIONAL	ACCESS:   60193528  HIT:   60193525  MISS:          3
BTB BRANCH_DIRECT_CALL	ACCESS:          0  HIT:          0  MISS:          0
BTB BRANCH_INDIRECT_CALL	ACCESS:          0  HIT:          0  MISS:          0
BTB BRANCH_RETURN	ACCESS:          0  HIT:          0  MISS:          0
BTB BRANCH_OTHER ACCESS:          0  HIT:          0  MISS:          0

L2C TOTAL     ACCESS:     947884  HIT:     245097  MISS:     702787  HIT %:    25.8573  MISS %:    74.1427   MPKI: 3.51393
L2C LOAD      ACCESS:       7840  HIT:          0  MISS:       7840  HIT %:          0  MISS %:        100   MPKI: 0.0392
L2C DATA LOAD MPKI: 0.0392
L2C INSTRUCTION LOAD MPKI: 0
L2C PREFETCH  ACCESS:     462428  HIT:          0  MISS:     462428  HIT %:          0  MISS %:        100   MPKI: 2.31214
L2C DATA PREFETCH MPKI: 2.31214
L2C INSTRUCTION PREFETCH MPKI: 0
L2C WRITEBACK ACCESS:     470268  HIT:     238680  MISS:     231588  HIT %:     50.754  MISS %:     49.246   MPKI: 1.15794
L2C LOAD TRANSLATION ACCESS:       7348  HIT:       6417  MISS:        931  HIT %:    87.3299  MISS %:    12.6701   MPKI: 0.004655
L2C PREFETCH  REQUESTED:          0  ISSUED:          0  USEFUL:          0  USELESS:     456569
L2C USEFUL LOAD PREFETCHES:          0 PREFETCH ISSUED TO LOWER LEVEL:     462458  ACCURACY: 0
L2C TIMELY PREFETCHES:          0 LATE PREFETCHES: 0 DROPPED PREFETCHES: 0
L2C PREFETCHES SAME FILL-ORIGIN LEVEL: 0 DIFFERENT FILL-ORIGIN LEVEL: 0
L2C AVERAGE MISS LATENCY: 146.218 cycles
L2C RQ	ACCESS:      15192	FORWARD:          0	MERGED:          0	TO_CACHE:      15192
L2C WQ	ACCESS:     470299	FORWARD:          0	MERGED:          0	TO_CACHE:     470299
L2C PQ	ACCESS:     462458	FORWARD:          0	MERGED:          0	TO_CACHE:     462458

L2C Instructions Evicting Data 0
L2C Translations Evicting Data 929
L2C Data Evicting Data 469525
L2C Instructions Evicting Instructions 0
L2C Translations Evicting Instructions 0
L2C Data Evicting Instructions 0
L2C Instructions Evicting Translations 0
L2C Translations Evicting Translations 3
L2C Data Evicting Translations 774
L2C Dense regions hint from L2: 0
PSCL5 TOTAL     ACCESS:       7348  HIT:       7348  MISS:          0  HIT %:        100  MISS %:          0   MPKI: 0
PSCL5 LOAD TRANSLATION ACCESS:       7348  HIT:       7348  MISS:          0  HIT %:        100  MISS %:          0   MPKI: 0
PSCL5 PREFETCH  REQUESTED:          0  ISSUED:          0  USEFUL:          0  USELESS:          0
PSCL5 USEFUL LOAD PREFETCHES:          0 PREFETCH ISSUED TO LOWER LEVEL:          0  ACCURACY: -nan
PSCL5 TIMELY PREFETCHES:          0 LATE PREFETCHES: 0 DROPPED PREFETCHES: 0
PSCL5 PREFETCHES SAME FILL-ORIGIN LEVEL: 0 DIFFERENT FILL-ORIGIN LEVEL: 0

PSCL4 TOTAL     ACCESS:       7348  HIT:       7348  MISS:          0  HIT %:        100  MISS %:          0   MPKI: 0
PSCL4 LOAD TRANSLATION ACCESS:       7348  HIT:       7348  MISS:          0  HIT %:        100  MISS %:          0   MPKI: 0
PSCL4 PREFETCH  REQUESTED:          0  ISSUED:          0  USEFUL:          0  USELESS:          0
PSCL4 USEFUL LOAD PREFETCHES:          0 PREFETCH ISSUED TO LOWER LEVEL:          0  ACCURACY: -nan
PSCL4 TIMELY PREFETCHES:          0 LATE PREFETCHES: 0 DROPPED PREFETCHES: 0
PSCL4 PREFETCHES SAME FILL-ORIGIN LEVEL: 0 DIFFERENT FILL-ORIGIN LEVEL: 0

PSCL3 TOTAL     ACCESS:       7348  HIT:       7348  MISS:          0  HIT %:        100  MISS %:          0   MPKI: 0
PSCL3 LOAD TRANSLATION ACCESS:       7348  HIT:       7348  MISS:          0  HIT %:        100  MISS %:          0   MPKI: 0
PSCL3 PREFETCH  REQUESTED:          0  ISSUED:          0  USEFUL:          0  USELESS:          0
[...]
PSCL2 PREFETCH  REQUESTED:          0  ISSUED:          0  USEFUL:          0  USELESS:          0
PSCL2 USEFUL LOAD PREFETCHES:          0 PREFETCH ISSUED TO LOWER LEVEL:          0  ACCURACY: -nan
PSCL2 TIMELY PREFETCHES:          0 LATE PREFETCHES: 0 DROPPED PREFETCHES: 0
PSCL2 PREFETCHES SAME FILL-ORIGIN LEVEL: 0 DIFFERENT FILL-ORIGIN LEVEL: 0

LLC TOTAL     ACCESS:     941386  HIT:     422841  MISS:     518545  HIT %:    44.9169  MISS %:    55.0831   MPKI: 2.59272
LLC LOAD      ACCESS:       7840  HIT:          0  MISS:       7840  HIT %:          0  MISS %:        100   MPKI: 0.0392
LLC PREFETCH  ACCESS:     462428  HIT:          0  MISS:     462428  HIT %:          0  MISS %:        100   MPKI: 2.31214
LLC WRITEBACK ACCESS:     470187  HIT:     422837  MISS:      47350  HIT %:    89.9295  MISS %:    10.0705   MPKI: 0.23675
LLC LOAD TRANSLATION ACCESS:        931  HIT:          4  MISS:        927  HIT %:   0.429646  MISS %:    99.5704   MPKI: 0.004635
LLC PREFETCH  REQUESTED:          0  ISSUED:          0  USEFUL:          0  USELESS:    1761347
LLC USEFUL LOAD PREFETCHES:          0 PREFETCH ISSUED TO LOWER LEVEL:    1850575  ACCURACY: 0
LLC TIMELY PREFETCHES:          0 LATE PREFETCHES: 0 DROPPED PREFETCHES: 0
LLC PREFETCHES SAME FILL-ORIGIN LEVEL: 0 DIFFERENT FILL-ORIGIN LEVEL: 0
LLC AVERAGE MISS LATENCY: 684.68 cycles
LLC RQ	ACCESS:      34419	FORWARD:          0	MERGED:          0	TO_CACHE:      34419
LLC WQ	ACCESS:    1881119	FORWARD:          0	MERGED:          0	TO_CACHE:    1881119
LLC PQ	ACCESS:    1850576	FORWARD:          0	MERGED:          0	TO_CACHE:    1850576

LLC Dense regions hint to LLC: 0

RAW hits: 0
Loads Generated: 30096766
Loads sent to L1D: 30096766
Stores Generated: 3883880
Stores sent to L1D: 3883881
Major fault: 0 Minor fault: 9209
Allocated PAGES: 36836

CPU 3 cumulative IPC: 1.14879 instructions: 200000001 cycles: 174096197
ITLB TOTAL     ACCESS:   33141489  HIT:   33141489  MISS:          0  HIT %:        100  MISS %:          0   MPKI: 0
ITLB LOAD TRANSLATION ACCESS:   33141489  HIT:   33141489  MISS:          0  HIT %:        100  MISS %:          0   MPKI: 0
ITLB PREFETCH  REQUESTED:          0  ISSUED:          0  USEFUL:          0  USELESS:          0
ITLB USEFUL LOAD PREFETCHES:          0 PREFETCH ISSUED TO LOWER LEVEL:          0  ACCURACY: -nan
ITLB TIMELY PREFETCHES:          0 LATE PREFETCHES: 0 DROPPED PREFETCHES: 0
ITLB PREFETCHES SAME FILL-ORIGIN LEVEL: 0 DIFFERENT FILL-ORIGIN LEVEL: 0
ITLB AVERAGE MISS LATENCY: -nan cycles
ITLB RQ	ACCESS:   33141489	FORWARD:          0	MERGED:          0	TO_CACHE:   33141489

DTLB TOTAL     ACCESS:   18066438  HIT:   18059090  MISS:       7348  HIT %:    99.9593  MISS %:  0.0406721   MPKI: 0.03674
DTLB LOAD TRANSLATION ACCESS:   18066438  HIT:   18059090  MISS:       7348  HIT %:    99.9593  MISS %:  0.0406721   MPKI: 0.03674
DTLB PREFETCH  REQUESTED:          0  ISSUED:          0  USEFUL:          0  USELESS:          0
DTLB USEFUL LOAD PREFETCHES:          0 PREFETCH ISSUED TO LOWER LEVEL:          0  ACCURACY: -nan
DTLB TIMELY PREFETCHES:          0 LATE PREFETCHES: 0 DROPPED PREFETCHES: 0
DTLB PREFETCHES SAME FILL-ORIGIN LEVEL: 0 DIFFERENT FILL-ORIGIN LEVEL: 0
DTLB AVERAGE MISS LATENCY: 148.345 cycles
DTLB RQ	ACCESS:   18568731	FORWARD:          0	MERGED:     502293	TO_CACHE:   18066438

STLB TOTAL     ACCESS:     432348  HIT:     425000  MISS:       7348  HIT %:    98.3004  MISS %:    1.69956   MPKI: 0.03674
STLB LOAD TRANSLATION ACCESS:       7348  HIT:          0  MISS:       7348  HIT %:          0  MISS %:        100   MPKI: 0.03674
STLB TRANSLATION FROM L1D PREFETCHER ACCESS:     425000  HIT:     425000  MISS:          0  HIT %:        100  MISS %:          0   MPKI: 0
STLB PREFETCH  REQUESTED:          0  ISSUED:          0  USEFUL:          0  USELESS:          0
STLB USEFUL LOAD PREFETCHES:          0 PREFETCH ISSUED TO LOWER LEVEL:          0  ACCURACY: -nan
STLB TIMELY PREFETCHES:          0 LATE PREFETCHES: 0 DROPPED PREFETCHES: 0
STLB PREFETCHES SAME FILL-ORIGIN LEVEL: 0 DIFFERENT FILL-ORIGIN LEVEL: 0
STLB AVERAGE MISS LATENCY: 139.345 cycles
STLB RQ	ACCESS:     490193	FORWARD:          0	MERGED:      57845	TO_CACHE:     432348

STLB Hit, L1D data hit: 0
STLB Hit, L2C data hit: 0
STLB Hit, LLC data hit: 0
STLB Hit, LLC data miss: 0
STLB STLB hints to L2: 0
L1D TOTAL     ACCESS:   19009838  HIT:   18539570  MISS:     470268  HIT %:    97.5262  MISS %:    2.47381   MPKI: 2.35134
L1D LOAD      ACCESS:   14643309  HIT:   14635176  MISS:       8133  HIT %:    99.9445  MISS %:  0.0555407   MPKI: 0.040665
L1D RFO       ACCESS:    3883881  HIT:    3883881  MISS:          0  HIT %:        100  MISS %:          0   MPKI: 0
L1D PREFETCH  ACCESS:     482648  HIT:      20513  MISS:     462135  HIT %:     4.2501  MISS %:    95.7499   MPKI: 2.31067
L1D PREFETCH  REQUESTED:     965690  ISSUED:     965690  USEFUL:     462129  USELESS:          0
L1D USEFUL LOAD PREFETCHES:     462129 PREFETCH ISSUED TO LOWER LEVEL:     462317  ACCURACY: 99.9593
L1D TIMELY PREFETCHES:     462129 LATE PREFETCHES: 182 DROPPED PREFETCHES: 0
L1D PREFETCHES SAME FILL-ORIGIN LEVEL: 462317 DIFFERENT FILL-ORIGIN LEVEL: 0
L1D AVERAGE MISS LATENCY: 231.649 cycles
L1D RQ	ACCESS:   30096765	FORWARD:          0	MERGED:   15411915	TO_CACHE:   14684850
L1D WQ	ACCESS:    3883881	FORWARD:          0	MERGED:          0	TO_CACHE:    3883881
L1D PQ	ACCESS:     482845	FORWARD:          0	MERGED:          0	TO_CACHE:     482845

L1D UNIQUE REGIONS ACCESSED: 0
L1D REGIONS CONFLICTS: 0
L1D Cross Page Prefetch Requests: 0
L1D Same Page Prefetch Requests: 482845
L1D ROI Sum of L1D PQ occupancy: 5352187
L1D PREFETCHES PUSHED FROM L2C: 0
L1I TOTAL     ACCESS:   33141489  HIT:   33141489  MISS:          0  HIT %:        100  MISS %:          0   MPKI: 0
L1I LOAD      ACCESS:   33141489  HIT:   33141489  MISS:          0  HIT %:        100  MISS %:          0   MPKI: 0
L1I PREFETCH  REQUESTED:          0  ISSUED:          0  USEFUL:          0  USELESS:          0
L1I USEFUL LOAD PREFETCHES:          0 PREFETCH ISSUED TO LOWER LEVEL:          0  ACCURACY: -nan
L1I TIMELY PREFETCHES:          0 LATE PREFETCHES: 0 DROPPED PREFETCHES: 0
L1I PREFETCHES SAME FILL-ORIGIN LEVEL: 0 DIFFERENT FILL-ORIGIN LEVEL: 0
L1I AVERAGE MISS LATENCY: -nan cycles
L1I RQ	ACCESS:   80976709	FORWARD:          0	MERGED:   47835220	TO_CACHE:   33141489

BTB TOTAL     ACCESS:   60193529  HIT:   60193525  MISS:          4  HIT %:        100  MISS %: 6.64523e-06   MPKI: 2e-05
BTB BRANCH_DIRECT_JUMP	ACCESS:          0  HIT:          0  MISS:          0
BTB BRANCH_INDIRECT	ACCESS:          0  HIT:          0  MISS:          0
BTB BRANCH_CONDITIONAL	ACCESS:   60193529  HIT:   60193525  MISS:          4
BTB BRANCH_DIRECT_CALL	ACCESS:          0  HIT:          0  MISS:          0
BTB BRANCH_INDIRECT_CALL	ACCESS:          0  HIT:          0  MISS:          0
BTB BRANCH_RETURN	ACCESS:          0  HIT:          0  MISS:          0
BTB BRANCH_OTHER ACCESS:          0  HIT:          0  MISS:          0

L2C TOTAL     ACCESS:     947884  HIT:     243596  MISS:     704288  HIT %:    25.6989  MISS %:    74.3011   MPKI: 3.52144
L2C LOAD      ACCESS:       7951  HIT:          0  MISS:       7951  HIT %:          0  MISS %:        100   MPKI: 0.039755
L2C DATA LOAD MPKI: 0.039755
L2C INSTRUCTION LOAD MPKI: 0
L2C PREFETCH  ACCESS:     462317  HIT:          0  MISS:     462317  HIT %:          0  MISS %:        100   MPKI: 2.31158
L2C DATA PREFETCH MPKI: 2.31158
L2C INSTRUCTION PREFETCH MPKI: 0
L2C WRITEBACK ACCESS:     470268  HIT:     237182  MISS:     233086  HIT %:    50.4355  MISS %:    49.5645   MPKI: 1.16543
L2C LOAD TRANSLATION ACCESS:       7348  HIT:       6414  MISS:        934  HIT %:    87.2891  MISS %:    12.7109   MPKI: 0.00467
L2C PREFETCH  REQUESTED:          0  ISSUED:          0  USEFUL:          0  USELESS:     456564
L2C USEFUL LOAD PREFETCHES:          0 PREFETCH ISSUED TO LOWER LEVEL:     462317  ACCURACY: 0
L2C TIMELY PREFETCHES:          0 LATE PREFETCHES: 0 DROPPED PREFETCHES: 0
L2C PREFETCHES SAME FILL-ORIGIN LEVEL: 0 DIFFERENT FILL-ORIGIN LEVEL: 0
L2C AVERAGE MISS LATENCY: 146.355 cycles
L2C RQ	ACCESS:      15299	FORWARD:          0	MERGED:          0	TO_CACHE:      15299
L2C WQ	ACCESS:     470268	FORWARD:          0	MERGED:          0	TO_CACHE:     470268
L2C PQ	ACCESS:     462317	FORWARD:          0	MERGED:          0	TO_CACHE:     462317

L2C Instructions Evicting Data 0
L2C Translations Evicting Data 934
L2C Data Evicting Data 469454
L2C Instructions Evicting Instructions 0
L2C Translations Evicting Instructions 0
L2C Data Evicting Instructions 0
L2C Instructions Evicting Translations 0
L2C Translations Evicting Translations 0
L2C Data Evicting Translations 814
L2C Dense regions hint from L2: 0
PSCL5 TOTAL     ACCESS:       7348  HIT:       7348  MISS:          0  HIT %:        100  MISS %:          0   MPKI: 0
PSCL5 LOAD TRANSLATION ACCESS:       7348  HIT:       7348  MISS:          0  HIT %:        100  MISS %:          0   MPKI: 0
PSCL5 PREFETCH  REQUESTED:          0  ISSUED:          0  USEFUL:          0  USELESS:          0
PSCL5 USEFUL LOAD PREFETCHES:          0 PREFETCH ISSUED TO LOWER LEVEL:          0  ACCURACY: -nan
PSCL5 TIMELY PREFETCHES:          0 LATE PREFETCHES: 0 DROPPED PREFETCHES: 0
PSCL5 PREFETCHES SAME FILL-ORIGIN LEVEL: 0 DIFFERENT FILL-ORIGIN LEVEL: 0

PSCL4 TOTAL     ACCESS:       7348  HIT:       7348  MISS:          0  HIT %:        100  MISS %:          0   MPKI: 0
PSCL4 LOAD TRANSLATION ACCESS:       7348  HIT:       7348  MISS:          0  HIT %:        100  MISS %:          0   MPKI: 0
PSCL4 PREFETCH  REQUESTED:          0  ISSUED:          0  USEFUL:          0  USELESS:          0
PSCL4 USEFUL LOAD PREFETCHES:          0 PREFETCH ISSUED TO LOWER LEVEL:          0  ACCURACY: -nan
PSCL4 TIMELY PREFETCHES:          0 LATE PREFETCHES: 0 DROPPED PREFETCHES: 0
PSCL4 PREFETCHES SAME FILL-ORIGIN LEVEL: 0 DIFFERENT FILL-ORIGIN LEVEL: 0

PSCL3 TOTAL     ACCESS:       7348  HIT:       7348  MISS:          0  HIT %:        100  MISS %:          0   MPKI: 0
PSCL3 LOAD TRANSLATION ACCESS:       7348  HIT:       7348  MISS:          0  HIT %:        100  MISS %:          0   MPKI: 0
PSCL3 PREFETCH  REQUESTED:          0  ISSUED:          0  USEFUL:          0  USELESS:          0
PSCL3 USEFUL LOAD PREFETCHES:          0 PREFETCH ISSUED TO LOWER LEVEL:          0  ACCURACY: -nan
PSCL3 TIMELY PREFETCHES:          0 LATE PREFETCHES: 0 DROPPED PREFETCHES: 0
PSCL3 PREFETCHES SAME FILL-ORIGIN LEVEL: 0 DIFFERENT FILL-ORIGIN LEVEL: 0

PSCL2 TOTAL     ACCESS:       7348  HIT:       7334  MISS:         14  HIT %:    99.8095  MISS %:   0.190528   MPKI: 7e-05
PSCL2 LOAD TRANSLATION ACCESS:       7348  HIT:       7334  MISS:         14  HIT %:    99.8095  MISS %:   0.190528   MPKI: 7e-05
PSCL2 PREFETCH  REQUESTED:          0  ISSUED:          0  USEFUL:          0  USELESS:          0
PSCL2 USEFUL LOAD PREFETCHES:          0 PREFETCH ISSUED TO LOWER LEVEL:          0  ACCURACY: -nan
PSCL2 TIMELY PREFETCHES:          0 LATE PREFETCHES: 0 DROPPED PREFETCHES: 0
PSCL2 PREFETCHES SAME FILL-ORIGIN LEVEL: 0 DIFFERENT FILL-ORIGIN LEVEL: 0

LLC TOTAL     ACCESS:     941361  HIT:     422305  MISS:     519056  HIT %:    44.8611  MISS %:    55.1389   MPKI: 2.59528
LLC LOAD      ACCESS:       7951  HIT:          0  MISS:       7951  HIT %:          0  MISS %:        100   MPKI: 0.039755
LLC PREFETCH  ACCESS:     462317  HIT:          0  MISS:     462317  HIT %:          0  MISS %:        100   MPKI: 2.31158
LLC WRITEBACK ACCESS:     470159  HIT:     422304  MISS:      47855  HIT %:    89.8215  MISS %:    10.1785   MPKI: 0.239275
LLC LOAD TRANSLATION ACCESS:        934  HIT:          1  MISS:        933  HIT %:   0.107066  MISS %:    99.8929   MPKI: 0.004665
LLC PREFETCH  REQUESTED:          0  ISSUED:          0  USEFUL:          0  USELESS:    1761347
LLC USEFUL LOAD PREFETCHES:          0 PREFETCH ISSUED TO LOWER LEVEL:    1850575  ACCURACY: 0
LLC TIMELY PREFETCHES:          0 LATE PREFETCHES: 0 DROPPED PREFETCHES: 0
LLC PREFETCHES SAME FILL-ORIGIN LEVEL: 0 DIFFERENT FILL-ORIGIN LEVEL: 0
LLC AVERAGE MISS LATENCY: 684.006 cycles
LLC RQ	ACCESS:      34419	FORWARD:          0	MERGED:          0	TO_CACHE:      34419
LLC WQ	ACCESS:    1881119	FORWARD:          0	MERGED:          0	TO_CACHE:    1881119
LLC PQ	ACCESS:    1850576	FORWARD:          0	MERGED:          0	TO_CACHE:    1850576

LLC Dense regions hint to LLC: 0

RAW hits: 0
Loads Generated: 30096765
Loads sent to L1D: 30096765
Stores Generated: 3883880
Stores sent to L1D: 3883881
Major fault: 0 Minor fault: 9209
Allocated PAGES: 36836

stream: 
stream:times selected: 650667
stream:pref_filled: 576381
stream:pref_useful: 576370
stream:pref_late: 145
stream:misses: 19
stream:misses_by_poll: 0

CS: 
CS:times selected: 650660
CS:pref_filled: 2069
CS:pref_useful: 2069
CS:pref_late: 3
CS:misses: 48154
CS:misses_by_poll: 6

CPLX: 
CPLX:times selected: 5
CPLX:pref_filled: 0
CPLX:pref_useful: 0
CPLX:pref_late: 0
CPLX:misses: 0
CPLX:misses_by_poll: 0

NL_L1: 
NL:times selected: 0
NL:pref_filled: 0
NL:pref_useful: 0
NL:pref_late: 0
NL:misses: 0
NL:misses_by_poll: 0

total selections: 1301332
total_filled: 462869
total_useful: 462864
total_late: 149
total_polluted: 6
total_misses_after_warmup: 44760
conflicts: 0
Degree Incremented Times: 639865
Degree Decremented Times: 0

L1 IP Table Write Accesses: 58754740
L1 IP Table Read Accesses: 58754740
L1 RST Write Accesses: 2132736
L1 RST Read Accesses: 4265472
L1 CSPT Write Accesses: 2132736
L1 CSPT Read Accesses: 2132736
L1 RR Filter Tag Write Accesses: 1932561
L1 RR Filter Tag Read Accesses: 374929517
L1 IP Table Tag Write Accesses: 58754740
L1 IP Table Tag Read Accesses: 58754740
L1 RST Tag Write Accesses: 0
L1 RST Tag Read Accesses: 19200046
L1 RR Filter Write Accesses: 0
L1 RR Filter Read Accesses: 18287543
test: 36459

stream: 
stream:times selected: 650599
stream:pref_filled: 460909
stream:pref_useful: 460898
stream:pref_late: 154
stream:misses: 25
stream:misses_by_poll: 0

CS: 
CS:times selected: 650592
CS:pref_filled: 1712
CS:pref_useful: 1712
CS:pref_late: 6
CS:misses: 267178
CS:misses_by_poll: 4

CPLX: 
CPLX:times selected: 5
CPLX:pref_filled: 0
CPLX:pref_useful: 0
CPLX:pref_late: 0
CPLX:misses: 10
CPLX:misses_by_poll: 0

NL_L1: 
NL:times selected: 0
NL:pref_filled: 0
NL:pref_useful: 0
NL:pref_late: 0
NL:misses: 0
NL:misses_by_poll: 0

total selections: 1301196
total_filled: 462621
total_useful: 462610
total_late: 160
total_polluted: 4
total_misses_after_warmup: 46433
conflicts: 0
Degree Incremented Times: 639865
Degree Decremented Times: 0

L1 IP Table Write Accesses: 58754740
L1 IP Table Read Accesses: 58754740
L1 RST Write Accesses: 2132736
L1 RST Read Accesses: 4265472
L1 CSPT Write Accesses: 2132736
L1 CSPT Read Accesses: 2132736
L1 RR Filter Tag Write Accesses: 1932561
L1 RR Filter Tag Read Accesses: 374929517
L1 IP Table Tag Write Accesses: 58754740
L1 IP Table Tag Read Accesses: 58754740
L1 RST Tag Write Accesses: 0
L1 RST Tag Read Accesses: 19200046
L1 RR Filter Write Accesses: 0
L1 RR Filter Read Accesses: 18287543
test: 36459

stream: 
stream:times selected: 650581
stream:pref_filled: 460168
stream:pref_useful: 460157
stream:pref_late: 151
stream:misses: 29
stream:misses_by_poll: 0

CS: 
CS:times selected: 650574
CS:pref_filled: 2128
CS:pref_useful: 2128
CS:pref_late: 7
CS:misses: 271977
CS:misses_by_poll: 5

CPLX: 
CPLX:times selected: 5
CPLX:pref_filled: 0
CPLX:pref_useful: 0
CPLX:pref_late: 0
CPLX:misses: 10
CPLX:misses_by_poll: 0

NL_L1: 
NL:times selected: 0
NL:pref_filled: 0
NL:pref_useful: 0
NL:pref_late: 0
NL:misses: 0
NL:misses_by_poll: 0

total selections: 1301160
total_filled: 462296
total_useful: 462285
total_late: 161
total_polluted: 5
total_misses_after_warmup: 48630
conflicts: 0
Degree Incremented Times: 639865
Degree Decremented Times: 0

L1 IP Table Write Accesses: 58754740
L1 IP Table Read Accesses: 58754740
L1 RST Write Accesses: 2132736
L1 RST Read Accesses: 4265472
L1 CSPT Write Accesses: 2132736
L1 CSPT Read Accesses: 2132736
L1 RR Filter Tag Write Accesses: 1932561
L1 RR Filter Tag Read Accesses: 374929517
L1 IP Table Tag Write Accesses: 58754740
L1 IP Table Tag Read Accesses: 58754740
L1 RST Tag Write Accesses: 0
L1 RST Tag Read Accesses: 19200046
L1 RR Filter Write Accesses: 0
L1 RR Filter Read Accesses: 18287543
test: 36459

stream: 
stream:times selected: 650533
stream:pref_filled: 460118
stream:pref_useful: 460112
stream:pref_late: 174
stream:misses: 28
stream:misses_by_poll: 0

CS: 
CS:times selected: 650526
CS:pref_filled: 2017
CS:pref_useful: 2017
CS:pref_late: 8
CS:misses: 273136
CS:misses_by_poll: 7

CPLX: 
CPLX:times selected: 5
CPLX:pref_filled: 0
CPLX:pref_useful: 0
CPLX:pref_late: 0
CPLX:misses: 10
CPLX:misses_by_poll: 0

NL_L1: 
NL:times selected: 0
NL:pref_filled: 0
NL:pref_useful: 0
NL:pref_late: 0
NL:misses: 0
NL:misses_by_poll: 0

total selections: 1301064
total_filled: 462135
total_useful: 462129
total_late: 182
total_polluted: 7
total_misses_after_warmup: 49674
conflicts: 0
Degree Incremented Times: 639865
Degree Decremented Times: 0

L1 IP Table Write Accesses: 58754740
L1 IP Table Read Accesses: 58754740
L1 RST Write Accesses: 2132736
L1 RST Read Accesses: 4265472
L1 CSPT Write Accesses: 2132736
L1 CSPT Read Accesses: 2132736
L1 RR Filter Tag Write Accesses: 1932561
L1 RR Filter Tag Read Accesses: 374929517
L1 IP Table Tag Write Accesses: 58754740
L1 IP Table Tag Read Accesses: 58754740
L1 RST Tag Write Accesses: 0
L1 RST Tag Read Accesses: 19200046
L1 RR Filter Write Accesses: 0
L1 RR Filter Read Accesses: 18287543
test: 36459

DRAM Statistics
 CHANNEL 0
 RQ ROW_BUFFER_HIT:     368248  ROW_BUFFER_MISS:    1516738
 DBUS_CONGESTED:       2105
 WQ ROW_BUFFER_HIT:    1172304  ROW_BUFFER_MISS:     713958  FULL:      19789

 AVG_CONGESTED_CYCLE: 5
 All warmup complete: 5
Channel 0 Bank busy for read cycles: 0
Channel 0 Bank busy for write cycles: 0
Channel 0
Rank 0
0banks busy for read cycles: 544513
0banks busy for write cycles: 563
1banks busy for read cycles: 48854501
1banks busy for write cycles: 486293
2banks busy for read cycles: 43446151
2banks busy for write cycles: 531673
3banks busy for read cycles: 20101293
3banks busy for write cycles: 595688
4banks busy for read cycles: 5036380
4banks busy for write cycles: 655090
5banks busy for read cycles: 1108846
5banks busy for write cycles: 780246
6banks busy for read cycles: 804909
6banks busy for write cycles: 1057462
7banks busy for read cycles: 2403672
7banks busy for write cycles: 3722361
8banks busy for read cycles: 559552
8banks busy for write cycles: 43407005

CPU 0 Branch Prediction Accuracy: 99.5091% MPKI: 1.57277 Average ROB Occupancy at Mispredict: 26.3622
Branch types
NOT_BRANCH: 135951713 67.9613%
BRANCH_DIRECT_JUMP: 0 0%
BRANCH_INDIRECT: 0 0%
BRANCH_CONDITIONAL: 64091136 32.0387%
BRANCH_DIRECT_CALL: 0 0%
BRANCH_INDIRECT_CALL: 0 0%
BRANCH_RETURN: 0 0%
BRANCH_OTHER: 0 0%


CPU 1 Branch Prediction Accuracy: 99.5091% MPKI: 1.57277 Average ROB Occupancy at Mispredict: 26.4387
Branch types
NOT_BRANCH: 135937932 67.9613%
BRANCH_DIRECT_JUMP: 0 0%
BRANCH_INDIRECT: 0 0%
BRANCH_CONDITIONAL: 64084644 32.0387%
BRANCH_DIRECT_CALL: 0 0%
BRANCH_INDIRECT_CALL: 0 0%
BRANCH_RETURN: 0 0%
BRANCH_OTHER: 0 0%


CPU 2 Branch Prediction Accuracy: 99.5091% MPKI: 1.57272 Average ROB Occupancy at Mispredict: 26.4891
Branch types
NOT_BRANCH: 135929857 67.9613%
BRANCH_DIRECT_JUMP: 0 0%
BRANCH_INDIRECT: 0 0%
BRANCH_CONDITIONAL: 64080839 32.0387%
BRANCH_DIRECT_CALL: 0 0%
BRANCH_INDIRECT_CALL: 0 0%
BRANCH_RETURN: 0 0%
BRANCH_OTHER: 0 0%


CPU 3 Branch Prediction Accuracy: 99.5091% MPKI: 1.5727 Average ROB Occupancy at Mispredict: 26.5206
Branch types
NOT_BRANCH: 135922576 67.9613%
BRANCH_DIRECT_JUMP: 0 0%
BRANCH_INDIRECT: 0 0%
BRANCH_CONDITIONAL: 64077409 32.0387%
BRANCH_DIRECT_CALL: 0 0%
BRANCH_INDIRECT_CALL: 0 0%
BRANCH_RETURN: 0 0%
BRANCH_OTHER: 0 0%

DRAM PAGES: 1048576
Allocated PAGES: 36836
