
*** ChampSim Multicore Out-of-Order Simulator ***

Warmup Instructions: 50000000
Simulation Instructions: 200000000
Number of CPUs: 4
LLC sets: 8192
LLC ways: 16
Off-chip DRAM Size: 4096 MB Channels: 1 Width: 64-bit Data Rate: 6400 MT/s
CPU 0 runs ./traces/gap/pr-10.trace.gz
.gz
CPU 1 runs ./traces/gap/pr-10.trace.gz
.gz
CPU 2 runs ./traces/gap/pr-10.trace.gz
.gz
CPU 3 runs ./traces/gap/pr-10.trace.gz
.gz
BTB has LRU replacement policy
ITLB has LRU replacement policy
DTLB has LRU replacement policy
STLB has LRU replacement policy
L1I has LRU replacement policy
IP Table Entries: 1024
CSPT Entries: 128
RR_ENTRIES: 32
RST_ENTRIES: 8
L1D has LRU replacement policy
Initialize SRRIP state for L2C
Initialize DRRIP state for LLC
BTB has LRU replacement policy
ITLB has LRU replacement policy
DTLB has LRU replacement policy
STLB has LRU replacement policy
L1I has LRU replacement policy
IP Table Entries: 1024
CSPT Entries: 128
RR_ENTRIES: 32
RST_ENTRIES: 8
L1D has LRU replacement policy
Initialize SRRIP state for L2C
Initialize DRRIP state for LLC
BTB has LRU replacement policy
ITLB has LRU replacement policy
DTLB has LRU replacement policy
STLB has LRU replacement policy
L1I has LRU replacement policy
IP Table Entries: 1024
CSPT Entries: 128
RR_ENTRIES: 32
RST_ENTRIES: 8
L1D has LRU replacement policy
Initialize SRRIP state for L2C
Initialize DRRIP state for LLC
BTB has LRU replacement policy
ITLB has LRU replacement policy
DTLB has LRU replacement policy
STLB has LRU replacement policy
L1I has LRU replacement policy
IP Table Entries: 1024
CSPT Entries: 128
RR_ENTRIES: 32
RST_ENTRIES: 8
L1D has LRU replacement policy
Initialize SRRIP state for L2C
Initialize DRRIP state for LLC
Heartbeat CPU 0 instructions: 10000002 cycles: 3333898 heartbeat IPC: 2.99949 cumulative IPC: 2.99949 (Simulation time: 0 hr 2 min 33 sec) 
Heartbeat CPU 1 instructions: 10000002 cycles: 3333929 heartbeat IPC: 2.99946 cumulative IPC: 2.99946 (Simulation time: 0 hr 2 min 33 sec) 
Heartbeat CPU 2 instructions: 10000002 cycles: 3333960 heartbeat IPC: 2.99944 cumulative IPC: 2.99944 (Simulation time: 0 hr 2 min 33 sec) 
Heartbeat CPU 3 instructions: 10000002 cycles: 3333965 heartbeat IPC: 2.99943 cumulative IPC: 2.99943 (Simulation time: 0 hr 2 min 33 sec) 
Heartbeat CPU 2 instructions: 20000000 cycles: 10060514 heartbeat IPC: 1.48664 cumulative IPC: 1.98797 (Simulation time: 0 hr 8 min 31 sec) 
Heartbeat CPU 1 instructions: 20000000 cycles: 10069553 heartbeat IPC: 1.48464 cumulative IPC: 1.98619 (Simulation time: 0 hr 8 min 31 sec) 
Heartbeat CPU 0 instructions: 20000000 cycles: 10078910 heartbeat IPC: 1.48258 cumulative IPC: 1.98434 (Simulation time: 0 hr 8 min 32 sec) 
Heartbeat CPU 3 instructions: 20000000 cycles: 10131570 heartbeat IPC: 1.47111 cumulative IPC: 1.97403 (Simulation time: 0 hr 8 min 35 sec) 
Heartbeat CPU 0 instructions: 30000003 cycles: 17272056 heartbeat IPC: 1.39021 cumulative IPC: 1.73691 (Simulation time: 0 hr 15 min 12 sec) 
Heartbeat CPU 2 instructions: 30000003 cycles: 17308357 heartbeat IPC: 1.37972 cumulative IPC: 1.73327 (Simulation time: 0 hr 15 min 14 sec) 
Heartbeat CPU 1 instructions: 30000003 cycles: 17325544 heartbeat IPC: 1.37817 cumulative IPC: 1.73155 (Simulation time: 0 hr 15 min 15 sec) 
Heartbeat CPU 3 instructions: 30000003 cycles: 17454733 heartbeat IPC: 1.36553 cumulative IPC: 1.71873 (Simulation time: 0 hr 15 min 22 sec) 
Heartbeat CPU 0 instructions: 40000001 cycles: 24450185 heartbeat IPC: 1.39312 cumulative IPC: 1.63598 (Simulation time: 0 hr 21 min 45 sec) 
Heartbeat CPU 2 instructions: 40000001 cycles: 24538614 heartbeat IPC: 1.38308 cumulative IPC: 1.63008 (Simulation time: 0 hr 21 min 49 sec) 
Heartbeat CPU 1 instructions: 40000001 cycles: 24566002 heartbeat IPC: 1.38113 cumulative IPC: 1.62827 (Simulation time: 0 hr 21 min 50 sec) 
Heartbeat CPU 3 instructions: 40000001 cycles: 24769578 heartbeat IPC: 1.36708 cumulative IPC: 1.61488 (Simulation time: 0 hr 22 min 0 sec) 
Heartbeat CPU 0 instructions: 50000001 cycles: 31594898 heartbeat IPC: 1.39964 cumulative IPC: 1.58253 (Simulation time: 0 hr 27 min 46 sec) 
Heartbeat CPU 2 instructions: 50000001 cycles: 31746009 heartbeat IPC: 1.38746 cumulative IPC: 1.575 (Simulation time: 0 hr 27 min 52 sec) 
Heartbeat CPU 1 instructions: 50000001 cycles: 31779036 heartbeat IPC: 1.38638 cumulative IPC: 1.57336 (Simulation time: 0 hr 27 min 54 sec) 
Heartbeat CPU 3 instructions: 50000001 cycles: 32045199 heartbeat IPC: 1.37445 cumulative IPC: 1.5603 (Simulation time: 0 hr 28 min 3 sec) 

Warmup complete CPU 0 instructions: 50626654 cycles: 32045199 (Simulation time: 0 hr 28 min 3 sec) 
Warmup complete CPU 1 instructions: 50369290 cycles: 32045199 (Simulation time: 0 hr 28 min 3 sec) 
Warmup complete CPU 2 instructions: 50414963 cycles: 32045199 (Simulation time: 0 hr 28 min 3 sec) 
Warmup complete CPU 3 instructions: 50000001 cycles: 32045199 (Simulation time: 0 hr 28 min 3 sec) 

Heartbeat CPU 0 instructions: 60000000 cycles: 214386479 heartbeat IPC: 0.0547071 cumulative IPC: 0.0514055 (Simulation time: 0 hr 43 min 38 sec) 
Heartbeat CPU 2 instructions: 60000000 cycles: 215084706 heartbeat IPC: 0.0545439 cumulative IPC: 0.0523659 (Simulation time: 0 hr 43 min 41 sec) 
Heartbeat CPU 1 instructions: 60000000 cycles: 225941153 heartbeat IPC: 0.0515033 cumulative IPC: 0.0496695 (Simulation time: 0 hr 44 min 45 sec) 
Heartbeat CPU 3 instructions: 60000000 cycles: 234641793 heartbeat IPC: 0.0493592 cumulative IPC: 0.0493592 (Simulation time: 0 hr 45 min 40 sec) 
Heartbeat CPU 2 instructions: 70000000 cycles: 405904670 heartbeat IPC: 0.0524054 cumulative IPC: 0.0523861 (Simulation time: 1 hr 3 min 27 sec) 
Heartbeat CPU 0 instructions: 70000000 cycles: 408675848 heartbeat IPC: 0.0514696 cumulative IPC: 0.0514386 (Simulation time: 1 hr 3 min 44 sec) 
Heartbeat CPU 1 instructions: 70000000 cycles: 428221458 heartbeat IPC: 0.0494363 cumulative IPC: 0.0495504 (Simulation time: 1 hr 5 min 25 sec) 
Heartbeat CPU 3 instructions: 70000000 cycles: 437741766 heartbeat IPC: 0.0492368 cumulative IPC: 0.0492979 (Simulation time: 1 hr 6 min 11 sec) 
Heartbeat CPU 2 instructions: 80000000 cycles: 596000218 heartbeat IPC: 0.0526051 cumulative IPC: 0.0524599 (Simulation time: 1 hr 20 min 40 sec) 
Heartbeat CPU 0 instructions: 80000000 cycles: 602467159 heartbeat IPC: 0.0516019 cumulative IPC: 0.0514941 (Simulation time: 1 hr 21 min 12 sec) 
Heartbeat CPU 1 instructions: 80000000 cycles: 629818587 heartbeat IPC: 0.0496039 cumulative IPC: 0.0495685 (Simulation time: 1 hr 23 min 29 sec) 
Heartbeat CPU 3 instructions: 80000000 cycles: 640078787 heartbeat IPC: 0.0494225 cumulative IPC: 0.0493394 (Simulation time: 1 hr 24 min 18 sec) 
Heartbeat CPU 2 instructions: 90000000 cycles: 785422267 heartbeat IPC: 0.0527922 cumulative IPC: 0.0525435 (Simulation time: 1 hr 38 min 23 sec) 
Heartbeat CPU 0 instructions: 90000000 cycles: 795466944 heartbeat IPC: 0.0518135 cumulative IPC: 0.0515748 (Simulation time: 1 hr 39 min 27 sec) 
Heartbeat CPU 1 instructions: 90000000 cycles: 830544933 heartbeat IPC: 0.0498191 cumulative IPC: 0.0496315 (Simulation time: 1 hr 43 min 13 sec) 
Heartbeat CPU 3 instructions: 90000000 cycles: 841672243 heartbeat IPC: 0.0496048 cumulative IPC: 0.0494055 (Simulation time: 1 hr 44 min 25 sec) 
Heartbeat CPU 2 instructions: 100000002 cycles: 977165826 heartbeat IPC: 0.052153 cumulative IPC: 0.0524642 (Simulation time: 1 hr 57 min 58 sec) 
Heartbeat CPU 0 instructions: 100000002 cycles: 991158750 heartbeat IPC: 0.0511008 cumulative IPC: 0.0514781 (Simulation time: 1 hr 59 min 10 sec) 
Heartbeat CPU 1 instructions: 100000002 cycles: 1033210915 heartbeat IPC: 0.0493423 cumulative IPC: 0.0495729 (Simulation time: 2 hr 3 min 41 sec) 
Heartbeat CPU 3 instructions: 100000002 cycles: 1044846329 heartbeat IPC: 0.0492189 cumulative IPC: 0.049368 (Simulation time: 2 hr 4 min 57 sec) 
Heartbeat CPU 2 instructions: 110000000 cycles: 1166329527 heartbeat IPC: 0.0528643 cumulative IPC: 0.052531 (Simulation time: 2 hr 15 min 56 sec) 
Heartbeat CPU 0 instructions: 110000000 cycles: 1184016208 heartbeat IPC: 0.0518518 cumulative IPC: 0.0515407 (Simulation time: 2 hr 17 min 45 sec) 
Heartbeat CPU 1 instructions: 110000000 cycles: 1233795103 heartbeat IPC: 0.0498544 cumulative IPC: 0.0496199 (Simulation time: 2 hr 22 min 26 sec) 
Heartbeat CPU 3 instructions: 110000000 cycles: 1246265568 heartbeat IPC: 0.0496477 cumulative IPC: 0.0494144 (Simulation time: 2 hr 23 min 32 sec) 
Heartbeat CPU 2 instructions: 120000000 cycles: 1356535566 heartbeat IPC: 0.0525746 cumulative IPC: 0.0525372 (Simulation time: 2 hr 35 min 15 sec) 
Heartbeat CPU 0 instructions: 120000000 cycles: 1377846527 heartbeat IPC: 0.0515915 cumulative IPC: 0.051548 (Simulation time: 2 hr 37 min 17 sec) 
Heartbeat CPU 1 instructions: 120000000 cycles: 1435246619 heartbeat IPC: 0.0496397 cumulative IPC: 0.0496227 (Simulation time: 2 hr 42 min 18 sec) 
Heartbeat CPU 3 instructions: 120000000 cycles: 1448864307 heartbeat IPC: 0.0493586 cumulative IPC: 0.0494064 (Simulation time: 2 hr 43 min 44 sec) 
Heartbeat CPU 2 instructions: 130000001 cycles: 1548248315 heartbeat IPC: 0.0521614 cumulative IPC: 0.0524897 (Simulation time: 2 hr 52 min 35 sec) 
Heartbeat CPU 0 instructions: 130000001 cycles: 1573506692 heartbeat IPC: 0.051109 cumulative IPC: 0.0514923 (Simulation time: 2 hr 55 min 12 sec) 
Heartbeat CPU 1 instructions: 130000001 cycles: 1640290679 heartbeat IPC: 0.04877 cumulative IPC: 0.049514 (Simulation time: 3 hr 1 min 22 sec) 
Heartbeat CPU 3 instructions: 130000001 cycles: 1654049834 heartbeat IPC: 0.0487364 cumulative IPC: 0.0493217 (Simulation time: 3 hr 2 min 31 sec) 
Heartbeat CPU 2 instructions: 140000000 cycles: 1738404426 heartbeat IPC: 0.0525884 cumulative IPC: 0.0525007 (Simulation time: 3 hr 10 min 44 sec) 
Heartbeat CPU 0 instructions: 140000000 cycles: 1767136028 heartbeat IPC: 0.0516451 cumulative IPC: 0.0515093 (Simulation time: 3 hr 13 min 38 sec) 
Heartbeat CPU 1 instructions: 140000000 cycles: 1839823489 heartbeat IPC: 0.0501171 cumulative IPC: 0.0495806 (Simulation time: 3 hr 21 min 8 sec) 
Heartbeat CPU 3 instructions: 140000000 cycles: 1854631085 heartbeat IPC: 0.0498551 cumulative IPC: 0.0493804 (Simulation time: 3 hr 22 min 21 sec) 
Heartbeat CPU 2 instructions: 150000000 cycles: 1929095823 heartbeat IPC: 0.0524408 cumulative IPC: 0.0524947 (Simulation time: 3 hr 29 min 14 sec) 
Heartbeat CPU 0 instructions: 150000000 cycles: 1960428033 heartbeat IPC: 0.0517352 cumulative IPC: 0.051532 (Simulation time: 3 hr 32 min 25 sec) 
Heartbeat CPU 1 instructions: 150000000 cycles: 2041350564 heartbeat IPC: 0.0496211 cumulative IPC: 0.0495847 (Simulation time: 3 hr 39 min 4 sec) 
Heartbeat CPU 3 instructions: 150000000 cycles: 2056416912 heartbeat IPC: 0.0495575 cumulative IPC: 0.049398 (Simulation time: 3 hr 40 min 17 sec) 
Heartbeat CPU 2 instructions: 160000000 cycles: 2119332743 heartbeat IPC: 0.052566 cumulative IPC: 0.0525012 (Simulation time: 3 hr 45 min 20 sec) 
Heartbeat CPU 0 instructions: 160000000 cycles: 2154117696 heartbeat IPC: 0.051629 cumulative IPC: 0.0515408 (Simulation time: 3 hr 48 min 5 sec) 
Heartbeat CPU 1 instructions: 160000000 cycles: 2242193604 heartbeat IPC: 0.0497901 cumulative IPC: 0.0496033 (Simulation time: 3 hr 55 min 12 sec) 
Heartbeat CPU 3 instructions: 160000000 cycles: 2258378000 heartbeat IPC: 0.0495145 cumulative IPC: 0.0494086 (Simulation time: 3 hr 56 min 32 sec) 
Heartbeat CPU 2 instructions: 170000001 cycles: 2308560114 heartbeat IPC: 0.0528465 cumulative IPC: 0.0525299 (Simulation time: 4 hr 0 min 40 sec) 
Heartbeat CPU 0 instructions: 170000001 cycles: 2346605745 heartbeat IPC: 0.0519513 cumulative IPC: 0.051575 (Simulation time: 4 hr 4 min 8 sec) 
Heartbeat CPU 1 instructions: 170000001 cycles: 2442843138 heartbeat IPC: 0.0498381 cumulative IPC: 0.0496229 (Simulation time: 4 hr 11 min 39 sec) 
Heartbeat CPU 3 instructions: 170000001 cycles: 2459644750 heartbeat IPC: 0.0496853 cumulative IPC: 0.0494315 (Simulation time: 4 hr 12 min 58 sec) 
Heartbeat CPU 2 instructions: 180000001 cycles: 2498393383 heartbeat IPC: 0.0526778 cumulative IPC: 0.0525413 (Simulation time: 4 hr 16 min 42 sec) 
Heartbeat CPU 0 instructions: 180000001 cycles: 2540726328 heartbeat IPC: 0.0515144 cumulative IPC: 0.0515703 (Simulation time: 4 hr 20 min 10 sec) 
Heartbeat CPU 2 instructions: 190000001 cycles: 2636944415 heartbeat IPC: 0.0721756 cumulative IPC: 0.0535856 (Simulation time: 4 hr 28 min 49 sec) 
Heartbeat CPU 1 instructions: 180000001 cycles: 2648781847 heartbeat IPC: 0.0485581 cumulative IPC: 0.0495391 (Simulation time: 4 hr 30 min 22 sec) 
Heartbeat CPU 3 instructions: 180000001 cycles: 2667275510 heartbeat IPC: 0.0481624 cumulative IPC: 0.0493316 (Simulation time: 4 hr 32 min 4 sec) 
Heartbeat CPU 2 instructions: 200000003 cycles: 2678016611 heartbeat IPC: 0.243474 cumulative IPC: 0.0565331 (Simulation time: 4 hr 32 min 57 sec) 
Heartbeat CPU 0 instructions: 190000001 cycles: 2685810009 heartbeat IPC: 0.0689257 cumulative IPC: 0.0525191 (Simulation time: 4 hr 33 min 49 sec) 
Heartbeat CPU 0 instructions: 200000003 cycles: 2727462442 heartbeat IPC: 0.240082 cumulative IPC: 0.0554175 (Simulation time: 4 hr 38 min 2 sec) 
Heartbeat CPU 1 instructions: 190000001 cycles: 2798872438 heartbeat IPC: 0.0666264 cumulative IPC: 0.050466 (Simulation time: 4 hr 44 min 0 sec) 
Heartbeat CPU 3 instructions: 190000002 cycles: 2822457581 heartbeat IPC: 0.0644404 cumulative IPC: 0.0501718 (Simulation time: 4 hr 46 min 34 sec) 
Heartbeat CPU 1 instructions: 200000003 cycles: 2845533016 heartbeat IPC: 0.214314 cumulative IPC: 0.0531834 (Simulation time: 4 hr 48 min 53 sec) 
Heartbeat CPU 3 instructions: 200000003 cycles: 2864944692 heartbeat IPC: 0.235366 cumulative IPC: 0.0529493 (Simulation time: 4 hr 50 min 29 sec) 
Heartbeat CPU 2 instructions: 210000000 cycles: 2882240610 heartbeat IPC: 0.0489658 cumulative IPC: 0.0559909 (Simulation time: 4 hr 51 min 56 sec) 
Heartbeat CPU 0 instructions: 210000000 cycles: 2931110337 heartbeat IPC: 0.0491043 cumulative IPC: 0.054974 (Simulation time: 4 hr 55 min 47 sec) 
Heartbeat CPU 1 instructions: 210000000 cycles: 3048682544 heartbeat IPC: 0.0492248 cumulative IPC: 0.0529168 (Simulation time: 5 hr 5 min 51 sec) 
Heartbeat CPU 3 instructions: 210000000 cycles: 3069055838 heartbeat IPC: 0.0489929 cumulative IPC: 0.0526834 (Simulation time: 5 hr 7 min 41 sec) 
Heartbeat CPU 2 instructions: 220000000 cycles: 3073004648 heartbeat IPC: 0.0524208 cumulative IPC: 0.055767 (Simulation time: 5 hr 8 min 5 sec) 
Heartbeat CPU 0 instructions: 220000000 cycles: 3126076390 heartbeat IPC: 0.051291 cumulative IPC: 0.054742 (Simulation time: 5 hr 13 min 35 sec) 
Heartbeat CPU 1 instructions: 220000000 cycles: 3252226025 heartbeat IPC: 0.0491296 cumulative IPC: 0.0526774 (Simulation time: 5 hr 24 min 20 sec) 
Heartbeat CPU 2 instructions: 230000001 cycles: 3264543751 heartbeat IPC: 0.0522087 cumulative IPC: 0.0555561 (Simulation time: 5 hr 25 min 20 sec) 
Heartbeat CPU 3 instructions: 220000000 cycles: 3273135938 heartbeat IPC: 0.0490004 cumulative IPC: 0.0524515 (Simulation time: 5 hr 26 min 10 sec) 
Heartbeat CPU 0 instructions: 230000001 cycles: 3322092055 heartbeat IPC: 0.0510163 cumulative IPC: 0.05452 (Simulation time: 5 hr 31 min 0 sec) 
Heartbeat CPU 1 instructions: 230000001 cycles: 3455470023 heartbeat IPC: 0.049202 cumulative IPC: 0.0524711 (Simulation time: 5 hr 44 min 26 sec) 
Heartbeat CPU 2 instructions: 240000001 cycles: 3456942805 heartbeat IPC: 0.0519753 cumulative IPC: 0.0553549 (Simulation time: 5 hr 44 min 33 sec) 
Heartbeat CPU 3 instructions: 230000001 cycles: 3477494402 heartbeat IPC: 0.0489336 cumulative IPC: 0.0522428 (Simulation time: 5 hr 46 min 27 sec) 
Heartbeat CPU 0 instructions: 240000001 cycles: 3518618702 heartbeat IPC: 0.0508837 cumulative IPC: 0.054315 (Simulation time: 5 hr 50 min 14 sec) 
Heartbeat CPU 2 instructions: 250000001 cycles: 3649023949 heartbeat IPC: 0.0520613 cumulative IPC: 0.05518 (Simulation time: 6 hr 3 min 0 sec) 
Finished CPU 2 instructions: 200000000 cycles: 3624817893 cumulative IPC: 0.0551752 (Simulation time: 6 hr 3 min 38 sec) 
Heartbeat CPU 1 instructions: 240000001 cycles: 3658614177 heartbeat IPC: 0.0492261 cumulative IPC: 0.0522893 (Simulation time: 6 hr 3 min 47 sec) 
Heartbeat CPU 3 instructions: 240000001 cycles: 3681243988 heartbeat IPC: 0.0490799 cumulative IPC: 0.0520662 (Simulation time: 6 hr 5 min 37 sec) 
Heartbeat CPU 0 instructions: 250000001 cycles: 3713514105 heartbeat IPC: 0.0513096 cumulative IPC: 0.0541559 (Simulation time: 6 hr 8 min 14 sec) 
Finished CPU 0 instructions: 200000000 cycles: 3693463970 cumulative IPC: 0.0541497 (Simulation time: 6 hr 9 min 13 sec) 
Heartbeat CPU 2 instructions: 260000000 cycles: 3839151106 heartbeat IPC: 0.0525964 cumulative IPC: 0.055051 (Simulation time: 6 hr 19 min 0 sec) 
Heartbeat CPU 1 instructions: 250000001 cycles: 3860959385 heartbeat IPC: 0.0494205 cumulative IPC: 0.0521377 (Simulation time: 6 hr 21 min 0 sec) 
Finished CPU 1 instructions: 200000001 cycles: 3836191035 cumulative IPC: 0.052135 (Simulation time: 6 hr 21 min 46 sec) 
Heartbeat CPU 3 instructions: 250000001 cycles: 3884434107 heartbeat IPC: 0.049215 cumulative IPC: 0.0519158 (Simulation time: 6 hr 23 min 13 sec) 
Finished CPU 3 instructions: 200000000 cycles: 3852388908 cumulative IPC: 0.0519158 (Simulation time: 6 hr 23 min 13 sec) 

ChampSim completed all CPUs

Total Simulation Statistics (not including warmup)

CPU 0 cumulative IPC: 0.0540443 instructions: 208199718 cycles: 3852388908
ITLB TOTAL     ACCESS:   62507610  HIT:   62507610  MISS:          0  HIT %:        100  MISS %:          0   MPKI: 0
ITLB LOAD      ACCESS:          0  HIT:          0  MISS:          0  HIT %:       -nan  MISS %:       -nan   MPKI: 0
ITLB RFO       ACCESS:          0  HIT:          0  MISS:          0  HIT %:       -nan  MISS %:       -nan   MPKI: 0
ITLB PREFETCH  ACCESS:          0  HIT:          0  MISS:          0  HIT %:       -nan  MISS %:       -nan   MPKI: 0
ITLB WRITEBACK ACCESS:          0  HIT:          0  MISS:          0  HIT %:       -nan  MISS %:       -nan   MPKI: 0
DTLB TOTAL     ACCESS:   69888161  HIT:   45937834  MISS:   23950327  HIT %:    65.7305  MISS %:    34.2695   MPKI: 115.035
DTLB LOAD      ACCESS:          0  HIT:          0  MISS:          0  HIT %:       -nan  MISS %:       -nan   MPKI: 0
DTLB RFO       ACCESS:          0  HIT:          0  MISS:          0  HIT %:       -nan  MISS %:       -nan   MPKI: 0
DTLB PREFETCH  ACCESS:          0  HIT:          0  MISS:          0  HIT %:       -nan  MISS %:       -nan   MPKI: 0
DTLB WRITEBACK ACCESS:          0  HIT:          0  MISS:          0  HIT %:       -nan  MISS %:       -nan   MPKI: 0
STLB TOTAL     ACCESS:   59566050  HIT:   59523648  MISS:      42402  HIT %:    99.9288  MISS %:  0.0711848   MPKI: 0.20366
STLB LOAD      ACCESS:          0  HIT:          0  MISS:          0  HIT %:       -nan  MISS %:       -nan   MPKI: 0
STLB RFO       ACCESS:          0  HIT:          0  MISS:          0  HIT %:       -nan  MISS %:       -nan   MPKI: 0
STLB PREFETCH  ACCESS:          0  HIT:          0  MISS:          0  HIT %:       -nan  MISS %:       -nan   MPKI: 0
STLB WRITEBACK ACCESS:          0  HIT:          0  MISS:          0  HIT %:       -nan  MISS %:       -nan   MPKI: 0
L1D TOTAL     ACCESS:  110226062  HIT:   41172867  MISS:   69053195  HIT %:    37.3531  MISS %:    62.6469   MPKI: 331.668
L1D LOAD      ACCESS:   67024481  HIT:   33466374  MISS:   33558107  HIT %:    49.9316  MISS %:    50.0684   MPKI: 161.182
L1D RFO       ACCESS:    2564820  HIT:    2499265  MISS:      65555  HIT %:    97.4441  MISS %:    2.55593   MPKI: 0.314866
L1D PREFETCH  ACCESS:   40636761  HIT:    5207228  MISS:   35429533  HIT %:    12.8141  MISS %:    87.1859   MPKI: 170.171
L1D WRITEBACK ACCESS:          0  HIT:          0  MISS:          0  HIT %:       -nan  MISS %:       -nan   MPKI: 0
L1I TOTAL     ACCESS:   63682441  HIT:   63682418  MISS:         23  HIT %:        100  MISS %: 3.61167e-05   MPKI: 0.000110471
L1I LOAD      ACCESS:   63682441  HIT:   63682418  MISS:         23  HIT %:        100  MISS %: 3.61167e-05   MPKI: 0.000110471
L1I RFO       ACCESS:          0  HIT:          0  MISS:          0  HIT %:       -nan  MISS %:       -nan   MPKI: 0
L1I PREFETCH  ACCESS:          0  HIT:          0  MISS:          0  HIT %:       -nan  MISS %:       -nan   MPKI: 0
L1I WRITEBACK ACCESS:          0  HIT:          0  MISS:          0  HIT %:       -nan  MISS %:       -nan   MPKI: 0
L2C TOTAL     ACCESS:   69270036  HIT:   14095090  MISS:   55174946  HIT %:     20.348  MISS %:     79.652   MPKI: 265.01
L2C LOAD      ACCESS:   33210869  HIT:    7325552  MISS:   25885317  HIT %:    22.0577  MISS %:    77.9423   MPKI: 124.329
L2C RFO       ACCESS:      65555  HIT:        215  MISS:      65340  HIT %:   0.327969  MISS %:     99.672   MPKI: 0.313833
L2C PREFETCH  ACCESS:   35776770  HIT:    6594152  MISS:   29182618  HIT %:    18.4314  MISS %:    81.5686   MPKI: 140.166
L2C WRITEBACK ACCESS:     174398  HIT:     141508  MISS:      32890  HIT %:    81.1408  MISS %:    18.8592   MPKI: 0.157973
PSCL5 TOTAL     ACCESS:      42402  HIT:      42402  MISS:          0  HIT %:        100  MISS %:          0   MPKI: 0
PSCL5 LOAD      ACCESS:          0  HIT:          0  MISS:          0  HIT %:       -nan  MISS %:       -nan   MPKI: 0
PSCL5 RFO       ACCESS:          0  HIT:          0  MISS:          0  HIT %:       -nan  MISS %:       -nan   MPKI: 0
PSCL5 PREFETCH  ACCESS:          0  HIT:          0  MISS:          0  HIT %:       -nan  MISS %:       -nan   MPKI: 0
PSCL5 WRITEBACK ACCESS:          0  HIT:          0  MISS:          0  HIT %:       -nan  MISS %:       -nan   MPKI: 0
PSCL4 TOTAL     ACCESS:      42402  HIT:      42402  MISS:          0  HIT %:        100  MISS %:          0   MPKI: 0
PSCL4 LOAD      ACCESS:          0  HIT:          0  MISS:          0  HIT %:       -nan  MISS %:       -nan   MPKI: 0
PSCL4 RFO       ACCESS:          0  HIT:          0  MISS:          0  HIT %:       -nan  MISS %:       -nan   MPKI: 0
PSCL4 PREFETCH  ACCESS:          0  HIT:          0  MISS:          0  HIT %:       -nan  MISS %:       -nan   MPKI: 0
PSCL4 WRITEBACK ACCESS:          0  HIT:          0  MISS:          0  HIT %:       -nan  MISS %:       -nan   MPKI: 0
PSCL3 TOTAL     ACCESS:      42402  HIT:      42402  MISS:          0  HIT %:        100  MISS %:          0   MPKI: 0
PSCL3 LOAD      ACCESS:          0  HIT:          0  MISS:          0  HIT %:       -nan  MISS %:       -nan   MPKI: 0
PSCL3 RFO       ACCESS:          0  HIT:          0  MISS:          0  HIT %:       -nan  MISS %:       -nan   MPKI: 0
PSCL3 PREFETCH  ACCESS:          0  HIT:          0  MISS:          0  HIT %:       -nan  MISS %:       -nan   MPKI: 0
PSCL3 WRITEBACK ACCESS:          0  HIT:          0  MISS:          0  HIT %:       -nan  MISS %:       -nan   MPKI: 0
PSCL2 TOTAL     ACCESS:      42402  HIT:      42314  MISS:         88  HIT %:    99.7925  MISS %:   0.207537   MPKI: 0.000422671
PSCL2 LOAD      ACCESS:          0  HIT:          0  MISS:          0  HIT %:       -nan  MISS %:       -nan   MPKI: 0
PSCL2 RFO       ACCESS:          0  HIT:          0  MISS:          0  HIT %:       -nan  MISS %:       -nan   MPKI: 0
PSCL2 PREFETCH  ACCESS:          0  HIT:          0  MISS:          0  HIT %:       -nan  MISS %:       -nan   MPKI: 0
PSCL2 WRITEBACK ACCESS:          0  HIT:          0  MISS:          0  HIT %:       -nan  MISS %:       -nan   MPKI: 0

stream: 
stream:times selected: 45286774
stream:pref_filled: 38829687
stream:pref_useful: 986698
stream:pref_late: 303009
stream:misses: 9574450
stream:misses_by_poll: 0

CS: 
CS:times selected: 4143668
CS:pref_filled: 3245818
CS:pref_useful: 2923721
CS:pref_late: 99057
CS:misses: 561938
CS:misses_by_poll: 3154

CPLX: 
CPLX:times selected: 40767509
CPLX:pref_filled: 790355
CPLX:pref_useful: 32600
CPLX:pref_late: 16995
CPLX:misses: 30250109
CPLX:misses_by_poll: 287

NL_L1: 
NL:times selected: 53870
NL:pref_filled: 52295
NL:pref_useful: 568
NL:pref_late: 203
NL:misses: 53022
NL:misses_by_poll: 0

total selections: 90251821
total_filled: 35429533
total_useful: 3145685
total_late: 423780
total_polluted: 3441
total_misses_after_warmup: 33906905
conflicts: 230
Degree Incremented Times: 1275691
Degree Decremented Times: 67651980

L1 IP Table Write Accesses: 265998442
L1 IP Table Read Accesses: 265998212
L1 RST Write Accesses: 148645220
L1 RST Read Accesses: 297290440
L1 CSPT Write Accesses: 148645220
L1 CSPT Read Accesses: 283154364
L1 RR Filter Tag Write Accesses: 162084932
L1 RR Filter Tag Read Accesses: 5820067633
L1 IP Table Tag Write Accesses: 265998601
L1 IP Table Tag Read Accesses: 265998601
L1 RST Tag Write Accesses: 0
L1 RST Tag Read Accesses: 1334205214
L1 RR Filter Write Accesses: 0
L1 RR Filter Read Accesses: 186564878
test: 94856875
LLC TOTAL     ACCESS:   55282561  HIT:   33168910  MISS:   22113651  HIT %:    59.9989  MISS %:    40.0011   MPKI: 106.214
LLC LOAD      ACCESS:   25885317  HIT:   16690696  MISS:    9194621  HIT %:    64.4794  MISS %:    35.5206   MPKI: 44.1625
LLC RFO       ACCESS:      65340  HIT:       7188  MISS:      58152  HIT %:    11.0009  MISS %:    88.9991   MPKI: 0.279309
LLC PREFETCH  ACCESS:   29182618  HIT:   16340181  MISS:   12842437  HIT %:    55.9929  MISS %:    44.0071   MPKI: 61.6833
LLC WRITEBACK ACCESS:     140505  HIT:     128194  MISS:      12311  HIT %:     91.238  MISS %:    8.76197   MPKI: 0.0591307

RAW hits: 25
Loads Generated: 80581518
Loads sent to L1D: 80581493
Stores Generated: 3399560
Stores sent to L1D: 3399560

CPU 1 cumulative IPC: 0.0521247 instructions: 200804491 cycles: 3852388908
ITLB TOTAL     ACCESS:   60245693  HIT:   60245693  MISS:          0  HIT %:        100  MISS %:          0   MPKI: 0
ITLB LOAD      ACCESS:          0  HIT:          0  MISS:          0  HIT %:       -nan  MISS %:       -nan   MPKI: 0
ITLB RFO       ACCESS:          0  HIT:          0  MISS:          0  HIT %:       -nan  MISS %:       -nan   MPKI: 0
ITLB PREFETCH  ACCESS:          0  HIT:          0  MISS:          0  HIT %:       -nan  MISS %:       -nan   MPKI: 0
ITLB WRITEBACK ACCESS:          0  HIT:          0  MISS:          0  HIT %:       -nan  MISS %:       -nan   MPKI: 0
DTLB TOTAL     ACCESS:   67346259  HIT:   44285314  MISS:   23060945  HIT %:    65.7576  MISS %:    34.2424   MPKI: 114.843
DTLB LOAD      ACCESS:          0  HIT:          0  MISS:          0  HIT %:       -nan  MISS %:       -nan   MPKI: 0
DTLB RFO       ACCESS:          0  HIT:          0  MISS:          0  HIT %:       -nan  MISS %:       -nan   MPKI: 0
DTLB PREFETCH  ACCESS:          0  HIT:          0  MISS:          0  HIT %:       -nan  MISS %:       -nan   MPKI: 0
DTLB WRITEBACK ACCESS:          0  HIT:          0  MISS:          0  HIT %:       -nan  MISS %:       -nan   MPKI: 0
STLB TOTAL     ACCESS:   57347524  HIT:   57306545  MISS:      40979  HIT %:    99.9285  MISS %:  0.0714573   MPKI: 0.204074
STLB LOAD      ACCESS:          0  HIT:          0  MISS:          0  HIT %:       -nan  MISS %:       -nan   MPKI: 0
STLB RFO       ACCESS:          0  HIT:          0  MISS:          0  HIT %:       -nan  MISS %:       -nan   MPKI: 0
STLB PREFETCH  ACCESS:          0  HIT:          0  MISS:          0  HIT %:       -nan  MISS %:       -nan   MPKI: 0
STLB WRITEBACK ACCESS:          0  HIT:          0  MISS:          0  HIT %:       -nan  MISS %:       -nan   MPKI: 0
L1D TOTAL     ACCESS:  106161672  HIT:   39685228  MISS:   66476444  HIT %:    37.3819  MISS %:    62.6181   MPKI: 331.051
L1D LOAD      ACCESS:   64554449  HIT:   32241810  MISS:   32312639  HIT %:    49.9451  MISS %:    50.0549   MPKI: 160.916
L1D RFO       ACCESS:    2470412  HIT:    2404857  MISS:      65555  HIT %:    97.3464  MISS %:    2.65361   MPKI: 0.326462
L1D PREFETCH  ACCESS:   39136811  HIT:    5038561  MISS:   34098250  HIT %:    12.8742  MISS %:    87.1258   MPKI: 169.808
L1D WRITEBACK ACCESS:          0  HIT:          0  MISS:          0  HIT %:       -nan  MISS %:       -nan   MPKI: 0
L1I TOTAL     ACCESS:   61375942  HIT:   61375919  MISS:         23  HIT %:        100  MISS %: 3.7474e-05   MPKI: 0.000114539
L1I LOAD      ACCESS:   61375942  HIT:   61375919  MISS:         23  HIT %:        100  MISS %: 3.7474e-05   MPKI: 0.000114539
L1I RFO       ACCESS:          0  HIT:          0  MISS:          0  HIT %:       -nan  MISS %:       -nan   MPKI: 0
L1I PREFETCH  ACCESS:          0  HIT:          0  MISS:          0  HIT %:       -nan  MISS %:       -nan   MPKI: 0
L1I WRITEBACK ACCESS:          0  HIT:          0  MISS:          0  HIT %:       -nan  MISS %:       -nan   MPKI: 0
L2C TOTAL     ACCESS:   66687863  HIT:   13546429  MISS:   53141434  HIT %:    20.3132  MISS %:    79.6868   MPKI: 264.643
L2C LOAD      ACCESS:   31973160  HIT:    7040868  MISS:   24932292  HIT %:    22.0212  MISS %:    77.9788   MPKI: 124.162
L2C RFO       ACCESS:      65555  HIT:        118  MISS:      65437  HIT %:   0.180002  MISS %:      99.82   MPKI: 0.325874
L2C PREFETCH  ACCESS:   34437735  HIT:    6335224  MISS:   28102511  HIT %:    18.3962  MISS %:    81.6038   MPKI: 139.95
L2C WRITEBACK ACCESS:     170395  HIT:     137927  MISS:      32468  HIT %:    80.9455  MISS %:    19.0545   MPKI: 0.16169
PSCL5 TOTAL     ACCESS:      40979  HIT:      40979  MISS:          0  HIT %:        100  MISS %:          0   MPKI: 0
PSCL5 LOAD      ACCESS:          0  HIT:          0  MISS:          0  HIT %:       -nan  MISS %:       -nan   MPKI: 0
PSCL5 RFO       ACCESS:          0  HIT:          0  MISS:          0  HIT %:       -nan  MISS %:       -nan   MPKI: 0
PSCL5 PREFETCH  ACCESS:          0  HIT:          0  MISS:          0  HIT %:       -nan  MISS %:       -nan   MPKI: 0
PSCL5 WRITEBACK ACCESS:          0  HIT:          0  MISS:          0  HIT %:       -nan  MISS %:       -nan   MPKI: 0
PSCL4 TOTAL     ACCESS:      40979  HIT:      40979  MISS:          0  HIT %:        100  MISS %:          0   MPKI: 0
PSCL4 LOAD      ACCESS:          0  HIT:          0  MISS:          0  HIT %:       -nan  MISS %:       -nan   MPKI: 0
PSCL4 RFO       ACCESS:          0  HIT:          0  MISS:          0  HIT %:       -nan  MISS %:       -nan   MPKI: 0
PSCL4 PREFETCH  ACCESS:          0  HIT:          0  MISS:          0  HIT %:       -nan  MISS %:       -nan   MPKI: 0
PSCL4 WRITEBACK ACCESS:          0  HIT:          0  MISS:          0  HIT %:       -nan  MISS %:       -nan   MPKI: 0
PSCL3 TOTAL     ACCESS:      40979  HIT:      40979  MISS:          0  HIT %:        100  MISS %:          0   MPKI: 0
PSCL3 LOAD      ACCESS:          0  HIT:          0  MISS:          0  HIT %:       -nan  MISS %:       -nan   MPKI: 0
PSCL3 RFO       ACCESS:          0  HIT:          0  MISS:          0  HIT %:       -nan  MISS %:       -nan   MPKI: 0
PSCL3 PREFETCH  ACCESS:          0  HIT:          0  MISS:          0  HIT %:       -nan  MISS %:       -nan   MPKI: 0
PSCL3 WRITEBACK ACCESS:          0  HIT:          0  MISS:          0  HIT %:       -nan  MISS %:       -nan   MPKI: 0
PSCL2 TOTAL     ACCESS:      40979  HIT:      40893  MISS:         86  HIT %:    99.7901  MISS %:   0.209864   MPKI: 0.000428277
PSCL2 LOAD      ACCESS:          0  HIT:          0  MISS:          0  HIT %:       -nan  MISS %:       -nan   MPKI: 0
PSCL2 RFO       ACCESS:          0  HIT:          0  MISS:          0  HIT %:       -nan  MISS %:       -nan   MPKI: 0
PSCL2 PREFETCH  ACCESS:          0  HIT:          0  MISS:          0  HIT %:       -nan  MISS %:       -nan   MPKI: 0
PSCL2 WRITEBACK ACCESS:          0  HIT:          0  MISS:          0  HIT %:       -nan  MISS %:       -nan   MPKI: 0

stream: 
stream:times selected: 43846482
stream:pref_filled: 37142571
stream:pref_useful: 754708
stream:pref_late: 297024
stream:misses: 9267349
stream:misses_by_poll: 0

CS: 
CS:times selected: 4030025
CS:pref_filled: 3145077
CS:pref_useful: 2835095
CS:pref_late: 97654
CS:misses: 800073
CS:misses_by_poll: 3047

CPLX: 
CPLX:times selected: 39453001
CPLX:pref_filled: 764440
CPLX:pref_useful: 30950
CPLX:pref_late: 16737
CPLX:misses: 29278872
CPLX:misses_by_poll: 254

NL_L1: 
NL:times selected: 53851
NL:pref_filled: 52224
NL:pref_useful: 560
NL:pref_late: 195
NL:misses: 53006
NL:misses_by_poll: 0

total selections: 87383359
total_filled: 34098250
total_useful: 3022981
total_late: 415795
total_polluted: 3301
total_misses_after_warmup: 32608783
conflicts: 230
Degree Incremented Times: 1275691
Degree Decremented Times: 67651980

L1 IP Table Write Accesses: 265998442
L1 IP Table Read Accesses: 265998212
L1 RST Write Accesses: 148645220
L1 RST Read Accesses: 297290440
L1 CSPT Write Accesses: 148645220
L1 CSPT Read Accesses: 283154364
L1 RR Filter Tag Write Accesses: 162084932
L1 RR Filter Tag Read Accesses: 5820067633
L1 IP Table Tag Write Accesses: 265998601
L1 IP Table Tag Read Accesses: 265998601
L1 RST Tag Write Accesses: 0
L1 RST Tag Read Accesses: 1334205214
L1 RR Filter Write Accesses: 0
L1 RR Filter Read Accesses: 186564878
test: 94856875
LLC TOTAL     ACCESS:   53246172  HIT:   30520305  MISS:   22725867  HIT %:    57.3192  MISS %:    42.6808   MPKI: 113.174
LLC LOAD      ACCESS:   24932292  HIT:   15385440  MISS:    9546852  HIT %:    61.7089  MISS %:    38.2911   MPKI: 47.543
LLC RFO       ACCESS:      65437  HIT:       6159  MISS:      59278  HIT %:    9.41211  MISS %:    90.5879   MPKI: 0.295203
LLC PREFETCH  ACCESS:   28102512  HIT:   15001261  MISS:   13101251  HIT %:    53.3805  MISS %:    46.6195   MPKI: 65.2438
LLC WRITEBACK ACCESS:     137205  HIT:     124825  MISS:      12380  HIT %:     90.977  MISS %:    9.02299   MPKI: 0.061652

RAW hits: 25
Loads Generated: 77670114
Loads sent to L1D: 77670089
Stores Generated: 3310335
Stores sent to L1D: 3310335

CPU 2 cumulative IPC: 0.055023 instructions: 211970059 cycles: 3852388908
ITLB TOTAL     ACCESS:   63638211  HIT:   63638211  MISS:          0  HIT %:        100  MISS %:          0   MPKI: 0
ITLB LOAD      ACCESS:          0  HIT:          0  MISS:          0  HIT %:       -nan  MISS %:       -nan   MPKI: 0
ITLB RFO       ACCESS:          0  HIT:          0  MISS:          0  HIT %:       -nan  MISS %:       -nan   MPKI: 0
ITLB PREFETCH  ACCESS:          0  HIT:          0  MISS:          0  HIT %:       -nan  MISS %:       -nan   MPKI: 0
ITLB WRITEBACK ACCESS:          0  HIT:          0  MISS:          0  HIT %:       -nan  MISS %:       -nan   MPKI: 0
DTLB TOTAL     ACCESS:   71191627  HIT:   46765244  MISS:   24426383  HIT %:    65.6892  MISS %:    34.3108   MPKI: 115.235
DTLB LOAD      ACCESS:          0  HIT:          0  MISS:          0  HIT %:       -nan  MISS %:       -nan   MPKI: 0
DTLB RFO       ACCESS:          0  HIT:          0  MISS:          0  HIT %:       -nan  MISS %:       -nan   MPKI: 0
DTLB PREFETCH  ACCESS:          0  HIT:          0  MISS:          0  HIT %:       -nan  MISS %:       -nan   MPKI: 0
DTLB WRITEBACK ACCESS:          0  HIT:          0  MISS:          0  HIT %:       -nan  MISS %:       -nan   MPKI: 0
STLB TOTAL     ACCESS:   60721853  HIT:   60678728  MISS:      43125  HIT %:     99.929  MISS %:  0.0710206   MPKI: 0.203449
STLB LOAD      ACCESS:          0  HIT:          0  MISS:          0  HIT %:       -nan  MISS %:       -nan   MPKI: 0
STLB RFO       ACCESS:          0  HIT:          0  MISS:          0  HIT %:       -nan  MISS %:       -nan   MPKI: 0
STLB PREFETCH  ACCESS:          0  HIT:          0  MISS:          0  HIT %:       -nan  MISS %:       -nan   MPKI: 0
STLB WRITEBACK ACCESS:          0  HIT:          0  MISS:          0  HIT %:       -nan  MISS %:       -nan   MPKI: 0
L1D TOTAL     ACCESS:  112322509  HIT:   41946220  MISS:   70376289  HIT %:    37.3444  MISS %:    62.6556   MPKI: 332.011
L1D LOAD      ACCESS:   68294791  HIT:   34096605  MISS:   34198186  HIT %:    49.9256  MISS %:    50.0744   MPKI: 161.335
L1D RFO       ACCESS:    2618223  HIT:    2552669  MISS:      65554  HIT %:    97.4962  MISS %:    2.50376   MPKI: 0.309261
L1D PREFETCH  ACCESS:   41409495  HIT:    5296946  MISS:   36112549  HIT %:    12.7916  MISS %:    87.2084   MPKI: 170.366
L1D WRITEBACK ACCESS:          0  HIT:          0  MISS:          0  HIT %:       -nan  MISS %:       -nan   MPKI: 0
L1I TOTAL     ACCESS:   64836511  HIT:   64836488  MISS:         23  HIT %:        100  MISS %: 3.54738e-05   MPKI: 0.000108506
L1I LOAD      ACCESS:   64836511  HIT:   64836488  MISS:         23  HIT %:        100  MISS %: 3.54738e-05   MPKI: 0.000108506
L1I RFO       ACCESS:          0  HIT:          0  MISS:          0  HIT %:       -nan  MISS %:       -nan   MPKI: 0
L1I PREFETCH  ACCESS:          0  HIT:          0  MISS:          0  HIT %:       -nan  MISS %:       -nan   MPKI: 0
L1I WRITEBACK ACCESS:          0  HIT:          0  MISS:          0  HIT %:       -nan  MISS %:       -nan   MPKI: 0
L2C TOTAL     ACCESS:   70596046  HIT:   14384965  MISS:   56211081  HIT %:    20.3764  MISS %:    79.6236   MPKI: 265.184
L2C LOAD      ACCESS:   33854938  HIT:    7480119  MISS:   26374819  HIT %:    22.0946  MISS %:    77.9054   MPKI: 124.427
L2C RFO       ACCESS:      65554  HIT:        148  MISS:      65406  HIT %:   0.225768  MISS %:    99.7742   MPKI: 0.308562
L2C PREFETCH  ACCESS:   36455804  HIT:    6727410  MISS:   29728394  HIT %:    18.4536  MISS %:    81.5464   MPKI: 140.248
L2C WRITEBACK ACCESS:     176582  HIT:     143257  MISS:      33325  HIT %:    81.1277  MISS %:    18.8723   MPKI: 0.157216
PSCL5 TOTAL     ACCESS:      43125  HIT:      43125  MISS:          0  HIT %:        100  MISS %:          0   MPKI: 0
PSCL5 LOAD      ACCESS:          0  HIT:          0  MISS:          0  HIT %:       -nan  MISS %:       -nan   MPKI: 0
PSCL5 RFO       ACCESS:          0  HIT:          0  MISS:          0  HIT %:       -nan  MISS %:       -nan   MPKI: 0
PSCL5 PREFETCH  ACCESS:          0  HIT:          0  MISS:          0  HIT %:       -nan  MISS %:       -nan   MPKI: 0
PSCL5 WRITEBACK ACCESS:          0  HIT:          0  MISS:          0  HIT %:       -nan  MISS %:       -nan   MPKI: 0
PSCL4 TOTAL     ACCESS:      43125  HIT:      43125  MISS:          0  HIT %:        100  MISS %:          0   MPKI: 0
PSCL4 LOAD      ACCESS:          0  HIT:          0  MISS:          0  HIT %:       -nan  MISS %:       -nan   MPKI: 0
PSCL4 RFO       ACCESS:          0  HIT:          0  MISS:          0  HIT %:       -nan  MISS %:       -nan   MPKI: 0
PSCL4 PREFETCH  ACCESS:          0  HIT:          0  MISS:          0  HIT %:       -nan  MISS %:       -nan   MPKI: 0
PSCL4 WRITEBACK ACCESS:          0  HIT:          0  MISS:          0  HIT %:       -nan  MISS %:       -nan   MPKI: 0
PSCL3 TOTAL     ACCESS:      43125  HIT:      43125  MISS:          0  HIT %:        100  MISS %:          0   MPKI: 0
PSCL3 LOAD      ACCESS:          0  HIT:          0  MISS:          0  HIT %:       -nan  MISS %:       -nan   MPKI: 0
PSCL3 RFO       ACCESS:          0  HIT:          0  MISS:          0  HIT %:       -nan  MISS %:       -nan   MPKI: 0
PSCL3 PREFETCH  ACCESS:          0  HIT:          0  MISS:          0  HIT %:       -nan  MISS %:       -nan   MPKI: 0
PSCL3 WRITEBACK ACCESS:          0  HIT:          0  MISS:          0  HIT %:       -nan  MISS %:       -nan   MPKI: 0
PSCL2 TOTAL     ACCESS:      43125  HIT:      43035  MISS:         90  HIT %:    99.7913  MISS %:   0.208696   MPKI: 0.000424588
PSCL2 LOAD      ACCESS:          0  HIT:          0  MISS:          0  HIT %:       -nan  MISS %:       -nan   MPKI: 0
PSCL2 RFO       ACCESS:          0  HIT:          0  MISS:          0  HIT %:       -nan  MISS %:       -nan   MPKI: 0
PSCL2 PREFETCH  ACCESS:          0  HIT:          0  MISS:          0  HIT %:       -nan  MISS %:       -nan   MPKI: 0
PSCL2 WRITEBACK ACCESS:          0  HIT:          0  MISS:          0  HIT %:       -nan  MISS %:       -nan   MPKI: 0

stream: 
stream:times selected: 45956463
stream:pref_filled: 38982382
stream:pref_useful: 801898
stream:pref_late: 300067
stream:misses: 9723157
stream:misses_by_poll: 0

CS: 
CS:times selected: 4197942
CS:pref_filled: 3295640
CS:pref_useful: 2970150
CS:pref_late: 97076
CS:misses: 839821
CS:misses_by_poll: 3261

CPLX: 
CPLX:times selected: 41377028
CPLX:pref_filled: 802486
CPLX:pref_useful: 33075
CPLX:pref_late: 16974
CPLX:misses: 30704212
CPLX:misses_by_poll: 309

NL_L1: 
NL:times selected: 53869
NL:pref_filled: 52379
NL:pref_useful: 602
NL:pref_late: 183
NL:misses: 52984
NL:misses_by_poll: 0

total selections: 91585302
total_filled: 36112549
total_useful: 3205782
total_late: 418566
total_polluted: 3570
total_misses_after_warmup: 34508127
conflicts: 230
Degree Incremented Times: 1275691
Degree Decremented Times: 67651980

L1 IP Table Write Accesses: 265998442
L1 IP Table Read Accesses: 265998212
L1 RST Write Accesses: 148645220
L1 RST Read Accesses: 297290440
L1 CSPT Write Accesses: 148645220
L1 CSPT Read Accesses: 283154364
L1 RR Filter Tag Write Accesses: 162084932
L1 RR Filter Tag Read Accesses: 5820067633
L1 IP Table Tag Write Accesses: 265998601
L1 IP Table Tag Read Accesses: 265998601
L1 RST Tag Write Accesses: 0
L1 RST Tag Read Accesses: 1334205214
L1 RR Filter Write Accesses: 0
L1 RR Filter Read Accesses: 186564878
test: 94856875
LLC TOTAL     ACCESS:   56320628  HIT:   34527415  MISS:   21793213  HIT %:    61.3051  MISS %:    38.6949   MPKI: 102.813
LLC LOAD      ACCESS:   26374819  HIT:   17362695  MISS:    9012124  HIT %:    65.8306  MISS %:    34.1694   MPKI: 42.516
LLC RFO       ACCESS:      65406  HIT:       7866  MISS:      57540  HIT %:    12.0264  MISS %:    87.9736   MPKI: 0.271453
LLC PREFETCH  ACCESS:   29728394  HIT:   17024573  MISS:   12703821  HIT %:     57.267  MISS %:     42.733   MPKI: 59.9321
LLC WRITEBACK ACCESS:     142872  HIT:     129396  MISS:      13476  HIT %:    90.5678  MISS %:    9.43222   MPKI: 0.063575

RAW hits: 25
Loads Generated: 82065018
Loads sent to L1D: 82064993
Stores Generated: 3446502
Stores sent to L1D: 3446502

CPU 3 cumulative IPC: 0.0519158 instructions: 200000000 cycles: 3852388908
ITLB TOTAL     ACCESS:   60003805  HIT:   60003805  MISS:          0  HIT %:        100  MISS %:          0   MPKI: 0
ITLB LOAD      ACCESS:          0  HIT:          0  MISS:          0  HIT %:       -nan  MISS %:       -nan   MPKI: 0
ITLB RFO       ACCESS:          0  HIT:          0  MISS:          0  HIT %:       -nan  MISS %:       -nan   MPKI: 0
ITLB PREFETCH  ACCESS:          0  HIT:          0  MISS:          0  HIT %:       -nan  MISS %:       -nan   MPKI: 0
ITLB WRITEBACK ACCESS:          0  HIT:          0  MISS:          0  HIT %:       -nan  MISS %:       -nan   MPKI: 0
DTLB TOTAL     ACCESS:   67071865  HIT:   44117170  MISS:   22954695  HIT %:     65.776  MISS %:     34.224   MPKI: 114.773
DTLB LOAD      ACCESS:          0  HIT:          0  MISS:          0  HIT %:       -nan  MISS %:       -nan   MPKI: 0
DTLB RFO       ACCESS:          0  HIT:          0  MISS:          0  HIT %:       -nan  MISS %:       -nan   MPKI: 0
DTLB PREFETCH  ACCESS:          0  HIT:          0  MISS:          0  HIT %:       -nan  MISS %:       -nan   MPKI: 0
DTLB WRITEBACK ACCESS:          0  HIT:          0  MISS:          0  HIT %:       -nan  MISS %:       -nan   MPKI: 0
STLB TOTAL     ACCESS:   57097119  HIT:   57056294  MISS:      40825  HIT %:    99.9285  MISS %:   0.071501   MPKI: 0.204125
STLB LOAD      ACCESS:          0  HIT:          0  MISS:          0  HIT %:       -nan  MISS %:       -nan   MPKI: 0
STLB RFO       ACCESS:          0  HIT:          0  MISS:          0  HIT %:       -nan  MISS %:       -nan   MPKI: 0
STLB PREFETCH  ACCESS:          0  HIT:          0  MISS:          0  HIT %:       -nan  MISS %:       -nan   MPKI: 0
STLB WRITEBACK ACCESS:          0  HIT:          0  MISS:          0  HIT %:       -nan  MISS %:       -nan   MPKI: 0
L1D TOTAL     ACCESS:  105738182  HIT:   39543465  MISS:   66194717  HIT %:    37.3975  MISS %:    62.6025   MPKI: 330.974
L1D LOAD      ACCESS:   64291628  HIT:   32118366  MISS:   32173262  HIT %:    49.9573  MISS %:    50.0427   MPKI: 160.866
L1D RFO       ACCESS:    2468717  HIT:    2403163  MISS:      65554  HIT %:    97.3446  MISS %:    2.65539   MPKI: 0.32777
L1D PREFETCH  ACCESS:   38977837  HIT:    5021936  MISS:   33955901  HIT %:    12.8841  MISS %:    87.1159   MPKI: 169.78
L1D WRITEBACK ACCESS:          0  HIT:          0  MISS:          0  HIT %:       -nan  MISS %:       -nan   MPKI: 0
L1I TOTAL     ACCESS:   61128736  HIT:   61128713  MISS:         23  HIT %:        100  MISS %: 3.76255e-05   MPKI: 0.000115
L1I LOAD      ACCESS:   61128736  HIT:   61128713  MISS:         23  HIT %:        100  MISS %: 3.76255e-05   MPKI: 0.000115
L1I RFO       ACCESS:          0  HIT:          0  MISS:          0  HIT %:       -nan  MISS %:       -nan   MPKI: 0
L1I PREFETCH  ACCESS:          0  HIT:          0  MISS:          0  HIT %:       -nan  MISS %:       -nan   MPKI: 0
L1I WRITEBACK ACCESS:          0  HIT:          0  MISS:          0  HIT %:       -nan  MISS %:       -nan   MPKI: 0
L2C TOTAL     ACCESS:   66405472  HIT:   13419967  MISS:   52985505  HIT %:    20.2091  MISS %:    79.7909   MPKI: 264.928
L2C LOAD      ACCESS:   31835796  HIT:    6974215  MISS:   24861581  HIT %:    21.9068  MISS %:    78.0932   MPKI: 124.308
L2C RFO       ACCESS:      65554  HIT:        169  MISS:      65385  HIT %:   0.257803  MISS %:    99.7422   MPKI: 0.326925
L2C PREFETCH  ACCESS:   34293375  HIT:    6276052  MISS:   28017323  HIT %:    18.3011  MISS %:    81.6989   MPKI: 140.087
L2C WRITEBACK ACCESS:     169883  HIT:     137730  MISS:      32153  HIT %:    81.0734  MISS %:    18.9266   MPKI: 0.160765
PSCL5 TOTAL     ACCESS:      40825  HIT:      40825  MISS:          0  HIT %:        100  MISS %:          0   MPKI: 0
PSCL5 LOAD      ACCESS:          0  HIT:          0  MISS:          0  HIT %:       -nan  MISS %:       -nan   MPKI: 0
PSCL5 RFO       ACCESS:          0  HIT:          0  MISS:          0  HIT %:       -nan  MISS %:       -nan   MPKI: 0
PSCL5 PREFETCH  ACCESS:          0  HIT:          0  MISS:          0  HIT %:       -nan  MISS %:       -nan   MPKI: 0
PSCL5 WRITEBACK ACCESS:          0  HIT:          0  MISS:          0  HIT %:       -nan  MISS %:       -nan   MPKI: 0
PSCL4 TOTAL     ACCESS:      40825  HIT:      40825  MISS:          0  HIT %:        100  MISS %:          0   MPKI: 0
PSCL4 LOAD      ACCESS:          0  HIT:          0  MISS:          0  HIT %:       -nan  MISS %:       -nan   MPKI: 0
PSCL4 RFO       ACCESS:          0  HIT:          0  MISS:          0  HIT %:       -nan  MISS %:       -nan   MPKI: 0
PSCL4 PREFETCH  ACCESS:          0  HIT:          0  MISS:          0  HIT %:       -nan  MISS %:       -nan   MPKI: 0
PSCL4 WRITEBACK ACCESS:          0  HIT:          0  MISS:          0  HIT %:       -nan  MISS %:       -nan   MPKI: 0
PSCL3 TOTAL     ACCESS:      40825  HIT:      40825  MISS:          0  HIT %:        100  MISS %:          0   MPKI: 0
PSCL3 LOAD      ACCESS:          0  HIT:          0  MISS:          0  HIT %:       -nan  MISS %:       -nan   MPKI: 0
PSCL3 RFO       ACCESS:          0  HIT:          0  MISS:          0  HIT %:       -nan  MISS %:       -nan   MPKI: 0
PSCL3 PREFETCH  ACCESS:          0  HIT:          0  MISS:          0  HIT %:       -nan  MISS %:       -nan   MPKI: 0
PSCL3 WRITEBACK ACCESS:          0  HIT:          0  MISS:          0  HIT %:       -nan  MISS %:       -nan   MPKI: 0
PSCL2 TOTAL     ACCESS:      40825  HIT:      40739  MISS:         86  HIT %:    99.7893  MISS %:   0.210655   MPKI: 0.00043
PSCL2 LOAD      ACCESS:          0  HIT:          0  MISS:          0  HIT %:       -nan  MISS %:       -nan   MPKI: 0
PSCL2 RFO       ACCESS:          0  HIT:          0  MISS:          0  HIT %:       -nan  MISS %:       -nan   MPKI: 0
PSCL2 PREFETCH  ACCESS:          0  HIT:          0  MISS:          0  HIT %:       -nan  MISS %:       -nan   MPKI: 0
PSCL2 WRITEBACK ACCESS:          0  HIT:          0  MISS:          0  HIT %:       -nan  MISS %:       -nan   MPKI: 0

stream: 
stream:times selected: 43624814
stream:pref_filled: 36954635
stream:pref_useful: 751489
stream:pref_late: 296683
stream:misses: 9218668
stream:misses_by_poll: 0

CS: 
CS:times selected: 4016501
CS:pref_filled: 3132360
CS:pref_useful: 2823506
CS:pref_late: 95308
CS:misses: 783703
CS:misses_by_poll: 3121

CPLX: 
CPLX:times selected: 39246850
CPLX:pref_filled: 760956
CPLX:pref_useful: 30967
CPLX:pref_late: 16537
CPLX:misses: 29128274
CPLX:misses_by_poll: 306

NL_L1: 
NL:times selected: 53866
NL:pref_filled: 52270
NL:pref_useful: 571
NL:pref_late: 192
NL:misses: 53013
NL:misses_by_poll: 0

total selections: 86942031
total_filled: 33955901
total_useful: 3013709
total_late: 412791
total_polluted: 3427
total_misses_after_warmup: 32401082
conflicts: 230
Degree Incremented Times: 1275691
Degree Decremented Times: 67651980

L1 IP Table Write Accesses: 265998442
L1 IP Table Read Accesses: 265998212
L1 RST Write Accesses: 148645220
L1 RST Read Accesses: 297290440
L1 CSPT Write Accesses: 148645220
L1 CSPT Read Accesses: 283154364
L1 RR Filter Tag Write Accesses: 162084932
L1 RR Filter Tag Read Accesses: 5820067633
L1 IP Table Tag Write Accesses: 265998601
L1 IP Table Tag Read Accesses: 265998601
L1 RST Tag Write Accesses: 0
L1 RST Tag Read Accesses: 1334205214
L1 RR Filter Write Accesses: 0
L1 RR Filter Read Accesses: 186564878
test: 94856875
LLC TOTAL     ACCESS:   53090588  HIT:   30297830  MISS:   22792758  HIT %:    57.0682  MISS %:    42.9318   MPKI: 113.964
LLC LOAD      ACCESS:   24861581  HIT:   15282578  MISS:    9579003  HIT %:    61.4707  MISS %:    38.5293   MPKI: 47.895
LLC RFO       ACCESS:      65385  HIT:       6994  MISS:      58391  HIT %:    10.6966  MISS %:    89.3034   MPKI: 0.291955
LLC PREFETCH  ACCESS:   28017323  HIT:   14881223  MISS:   13136100  HIT %:    53.1144  MISS %:    46.8856   MPKI: 65.6805
LLC WRITEBACK ACCESS:     137236  HIT:     124117  MISS:      13119  HIT %:    90.4406  MISS %:    9.55945   MPKI: 0.065595

RAW hits: 25
Loads Generated: 77353857
Loads sent to L1D: 77353830
Stores Generated: 3299680
Stores sent to L1D: 3299680

Region of Interest Statistics

CPU 0 cumulative IPC: 0.0541497 instructions: 200000000 cycles: 3693463970
ITLB TOTAL     ACCESS:   59981734  HIT:   59981734  MISS:          0  HIT %:        100  MISS %:          0   MPKI: 0
ITLB LOAD TRANSLATION ACCESS:   59981734  HIT:   59981734  MISS:          0  HIT %:        100  MISS %:          0   MPKI: 0
ITLB PREFETCH  REQUESTED:          0  ISSUED:          0  USEFUL:          0  USELESS:          0
ITLB USEFUL LOAD PREFETCHES:          0 PREFETCH ISSUED TO LOWER LEVEL:          0  ACCURACY: -nan
ITLB TIMELY PREFETCHES:          0 LATE PREFETCHES: 0 DROPPED PREFETCHES: 0
ITLB PREFETCHES SAME FILL-ORIGIN LEVEL: 0 DIFFERENT FILL-ORIGIN LEVEL: 0
ITLB AVERAGE MISS LATENCY: -nan cycles
ITLB RQ	ACCESS:   63682442	FORWARD:          0	MERGED:    1174832	TO_CACHE:   62507610

DTLB TOTAL     ACCESS:   67062916  HIT:   44099785  MISS:   22963131  HIT %:    65.7588  MISS %:    34.2412   MPKI: 114.816
DTLB LOAD TRANSLATION ACCESS:   67062916  HIT:   44099785  MISS:   22963131  HIT %:    65.7588  MISS %:    34.2412   MPKI: 114.816
DTLB PREFETCH  REQUESTED:          0  ISSUED:          0  USEFUL:          0  USELESS:          0
DTLB USEFUL LOAD PREFETCHES:          0 PREFETCH ISSUED TO LOWER LEVEL:          0  ACCURACY: -nan
DTLB TIMELY PREFETCHES:          0 LATE PREFETCHES: 0 DROPPED PREFETCHES: 0
DTLB PREFETCHES SAME FILL-ORIGIN LEVEL: 0 DIFFERENT FILL-ORIGIN LEVEL: 0
DTLB AVERAGE MISS LATENCY: 9.59895 cycles
DTLB RQ	ACCESS:   70664530	FORWARD:          0	MERGED:     763289	TO_CACHE:   69901241

STLB TOTAL     ACCESS:   57103093  HIT:   57062266  MISS:      40827  HIT %:    99.9285  MISS %:   0.071497   MPKI: 0.204135
STLB LOAD TRANSLATION ACCESS:   22963131  HIT:   22922304  MISS:      40827  HIT %:    99.8222  MISS %:   0.177794   MPKI: 0.204135
STLB TRANSLATION FROM L1D PREFETCHER ACCESS:   34139962  HIT:   34139962  MISS:          0  HIT %:        100  MISS %:          0   MPKI: 0
STLB PREFETCH  REQUESTED:          0  ISSUED:          0  USEFUL:          0  USELESS:          0
STLB USEFUL LOAD PREFETCHES:          0 PREFETCH ISSUED TO LOWER LEVEL:          0  ACCURACY: -nan
STLB TIMELY PREFETCHES:          0 LATE PREFETCHES: 0 DROPPED PREFETCHES: 0
STLB PREFETCHES SAME FILL-ORIGIN LEVEL: 0 DIFFERENT FILL-ORIGIN LEVEL: 0
STLB AVERAGE MISS LATENCY: 113.923 cycles
STLB RQ	ACCESS:   64944548	FORWARD:          0	MERGED:    5378498	TO_CACHE:   59566050

STLB Hit, L1D data hit: 0
STLB Hit, L2C data hit: 0
STLB Hit, LLC data hit: 0
STLB Hit, LLC data miss: 0
STLB STLB hints to L2: 0
L1D TOTAL     ACCESS:  105691485  HIT:   39499329  MISS:   66192156  HIT %:    37.3723  MISS %:    62.6277   MPKI: 330.961
L1D LOAD      ACCESS:   64273346  HIT:   32106317  MISS:   32167029  HIT %:    49.9528  MISS %:    50.0472   MPKI: 160.835
L1D RFO       ACCESS:    2466982  HIT:    2401427  MISS:      65555  HIT %:    97.3427  MISS %:     2.6573   MPKI: 0.327775
L1D PREFETCH  ACCESS:   38951157  HIT:    4991585  MISS:   33959572  HIT %:     12.815  MISS %:     87.185   MPKI: 169.798
L1D PREFETCH  REQUESTED:   81988442  ISSUED:   81988442  USEFUL:    3145685  USELESS:   32283856
L1D USEFUL LOAD PREFETCHES:    3145685 PREFETCH ISSUED TO LOWER LEVEL:   35776771  ACCURACY: 8.79253
L1D TIMELY PREFETCHES:    3145685 LATE PREFETCHES: 347238 DROPPED PREFETCHES: 0
L1D PREFETCHES SAME FILL-ORIGIN LEVEL: 35776771 DIFFERENT FILL-ORIGIN LEVEL: 0
L1D AVERAGE MISS LATENCY: 107.822 cycles
L1D RQ	ACCESS:   80581493	FORWARD:          0	MERGED:   13316513	TO_CACHE:   67264973
L1D WQ	ACCESS:    3399560	FORWARD:          7	MERGED:          3	TO_CACHE:    3399557
L1D PQ	ACCESS:   40994221	FORWARD:          0	MERGED:          0	TO_CACHE:   40994221

L1D UNIQUE REGIONS ACCESSED: 0
L1D REGIONS CONFLICTS: 0
L1D Cross Page Prefetch Requests: 0
L1D Same Page Prefetch Requests: 49608390
L1D ROI Sum of L1D PQ occupancy: 455369176
L1D PREFETCHES PUSHED FROM L2C: 0
L1I TOTAL     ACCESS:   61107680  HIT:   61107657  MISS:         23  HIT %:        100  MISS %: 3.76385e-05   MPKI: 0.000115
L1I LOAD      ACCESS:   61107680  HIT:   61107657  MISS:         23  HIT %:        100  MISS %: 3.76385e-05   MPKI: 0.000115
L1I PREFETCH  REQUESTED:          0  ISSUED:          0  USEFUL:          0  USELESS:          0
L1I USEFUL LOAD PREFETCHES:          0 PREFETCH ISSUED TO LOWER LEVEL:          0  ACCURACY: -nan
L1I TIMELY PREFETCHES:          0 LATE PREFETCHES: 0 DROPPED PREFETCHES: 0
L1I PREFETCHES SAME FILL-ORIGIN LEVEL: 0 DIFFERENT FILL-ORIGIN LEVEL: 0
L1I AVERAGE MISS LATENCY: 245.348 cycles
L1I RQ	ACCESS:   75164581	FORWARD:          0	MERGED:   11482139	TO_CACHE:   63682442

BTB TOTAL     ACCESS:   37025791  HIT:   37025622  MISS:        169  HIT %:    99.9995  MISS %: 0.000456439   MPKI: 0.000845
BTB BRANCH_DIRECT_JUMP	ACCESS:         67  HIT:         33  MISS:         34
BTB BRANCH_INDIRECT	ACCESS:          4  HIT:          0  MISS:          4
BTB BRANCH_CONDITIONAL	ACCESS:   37025654  HIT:   37025569  MISS:         85
BTB BRANCH_DIRECT_CALL	ACCESS:         28  HIT:         10  MISS:         18
BTB BRANCH_INDIRECT_CALL	ACCESS:          5  HIT:          1  MISS:          4
BTB BRANCH_RETURN	ACCESS:         33  HIT:          9  MISS:         24
BTB BRANCH_OTHER ACCESS:          0  HIT:          0  MISS:          0

L2C TOTAL     ACCESS:   66402942  HIT:   13517039  MISS:   52885903  HIT %:    20.3561  MISS %:    79.6439   MPKI: 264.43
L2C LOAD      ACCESS:   31834095  HIT:    7023942  MISS:   24810153  HIT %:    22.0642  MISS %:    77.9358   MPKI: 124.051
L2C DATA LOAD MPKI: 124.051
L2C INSTRUCTION LOAD MPKI: 0.000115
L2C RFO       ACCESS:      65555  HIT:        215  MISS:      65340  HIT %:   0.327969  MISS %:     99.672   MPKI: 0.3267
L2C PREFETCH  ACCESS:   34292505  HIT:    6323238  MISS:   27969267  HIT %:    18.4391  MISS %:    81.5609   MPKI: 139.846
L2C DATA PREFETCH MPKI: 139.846
L2C INSTRUCTION PREFETCH MPKI: 0
L2C WRITEBACK ACCESS:     169921  HIT:     137216  MISS:      32705  HIT %:    80.7528  MISS %:    19.2472   MPKI: 0.163525
L2C LOAD TRANSLATION ACCESS:      40866  HIT:      32428  MISS:       8438  HIT %:     79.352  MISS %:     20.648   MPKI: 0.04219
L2C PREFETCH  REQUESTED:          0  ISSUED:          0  USEFUL:    1070638  USELESS:   28112035
L2C USEFUL LOAD PREFETCHES:    1070638 PREFETCH ISSUED TO LOWER LEVEL:   29182619  ACCURACY: 3.66875
L2C TIMELY PREFETCHES:    1070638 LATE PREFETCHES: 0 DROPPED PREFETCHES: 0
L2C PREFETCHES SAME FILL-ORIGIN LEVEL: 0 DIFFERENT FILL-ORIGIN LEVEL: 0
L2C AVERAGE MISS LATENCY: 119.398 cycles
L2C RQ	ACCESS:   33318892	FORWARD:          0	MERGED:          0	TO_CACHE:   33318869
L2C WQ	ACCESS:     174398	FORWARD:         23	MERGED:          0	TO_CACHE:     174398
L2C PQ	ACCESS:   35776771	FORWARD:          0	MERGED:          0	TO_CACHE:   35776771

L2C Instructions Evicting Data 23
L2C Translations Evicting Data 8781
L2C Data Evicting Data 55124468
L2C Instructions Evicting Instructions 0
L2C Translations Evicting Instructions 0
L2C Data Evicting Instructions 21
L2C Instructions Evicting Translations 0
L2C Translations Evicting Translations 0
L2C Data Evicting Translations 8763
L2C Dense regions hint from L2: 0
PSCL5 TOTAL     ACCESS:      40827  HIT:      40827  MISS:          0  HIT %:        100  MISS %:          0   MPKI: 0
PSCL5 LOAD TRANSLATION ACCESS:      40827  HIT:      40827  MISS:          0  HIT %:        100  MISS %:          0   MPKI: 0
PSCL5 PREFETCH  REQUESTED:          0  ISSUED:          0  USEFUL:          0  USELESS:          0
PSCL5 USEFUL LOAD PREFETCHES:          0 PREFETCH ISSUED TO LOWER LEVEL:          0  ACCURACY: -nan
PSCL5 TIMELY PREFETCHES:          0 LATE PREFETCHES: 0 DROPPED PREFETCHES: 0
PSCL5 PREFETCHES SAME FILL-ORIGIN LEVEL: 0 DIFFERENT FILL-ORIGIN LEVEL: 0

PSCL4 TOTAL     ACCESS:      40827  HIT:      40827  MISS:          0  HIT %:        100  MISS %:          0   MPKI: 0
PSCL4 LOAD TRANSLATION ACCESS:      40827  HIT:      40827  MISS:          0  HIT %:        100  MISS %:          0   MPKI: 0
PSCL4 PREFETCH  REQUESTED:          0  ISSUED:          0  USEFUL:          0  USELESS:          0
PSCL4 USEFUL LOAD PREFETCHES:          0 PREFETCH ISSUED TO LOWER LEVEL:          0  ACCURACY: -nan
PSCL4 TIMELY PREFETCHES:          0 LATE PREFETCHES: 0 DROPPED PREFETCHES: 0
PSCL4 PREFETCHES SAME FILL-ORIGIN LEVEL: 0 DIFFERENT FILL-ORIGIN LEVEL: 0

PSCL3 TOTAL     ACCESS:      40827  HIT:      40827  MISS:          0  HIT %:        100  MISS %:          0   MPKI: 0
PSCL3 LOAD TRANSLATION ACCESS:      40827  HIT:      40827  MISS:          0  HIT %:        100  MISS %:          0   MPKI: 0
PSCL3 PREFETCH  REQUESTED:          0  ISSUED:          0  USEFUL:          0  USELESS:          0
PSCL3 USEFUL LOAD PREFETCHES:          0 PREFETCH ISSUED TO LOWER LEVEL:          0  ACCURACY: -nan
PSCL3 TIMELY PREFETCHES:          0 LATE PREFETCHES: 0 DROPPED PREFETCHES: 0
PSCL3 PREFETCHES SAME FILL-ORIGIN LEVEL: 0 DIFFERENT FILL-ORIGIN LEVEL: 0

PSCL2 TOTAL     ACCESS:      40827  HIT:      40742  MISS:         85  HIT %:    99.7918  MISS %:   0.208196   MPKI: 0.000425
PSCL2 LOAD TRANSLATION ACCESS:      40827  HIT:      40742  MISS:         85  HIT %:    99.7918  MISS %:   0.208196   MPKI: 0.000425
PSCL2 PREFETCH  REQUESTED:          0  ISSUED:          0  USEFUL:          0  USELESS:          0
PSCL2 USEFUL LOAD PREFETCHES:          0 PREFETCH ISSUED TO LOWER LEVEL:          0  ACCURACY: -nan
PSCL2 TIMELY PREFETCHES:          0 LATE PREFETCHES: 0 DROPPED PREFETCHES: 0
PSCL2 PREFETCHES SAME FILL-ORIGIN LEVEL: 0 DIFFERENT FILL-ORIGIN LEVEL: 0

LLC TOTAL     ACCESS:   52990554  HIT:   31788074  MISS:   21202480  HIT %:    59.9882  MISS %:    40.0118   MPKI: 106.012
LLC LOAD      ACCESS:   24810153  HIT:   15995574  MISS:    8814579  HIT %:    64.4719  MISS %:    35.5281   MPKI: 44.0729
LLC RFO       ACCESS:      65340  HIT:       7188  MISS:      58152  HIT %:    11.0009  MISS %:    88.9991   MPKI: 0.29076
LLC PREFETCH  ACCESS:   27969268  HIT:   15657014  MISS:   12312254  HIT %:    55.9793  MISS %:    44.0207   MPKI: 61.5613
LLC WRITEBACK ACCESS:     137355  HIT:     125778  MISS:      11577  HIT %:    91.5715  MISS %:    8.42852   MPKI: 0.057885
LLC LOAD TRANSLATION ACCESS:       8438  HIT:       2520  MISS:       5918  HIT %:    29.8649  MISS %:    70.1351   MPKI: 0.02959
LLC PREFETCH  REQUESTED:          0  ISSUED:          0  USEFUL:    5571506  USELESS:   46212730
LLC USEFUL LOAD PREFETCHES:    5571506 PREFETCH ISSUED TO LOWER LEVEL:   51783611  ACCURACY: 10.7592
LLC TIMELY PREFETCHES:    5571506 LATE PREFETCHES: 0 DROPPED PREFETCHES: 0
LLC PREFETCHES SAME FILL-ORIGIN LEVEL: 0 DIFFERENT FILL-ORIGIN LEVEL: 0
LLC AVERAGE MISS LATENCY: 887.769 cycles
LLC RQ	ACCESS:  102351286	FORWARD:          0	MERGED:          0	TO_CACHE:  102351286
LLC WQ	ACCESS:     557818	FORWARD:          0	MERGED:          0	TO_CACHE:     557818
LLC PQ	ACCESS:  115030849	FORWARD:          0	MERGED:          0	TO_CACHE:  115030849

LLC Dense regions hint to LLC: 0

RAW hits: 25
Loads Generated: 77352811
Loads sent to L1D: 77352785
Stores Generated: 3301722
Stores sent to L1D: 3301722
Major fault: 0 Minor fault: 34900
Allocated PAGES: 139600

CPU 1 cumulative IPC: 0.052135 instructions: 200000001 cycles: 3836191035
ITLB TOTAL     ACCESS:   59997280  HIT:   59997280  MISS:          0  HIT %:        100  MISS %:          0   MPKI: 0
ITLB LOAD TRANSLATION ACCESS:   59997280  HIT:   59997280  MISS:          0  HIT %:        100  MISS %:          0   MPKI: 0
ITLB PREFETCH  REQUESTED:          0  ISSUED:          0  USEFUL:          0  USELESS:          0
ITLB USEFUL LOAD PREFETCHES:          0 PREFETCH ISSUED TO LOWER LEVEL:          0  ACCURACY: -nan
ITLB TIMELY PREFETCHES:          0 LATE PREFETCHES: 0 DROPPED PREFETCHES: 0
ITLB PREFETCHES SAME FILL-ORIGIN LEVEL: 0 DIFFERENT FILL-ORIGIN LEVEL: 0
ITLB AVERAGE MISS LATENCY: -nan cycles
ITLB RQ	ACCESS:   61375943	FORWARD:          0	MERGED:    1130250	TO_CACHE:   60245693

DTLB TOTAL     ACCESS:   67069103  HIT:   44106423  MISS:   22962680  HIT %:    65.7627  MISS %:    34.2373   MPKI: 114.813
DTLB LOAD TRANSLATION ACCESS:   67069103  HIT:   44106423  MISS:   22962680  HIT %:    65.7627  MISS %:    34.2373   MPKI: 114.813
DTLB PREFETCH  REQUESTED:          0  ISSUED:          0  USEFUL:          0  USELESS:          0
DTLB USEFUL LOAD PREFETCHES:          0 PREFETCH ISSUED TO LOWER LEVEL:          0  ACCURACY: -nan
DTLB TIMELY PREFETCHES:          0 LATE PREFETCHES: 0 DROPPED PREFETCHES: 0
DTLB PREFETCHES SAME FILL-ORIGIN LEVEL: 0 DIFFERENT FILL-ORIGIN LEVEL: 0
DTLB AVERAGE MISS LATENCY: 9.25014 cycles
DTLB RQ	ACCESS:   68097807	FORWARD:          0	MERGED:     738861	TO_CACHE:   67358946

STLB TOTAL     ACCESS:   57103712  HIT:   57062886  MISS:      40826  HIT %:    99.9285  MISS %:  0.0714945   MPKI: 0.20413
STLB LOAD TRANSLATION ACCESS:   22962680  HIT:   22921854  MISS:      40826  HIT %:    99.8222  MISS %:   0.177793   MPKI: 0.20413
STLB TRANSLATION FROM L1D PREFETCHER ACCESS:   34141032  HIT:   34141032  MISS:          0  HIT %:        100  MISS %:          0   MPKI: 0
STLB PREFETCH  REQUESTED:          0  ISSUED:          0  USEFUL:          0  USELESS:          0
STLB USEFUL LOAD PREFETCHES:          0 PREFETCH ISSUED TO LOWER LEVEL:          0  ACCURACY: -nan
STLB TIMELY PREFETCHES:          0 LATE PREFETCHES: 0 DROPPED PREFETCHES: 0
STLB PREFETCHES SAME FILL-ORIGIN LEVEL: 0 DIFFERENT FILL-ORIGIN LEVEL: 0
STLB AVERAGE MISS LATENCY: 113.756 cycles
STLB RQ	ACCESS:   62546938	FORWARD:          0	MERGED:    5199414	TO_CACHE:   57347524

STLB Hit, L1D data hit: 0
STLB Hit, L2C data hit: 0
STLB Hit, LLC data hit: 0
STLB Hit, LLC data miss: 0
STLB STLB hints to L2: 0
L1D TOTAL     ACCESS:  105715997  HIT:   39522208  MISS:   66193789  HIT %:    37.3853  MISS %:    62.6147   MPKI: 330.969
L1D LOAD      ACCESS:   64284488  HIT:   32109734  MISS:   32174754  HIT %:    49.9494  MISS %:    50.0506   MPKI: 160.874
L1D RFO       ACCESS:    2460836  HIT:    2395281  MISS:      65555  HIT %:    97.3361  MISS %:    2.66393   MPKI: 0.327775
L1D PREFETCH  ACCESS:   38970673  HIT:    5017193  MISS:   33953480  HIT %:    12.8743  MISS %:    87.1257   MPKI: 169.767
L1D PREFETCH  REQUESTED:   78971986  ISSUED:   78971986  USEFUL:    3022981  USELESS:   31075272
L1D USEFUL LOAD PREFETCHES:    3022981 PREFETCH ISSUED TO LOWER LEVEL:   34437736  ACCURACY: 8.77811
L1D TIMELY PREFETCHES:    3022981 LATE PREFETCHES: 339485 DROPPED PREFETCHES: 0
L1D PREFETCHES SAME FILL-ORIGIN LEVEL: 34437736 DIFFERENT FILL-ORIGIN LEVEL: 0
L1D AVERAGE MISS LATENCY: 108.199 cycles
L1D RQ	ACCESS:   77670089	FORWARD:          0	MERGED:   12882607	TO_CACHE:   64787475
L1D WQ	ACCESS:    3310335	FORWARD:          7	MERGED:          3	TO_CACHE:    3310332
L1D PQ	ACCESS:   39485993	FORWARD:          0	MERGED:          0	TO_CACHE:   39485993

L1D UNIQUE REGIONS ACCESSED: 0
L1D REGIONS CONFLICTS: 0
L1D Cross Page Prefetch Requests: 0
L1D Same Page Prefetch Requests: 47598100
L1D ROI Sum of L1D PQ occupancy: 438636182
L1D PREFETCHES PUSHED FROM L2C: 0
L1I TOTAL     ACCESS:   61122741  HIT:   61122718  MISS:         23  HIT %:        100  MISS %: 3.76292e-05   MPKI: 0.000115
L1I LOAD      ACCESS:   61122741  HIT:   61122718  MISS:         23  HIT %:        100  MISS %: 3.76292e-05   MPKI: 0.000115
L1I PREFETCH  REQUESTED:          0  ISSUED:          0  USEFUL:          0  USELESS:          0
L1I USEFUL LOAD PREFETCHES:          0 PREFETCH ISSUED TO LOWER LEVEL:          0  ACCURACY: -nan
L1I TIMELY PREFETCHES:          0 LATE PREFETCHES: 0 DROPPED PREFETCHES: 0
L1I PREFETCHES SAME FILL-ORIGIN LEVEL: 0 DIFFERENT FILL-ORIGIN LEVEL: 0
L1I AVERAGE MISS LATENCY: 279.13 cycles
L1I RQ	ACCESS:   72457378	FORWARD:          0	MERGED:   11081435	TO_CACHE:   61375943

BTB TOTAL     ACCESS:   37026539  HIT:   37026370  MISS:        169  HIT %:    99.9995  MISS %: 0.000456429   MPKI: 0.000845
BTB BRANCH_DIRECT_JUMP	ACCESS:         67  HIT:         33  MISS:         34
BTB BRANCH_INDIRECT	ACCESS:          4  HIT:          0  MISS:          4
BTB BRANCH_CONDITIONAL	ACCESS:   37026402  HIT:   37026317  MISS:         85
BTB BRANCH_DIRECT_CALL	ACCESS:         28  HIT:         10  MISS:         18
BTB BRANCH_INDIRECT_CALL	ACCESS:          5  HIT:          1  MISS:          4
BTB BRANCH_RETURN	ACCESS:         33  HIT:          9  MISS:         24
BTB BRANCH_OTHER ACCESS:          0  HIT:          0  MISS:          0

L2C TOTAL     ACCESS:   66404602  HIT:   13488766  MISS:   52915836  HIT %:     20.313  MISS %:     79.687   MPKI: 264.579
L2C LOAD      ACCESS:   31836110  HIT:    7010830  MISS:   24825280  HIT %:    22.0216  MISS %:    77.9784   MPKI: 124.126
L2C DATA LOAD MPKI: 124.126
L2C INSTRUCTION LOAD MPKI: 0.000115
L2C RFO       ACCESS:      65555  HIT:        118  MISS:      65437  HIT %:   0.180002  MISS %:      99.82   MPKI: 0.327185
L2C PREFETCH  ACCESS:   34292130  HIT:    6308156  MISS:   27983974  HIT %:    18.3953  MISS %:    81.6047   MPKI: 139.92
L2C DATA PREFETCH MPKI: 139.92
L2C INSTRUCTION PREFETCH MPKI: 0
L2C WRITEBACK ACCESS:     169942  HIT:     137479  MISS:      32463  HIT %:    80.8976  MISS %:    19.1024   MPKI: 0.162315
L2C LOAD TRANSLATION ACCESS:      40865  HIT:      32183  MISS:       8682  HIT %:    78.7544  MISS %:    21.2456   MPKI: 0.04341
L2C PREFETCH  REQUESTED:          0  ISSUED:          0  USEFUL:    1035512  USELESS:   27066884
L2C USEFUL LOAD PREFETCHES:    1035512 PREFETCH ISSUED TO LOWER LEVEL:   28102512  ACCURACY: 3.68477
L2C TIMELY PREFETCHES:    1035512 LATE PREFETCHES: 0 DROPPED PREFETCHES: 0
L2C PREFETCHES SAME FILL-ORIGIN LEVEL: 0 DIFFERENT FILL-ORIGIN LEVEL: 0
L2C AVERAGE MISS LATENCY: 120.426 cycles
L2C RQ	ACCESS:   32079751	FORWARD:          0	MERGED:          0	TO_CACHE:   32079734
L2C WQ	ACCESS:     170395	FORWARD:         17	MERGED:          0	TO_CACHE:     170395
L2C PQ	ACCESS:   34437736	FORWARD:          0	MERGED:          0	TO_CACHE:   34437736

L2C Instructions Evicting Data 23
L2C Translations Evicting Data 8724
L2C Data Evicting Data 53091508
L2C Instructions Evicting Instructions 0
L2C Translations Evicting Instructions 0
L2C Data Evicting Instructions 23
L2C Instructions Evicting Translations 0
L2C Translations Evicting Translations 2
L2C Data Evicting Translations 8686
L2C Dense regions hint from L2: 0
PSCL5 TOTAL     ACCESS:      40826  HIT:      40826  MISS:          0  HIT %:        100  MISS %:          0   MPKI: 0
PSCL5 LOAD TRANSLATION ACCESS:      40826  HIT:      40826  MISS:          0  HIT %:        100  MISS %:          0   MPKI: 0
PSCL5 PREFETCH  REQUESTED:          0  ISSUED:          0  USEFUL:          0  USELESS:          0
PSCL5 USEFUL LOAD PREFETCHES:          0 PREFETCH ISSUED TO LOWER LEVEL:          0  ACCURACY: -nan
PSCL5 TIMELY PREFETCHES:          0 LATE PREFETCHES: 0 DROPPED PREFETCHES: 0
PSCL5 PREFETCHES SAME FILL-ORIGIN LEVEL: 0 DIFFERENT FILL-ORIGIN LEVEL: 0

PSCL4 TOTAL     ACCESS:      40826  HIT:      40826  MISS:          0  HIT %:        100  MISS %:          0   MPKI: 0
PSCL4 LOAD TRANSLATION ACCESS:      40826  HIT:      40826  MISS:          0  HIT %:        100  MISS %:          0   MPKI: 0
PSCL4 PREFETCH  REQUESTED:          0  ISSUED:          0  USEFUL:          0  USELESS:          0
PSCL4 USEFUL LOAD PREFETCHES:          0 PREFETCH ISSUED TO LOWER LEVEL:          0  ACCURACY: -nan
PSCL4 TIMELY PREFETCHES:          0 LATE PREFETCHES: 0 DROPPED PREFETCHES: 0
PSCL4 PREFETCHES SAME FILL-ORIGIN LEVEL: 0 DIFFERENT FILL-ORIGIN LEVEL: 0

PSCL3 TOTAL     ACCESS:      40826  HIT:      40826  MISS:          0  HIT %:        100  MISS %:          0   MPKI: 0
PSCL3 LOAD TRANSLATION ACCESS:      40826  HIT:      40826  MISS:          0  HIT %:        100  MISS %:          0   MPKI: 0
PSCL3 PREFETCH  REQUESTED:          0  ISSUED:          0  USEFUL:          0  USELESS:          0
PSCL3 USEFUL LOAD PREFETCHES:          0 PREFETCH ISSUED TO LOWER LEVEL:          0  ACCURACY: -nan
PSCL3 TIMELY PREFETCHES:          0 LATE PREFETCHES: 0 DROPPED PREFETCHES: 0
PSCL3 PREFETCHES SAME FILL-ORIGIN LEVEL: 0 DIFFERENT FILL-ORIGIN LEVEL: 0

PSCL2 TOTAL     ACCESS:      40826  HIT:      40740  MISS:         86  HIT %:    99.7893  MISS %:    0.21065   MPKI: 0.00043
PSCL2 LOAD TRANSLATION ACCESS:      40826  HIT:      40740  MISS:         86  HIT %:    99.7893  MISS %:    0.21065   MPKI: 0.00043
PSCL2 PREFETCH  REQUESTED:          0  ISSUED:          0  USEFUL:          0  USELESS:          0
PSCL2 USEFUL LOAD PREFETCHES:          0 PREFETCH ISSUED TO LOWER LEVEL:          0  ACCURACY: -nan
PSCL2 TIMELY PREFETCHES:          0 LATE PREFETCHES: 0 DROPPED PREFETCHES: 0
PSCL2 PREFETCHES SAME FILL-ORIGIN LEVEL: 0 DIFFERENT FILL-ORIGIN LEVEL: 0

LLC TOTAL     ACCESS:   53020277  HIT:   30389228  MISS:   22631049  HIT %:    57.3162  MISS %:    42.6838   MPKI: 113.155
LLC LOAD      ACCESS:   24825280  HIT:   15318751  MISS:    9506529  HIT %:    61.7063  MISS %:    38.2937   MPKI: 47.5326
LLC RFO       ACCESS:      65437  HIT:       6159  MISS:      59278  HIT %:    9.41211  MISS %:    90.5879   MPKI: 0.29639
LLC PREFETCH  ACCESS:   27983974  HIT:   14937129  MISS:   13046845  HIT %:    53.3774  MISS %:    46.6226   MPKI: 65.2342
LLC WRITEBACK ACCESS:     136904  HIT:     124591  MISS:      12313  HIT %:    91.0061  MISS %:    8.99389   MPKI: 0.061565
LLC LOAD TRANSLATION ACCESS:       8682  HIT:       2598  MISS:       6084  HIT %:     29.924  MISS %:     70.076   MPKI: 0.03042
LLC PREFETCH  REQUESTED:          0  ISSUED:          0  USEFUL:    5571506  USELESS:   46212730
LLC USEFUL LOAD PREFETCHES:    5571506 PREFETCH ISSUED TO LOWER LEVEL:   51783611  ACCURACY: 10.7592
LLC TIMELY PREFETCHES:    5571506 LATE PREFETCHES: 0 DROPPED PREFETCHES: 0
LLC PREFETCHES SAME FILL-ORIGIN LEVEL: 0 DIFFERENT FILL-ORIGIN LEVEL: 0
LLC AVERAGE MISS LATENCY: 831.729 cycles
LLC RQ	ACCESS:  102351286	FORWARD:          0	MERGED:          0	TO_CACHE:  102351286
LLC WQ	ACCESS:     557818	FORWARD:          0	MERGED:          0	TO_CACHE:     557818
LLC PQ	ACCESS:  115030849	FORWARD:          0	MERGED:          0	TO_CACHE:  115030849

LLC Dense regions hint to LLC: 0

RAW hits: 25
Loads Generated: 77353326
Loads sent to L1D: 77353300
Stores Generated: 3300759
Stores sent to L1D: 3300759
Major fault: 0 Minor fault: 34900
Allocated PAGES: 139600

CPU 2 cumulative IPC: 0.0551752 instructions: 200000000 cycles: 3624817893
ITLB TOTAL     ACCESS:   59973427  HIT:   59973427  MISS:          0  HIT %:        100  MISS %:          0   MPKI: 0
ITLB LOAD TRANSLATION ACCESS:   59973427  HIT:   59973427  MISS:          0  HIT %:        100  MISS %:          0   MPKI: 0
ITLB PREFETCH  REQUESTED:          0  ISSUED:          0  USEFUL:          0  USELESS:          0
ITLB USEFUL LOAD PREFETCHES:          0 PREFETCH ISSUED TO LOWER LEVEL:          0  ACCURACY: -nan
ITLB TIMELY PREFETCHES:          0 LATE PREFETCHES: 0 DROPPED PREFETCHES: 0
ITLB PREFETCHES SAME FILL-ORIGIN LEVEL: 0 DIFFERENT FILL-ORIGIN LEVEL: 0
ITLB AVERAGE MISS LATENCY: -nan cycles
ITLB RQ	ACCESS:   64836512	FORWARD:          0	MERGED:    1198301	TO_CACHE:   63638211

DTLB TOTAL     ACCESS:   67066143  HIT:   44104488  MISS:   22961655  HIT %:    65.7627  MISS %:    34.2373   MPKI: 114.808
DTLB LOAD TRANSLATION ACCESS:   67066143  HIT:   44104488  MISS:   22961655  HIT %:    65.7627  MISS %:    34.2373   MPKI: 114.808
DTLB PREFETCH  REQUESTED:          0  ISSUED:          0  USEFUL:          0  USELESS:          0
DTLB USEFUL LOAD PREFETCHES:          0 PREFETCH ISSUED TO LOWER LEVEL:          0  ACCURACY: -nan
DTLB TIMELY PREFETCHES:          0 LATE PREFETCHES: 0 DROPPED PREFETCHES: 0
DTLB PREFETCHES SAME FILL-ORIGIN LEVEL: 0 DIFFERENT FILL-ORIGIN LEVEL: 0
DTLB AVERAGE MISS LATENCY: 9.78894 cycles
DTLB RQ	ACCESS:   71980573	FORWARD:          0	MERGED:     775859	TO_CACHE:   71204714

STLB TOTAL     ACCESS:   57103292  HIT:   57062467  MISS:      40825  HIT %:    99.9285  MISS %:  0.0714933   MPKI: 0.204125
STLB LOAD TRANSLATION ACCESS:   22961655  HIT:   22920830  MISS:      40825  HIT %:    99.8222  MISS %:   0.177796   MPKI: 0.204125
STLB TRANSLATION FROM L1D PREFETCHER ACCESS:   34141637  HIT:   34141637  MISS:          0  HIT %:        100  MISS %:          0   MPKI: 0
STLB PREFETCH  REQUESTED:          0  ISSUED:          0  USEFUL:          0  USELESS:          0
STLB USEFUL LOAD PREFETCHES:          0 PREFETCH ISSUED TO LOWER LEVEL:          0  ACCURACY: -nan
STLB TIMELY PREFETCHES:          0 LATE PREFETCHES: 0 DROPPED PREFETCHES: 0
STLB PREFETCHES SAME FILL-ORIGIN LEVEL: 0 DIFFERENT FILL-ORIGIN LEVEL: 0
STLB AVERAGE MISS LATENCY: 115.333 cycles
STLB RQ	ACCESS:   66189443	FORWARD:          0	MERGED:    5467590	TO_CACHE:   60721853

STLB Hit, L1D data hit: 0
STLB Hit, L2C data hit: 0
STLB Hit, LLC data hit: 0
STLB Hit, LLC data miss: 0
STLB STLB hints to L2: 0
L1D TOTAL     ACCESS:  105700593  HIT:   39503710  MISS:   66196883  HIT %:    37.3732  MISS %:    62.6268   MPKI: 330.984
L1D LOAD      ACCESS:   64280012  HIT:   32116934  MISS:   32163078  HIT %:    49.9641  MISS %:    50.0359   MPKI: 160.815
L1D RFO       ACCESS:    2472423  HIT:    2406869  MISS:      65554  HIT %:    97.3486  MISS %:    2.65141   MPKI: 0.32777
L1D PREFETCH  ACCESS:   38948158  HIT:    4979907  MISS:   33968251  HIT %:     12.786  MISS %:     87.214   MPKI: 169.841
L1D PREFETCH  REQUESTED:   83526120  ISSUED:   83526120  USEFUL:    3205782  USELESS:   32906760
L1D USEFUL LOAD PREFETCHES:    3205782 PREFETCH ISSUED TO LOWER LEVEL:   36455805  ACCURACY: 8.79361
L1D TIMELY PREFETCHES:    3205782 LATE PREFETCHES: 343256 DROPPED PREFETCHES: 0
L1D PREFETCHES SAME FILL-ORIGIN LEVEL: 36455805 DIFFERENT FILL-ORIGIN LEVEL: 0
L1D AVERAGE MISS LATENCY: 107.633 cycles
L1D RQ	ACCESS:   82064993	FORWARD:          0	MERGED:   13530912	TO_CACHE:   68534074
L1D WQ	ACCESS:    3446502	FORWARD:          7	MERGED:          3	TO_CACHE:    3446499
L1D PQ	ACCESS:   41763060	FORWARD:          0	MERGED:          0	TO_CACHE:   41763060

L1D UNIQUE REGIONS ACCESSED: 0
L1D REGIONS CONFLICTS: 0
L1D Cross Page Prefetch Requests: 0
L1D Same Page Prefetch Requests: 49890903
L1D ROI Sum of L1D PQ occupancy: 463905868
L1D PREFETCHES PUSHED FROM L2C: 0
L1I TOTAL     ACCESS:   61098868  HIT:   61098845  MISS:         23  HIT %:        100  MISS %: 3.76439e-05   MPKI: 0.000115
L1I LOAD      ACCESS:   61098868  HIT:   61098845  MISS:         23  HIT %:        100  MISS %: 3.76439e-05   MPKI: 0.000115
L1I PREFETCH  REQUESTED:          0  ISSUED:          0  USEFUL:          0  USELESS:          0
L1I USEFUL LOAD PREFETCHES:          0 PREFETCH ISSUED TO LOWER LEVEL:          0  ACCURACY: -nan
L1I TIMELY PREFETCHES:          0 LATE PREFETCHES: 0 DROPPED PREFETCHES: 0
L1I PREFETCHES SAME FILL-ORIGIN LEVEL: 0 DIFFERENT FILL-ORIGIN LEVEL: 0
L1I AVERAGE MISS LATENCY: 239.87 cycles
L1I RQ	ACCESS:   76532103	FORWARD:          0	MERGED:   11695591	TO_CACHE:   64836512

BTB TOTAL     ACCESS:   37026462  HIT:   37026293  MISS:        169  HIT %:    99.9995  MISS %: 0.00045643   MPKI: 0.000845
BTB BRANCH_DIRECT_JUMP	ACCESS:         67  HIT:         33  MISS:         34
BTB BRANCH_INDIRECT	ACCESS:          4  HIT:          0  MISS:          4
BTB BRANCH_CONDITIONAL	ACCESS:   37026325  HIT:   37026240  MISS:         85
BTB BRANCH_DIRECT_CALL	ACCESS:         28  HIT:         10  MISS:         18
BTB BRANCH_INDIRECT_CALL	ACCESS:          5  HIT:          1  MISS:          4
BTB BRANCH_RETURN	ACCESS:         33  HIT:          9  MISS:         24
BTB BRANCH_OTHER ACCESS:          0  HIT:          0  MISS:          0

L2C TOTAL     ACCESS:   66407670  HIT:   13525072  MISS:   52882598  HIT %:    20.3667  MISS %:    79.6333   MPKI: 264.413
L2C LOAD      ACCESS:   31836475  HIT:    7030861  MISS:   24805614  HIT %:    22.0843  MISS %:    77.9157   MPKI: 124.028
L2C DATA LOAD MPKI: 124.028
L2C INSTRUCTION LOAD MPKI: 0.000115
L2C RFO       ACCESS:      65554  HIT:        148  MISS:      65406  HIT %:   0.225768  MISS %:    99.7742   MPKI: 0.32703
L2C PREFETCH  ACCESS:   34294863  HIT:    6324995  MISS:   27969868  HIT %:     18.443  MISS %:     81.557   MPKI: 139.849
L2C DATA PREFETCH MPKI: 139.849
L2C INSTRUCTION PREFETCH MPKI: 0
L2C WRITEBACK ACCESS:     169914  HIT:     136848  MISS:      33066  HIT %:    80.5396  MISS %:    19.4604   MPKI: 0.16533
L2C LOAD TRANSLATION ACCESS:      40864  HIT:      32220  MISS:       8644  HIT %:    78.8469  MISS %:    21.1531   MPKI: 0.04322
L2C PREFETCH  REQUESTED:          0  ISSUED:          0  USEFUL:    1088870  USELESS:   28639514
L2C USEFUL LOAD PREFETCHES:    1088870 PREFETCH ISSUED TO LOWER LEVEL:   29728395  ACCURACY: 3.66273
L2C TIMELY PREFETCHES:    1088870 LATE PREFETCHES: 0 DROPPED PREFETCHES: 0
L2C PREFETCHES SAME FILL-ORIGIN LEVEL: 0 DIFFERENT FILL-ORIGIN LEVEL: 0
L2C AVERAGE MISS LATENCY: 118.801 cycles
L2C RQ	ACCESS:   33963676	FORWARD:          0	MERGED:          0	TO_CACHE:   33963661
L2C WQ	ACCESS:     176582	FORWARD:         15	MERGED:          0	TO_CACHE:     176582
L2C PQ	ACCESS:   36455805	FORWARD:          0	MERGED:          0	TO_CACHE:   36455805

L2C Instructions Evicting Data 23
L2C Translations Evicting Data 9134
L2C Data Evicting Data 56159462
L2C Instructions Evicting Instructions 0
L2C Translations Evicting Instructions 0
L2C Data Evicting Instructions 23
L2C Instructions Evicting Translations 0
L2C Translations Evicting Translations 3
L2C Data Evicting Translations 9111
L2C Dense regions hint from L2: 0
PSCL5 TOTAL     ACCESS:      40825  HIT:      40825  MISS:          0  HIT %:        100  MISS %:          0   MPKI: 0
PSCL5 LOAD TRANSLATION ACCESS:      40825  HIT:      40825  MISS:          0  HIT %:        100  MISS %:          0   MPKI: 0
PSCL5 PREFETCH  REQUESTED:          0  ISSUED:          0  USEFUL:          0  USELESS:          0
[...]
LLC USEFUL LOAD PREFETCHES:    5571506 PREFETCH ISSUED TO LOWER LEVEL:   51783611  ACCURACY: 10.7592
LLC TIMELY PREFETCHES:    5571506 LATE PREFETCHES: 0 DROPPED PREFETCHES: 0
LLC PREFETCHES SAME FILL-ORIGIN LEVEL: 0 DIFFERENT FILL-ORIGIN LEVEL: 0
LLC AVERAGE MISS LATENCY: 917.466 cycles
LLC RQ	ACCESS:  102351286	FORWARD:          0	MERGED:          0	TO_CACHE:  102351286
LLC WQ	ACCESS:     557818	FORWARD:          0	MERGED:          0	TO_CACHE:     557818
LLC PQ	ACCESS:  115030849	FORWARD:          0	MERGED:          0	TO_CACHE:  115030849

LLC Dense regions hint to LLC: 0

RAW hits: 25
Loads Generated: 77353335
Loads sent to L1D: 77353308
Stores Generated: 3300702
Stores sent to L1D: 3300702
Major fault: 0 Minor fault: 34900
Allocated PAGES: 139600

CPU 3 cumulative IPC: 0.0519158 instructions: 200000000 cycles: 3852388908
ITLB TOTAL     ACCESS:   60003805  HIT:   60003805  MISS:          0  HIT %:        100  MISS %:          0   MPKI: 0
ITLB LOAD TRANSLATION ACCESS:   60003805  HIT:   60003805  MISS:          0  HIT %:        100  MISS %:          0   MPKI: 0
ITLB PREFETCH  REQUESTED:          0  ISSUED:          0  USEFUL:          0  USELESS:          0
ITLB USEFUL LOAD PREFETCHES:          0 PREFETCH ISSUED TO LOWER LEVEL:          0  ACCURACY: -nan
ITLB TIMELY PREFETCHES:          0 LATE PREFETCHES: 0 DROPPED PREFETCHES: 0
ITLB PREFETCHES SAME FILL-ORIGIN LEVEL: 0 DIFFERENT FILL-ORIGIN LEVEL: 0
ITLB AVERAGE MISS LATENCY: -nan cycles
ITLB RQ	ACCESS:   61128737	FORWARD:          0	MERGED:    1124932	TO_CACHE:   60003805

DTLB TOTAL     ACCESS:   67071865  HIT:   44117170  MISS:   22954695  HIT %:     65.776  MISS %:     34.224   MPKI: 114.773
DTLB LOAD TRANSLATION ACCESS:   67071865  HIT:   44117170  MISS:   22954695  HIT %:     65.776  MISS %:     34.224   MPKI: 114.773
DTLB PREFETCH  REQUESTED:          0  ISSUED:          0  USEFUL:          0  USELESS:          0
DTLB USEFUL LOAD PREFETCHES:          0 PREFETCH ISSUED TO LOWER LEVEL:          0  ACCURACY: -nan
DTLB TIMELY PREFETCHES:          0 LATE PREFETCHES: 0 DROPPED PREFETCHES: 0
DTLB PREFETCHES SAME FILL-ORIGIN LEVEL: 0 DIFFERENT FILL-ORIGIN LEVEL: 0
DTLB AVERAGE MISS LATENCY: 9.21196 cycles
DTLB RQ	ACCESS:   67819125	FORWARD:          0	MERGED:     734988	TO_CACHE:   67084137

STLB TOTAL     ACCESS:   57097119  HIT:   57056294  MISS:      40825  HIT %:    99.9285  MISS %:   0.071501   MPKI: 0.204125
STLB LOAD TRANSLATION ACCESS:   22954695  HIT:   22913870  MISS:      40825  HIT %:    99.8221  MISS %:    0.17785   MPKI: 0.204125
STLB TRANSLATION FROM L1D PREFETCHER ACCESS:   34142424  HIT:   34142424  MISS:          0  HIT %:        100  MISS %:          0   MPKI: 0
STLB PREFETCH  REQUESTED:          0  ISSUED:          0  USEFUL:          0  USELESS:          0
STLB USEFUL LOAD PREFETCHES:          0 PREFETCH ISSUED TO LOWER LEVEL:          0  ACCURACY: -nan
STLB TIMELY PREFETCHES:          0 LATE PREFETCHES: 0 DROPPED PREFETCHES: 0
STLB PREFETCHES SAME FILL-ORIGIN LEVEL: 0 DIFFERENT FILL-ORIGIN LEVEL: 0
STLB AVERAGE MISS LATENCY: 113.966 cycles
STLB RQ	ACCESS:   62279726	FORWARD:          0	MERGED:    5182608	TO_CACHE:   57097118

STLB Hit, L1D data hit: 0
STLB Hit, L2C data hit: 0
STLB Hit, LLC data hit: 0
STLB Hit, LLC data miss: 0
STLB STLB hints to L2: 0
L1D TOTAL     ACCESS:  105738182  HIT:   39543465  MISS:   66194717  HIT %:    37.3975  MISS %:    62.6025   MPKI: 330.974
L1D LOAD      ACCESS:   64291628  HIT:   32118366  MISS:   32173262  HIT %:    49.9573  MISS %:    50.0427   MPKI: 160.866
L1D RFO       ACCESS:    2468717  HIT:    2403163  MISS:      65554  HIT %:    97.3446  MISS %:    2.65539   MPKI: 0.32777
L1D PREFETCH  ACCESS:   38977837  HIT:    5021936  MISS:   33955901  HIT %:    12.8841  MISS %:    87.1159   MPKI: 169.78
L1D PREFETCH  REQUESTED:   78650062  ISSUED:   78650062  USEFUL:    3013709  USELESS:   30942186
L1D USEFUL LOAD PREFETCHES:    3013709 PREFETCH ISSUED TO LOWER LEVEL:   34293375  ACCURACY: 8.78802
L1D TIMELY PREFETCHES:    3013709 LATE PREFETCHES: 337473 DROPPED PREFETCHES: 0
L1D PREFETCHES SAME FILL-ORIGIN LEVEL: 34293375 DIFFERENT FILL-ORIGIN LEVEL: 0
L1D AVERAGE MISS LATENCY: 108.283 cycles
L1D RQ	ACCESS:   77353830	FORWARD:          0	MERGED:   12834375	TO_CACHE:   64519448
L1D WQ	ACCESS:    3299680	FORWARD:          7	MERGED:          3	TO_CACHE:    3299677
L1D PQ	ACCESS:   39325031	FORWARD:          0	MERGED:          0	TO_CACHE:   39325031

L1D UNIQUE REGIONS ACCESSED: 0
L1D REGIONS CONFLICTS: 0
L1D Cross Page Prefetch Requests: 0
L1D Same Page Prefetch Requests: 47366526
L1D ROI Sum of L1D PQ occupancy: 436852430
L1D PREFETCHES PUSHED FROM L2C: 0
L1I TOTAL     ACCESS:   61128736  HIT:   61128713  MISS:         23  HIT %:        100  MISS %: 3.76255e-05   MPKI: 0.000115
L1I LOAD      ACCESS:   61128736  HIT:   61128713  MISS:         23  HIT %:        100  MISS %: 3.76255e-05   MPKI: 0.000115
L1I PREFETCH  REQUESTED:          0  ISSUED:          0  USEFUL:          0  USELESS:          0
L1I USEFUL LOAD PREFETCHES:          0 PREFETCH ISSUED TO LOWER LEVEL:          0  ACCURACY: -nan
L1I TIMELY PREFETCHES:          0 LATE PREFETCHES: 0 DROPPED PREFETCHES: 0
L1I PREFETCHES SAME FILL-ORIGIN LEVEL: 0 DIFFERENT FILL-ORIGIN LEVEL: 0
L1I AVERAGE MISS LATENCY: 251.478 cycles
L1I RQ	ACCESS:   72160485	FORWARD:          0	MERGED:   11031748	TO_CACHE:   61128737

BTB TOTAL     ACCESS:   37027234  HIT:   37027062  MISS:        172  HIT %:    99.9995  MISS %: 0.000464523   MPKI: 0.00086
BTB BRANCH_DIRECT_JUMP	ACCESS:         67  HIT:         33  MISS:         34
BTB BRANCH_INDIRECT	ACCESS:          4  HIT:          0  MISS:          4
BTB BRANCH_CONDITIONAL	ACCESS:   37027097  HIT:   37027009  MISS:         88
BTB BRANCH_DIRECT_CALL	ACCESS:         28  HIT:         10  MISS:         18
BTB BRANCH_INDIRECT_CALL	ACCESS:          5  HIT:          1  MISS:          4
BTB BRANCH_RETURN	ACCESS:         33  HIT:          9  MISS:         24
BTB BRANCH_OTHER ACCESS:          0  HIT:          0  MISS:          0

L2C TOTAL     ACCESS:   66405472  HIT:   13419967  MISS:   52985505  HIT %:    20.2091  MISS %:    79.7909   MPKI: 264.928
L2C LOAD      ACCESS:   31835796  HIT:    6974215  MISS:   24861581  HIT %:    21.9068  MISS %:    78.0932   MPKI: 124.308
L2C DATA LOAD MPKI: 124.308
L2C INSTRUCTION LOAD MPKI: 0.000115
L2C RFO       ACCESS:      65554  HIT:        169  MISS:      65385  HIT %:   0.257803  MISS %:    99.7422   MPKI: 0.326925
L2C PREFETCH  ACCESS:   34293375  HIT:    6276052  MISS:   28017323  HIT %:    18.3011  MISS %:    81.6989   MPKI: 140.087
L2C DATA PREFETCH MPKI: 140.087
L2C INSTRUCTION PREFETCH MPKI: 0
L2C WRITEBACK ACCESS:     169883  HIT:     137730  MISS:      32153  HIT %:    81.0734  MISS %:    18.9266   MPKI: 0.160765
L2C LOAD TRANSLATION ACCESS:      40864  HIT:      31801  MISS:       9063  HIT %:    77.8216  MISS %:    22.1784   MPKI: 0.045315
L2C PREFETCH  REQUESTED:          0  ISSUED:          0  USEFUL:    1026788  USELESS:   26990558
L2C USEFUL LOAD PREFETCHES:    1026788 PREFETCH ISSUED TO LOWER LEVEL:   28017323  ACCURACY: 3.66483
L2C TIMELY PREFETCHES:    1026788 LATE PREFETCHES: 0 DROPPED PREFETCHES: 0
L2C PREFETCHES SAME FILL-ORIGIN LEVEL: 0 DIFFERENT FILL-ORIGIN LEVEL: 0
L2C AVERAGE MISS LATENCY: 120.422 cycles
L2C RQ	ACCESS:   31942229	FORWARD:          0	MERGED:          0	TO_CACHE:   31942213
L2C WQ	ACCESS:     169883	FORWARD:         16	MERGED:          0	TO_CACHE:     169883
L2C PQ	ACCESS:   34293375	FORWARD:          0	MERGED:          0	TO_CACHE:   34293375

L2C Instructions Evicting Data 23
L2C Translations Evicting Data 9062
L2C Data Evicting Data 52935206
L2C Instructions Evicting Instructions 0
L2C Translations Evicting Instructions 0
L2C Data Evicting Instructions 23
L2C Instructions Evicting Translations 0
L2C Translations Evicting Translations 1
L2C Data Evicting Translations 9037
L2C Dense regions hint from L2: 0
PSCL5 TOTAL     ACCESS:      40825  HIT:      40825  MISS:          0  HIT %:        100  MISS %:          0   MPKI: 0
PSCL5 LOAD TRANSLATION ACCESS:      40825  HIT:      40825  MISS:          0  HIT %:        100  MISS %:          0   MPKI: 0
PSCL5 PREFETCH  REQUESTED:          0  ISSUED:          0  USEFUL:          0  USELESS:          0
PSCL5 USEFUL LOAD PREFETCHES:          0 PREFETCH ISSUED TO LOWER LEVEL:          0  ACCURACY: -nan
PSCL5 TIMELY PREFETCHES:          0 LATE PREFETCHES: 0 DROPPED PREFETCHES: 0
PSCL5 PREFETCHES SAME FILL-ORIGIN LEVEL: 0 DIFFERENT FILL-ORIGIN LEVEL: 0

PSCL4 TOTAL     ACCESS:      40825  HIT:      40825  MISS:          0  HIT %:        100  MISS %:          0   MPKI: 0
PSCL4 LOAD TRANSLATION ACCESS:      40825  HIT:      40825  MISS:          0  HIT %:        100  MISS %:          0   MPKI: 0
PSCL4 PREFETCH  REQUESTED:          0  ISSUED:          0  USEFUL:          0  USELESS:          0
PSCL4 USEFUL LOAD PREFETCHES:          0 PREFETCH ISSUED TO LOWER LEVEL:          0  ACCURACY: -nan
PSCL4 TIMELY PREFETCHES:          0 LATE PREFETCHES: 0 DROPPED PREFETCHES: 0
PSCL4 PREFETCHES SAME FILL-ORIGIN LEVEL: 0 DIFFERENT FILL-ORIGIN LEVEL: 0

PSCL3 TOTAL     ACCESS:      40825  HIT:      40825  MISS:          0  HIT %:        100  MISS %:          0   MPKI: 0
PSCL3 LOAD TRANSLATION ACCESS:      40825  HIT:      40825  MISS:          0  HIT %:        100  MISS %:          0   MPKI: 0
PSCL3 PREFETCH  REQUESTED:          0  ISSUED:          0  USEFUL:          0  USELESS:          0
PSCL3 USEFUL LOAD PREFETCHES:          0 PREFETCH ISSUED TO LOWER LEVEL:          0  ACCURACY: -nan
PSCL3 TIMELY PREFETCHES:          0 LATE PREFETCHES: 0 DROPPED PREFETCHES: 0
PSCL3 PREFETCHES SAME FILL-ORIGIN LEVEL: 0 DIFFERENT FILL-ORIGIN LEVEL: 0

PSCL2 TOTAL     ACCESS:      40825  HIT:      40739  MISS:         86  HIT %:    99.7893  MISS %:   0.210655   MPKI: 0.00043
PSCL2 LOAD TRANSLATION ACCESS:      40825  HIT:      40739  MISS:         86  HIT %:    99.7893  MISS %:   0.210655   MPKI: 0.00043
PSCL2 PREFETCH  REQUESTED:          0  ISSUED:          0  USEFUL:          0  USELESS:          0
PSCL2 USEFUL LOAD PREFETCHES:          0 PREFETCH ISSUED TO LOWER LEVEL:          0  ACCURACY: -nan
PSCL2 TIMELY PREFETCHES:          0 LATE PREFETCHES: 0 DROPPED PREFETCHES: 0
PSCL2 PREFETCHES SAME FILL-ORIGIN LEVEL: 0 DIFFERENT FILL-ORIGIN LEVEL: 0

LLC TOTAL     ACCESS:   53090588  HIT:   30297830  MISS:   22792758  HIT %:    57.0682  MISS %:    42.9318   MPKI: 113.964
LLC LOAD      ACCESS:   24861581  HIT:   15282578  MISS:    9579003  HIT %:    61.4707  MISS %:    38.5293   MPKI: 47.895
LLC RFO       ACCESS:      65385  HIT:       6994  MISS:      58391  HIT %:    10.6966  MISS %:    89.3034   MPKI: 0.291955
LLC PREFETCH  ACCESS:   28017323  HIT:   14881223  MISS:   13136100  HIT %:    53.1144  MISS %:    46.8856   MPKI: 65.6805
LLC WRITEBACK ACCESS:     137236  HIT:     124117  MISS:      13119  HIT %:    90.4406  MISS %:    9.55945   MPKI: 0.065595
LLC LOAD TRANSLATION ACCESS:       9063  HIT:       2918  MISS:       6145  HIT %:    32.1968  MISS %:    67.8032   MPKI: 0.030725
LLC PREFETCH  REQUESTED:          0  ISSUED:          0  USEFUL:    5571506  USELESS:   46212730
LLC USEFUL LOAD PREFETCHES:    5571506 PREFETCH ISSUED TO LOWER LEVEL:   51783611  ACCURACY: 10.7592
LLC TIMELY PREFETCHES:    5571506 LATE PREFETCHES: 0 DROPPED PREFETCHES: 0
LLC PREFETCHES SAME FILL-ORIGIN LEVEL: 0 DIFFERENT FILL-ORIGIN LEVEL: 0
LLC AVERAGE MISS LATENCY: 825.829 cycles
LLC RQ	ACCESS:  102351286	FORWARD:          0	MERGED:          0	TO_CACHE:  102351286
LLC WQ	ACCESS:     557818	FORWARD:          0	MERGED:          0	TO_CACHE:     557818
LLC PQ	ACCESS:  115030849	FORWARD:          0	MERGED:          0	TO_CACHE:  115030849

LLC Dense regions hint to LLC: 0

RAW hits: 25
Loads Generated: 77353857
Loads sent to L1D: 77353830
Stores Generated: 3299680
Stores sent to L1D: 3299680
Major fault: 0 Minor fault: 34900
Allocated PAGES: 139600

stream: 
stream:times selected: 45286774
stream:pref_filled: 38829687
stream:pref_useful: 986698
stream:pref_late: 303009
stream:misses: 9574450
stream:misses_by_poll: 0

CS: 
CS:times selected: 4143668
CS:pref_filled: 3245818
CS:pref_useful: 2923721
CS:pref_late: 99057
CS:misses: 561938
CS:misses_by_poll: 3154

CPLX: 
CPLX:times selected: 40767509
CPLX:pref_filled: 790355
CPLX:pref_useful: 32600
CPLX:pref_late: 16995
CPLX:misses: 30250109
CPLX:misses_by_poll: 287

NL_L1: 
NL:times selected: 53870
NL:pref_filled: 52295
NL:pref_useful: 568
NL:pref_late: 203
NL:misses: 53022
NL:misses_by_poll: 0

total selections: 90251821
total_filled: 35429533
total_useful: 3145685
total_late: 423780
total_polluted: 3441
total_misses_after_warmup: 33906905
conflicts: 230
Degree Incremented Times: 1275691
Degree Decremented Times: 67651980

L1 IP Table Write Accesses: 265998442
L1 IP Table Read Accesses: 265998212
L1 RST Write Accesses: 148645220
L1 RST Read Accesses: 297290440
L1 CSPT Write Accesses: 148645220
L1 CSPT Read Accesses: 283154364
L1 RR Filter Tag Write Accesses: 162084932
L1 RR Filter Tag Read Accesses: 5820067633
L1 IP Table Tag Write Accesses: 265998601
L1 IP Table Tag Read Accesses: 265998601
L1 RST Tag Write Accesses: 0
L1 RST Tag Read Accesses: 1334205214
L1 RR Filter Write Accesses: 0
L1 RR Filter Read Accesses: 186564878
test: 94856875

stream: 
stream:times selected: 43846482
stream:pref_filled: 37142571
stream:pref_useful: 754708
stream:pref_late: 297024
stream:misses: 9267349
stream:misses_by_poll: 0

CS: 
CS:times selected: 4030025
CS:pref_filled: 3145077
CS:pref_useful: 2835095
CS:pref_late: 97654
CS:misses: 800073
CS:misses_by_poll: 3047

CPLX: 
CPLX:times selected: 39453001
CPLX:pref_filled: 764440
CPLX:pref_useful: 30950
CPLX:pref_late: 16737
CPLX:misses: 29278872
CPLX:misses_by_poll: 254

NL_L1: 
NL:times selected: 53851
NL:pref_filled: 52224
NL:pref_useful: 560
NL:pref_late: 195
NL:misses: 53006
NL:misses_by_poll: 0

total selections: 87383359
total_filled: 34098250
total_useful: 3022981
total_late: 415795
total_polluted: 3301
total_misses_after_warmup: 32608783
conflicts: 230
Degree Incremented Times: 1275691
Degree Decremented Times: 67651980

L1 IP Table Write Accesses: 265998442
L1 IP Table Read Accesses: 265998212
L1 RST Write Accesses: 148645220
L1 RST Read Accesses: 297290440
L1 CSPT Write Accesses: 148645220
L1 CSPT Read Accesses: 283154364
L1 RR Filter Tag Write Accesses: 162084932
L1 RR Filter Tag Read Accesses: 5820067633
L1 IP Table Tag Write Accesses: 265998601
L1 IP Table Tag Read Accesses: 265998601
L1 RST Tag Write Accesses: 0
L1 RST Tag Read Accesses: 1334205214
L1 RR Filter Write Accesses: 0
L1 RR Filter Read Accesses: 186564878
test: 94856875

stream: 
stream:times selected: 45956463
stream:pref_filled: 38982382
stream:pref_useful: 801898
stream:pref_late: 300067
stream:misses: 9723157
stream:misses_by_poll: 0

CS: 
CS:times selected: 4197942
CS:pref_filled: 3295640
CS:pref_useful: 2970150
CS:pref_late: 97076
CS:misses: 839821
CS:misses_by_poll: 3261

CPLX: 
CPLX:times selected: 41377028
CPLX:pref_filled: 802486
CPLX:pref_useful: 33075
CPLX:pref_late: 16974
CPLX:misses: 30704212
CPLX:misses_by_poll: 309

NL_L1: 
NL:times selected: 53869
NL:pref_filled: 52379
NL:pref_useful: 602
NL:pref_late: 183
NL:misses: 52984
NL:misses_by_poll: 0

total selections: 91585302
total_filled: 36112549
total_useful: 3205782
total_late: 418566
total_polluted: 3570
total_misses_after_warmup: 34508127
conflicts: 230
Degree Incremented Times: 1275691
Degree Decremented Times: 67651980

L1 IP Table Write Accesses: 265998442
L1 IP Table Read Accesses: 265998212
L1 RST Write Accesses: 148645220
L1 RST Read Accesses: 297290440
L1 CSPT Write Accesses: 148645220
L1 CSPT Read Accesses: 283154364
L1 RR Filter Tag Write Accesses: 162084932
L1 RR Filter Tag Read Accesses: 5820067633
L1 IP Table Tag Write Accesses: 265998601
L1 IP Table Tag Read Accesses: 265998601
L1 RST Tag Write Accesses: 0
L1 RST Tag Read Accesses: 1334205214
L1 RR Filter Write Accesses: 0
L1 RR Filter Read Accesses: 186564878
test: 94856875

stream: 
stream:times selected: 43624814
stream:pref_filled: 36954635
stream:pref_useful: 751489
stream:pref_late: 296683
stream:misses: 9218668
stream:misses_by_poll: 0

CS: 
CS:times selected: 4016501
CS:pref_filled: 3132360
CS:pref_useful: 2823506
CS:pref_late: 95308
CS:misses: 783703
CS:misses_by_poll: 3121

CPLX: 
CPLX:times selected: 39246850
CPLX:pref_filled: 760956
CPLX:pref_useful: 30967
CPLX:pref_late: 16537
CPLX:misses: 29128274
CPLX:misses_by_poll: 306

NL_L1: 
NL:times selected: 53866
NL:pref_filled: 52270
NL:pref_useful: 571
NL:pref_late: 192
NL:misses: 53013
NL:misses_by_poll: 0

total selections: 86942031
total_filled: 33955901
total_useful: 3013709
total_late: 412791
total_polluted: 3427
total_misses_after_warmup: 32401082
conflicts: 230
Degree Incremented Times: 1275691
Degree Decremented Times: 67651980

L1 IP Table Write Accesses: 265998442
L1 IP Table Read Accesses: 265998212
L1 RST Write Accesses: 148645220
L1 RST Read Accesses: 297290440
L1 CSPT Write Accesses: 148645220
L1 CSPT Read Accesses: 283154364
L1 RR Filter Tag Write Accesses: 162084932
L1 RR Filter Tag Read Accesses: 5820067633
L1 IP Table Tag Write Accesses: 265998601
L1 IP Table Tag Read Accesses: 265998601
L1 RST Tag Write Accesses: 0
L1 RST Tag Read Accesses: 1334205214
L1 RR Filter Write Accesses: 0
L1 RR Filter Read Accesses: 186564878
test: 94856875

DRAM Statistics
 CHANNEL 0
 RQ ROW_BUFFER_HIT:    3347667  ROW_BUFFER_MISS:   86024966
 DBUS_CONGESTED:       2968
 WQ ROW_BUFFER_HIT:      62795  ROW_BUFFER_MISS:     490546  FULL:          0

 AVG_CONGESTED_CYCLE: 5
 All warmup complete: 5
Channel 0 Bank busy for read cycles: 0
Channel 0 Bank busy for write cycles: 0
Channel 0
Rank 0
0banks busy for read cycles: 1922546
0banks busy for write cycles: 0
1banks busy for read cycles: 245258299
1banks busy for write cycles: 1199094
2banks busy for read cycles: 706100508
2banks busy for write cycles: 1176130
3banks busy for read cycles: 1048776968
3banks busy for write cycles: 1152024
4banks busy for read cycles: 966852890
4banks busy for write cycles: 1131238
5banks busy for read cycles: 555283695
5banks busy for write cycles: 1114022
6banks busy for read cycles: 206190724
6banks busy for write cycles: 1198486
7banks busy for read cycles: 48302383
7banks busy for write cycles: 2664130
8banks busy for read cycles: 7069049
8banks busy for write cycles: 56996723

CPU 0 Branch Prediction Accuracy: 96.9533% MPKI: 5.6304 Average ROB Occupancy at Mispredict: 140.137
Branch types
NOT_BRANCH: 169608503 81.4643%
BRANCH_DIRECT_JUMP: 67 3.21806e-05%
BRANCH_INDIRECT: 4 1.92123e-06%
BRANCH_CONDITIONAL: 38591315 18.5357%
BRANCH_DIRECT_CALL: 28 1.34486e-05%
BRANCH_INDIRECT_CALL: 5 2.40154e-06%
BRANCH_RETURN: 33 1.58502e-05%
BRANCH_OTHER: 0 0%


CPU 1 Branch Prediction Accuracy: 96.9576% MPKI: 5.62286 Average ROB Occupancy at Mispredict: 140.237
Branch types
NOT_BRANCH: 163624435 81.4844%
BRANCH_DIRECT_JUMP: 67 3.33658e-05%
BRANCH_INDIRECT: 4 1.99199e-06%
BRANCH_CONDITIONAL: 37180243 18.5156%
BRANCH_DIRECT_CALL: 28 1.39439e-05%
BRANCH_INDIRECT_CALL: 5 2.48998e-06%
BRANCH_RETURN: 33 1.64339e-05%
BRANCH_OTHER: 0 0%


CPU 2 Branch Prediction Accuracy: 96.9492% MPKI: 5.64661 Average ROB Occupancy at Mispredict: 140.085
Branch types
NOT_BRANCH: 172660187 81.455%
BRANCH_DIRECT_JUMP: 67 3.16082e-05%
BRANCH_INDIRECT: 4 1.88706e-06%
BRANCH_CONDITIONAL: 39309515 18.5448%
BRANCH_DIRECT_CALL: 28 1.32094e-05%
BRANCH_INDIRECT_CALL: 5 2.35882e-06%
BRANCH_RETURN: 33 1.55682e-05%
BRANCH_OTHER: 0 0%


CPU 3 Branch Prediction Accuracy: 96.9594% MPKI: 5.62926 Average ROB Occupancy at Mispredict: 140.229
Branch types
NOT_BRANCH: 162972290 81.4861%
BRANCH_DIRECT_JUMP: 67 3.35e-05%
BRANCH_INDIRECT: 4 2e-06%
BRANCH_CONDITIONAL: 37027324 18.5137%
BRANCH_DIRECT_CALL: 28 1.4e-05%
BRANCH_INDIRECT_CALL: 5 2.5e-06%
BRANCH_RETURN: 33 1.65e-05%
BRANCH_OTHER: 0 0%

DRAM PAGES: 1048576
Allocated PAGES: 139600
