
*** ChampSim Multicore Out-of-Order Simulator ***

Warmup Instructions: 50000000
Simulation Instructions: 200000000
Number of CPUs: 4
LLC sets: 8192
LLC ways: 16
Off-chip DRAM Size: 4096 MB Channels: 1 Width: 64-bit Data Rate: 6400 MT/s
CPU 0 runs ./traces/gap/bc-3.trace.gz
.gz
CPU 1 runs ./traces/gap/bc-3.trace.gz
.gz
CPU 2 runs ./traces/gap/bc-3.trace.gz
.gz
CPU 3 runs ./traces/gap/bc-3.trace.gz
.gz
BTB has LRU replacement policy
ITLB has LRU replacement policy
DTLB has LRU replacement policy
STLB has LRU replacement policy
L1I has LRU replacement policy
IP Table Entries: 1024
CSPT Entries: 128
RR_ENTRIES: 32
RST_ENTRIES: 8
L1D has LRU replacement policy
Initialize SRRIP state for L2C
Initialize DRRIP state for LLC
BTB has LRU replacement policy
ITLB has LRU replacement policy
DTLB has LRU replacement policy
STLB has LRU replacement policy
L1I has LRU replacement policy
IP Table Entries: 1024
CSPT Entries: 128
RR_ENTRIES: 32
RST_ENTRIES: 8
L1D has LRU replacement policy
Initialize SRRIP state for L2C
Initialize DRRIP state for LLC
BTB has LRU replacement policy
ITLB has LRU replacement policy
DTLB has LRU replacement policy
STLB has LRU replacement policy
L1I has LRU replacement policy
IP Table Entries: 1024
CSPT Entries: 128
RR_ENTRIES: 32
RST_ENTRIES: 8
L1D has LRU replacement policy
Initialize SRRIP state for L2C
Initialize DRRIP state for LLC
BTB has LRU replacement policy
ITLB has LRU replacement policy
DTLB has LRU replacement policy
STLB has LRU replacement policy
L1I has LRU replacement policy
IP Table Entries: 1024
CSPT Entries: 128
RR_ENTRIES: 32
RST_ENTRIES: 8
L1D has LRU replacement policy
Initialize SRRIP state for L2C
Initialize DRRIP state for LLC
Heartbeat CPU 0 instructions: 10000002 cycles: 3976632 heartbeat IPC: 2.51469 cumulative IPC: 2.51469 (Simulation time: 0 hr 4 min 48 sec) 
Heartbeat CPU 1 instructions: 10000002 cycles: 3980332 heartbeat IPC: 2.51235 cumulative IPC: 2.51235 (Simulation time: 0 hr 4 min 48 sec) 
Heartbeat CPU 2 instructions: 10000002 cycles: 4008458 heartbeat IPC: 2.49473 cumulative IPC: 2.49473 (Simulation time: 0 hr 4 min 50 sec) 
Heartbeat CPU 3 instructions: 10000002 cycles: 4226264 heartbeat IPC: 2.36616 cumulative IPC: 2.36616 (Simulation time: 0 hr 5 min 5 sec) 
Heartbeat CPU 0 instructions: 20000002 cycles: 7785368 heartbeat IPC: 2.62554 cumulative IPC: 2.56892 (Simulation time: 0 hr 9 min 27 sec) 
Heartbeat CPU 1 instructions: 20000002 cycles: 7796059 heartbeat IPC: 2.62073 cumulative IPC: 2.5654 (Simulation time: 0 hr 9 min 28 sec) 
Heartbeat CPU 2 instructions: 20000002 cycles: 7822126 heartbeat IPC: 2.62215 cumulative IPC: 2.55685 (Simulation time: 0 hr 9 min 30 sec) 
Heartbeat CPU 3 instructions: 20000002 cycles: 8032061 heartbeat IPC: 2.62757 cumulative IPC: 2.49002 (Simulation time: 0 hr 9 min 46 sec) 
Heartbeat CPU 0 instructions: 30000002 cycles: 11321953 heartbeat IPC: 2.82759 cumulative IPC: 2.64972 (Simulation time: 0 hr 14 min 9 sec) 
Heartbeat CPU 1 instructions: 30000002 cycles: 11335833 heartbeat IPC: 2.82504 cumulative IPC: 2.64648 (Simulation time: 0 hr 14 min 11 sec) 
Heartbeat CPU 2 instructions: 30000002 cycles: 11364020 heartbeat IPC: 2.82335 cumulative IPC: 2.63991 (Simulation time: 0 hr 14 min 13 sec) 
Heartbeat CPU 3 instructions: 30000001 cycles: 11565216 heartbeat IPC: 2.83033 cumulative IPC: 2.59399 (Simulation time: 0 hr 14 min 30 sec) 
Heartbeat CPU 0 instructions: 40000002 cycles: 14792366 heartbeat IPC: 2.8815 cumulative IPC: 2.7041 (Simulation time: 0 hr 18 min 33 sec) 
Heartbeat CPU 1 instructions: 40000003 cycles: 14812071 heartbeat IPC: 2.87667 cumulative IPC: 2.7005 (Simulation time: 0 hr 18 min 35 sec) 
Heartbeat CPU 2 instructions: 40000003 cycles: 14842830 heartbeat IPC: 2.87455 cumulative IPC: 2.6949 (Simulation time: 0 hr 18 min 38 sec) 
Heartbeat CPU 3 instructions: 40000003 cycles: 15064405 heartbeat IPC: 2.85781 cumulative IPC: 2.65527 (Simulation time: 0 hr 18 min 56 sec) 
Heartbeat CPU 0 instructions: 50000001 cycles: 18338265 heartbeat IPC: 2.82016 cumulative IPC: 2.72654 (Simulation time: 0 hr 23 min 15 sec) 
Heartbeat CPU 1 instructions: 50000003 cycles: 18362807 heartbeat IPC: 2.81632 cumulative IPC: 2.7229 (Simulation time: 0 hr 23 min 16 sec) 
Heartbeat CPU 2 instructions: 50000003 cycles: 18392222 heartbeat IPC: 2.81738 cumulative IPC: 2.71854 (Simulation time: 0 hr 23 min 18 sec) 
Heartbeat CPU 3 instructions: 50000003 cycles: 18575202 heartbeat IPC: 2.84836 cumulative IPC: 2.69176 (Simulation time: 0 hr 23 min 24 sec) 

Warmup complete CPU 0 instructions: 50429567 cycles: 18575202 (Simulation time: 0 hr 23 min 24 sec) 
Warmup complete CPU 1 instructions: 50392312 cycles: 18575202 (Simulation time: 0 hr 23 min 24 sec) 
Warmup complete CPU 2 instructions: 50341135 cycles: 18575202 (Simulation time: 0 hr 23 min 24 sec) 
Warmup complete CPU 3 instructions: 50000003 cycles: 18575202 (Simulation time: 0 hr 23 min 24 sec) 

Heartbeat CPU 1 instructions: 60000002 cycles: 124494052 heartbeat IPC: 0.0942229 cumulative IPC: 0.090708 (Simulation time: 0 hr 30 min 17 sec) 
Heartbeat CPU 0 instructions: 60000002 cycles: 124634269 heartbeat IPC: 0.0940769 cumulative IPC: 0.0902368 (Simulation time: 0 hr 30 min 18 sec) 
Heartbeat CPU 2 instructions: 60000002 cycles: 125373498 heartbeat IPC: 0.0934743 cumulative IPC: 0.0904403 (Simulation time: 0 hr 30 min 21 sec) 
Heartbeat CPU 3 instructions: 60000002 cycles: 127442198 heartbeat IPC: 0.0918552 cumulative IPC: 0.0918552 (Simulation time: 0 hr 30 min 28 sec) 
Heartbeat CPU 1 instructions: 70000000 cycles: 234774566 heartbeat IPC: 0.0906778 cumulative IPC: 0.0906926 (Simulation time: 0 hr 37 min 20 sec) 
Heartbeat CPU 0 instructions: 70000000 cycles: 235024725 heartbeat IPC: 0.0905875 cumulative IPC: 0.0904157 (Simulation time: 0 hr 37 min 21 sec) 
Heartbeat CPU 2 instructions: 70000000 cycles: 235568708 heartbeat IPC: 0.090748 cumulative IPC: 0.0905966 (Simulation time: 0 hr 37 min 23 sec) 
Heartbeat CPU 3 instructions: 70000000 cycles: 236994814 heartbeat IPC: 0.0912803 cumulative IPC: 0.0915669 (Simulation time: 0 hr 37 min 29 sec) 
Heartbeat CPU 1 instructions: 80000000 cycles: 344876828 heartbeat IPC: 0.0908247 cumulative IPC: 0.0907372 (Simulation time: 0 hr 44 min 54 sec) 
Heartbeat CPU 0 instructions: 80000000 cycles: 344995572 heartbeat IPC: 0.0909332 cumulative IPC: 0.09059 (Simulation time: 0 hr 44 min 54 sec) 
Heartbeat CPU 2 instructions: 80000000 cycles: 345141571 heartbeat IPC: 0.0912635 cumulative IPC: 0.0908203 (Simulation time: 0 hr 44 min 55 sec) 
Heartbeat CPU 3 instructions: 80000000 cycles: 345904572 heartbeat IPC: 0.0918191 cumulative IPC: 0.0916508 (Simulation time: 0 hr 44 min 58 sec) 
Heartbeat CPU 1 instructions: 90000002 cycles: 454225219 heartbeat IPC: 0.0914508 cumulative IPC: 0.0909163 (Simulation time: 0 hr 52 min 52 sec) 
Heartbeat CPU 0 instructions: 90000000 cycles: 454259071 heartbeat IPC: 0.0915219 cumulative IPC: 0.0908237 (Simulation time: 0 hr 52 min 53 sec) 
Heartbeat CPU 3 instructions: 90000002 cycles: 454434185 heartbeat IPC: 0.0921408 cumulative IPC: 0.0917728 (Simulation time: 0 hr 52 min 53 sec) 
Heartbeat CPU 2 instructions: 90000002 cycles: 454549788 heartbeat IPC: 0.0914008 cumulative IPC: 0.090966 (Simulation time: 0 hr 52 min 54 sec) 
Heartbeat CPU 3 instructions: 100000003 cycles: 562127038 heartbeat IPC: 0.0928567 cumulative IPC: 0.0919876 (Simulation time: 1 hr 0 min 0 sec) 
Heartbeat CPU 1 instructions: 100000003 cycles: 562692640 heartbeat IPC: 0.0921936 cumulative IPC: 0.0911709 (Simulation time: 1 hr 0 min 2 sec) 
Heartbeat CPU 2 instructions: 100000003 cycles: 563051701 heartbeat IPC: 0.0921643 cumulative IPC: 0.0912048 (Simulation time: 1 hr 0 min 3 sec) 
Heartbeat CPU 0 instructions: 100000003 cycles: 563101519 heartbeat IPC: 0.0918759 cumulative IPC: 0.091034 (Simulation time: 1 hr 0 min 3 sec) 
Heartbeat CPU 3 instructions: 110000000 cycles: 670515818 heartbeat IPC: 0.0922604 cumulative IPC: 0.0920329 (Simulation time: 1 hr 6 min 48 sec) 
Heartbeat CPU 1 instructions: 110000000 cycles: 671961270 heartbeat IPC: 0.0915175 cumulative IPC: 0.0912289 (Simulation time: 1 hr 6 min 54 sec) 
Heartbeat CPU 2 instructions: 110000000 cycles: 672427241 heartbeat IPC: 0.0914281 cumulative IPC: 0.0912421 (Simulation time: 1 hr 6 min 55 sec) 
Heartbeat CPU 0 instructions: 110000000 cycles: 672765470 heartbeat IPC: 0.0911876 cumulative IPC: 0.0910598 (Simulation time: 1 hr 6 min 57 sec) 
Heartbeat CPU 3 instructions: 120000000 cycles: 776860475 heartbeat IPC: 0.0940339 cumulative IPC: 0.0923135 (Simulation time: 1 hr 13 min 23 sec) 
Heartbeat CPU 1 instructions: 120000000 cycles: 779364331 heartbeat IPC: 0.0931072 cumulative IPC: 0.0914941 (Simulation time: 1 hr 13 min 32 sec) 
Heartbeat CPU 2 instructions: 120000000 cycles: 779843797 heartbeat IPC: 0.0930955 cumulative IPC: 0.0915037 (Simulation time: 1 hr 13 min 34 sec) 
Heartbeat CPU 0 instructions: 120000000 cycles: 780242316 heartbeat IPC: 0.0930433 cumulative IPC: 0.0913397 (Simulation time: 1 hr 13 min 35 sec) 
Heartbeat CPU 3 instructions: 130000001 cycles: 885095226 heartbeat IPC: 0.0923918 cumulative IPC: 0.0923233 (Simulation time: 1 hr 21 min 27 sec) 
Heartbeat CPU 1 instructions: 130000003 cycles: 888789863 heartbeat IPC: 0.0913864 cumulative IPC: 0.0914805 (Simulation time: 1 hr 21 min 44 sec) 
Heartbeat CPU 2 instructions: 130000003 cycles: 888825462 heartbeat IPC: 0.0917586 cumulative IPC: 0.0915356 (Simulation time: 1 hr 21 min 44 sec) 
Heartbeat CPU 0 instructions: 130000001 cycles: 889333764 heartbeat IPC: 0.0916662 cumulative IPC: 0.0913806 (Simulation time: 1 hr 21 min 46 sec) 
Heartbeat CPU 3 instructions: 140000001 cycles: 992546954 heartbeat IPC: 0.093065 cumulative IPC: 0.0924051 (Simulation time: 1 hr 29 min 33 sec) 
Heartbeat CPU 1 instructions: 140000001 cycles: 997203831 heartbeat IPC: 0.092239 cumulative IPC: 0.0915646 (Simulation time: 1 hr 29 min 55 sec) 
Heartbeat CPU 2 instructions: 140000001 cycles: 997282637 heartbeat IPC: 0.0922023 cumulative IPC: 0.0916095 (Simulation time: 1 hr 29 min 55 sec) 
Heartbeat CPU 0 instructions: 140000001 cycles: 997984261 heartbeat IPC: 0.0920382 cumulative IPC: 0.0914536 (Simulation time: 1 hr 29 min 58 sec) 
Heartbeat CPU 3 instructions: 150000000 cycles: 1100385061 heartbeat IPC: 0.0927316 cumulative IPC: 0.0924377 (Simulation time: 1 hr 37 min 46 sec) 
Heartbeat CPU 2 instructions: 150000000 cycles: 1105613304 heartbeat IPC: 0.09231 cumulative IPC: 0.0916793 (Simulation time: 1 hr 38 min 11 sec) 
Heartbeat CPU 1 instructions: 150000000 cycles: 1106002925 heartbeat IPC: 0.0919125 cumulative IPC: 0.0915994 (Simulation time: 1 hr 38 min 12 sec) 
Heartbeat CPU 0 instructions: 150000000 cycles: 1106644970 heartbeat IPC: 0.0920296 cumulative IPC: 0.0915111 (Simulation time: 1 hr 38 min 15 sec) 
Heartbeat CPU 3 instructions: 160000003 cycles: 1205928557 heartbeat IPC: 0.0947477 cumulative IPC: 0.092643 (Simulation time: 1 hr 45 min 56 sec) 
Heartbeat CPU 2 instructions: 160000001 cycles: 1212223481 heartbeat IPC: 0.0937997 cumulative IPC: 0.0918687 (Simulation time: 1 hr 46 min 26 sec) 
Heartbeat CPU 1 instructions: 160000001 cycles: 1212761637 heartbeat IPC: 0.0936692 cumulative IPC: 0.0917844 (Simulation time: 1 hr 46 min 29 sec) 
Heartbeat CPU 0 instructions: 160000003 cycles: 1213125406 heartbeat IPC: 0.093914 cumulative IPC: 0.0917253 (Simulation time: 1 hr 46 min 31 sec) 
Heartbeat CPU 3 instructions: 170000000 cycles: 1310112124 heartbeat IPC: 0.0959844 cumulative IPC: 0.0929126 (Simulation time: 1 hr 53 min 53 sec) 
Heartbeat CPU 2 instructions: 170000003 cycles: 1317225635 heartbeat IPC: 0.0952362 cumulative IPC: 0.0921409 (Simulation time: 1 hr 54 min 27 sec) 
Heartbeat CPU 1 instructions: 170000000 cycles: 1318217094 heartbeat IPC: 0.0948268 cumulative IPC: 0.0920313 (Simulation time: 1 hr 54 min 32 sec) 
Heartbeat CPU 0 instructions: 170000003 cycles: 1318528157 heartbeat IPC: 0.0948742 cumulative IPC: 0.0919806 (Simulation time: 1 hr 54 min 33 sec) 
Heartbeat CPU 3 instructions: 180000000 cycles: 1412910755 heartbeat IPC: 0.0972776 cumulative IPC: 0.0932344 (Simulation time: 2 hr 1 min 26 sec) 
Heartbeat CPU 2 instructions: 180000000 cycles: 1421258985 heartbeat IPC: 0.096123 cumulative IPC: 0.0924363 (Simulation time: 2 hr 2 min 6 sec) 
Heartbeat CPU 1 instructions: 180000000 cycles: 1422252929 heartbeat IPC: 0.0961207 cumulative IPC: 0.0923344 (Simulation time: 2 hr 2 min 11 sec) 
Heartbeat CPU 0 instructions: 180000000 cycles: 1422605540 heartbeat IPC: 0.0960823 cumulative IPC: 0.0922846 (Simulation time: 2 hr 2 min 13 sec) 
Heartbeat CPU 3 instructions: 190000001 cycles: 1515217183 heartbeat IPC: 0.0977456 cumulative IPC: 0.0935427 (Simulation time: 2 hr 8 min 31 sec) 
Heartbeat CPU 2 instructions: 190000001 cycles: 1523950756 heartbeat IPC: 0.0973788 cumulative IPC: 0.0927734 (Simulation time: 2 hr 9 min 12 sec) 
Heartbeat CPU 1 instructions: 190000000 cycles: 1525623558 heartbeat IPC: 0.0967393 cumulative IPC: 0.0926365 (Simulation time: 2 hr 9 min 20 sec) 
Heartbeat CPU 0 instructions: 190000001 cycles: 1526095525 heartbeat IPC: 0.0966277 cumulative IPC: 0.0925828 (Simulation time: 2 hr 9 min 23 sec) 
Heartbeat CPU 3 instructions: 200000000 cycles: 1617199434 heartbeat IPC: 0.0980563 cumulative IPC: 0.0938307 (Simulation time: 2 hr 15 min 45 sec) 
Heartbeat CPU 2 instructions: 200000000 cycles: 1626746564 heartbeat IPC: 0.0972802 cumulative IPC: 0.0930615 (Simulation time: 2 hr 16 min 21 sec) 
Heartbeat CPU 1 instructions: 200000001 cycles: 1628783879 heartbeat IPC: 0.0969365 cumulative IPC: 0.092912 (Simulation time: 2 hr 16 min 29 sec) 
Heartbeat CPU 0 instructions: 200000000 cycles: 1629193620 heartbeat IPC: 0.096995 cumulative IPC: 0.0928652 (Simulation time: 2 hr 16 min 30 sec) 
Heartbeat CPU 3 instructions: 210000000 cycles: 1719640454 heartbeat IPC: 0.0976171 cumulative IPC: 0.0940587 (Simulation time: 2 hr 22 min 50 sec) 
Heartbeat CPU 2 instructions: 210000000 cycles: 1729901111 heartbeat IPC: 0.0969419 cumulative IPC: 0.0932954 (Simulation time: 2 hr 23 min 30 sec) 
Heartbeat CPU 1 instructions: 210000000 cycles: 1732112975 heartbeat IPC: 0.0967782 cumulative IPC: 0.0931451 (Simulation time: 2 hr 23 min 40 sec) 
Heartbeat CPU 0 instructions: 210000000 cycles: 1732368656 heartbeat IPC: 0.0969227 cumulative IPC: 0.0931095 (Simulation time: 2 hr 23 min 41 sec) 
Heartbeat CPU 3 instructions: 220000000 cycles: 1821865113 heartbeat IPC: 0.0978238 cumulative IPC: 0.0942721 (Simulation time: 2 hr 30 min 38 sec) 
Heartbeat CPU 2 instructions: 220000000 cycles: 1833078864 heartbeat IPC: 0.0969201 cumulative IPC: 0.0935015 (Simulation time: 2 hr 31 min 24 sec) 
Heartbeat CPU 1 instructions: 220000000 cycles: 1835198559 heartbeat IPC: 0.0970068 cumulative IPC: 0.0933643 (Simulation time: 2 hr 31 min 31 sec) 
Heartbeat CPU 0 instructions: 220000000 cycles: 1835697399 heartbeat IPC: 0.0967785 cumulative IPC: 0.0933181 (Simulation time: 2 hr 31 min 33 sec) 
Heartbeat CPU 3 instructions: 230000000 cycles: 1924483275 heartbeat IPC: 0.0974486 cumulative IPC: 0.0944432 (Simulation time: 2 hr 38 min 16 sec) 
Heartbeat CPU 2 instructions: 230000000 cycles: 1936275235 heartbeat IPC: 0.0969026 cumulative IPC: 0.0936845 (Simulation time: 2 hr 39 min 4 sec) 
Heartbeat CPU 1 instructions: 230000000 cycles: 1939005481 heartbeat IPC: 0.0963327 cumulative IPC: 0.0935247 (Simulation time: 2 hr 39 min 15 sec) 
Heartbeat CPU 0 instructions: 230000000 cycles: 1939343186 heartbeat IPC: 0.0964825 cumulative IPC: 0.0934889 (Simulation time: 2 hr 39 min 17 sec) 
Heartbeat CPU 3 instructions: 240000000 cycles: 2026732325 heartbeat IPC: 0.0978004 cumulative IPC: 0.0946141 (Simulation time: 2 hr 46 min 4 sec) 
Heartbeat CPU 2 instructions: 240000000 cycles: 2039385592 heartbeat IPC: 0.0969835 cumulative IPC: 0.0938529 (Simulation time: 2 hr 46 min 53 sec) 
Heartbeat CPU 1 instructions: 240000000 cycles: 2042360315 heartbeat IPC: 0.0967541 cumulative IPC: 0.0936896 (Simulation time: 2 hr 47 min 7 sec) 
Heartbeat CPU 0 instructions: 240000000 cycles: 2042713444 heartbeat IPC: 0.0967396 cumulative IPC: 0.0936549 (Simulation time: 2 hr 47 min 9 sec) 
Heartbeat CPU 3 instructions: 250000002 cycles: 2128456701 heartbeat IPC: 0.0983049 cumulative IPC: 0.0947921 (Simulation time: 2 hr 54 min 3 sec) 
Finished CPU 3 instructions: 200000003 cycles: 2109881500 cumulative IPC: 0.0947921 (Simulation time: 2 hr 54 min 3 sec) 
Heartbeat CPU 2 instructions: 250000002 cycles: 2142299754 heartbeat IPC: 0.0971684 cumulative IPC: 0.0940135 (Simulation time: 2 hr 55 min 8 sec) 
Heartbeat CPU 1 instructions: 250000002 cycles: 2145436691 heartbeat IPC: 0.0970155 cumulative IPC: 0.0938508 (Simulation time: 2 hr 55 min 21 sec) 
Finished CPU 2 instructions: 200000001 cycles: 2127225123 cumulative IPC: 0.0940192 (Simulation time: 2 hr 55 min 23 sec) 
Heartbeat CPU 0 instructions: 250000002 cycles: 2146051061 heartbeat IPC: 0.0967702 cumulative IPC: 0.0938062 (Simulation time: 2 hr 55 min 23 sec) 
Finished CPU 1 instructions: 200000001 cycles: 2130897658 cumulative IPC: 0.0938572 (Simulation time: 2 hr 55 min 36 sec) 
Finished CPU 0 instructions: 200000001 cycles: 2131893700 cumulative IPC: 0.0938133 (Simulation time: 2 hr 55 min 40 sec) 

ChampSim completed all CPUs

Total Simulation Statistics (not including warmup)

CPU 0 cumulative IPC: 0.0938133 instructions: 200000001 cycles: 2131893700
ITLB TOTAL     ACCESS:   42142723  HIT:   42142723  MISS:          0  HIT %:        100  MISS %:          0   MPKI: 0
ITLB LOAD      ACCESS:          0  HIT:          0  MISS:          0  HIT %:       -nan  MISS %:       -nan   MPKI: 0
ITLB RFO       ACCESS:          0  HIT:          0  MISS:          0  HIT %:       -nan  MISS %:       -nan   MPKI: 0
ITLB PREFETCH  ACCESS:          0  HIT:          0  MISS:          0  HIT %:       -nan  MISS %:       -nan   MPKI: 0
ITLB WRITEBACK ACCESS:          0  HIT:          0  MISS:          0  HIT %:       -nan  MISS %:       -nan   MPKI: 0
DTLB TOTAL     ACCESS:   42717675  HIT:   32346677  MISS:   10370998  HIT %:     75.722  MISS %:     24.278   MPKI: 51.855
DTLB LOAD      ACCESS:          0  HIT:          0  MISS:          0  HIT %:       -nan  MISS %:       -nan   MPKI: 0
DTLB RFO       ACCESS:          0  HIT:          0  MISS:          0  HIT %:       -nan  MISS %:       -nan   MPKI: 0
DTLB PREFETCH  ACCESS:          0  HIT:          0  MISS:          0  HIT %:       -nan  MISS %:       -nan   MPKI: 0
DTLB WRITEBACK ACCESS:          0  HIT:          0  MISS:          0  HIT %:       -nan  MISS %:       -nan   MPKI: 0
STLB TOTAL     ACCESS:   24884415  HIT:   22706771  MISS:    2177644  HIT %:     91.249  MISS %:    8.75104   MPKI: 10.8882
STLB LOAD      ACCESS:          0  HIT:          0  MISS:          0  HIT %:       -nan  MISS %:       -nan   MPKI: 0
STLB RFO       ACCESS:          0  HIT:          0  MISS:          0  HIT %:       -nan  MISS %:       -nan   MPKI: 0
STLB PREFETCH  ACCESS:          0  HIT:          0  MISS:          0  HIT %:       -nan  MISS %:       -nan   MPKI: 0
STLB WRITEBACK ACCESS:          0  HIT:          0  MISS:          0  HIT %:       -nan  MISS %:       -nan   MPKI: 0
L1D TOTAL     ACCESS:   65050785  HIT:   30975524  MISS:   34075261  HIT %:    47.6174  MISS %:    52.3826   MPKI: 170.376
L1D LOAD      ACCESS:   39043686  HIT:   22086881  MISS:   16956805  HIT %:    56.5697  MISS %:    43.4303   MPKI: 84.784
L1D RFO       ACCESS:    6540786  HIT:    6506504  MISS:      34282  HIT %:    99.4759  MISS %:   0.524127   MPKI: 0.17141
L1D PREFETCH  ACCESS:   19466313  HIT:    2382139  MISS:   17084174  HIT %:    12.2372  MISS %:    87.7628   MPKI: 85.4209
L1D WRITEBACK ACCESS:          0  HIT:          0  MISS:          0  HIT %:       -nan  MISS %:       -nan   MPKI: 0
L1I TOTAL     ACCESS:   42427300  HIT:   42427300  MISS:          0  HIT %:        100  MISS %:          0   MPKI: 0
L1I LOAD      ACCESS:   42427300  HIT:   42427300  MISS:          0  HIT %:        100  MISS %:          0   MPKI: 0
L1I RFO       ACCESS:          0  HIT:          0  MISS:          0  HIT %:       -nan  MISS %:       -nan   MPKI: 0
L1I PREFETCH  ACCESS:          0  HIT:          0  MISS:          0  HIT %:       -nan  MISS %:       -nan   MPKI: 0
L1I WRITEBACK ACCESS:          0  HIT:          0  MISS:          0  HIT %:       -nan  MISS %:       -nan   MPKI: 0
L2C TOTAL     ACCESS:   39582629  HIT:    9326920  MISS:   30255709  HIT %:    23.5632  MISS %:    76.4368   MPKI: 151.279
L2C LOAD      ACCESS:   16843789  HIT:    2358546  MISS:   14485243  HIT %:    14.0025  MISS %:    85.9975   MPKI: 72.4262
L2C RFO       ACCESS:      34281  HIT:       5554  MISS:      28727  HIT %:    16.2014  MISS %:    83.7986   MPKI: 0.143635
L2C PREFETCH  ACCESS:   17197189  HIT:    2062217  MISS:   15134972  HIT %:    11.9916  MISS %:    88.0084   MPKI: 75.6749
L2C WRITEBACK ACCESS:    3329077  HIT:    3210375  MISS:     118702  HIT %:    96.4344  MISS %:    3.56561   MPKI: 0.59351
PSCL5 TOTAL     ACCESS:    2177644  HIT:    2177644  MISS:          0  HIT %:        100  MISS %:          0   MPKI: 0
PSCL5 LOAD      ACCESS:          0  HIT:          0  MISS:          0  HIT %:       -nan  MISS %:       -nan   MPKI: 0
PSCL5 RFO       ACCESS:          0  HIT:          0  MISS:          0  HIT %:       -nan  MISS %:       -nan   MPKI: 0
PSCL5 PREFETCH  ACCESS:          0  HIT:          0  MISS:          0  HIT %:       -nan  MISS %:       -nan   MPKI: 0
PSCL5 WRITEBACK ACCESS:          0  HIT:          0  MISS:          0  HIT %:       -nan  MISS %:       -nan   MPKI: 0
PSCL4 TOTAL     ACCESS:    2177644  HIT:    2177644  MISS:          0  HIT %:        100  MISS %:          0   MPKI: 0
PSCL4 LOAD      ACCESS:          0  HIT:          0  MISS:          0  HIT %:       -nan  MISS %:       -nan   MPKI: 0
PSCL4 RFO       ACCESS:          0  HIT:          0  MISS:          0  HIT %:       -nan  MISS %:       -nan   MPKI: 0
PSCL4 PREFETCH  ACCESS:          0  HIT:          0  MISS:          0  HIT %:       -nan  MISS %:       -nan   MPKI: 0
PSCL4 WRITEBACK ACCESS:          0  HIT:          0  MISS:          0  HIT %:       -nan  MISS %:       -nan   MPKI: 0
PSCL3 TOTAL     ACCESS:    2177644  HIT:    2177644  MISS:          0  HIT %:        100  MISS %:          0   MPKI: 0
PSCL3 LOAD      ACCESS:          0  HIT:          0  MISS:          0  HIT %:       -nan  MISS %:       -nan   MPKI: 0
PSCL3 RFO       ACCESS:          0  HIT:          0  MISS:          0  HIT %:       -nan  MISS %:       -nan   MPKI: 0
PSCL3 PREFETCH  ACCESS:          0  HIT:          0  MISS:          0  HIT %:       -nan  MISS %:       -nan   MPKI: 0
PSCL3 WRITEBACK ACCESS:          0  HIT:          0  MISS:          0  HIT %:       -nan  MISS %:       -nan   MPKI: 0
PSCL2 TOTAL     ACCESS:    2177644  HIT:    2176995  MISS:        649  HIT %:    99.9702  MISS %:  0.0298029   MPKI: 0.003245
PSCL2 LOAD      ACCESS:          0  HIT:          0  MISS:          0  HIT %:       -nan  MISS %:       -nan   MPKI: 0
PSCL2 RFO       ACCESS:          0  HIT:          0  MISS:          0  HIT %:       -nan  MISS %:       -nan   MPKI: 0
PSCL2 PREFETCH  ACCESS:          0  HIT:          0  MISS:          0  HIT %:       -nan  MISS %:       -nan   MPKI: 0
PSCL2 WRITEBACK ACCESS:          0  HIT:          0  MISS:          0  HIT %:       -nan  MISS %:       -nan   MPKI: 0

stream: 
stream:times selected: 22506201
stream:pref_filled: 18978197
stream:pref_useful: 221955
stream:pref_late: 207383
stream:misses: 4698048
stream:misses_by_poll: 0

CS: 
CS:times selected: 1508994
CS:pref_filled: 1387191
CS:pref_useful: 1109226
CS:pref_late: 29063
CS:misses: 223703
CS:misses_by_poll: 751

CPLX: 
CPLX:times selected: 20830429
CPLX:pref_filled: 377119
CPLX:pref_useful: 10925
CPLX:pref_late: 8717
CPLX:misses: 15741381
CPLX:misses_by_poll: 95

NL_L1: 
NL:times selected: 21373
NL:pref_filled: 19674
NL:pref_useful: 166
NL:pref_late: 195
NL:misses: 20766
NL:misses_by_poll: 0

total selections: 44866997
total_filled: 17084174
total_useful: 1031237
total_late: 246669
total_polluted: 846
total_misses_after_warmup: 17099922
conflicts: 0
Degree Incremented Times: 525976
Degree Decremented Times: 1627682

L1 IP Table Write Accesses: 157601583
L1 IP Table Read Accesses: 157601583
L1 RST Write Accesses: 74110224
L1 RST Read Accesses: 148220448
L1 CSPT Write Accesses: 74110224
L1 CSPT Read Accesses: 143223114
L1 RR Filter Tag Write Accesses: 80194883
L1 RR Filter Tag Read Accesses: 2727471376
L1 IP Table Tag Write Accesses: 157601639
L1 IP Table Tag Read Accesses: 157601639
L1 RST Tag Write Accesses: 0
L1 RST Tag Read Accesses: 668384205
L1 RR Filter Write Accesses: 0
L1 RR Filter Read Accesses: 86517613
test: 42187972
LLC TOTAL     ACCESS:   33405147  HIT:   15931179  MISS:   17473968  HIT %:    47.6908  MISS %:    52.3092   MPKI: 87.3698
LLC LOAD      ACCESS:   14485243  HIT:    6484722  MISS:    8000521  HIT %:    44.7678  MISS %:    55.2322   MPKI: 40.0026
LLC RFO       ACCESS:      28727  HIT:        164  MISS:      28563  HIT %:   0.570891  MISS %:    99.4291   MPKI: 0.142815
LLC PREFETCH  ACCESS:   15134969  HIT:    5929823  MISS:    9205146  HIT %:    39.1796  MISS %:    60.8204   MPKI: 46.0257
LLC WRITEBACK ACCESS:    3268143  HIT:    3043024  MISS:     225119  HIT %:    93.1117  MISS %:    6.88828   MPKI: 1.12559

RAW hits: 289653
Loads Generated: 47999978
Loads sent to L1D: 47710325
Stores Generated: 6625709
Stores sent to L1D: 6625709

CPU 1 cumulative IPC: 0.0938583 instructions: 200095993 cycles: 2131893700
ITLB TOTAL     ACCESS:   42162934  HIT:   42162934  MISS:          0  HIT %:        100  MISS %:          0   MPKI: 0
ITLB LOAD      ACCESS:          0  HIT:          0  MISS:          0  HIT %:       -nan  MISS %:       -nan   MPKI: 0
ITLB RFO       ACCESS:          0  HIT:          0  MISS:          0  HIT %:       -nan  MISS %:       -nan   MPKI: 0
ITLB PREFETCH  ACCESS:          0  HIT:          0  MISS:          0  HIT %:       -nan  MISS %:       -nan   MPKI: 0
ITLB WRITEBACK ACCESS:          0  HIT:          0  MISS:          0  HIT %:       -nan  MISS %:       -nan   MPKI: 0
DTLB TOTAL     ACCESS:   42738407  HIT:   32361420  MISS:   10376987  HIT %:    75.7198  MISS %:    24.2802   MPKI: 51.86
DTLB LOAD      ACCESS:          0  HIT:          0  MISS:          0  HIT %:       -nan  MISS %:       -nan   MPKI: 0
DTLB RFO       ACCESS:          0  HIT:          0  MISS:          0  HIT %:       -nan  MISS %:       -nan   MPKI: 0
DTLB PREFETCH  ACCESS:          0  HIT:          0  MISS:          0  HIT %:       -nan  MISS %:       -nan   MPKI: 0
DTLB WRITEBACK ACCESS:          0  HIT:          0  MISS:          0  HIT %:       -nan  MISS %:       -nan   MPKI: 0
STLB TOTAL     ACCESS:   24903134  HIT:   22724325  MISS:    2178809  HIT %:    91.2509  MISS %:    8.74914   MPKI: 10.8888
STLB LOAD      ACCESS:          0  HIT:          0  MISS:          0  HIT %:       -nan  MISS %:       -nan   MPKI: 0
STLB RFO       ACCESS:          0  HIT:          0  MISS:          0  HIT %:       -nan  MISS %:       -nan   MPKI: 0
STLB PREFETCH  ACCESS:          0  HIT:          0  MISS:          0  HIT %:       -nan  MISS %:       -nan   MPKI: 0
STLB WRITEBACK ACCESS:          0  HIT:          0  MISS:          0  HIT %:       -nan  MISS %:       -nan   MPKI: 0
L1D TOTAL     ACCESS:   65089353  HIT:   30991444  MISS:   34097909  HIT %:    47.6137  MISS %:    52.3863   MPKI: 170.408
L1D LOAD      ACCESS:   39061575  HIT:   22097299  MISS:   16964276  HIT %:    56.5704  MISS %:    43.4296   MPKI: 84.7807
L1D RFO       ACCESS:    6543909  HIT:    6509601  MISS:      34308  HIT %:    99.4757  MISS %:   0.524274   MPKI: 0.171458
L1D PREFETCH  ACCESS:   19483869  HIT:    2384544  MISS:   17099325  HIT %:    12.2386  MISS %:    87.7614   MPKI: 85.4556
L1D WRITEBACK ACCESS:          0  HIT:          0  MISS:          0  HIT %:       -nan  MISS %:       -nan   MPKI: 0
L1I TOTAL     ACCESS:   42447635  HIT:   42447635  MISS:          0  HIT %:        100  MISS %:          0   MPKI: 0
L1I LOAD      ACCESS:   42447635  HIT:   42447635  MISS:          0  HIT %:        100  MISS %:          0   MPKI: 0
L1I RFO       ACCESS:          0  HIT:          0  MISS:          0  HIT %:       -nan  MISS %:       -nan   MPKI: 0
L1I PREFETCH  ACCESS:          0  HIT:          0  MISS:          0  HIT %:       -nan  MISS %:       -nan   MPKI: 0
L1I WRITEBACK ACCESS:          0  HIT:          0  MISS:          0  HIT %:       -nan  MISS %:       -nan   MPKI: 0
L2C TOTAL     ACCESS:   39607999  HIT:    9392429  MISS:   30215570  HIT %:    23.7135  MISS %:    76.2865   MPKI: 151.005
L2C LOAD      ACCESS:   16851126  HIT:    2362481  MISS:   14488645  HIT %:    14.0197  MISS %:    85.9803   MPKI: 72.4085
L2C RFO       ACCESS:      34306  HIT:       5581  MISS:      28725  HIT %:    16.2683  MISS %:    83.7317   MPKI: 0.143556
L2C PREFETCH  ACCESS:   17212473  HIT:    2066278  MISS:   15146195  HIT %:    12.0045  MISS %:    87.9955   MPKI: 75.6946
L2C WRITEBACK ACCESS:    3330636  HIT:    3213217  MISS:     117419  HIT %:    96.4746  MISS %:    3.52542   MPKI: 0.586813
PSCL5 TOTAL     ACCESS:    2178809  HIT:    2178809  MISS:          0  HIT %:        100  MISS %:          0   MPKI: 0
PSCL5 LOAD      ACCESS:          0  HIT:          0  MISS:          0  HIT %:       -nan  MISS %:       -nan   MPKI: 0
PSCL5 RFO       ACCESS:          0  HIT:          0  MISS:          0  HIT %:       -nan  MISS %:       -nan   MPKI: 0
PSCL5 PREFETCH  ACCESS:          0  HIT:          0  MISS:          0  HIT %:       -nan  MISS %:       -nan   MPKI: 0
PSCL5 WRITEBACK ACCESS:          0  HIT:          0  MISS:          0  HIT %:       -nan  MISS %:       -nan   MPKI: 0
PSCL4 TOTAL     ACCESS:    2178809  HIT:    2178809  MISS:          0  HIT %:        100  MISS %:          0   MPKI: 0
PSCL4 LOAD      ACCESS:          0  HIT:          0  MISS:          0  HIT %:       -nan  MISS %:       -nan   MPKI: 0
PSCL4 RFO       ACCESS:          0  HIT:          0  MISS:          0  HIT %:       -nan  MISS %:       -nan   MPKI: 0
PSCL4 PREFETCH  ACCESS:          0  HIT:          0  MISS:          0  HIT %:       -nan  MISS %:       -nan   MPKI: 0
PSCL4 WRITEBACK ACCESS:          0  HIT:          0  MISS:          0  HIT %:       -nan  MISS %:       -nan   MPKI: 0
PSCL3 TOTAL     ACCESS:    2178809  HIT:    2178809  MISS:          0  HIT %:        100  MISS %:          0   MPKI: 0
PSCL3 LOAD      ACCESS:          0  HIT:          0  MISS:          0  HIT %:       -nan  MISS %:       -nan   MPKI: 0
PSCL3 RFO       ACCESS:          0  HIT:          0  MISS:          0  HIT %:       -nan  MISS %:       -nan   MPKI: 0
PSCL3 PREFETCH  ACCESS:          0  HIT:          0  MISS:          0  HIT %:       -nan  MISS %:       -nan   MPKI: 0
PSCL3 WRITEBACK ACCESS:          0  HIT:          0  MISS:          0  HIT %:       -nan  MISS %:       -nan   MPKI: 0
PSCL2 TOTAL     ACCESS:    2178809  HIT:    2178160  MISS:        649  HIT %:    99.9702  MISS %:  0.0297869   MPKI: 0.00324344
PSCL2 LOAD      ACCESS:          0  HIT:          0  MISS:          0  HIT %:       -nan  MISS %:       -nan   MPKI: 0
PSCL2 RFO       ACCESS:          0  HIT:          0  MISS:          0  HIT %:       -nan  MISS %:       -nan   MPKI: 0
PSCL2 PREFETCH  ACCESS:          0  HIT:          0  MISS:          0  HIT %:       -nan  MISS %:       -nan   MPKI: 0
PSCL2 WRITEBACK ACCESS:          0  HIT:          0  MISS:          0  HIT %:       -nan  MISS %:       -nan   MPKI: 0

stream: 
stream:times selected: 22511584
stream:pref_filled: 18989126
stream:pref_useful: 222471
stream:pref_late: 207659
stream:misses: 4698934
stream:misses_by_poll: 0

CS: 
CS:times selected: 1509649
CS:pref_filled: 1387659
CS:pref_useful: 1109766
CS:pref_late: 28656
CS:misses: 222981
CS:misses_by_poll: 808

CPLX: 
CPLX:times selected: 20834988
CPLX:pref_filled: 377254
CPLX:pref_useful: 10914
CPLX:pref_late: 8573
CPLX:misses: 15745067
CPLX:misses_by_poll: 100

NL_L1: 
NL:times selected: 21138
NL:pref_filled: 19480
NL:pref_useful: 162
NL:pref_late: 156
NL:misses: 20545
NL:misses_by_poll: 0

total selections: 44877359
total_filled: 17099325
total_useful: 1032314
total_late: 246294
total_polluted: 908
total_misses_after_warmup: 17104258
conflicts: 0
Degree Incremented Times: 525976
Degree Decremented Times: 1627682

L1 IP Table Write Accesses: 157601583
L1 IP Table Read Accesses: 157601583
L1 RST Write Accesses: 74110224
L1 RST Read Accesses: 148220448
L1 CSPT Write Accesses: 74110224
L1 CSPT Read Accesses: 143223114
L1 RR Filter Tag Write Accesses: 80194883
L1 RR Filter Tag Read Accesses: 2727471376
L1 IP Table Tag Write Accesses: 157601639
L1 IP Table Tag Read Accesses: 157601639
L1 RST Tag Write Accesses: 0
L1 RST Tag Read Accesses: 668384205
L1 RR Filter Write Accesses: 0
L1 RR Filter Read Accesses: 86517613
test: 42187972
LLC TOTAL     ACCESS:   33367680  HIT:   15898658  MISS:   17469022  HIT %:    47.6469  MISS %:    52.3531   MPKI: 87.3032
LLC LOAD      ACCESS:   14488642  HIT:    6496671  MISS:    7991971  HIT %:    44.8398  MISS %:    55.1602   MPKI: 39.9407
LLC RFO       ACCESS:      28725  HIT:        155  MISS:      28570  HIT %:     0.5396  MISS %:    99.4604   MPKI: 0.142781
LLC PREFETCH  ACCESS:   15146195  HIT:    5942521  MISS:    9203674  HIT %:    39.2344  MISS %:    60.7656   MPKI: 45.9963
LLC WRITEBACK ACCESS:    3269532  HIT:    3040621  MISS:     228911  HIT %:    92.9987  MISS %:    7.00134   MPKI: 1.14401

RAW hits: 290452
Loads Generated: 48023016
Loads sent to L1D: 47732564
Stores Generated: 6628874
Stores sent to L1D: 6628874

CPU 2 cumulative IPC: 0.0940249 instructions: 200451171 cycles: 2131893700
ITLB TOTAL     ACCESS:   42238293  HIT:   42238293  MISS:          0  HIT %:        100  MISS %:          0   MPKI: 0
ITLB LOAD      ACCESS:          0  HIT:          0  MISS:          0  HIT %:       -nan  MISS %:       -nan   MPKI: 0
ITLB RFO       ACCESS:          0  HIT:          0  MISS:          0  HIT %:       -nan  MISS %:       -nan   MPKI: 0
ITLB PREFETCH  ACCESS:          0  HIT:          0  MISS:          0  HIT %:       -nan  MISS %:       -nan   MPKI: 0
ITLB WRITEBACK ACCESS:          0  HIT:          0  MISS:          0  HIT %:       -nan  MISS %:       -nan   MPKI: 0
DTLB TOTAL     ACCESS:   42810718  HIT:   32414126  MISS:   10396592  HIT %:     75.715  MISS %:     24.285   MPKI: 51.866
DTLB LOAD      ACCESS:          0  HIT:          0  MISS:          0  HIT %:       -nan  MISS %:       -nan   MPKI: 0
DTLB RFO       ACCESS:          0  HIT:          0  MISS:          0  HIT %:       -nan  MISS %:       -nan   MPKI: 0
DTLB PREFETCH  ACCESS:          0  HIT:          0  MISS:          0  HIT %:       -nan  MISS %:       -nan   MPKI: 0
DTLB WRITEBACK ACCESS:          0  HIT:          0  MISS:          0  HIT %:       -nan  MISS %:       -nan   MPKI: 0
STLB TOTAL     ACCESS:   24949661  HIT:   22767013  MISS:    2182648  HIT %:    91.2518  MISS %:    8.74821   MPKI: 10.8887
STLB LOAD      ACCESS:          0  HIT:          0  MISS:          0  HIT %:       -nan  MISS %:       -nan   MPKI: 0
STLB RFO       ACCESS:          0  HIT:          0  MISS:          0  HIT %:       -nan  MISS %:       -nan   MPKI: 0
STLB PREFETCH  ACCESS:          0  HIT:          0  MISS:          0  HIT %:       -nan  MISS %:       -nan   MPKI: 0
STLB WRITEBACK ACCESS:          0  HIT:          0  MISS:          0  HIT %:       -nan  MISS %:       -nan   MPKI: 0
L1D TOTAL     ACCESS:   65205514  HIT:   31042958  MISS:   34162556  HIT %:    47.6079  MISS %:    52.3921   MPKI: 170.428
L1D LOAD      ACCESS:   39129394  HIT:   22134738  MISS:   16994656  HIT %:    56.5681  MISS %:    43.4319   MPKI: 84.782
L1D RFO       ACCESS:    6554390  HIT:    6520038  MISS:      34352  HIT %:    99.4759  MISS %:   0.524107   MPKI: 0.171373
L1D PREFETCH  ACCESS:   19521730  HIT:    2388182  MISS:   17133548  HIT %:    12.2335  MISS %:    87.7665   MPKI: 85.4749
L1D WRITEBACK ACCESS:          0  HIT:          0  MISS:          0  HIT %:       -nan  MISS %:       -nan   MPKI: 0
L1I TOTAL     ACCESS:   42523397  HIT:   42523397  MISS:          0  HIT %:        100  MISS %:          0   MPKI: 0
L1I LOAD      ACCESS:   42523397  HIT:   42523397  MISS:          0  HIT %:        100  MISS %:          0   MPKI: 0
L1I RFO       ACCESS:          0  HIT:          0  MISS:          0  HIT %:       -nan  MISS %:       -nan   MPKI: 0
L1I PREFETCH  ACCESS:          0  HIT:          0  MISS:          0  HIT %:       -nan  MISS %:       -nan   MPKI: 0
L1I WRITEBACK ACCESS:          0  HIT:          0  MISS:          0  HIT %:       -nan  MISS %:       -nan   MPKI: 0
L2C TOTAL     ACCESS:   39682222  HIT:    9365687  MISS:   30316535  HIT %:    23.6017  MISS %:    76.3983   MPKI: 151.241
L2C LOAD      ACCESS:   16881355  HIT:    2363046  MISS:   14518309  HIT %:     13.998  MISS %:     86.002   MPKI: 72.4282
L2C RFO       ACCESS:      34350  HIT:       5622  MISS:      28728  HIT %:    16.3668  MISS %:    83.6332   MPKI: 0.143317
L2C PREFETCH  ACCESS:   17246846  HIT:    2066883  MISS:   15179963  HIT %:    11.9841  MISS %:    88.0159   MPKI: 75.729
L2C WRITEBACK ACCESS:    3336374  HIT:    3214431  MISS:     121943  HIT %:     96.345  MISS %:    3.65496   MPKI: 0.608343
PSCL5 TOTAL     ACCESS:    2182648  HIT:    2182648  MISS:          0  HIT %:        100  MISS %:          0   MPKI: 0
PSCL5 LOAD      ACCESS:          0  HIT:          0  MISS:          0  HIT %:       -nan  MISS %:       -nan   MPKI: 0
PSCL5 RFO       ACCESS:          0  HIT:          0  MISS:          0  HIT %:       -nan  MISS %:       -nan   MPKI: 0
PSCL5 PREFETCH  ACCESS:          0  HIT:          0  MISS:          0  HIT %:       -nan  MISS %:       -nan   MPKI: 0
PSCL5 WRITEBACK ACCESS:          0  HIT:          0  MISS:          0  HIT %:       -nan  MISS %:       -nan   MPKI: 0
PSCL4 TOTAL     ACCESS:    2182648  HIT:    2182648  MISS:          0  HIT %:        100  MISS %:          0   MPKI: 0
PSCL4 LOAD      ACCESS:          0  HIT:          0  MISS:          0  HIT %:       -nan  MISS %:       -nan   MPKI: 0
PSCL4 RFO       ACCESS:          0  HIT:          0  MISS:          0  HIT %:       -nan  MISS %:       -nan   MPKI: 0
PSCL4 PREFETCH  ACCESS:          0  HIT:          0  MISS:          0  HIT %:       -nan  MISS %:       -nan   MPKI: 0
PSCL4 WRITEBACK ACCESS:          0  HIT:          0  MISS:          0  HIT %:       -nan  MISS %:       -nan   MPKI: 0
PSCL3 TOTAL     ACCESS:    2182648  HIT:    2182648  MISS:          0  HIT %:        100  MISS %:          0   MPKI: 0
PSCL3 LOAD      ACCESS:          0  HIT:          0  MISS:          0  HIT %:       -nan  MISS %:       -nan   MPKI: 0
PSCL3 RFO       ACCESS:          0  HIT:          0  MISS:          0  HIT %:       -nan  MISS %:       -nan   MPKI: 0
PSCL3 PREFETCH  ACCESS:          0  HIT:          0  MISS:          0  HIT %:       -nan  MISS %:       -nan   MPKI: 0
PSCL3 WRITEBACK ACCESS:          0  HIT:          0  MISS:          0  HIT %:       -nan  MISS %:       -nan   MPKI: 0
PSCL2 TOTAL     ACCESS:    2182648  HIT:    2181999  MISS:        649  HIT %:    99.9703  MISS %:  0.0297345   MPKI: 0.0032377
PSCL2 LOAD      ACCESS:          0  HIT:          0  MISS:          0  HIT %:       -nan  MISS %:       -nan   MPKI: 0
PSCL2 RFO       ACCESS:          0  HIT:          0  MISS:          0  HIT %:       -nan  MISS %:       -nan   MPKI: 0
PSCL2 PREFETCH  ACCESS:          0  HIT:          0  MISS:          0  HIT %:       -nan  MISS %:       -nan   MPKI: 0
PSCL2 WRITEBACK ACCESS:          0  HIT:          0  MISS:          0  HIT %:       -nan  MISS %:       -nan   MPKI: 0

stream: 
stream:times selected: 22540166
stream:pref_filled: 19016834
stream:pref_useful: 221896
stream:pref_late: 208174
stream:misses: 4705047
stream:misses_by_poll: 0

CS: 
CS:times selected: 1511713
CS:pref_filled: 1389428
CS:pref_useful: 1111198
CS:pref_late: 28965
CS:misses: 223653
CS:misses_by_poll: 867

CPLX: 
CPLX:times selected: 20861244
CPLX:pref_filled: 378194
CPLX:pref_useful: 10866
CPLX:pref_late: 8672
CPLX:misses: 15765618
CPLX:misses_by_poll: 76

NL_L1: 
NL:times selected: 21084
NL:pref_filled: 19440
NL:pref_useful: 193
NL:pref_late: 173
NL:misses: 20453
NL:misses_by_poll: 0

total selections: 44934207
total_filled: 17133548
total_useful: 1034159
total_late: 247254
total_polluted: 943
total_misses_after_warmup: 17130308
conflicts: 0
Degree Incremented Times: 525976
Degree Decremented Times: 1627682

L1 IP Table Write Accesses: 157601583
L1 IP Table Read Accesses: 157601583
L1 RST Write Accesses: 74110224
L1 RST Read Accesses: 148220448
L1 CSPT Write Accesses: 74110224
L1 CSPT Read Accesses: 143223114
L1 RR Filter Tag Write Accesses: 80194883
L1 RR Filter Tag Read Accesses: 2727471376
L1 IP Table Tag Write Accesses: 157601639
L1 IP Table Tag Read Accesses: 157601639
L1 RST Tag Write Accesses: 0
L1 RST Tag Read Accesses: 668384205
L1 RR Filter Write Accesses: 0
L1 RR Filter Read Accesses: 86517613
test: 42187972
LLC TOTAL     ACCESS:   33469757  HIT:   16015647  MISS:   17454110  HIT %:    47.8511  MISS %:    52.1489   MPKI: 87.0741
LLC LOAD      ACCESS:   14518309  HIT:    6535070  MISS:    7983239  HIT %:    45.0126  MISS %:    54.9874   MPKI: 39.8264
LLC RFO       ACCESS:      28728  HIT:        173  MISS:      28555  HIT %:     0.6022  MISS %:    99.3978   MPKI: 0.142454
LLC PREFETCH  ACCESS:   15179962  HIT:    5982573  MISS:    9197389  HIT %:     39.411  MISS %:     60.589   MPKI: 45.8834
LLC WRITEBACK ACCESS:    3275166  HIT:    3044996  MISS:     230170  HIT %:    92.9723  MISS %:    7.02774   MPKI: 1.14826

RAW hits: 292069
Loads Generated: 48107678
Loads sent to L1D: 47815609
Stores Generated: 6640144
Stores sent to L1D: 6640142

CPU 3 cumulative IPC: 0.0948326 instructions: 202173086 cycles: 2131893700
ITLB TOTAL     ACCESS:   42603536  HIT:   42603536  MISS:          0  HIT %:        100  MISS %:          0   MPKI: 0
ITLB LOAD      ACCESS:          0  HIT:          0  MISS:          0  HIT %:       -nan  MISS %:       -nan   MPKI: 0
ITLB RFO       ACCESS:          0  HIT:          0  MISS:          0  HIT %:       -nan  MISS %:       -nan   MPKI: 0
ITLB PREFETCH  ACCESS:          0  HIT:          0  MISS:          0  HIT %:       -nan  MISS %:       -nan   MPKI: 0
ITLB WRITEBACK ACCESS:          0  HIT:          0  MISS:          0  HIT %:       -nan  MISS %:       -nan   MPKI: 0
DTLB TOTAL     ACCESS:   43169191  HIT:   32662834  MISS:   10506357  HIT %:    75.6624  MISS %:    24.3376   MPKI: 51.9671
DTLB LOAD      ACCESS:          0  HIT:          0  MISS:          0  HIT %:       -nan  MISS %:       -nan   MPKI: 0
DTLB RFO       ACCESS:          0  HIT:          0  MISS:          0  HIT %:       -nan  MISS %:       -nan   MPKI: 0
DTLB PREFETCH  ACCESS:          0  HIT:          0  MISS:          0  HIT %:       -nan  MISS %:       -nan   MPKI: 0
DTLB WRITEBACK ACCESS:          0  HIT:          0  MISS:          0  HIT %:       -nan  MISS %:       -nan   MPKI: 0
STLB TOTAL     ACCESS:   25193868  HIT:   22993509  MISS:    2200359  HIT %:    91.2663  MISS %:    8.73371   MPKI: 10.8835
STLB LOAD      ACCESS:          0  HIT:          0  MISS:          0  HIT %:       -nan  MISS %:       -nan   MPKI: 0
STLB RFO       ACCESS:          0  HIT:          0  MISS:          0  HIT %:       -nan  MISS %:       -nan   MPKI: 0
STLB PREFETCH  ACCESS:          0  HIT:          0  MISS:          0  HIT %:       -nan  MISS %:       -nan   MPKI: 0
STLB WRITEBACK ACCESS:          0  HIT:          0  MISS:          0  HIT %:       -nan  MISS %:       -nan   MPKI: 0
L1D TOTAL     ACCESS:   65756425  HIT:   31292136  MISS:   34464289  HIT %:     47.588  MISS %:     52.412   MPKI: 170.469
L1D LOAD      ACCESS:   39454038  HIT:   22311367  MISS:   17142671  HIT %:    56.5503  MISS %:    43.4497   MPKI: 84.7921
L1D RFO       ACCESS:    6607080  HIT:    6572538  MISS:      34542  HIT %:    99.4772  MISS %:   0.522803   MPKI: 0.170854
L1D PREFETCH  ACCESS:   19695307  HIT:    2408231  MISS:   17287076  HIT %:    12.2274  MISS %:    87.7726   MPKI: 85.5063
L1D WRITEBACK ACCESS:          0  HIT:          0  MISS:          0  HIT %:       -nan  MISS %:       -nan   MPKI: 0
L1I TOTAL     ACCESS:   42890866  HIT:   42890866  MISS:          0  HIT %:        100  MISS %:          0   MPKI: 0
L1I LOAD      ACCESS:   42890866  HIT:   42890866  MISS:          0  HIT %:        100  MISS %:          0   MPKI: 0
L1I RFO       ACCESS:          0  HIT:          0  MISS:          0  HIT %:       -nan  MISS %:       -nan   MPKI: 0
L1I PREFETCH  ACCESS:          0  HIT:          0  MISS:          0  HIT %:       -nan  MISS %:       -nan   MPKI: 0
L1I WRITEBACK ACCESS:          0  HIT:          0  MISS:          0  HIT %:       -nan  MISS %:       -nan   MPKI: 0
L2C TOTAL     ACCESS:   40028757  HIT:    9570243  MISS:   30458514  HIT %:    23.9084  MISS %:    76.0916   MPKI: 150.656
L2C LOAD      ACCESS:   17029660  HIT:    2394974  MISS:   14634686  HIT %:    14.0635  MISS %:    85.9365   MPKI: 72.3869
L2C RFO       ACCESS:      34540  HIT:       5683  MISS:      28857  HIT %:    16.4534  MISS %:    83.5466   MPKI: 0.142734
L2C PREFETCH  ACCESS:   17400082  HIT:    2096455  MISS:   15303627  HIT %:    12.0485  MISS %:    87.9515   MPKI: 75.6957
L2C WRITEBACK ACCESS:    3363467  HIT:    3250951  MISS:     112516  HIT %:    96.6548  MISS %:    3.34524   MPKI: 0.556533
PSCL5 TOTAL     ACCESS:    2200359  HIT:    2200359  MISS:          0  HIT %:        100  MISS %:          0   MPKI: 0
PSCL5 LOAD      ACCESS:          0  HIT:          0  MISS:          0  HIT %:       -nan  MISS %:       -nan   MPKI: 0
PSCL5 RFO       ACCESS:          0  HIT:          0  MISS:          0  HIT %:       -nan  MISS %:       -nan   MPKI: 0
PSCL5 PREFETCH  ACCESS:          0  HIT:          0  MISS:          0  HIT %:       -nan  MISS %:       -nan   MPKI: 0
PSCL5 WRITEBACK ACCESS:          0  HIT:          0  MISS:          0  HIT %:       -nan  MISS %:       -nan   MPKI: 0
PSCL4 TOTAL     ACCESS:    2200359  HIT:    2200359  MISS:          0  HIT %:        100  MISS %:          0   MPKI: 0
PSCL4 LOAD      ACCESS:          0  HIT:          0  MISS:          0  HIT %:       -nan  MISS %:       -nan   MPKI: 0
PSCL4 RFO       ACCESS:          0  HIT:          0  MISS:          0  HIT %:       -nan  MISS %:       -nan   MPKI: 0
PSCL4 PREFETCH  ACCESS:          0  HIT:          0  MISS:          0  HIT %:       -nan  MISS %:       -nan   MPKI: 0
PSCL4 WRITEBACK ACCESS:          0  HIT:          0  MISS:          0  HIT %:       -nan  MISS %:       -nan   MPKI: 0
PSCL3 TOTAL     ACCESS:    2200359  HIT:    2200359  MISS:          0  HIT %:        100  MISS %:          0   MPKI: 0
PSCL3 LOAD      ACCESS:          0  HIT:          0  MISS:          0  HIT %:       -nan  MISS %:       -nan   MPKI: 0
PSCL3 RFO       ACCESS:          0  HIT:          0  MISS:          0  HIT %:       -nan  MISS %:       -nan   MPKI: 0
PSCL3 PREFETCH  ACCESS:          0  HIT:          0  MISS:          0  HIT %:       -nan  MISS %:       -nan   MPKI: 0
PSCL3 WRITEBACK ACCESS:          0  HIT:          0  MISS:          0  HIT %:       -nan  MISS %:       -nan   MPKI: 0
PSCL2 TOTAL     ACCESS:    2200359  HIT:    2199710  MISS:        649  HIT %:    99.9705  MISS %:  0.0294952   MPKI: 0.00321012
PSCL2 LOAD      ACCESS:          0  HIT:          0  MISS:          0  HIT %:       -nan  MISS %:       -nan   MPKI: 0
PSCL2 RFO       ACCESS:          0  HIT:          0  MISS:          0  HIT %:       -nan  MISS %:       -nan   MPKI: 0
PSCL2 PREFETCH  ACCESS:          0  HIT:          0  MISS:          0  HIT %:       -nan  MISS %:       -nan   MPKI: 0
PSCL2 WRITEBACK ACCESS:          0  HIT:          0  MISS:          0  HIT %:       -nan  MISS %:       -nan   MPKI: 0

stream: 
stream:times selected: 22667074
stream:pref_filled: 19128812
stream:pref_useful: 221410
stream:pref_late: 208699
stream:misses: 4735825
stream:misses_by_poll: 0

CS: 
CS:times selected: 1520036
CS:pref_filled: 1395438
CS:pref_useful: 1115163
CS:pref_late: 31469
CS:misses: 228308
CS:misses_by_poll: 798

CPLX: 
CPLX:times selected: 20978780
CPLX:pref_filled: 379286
CPLX:pref_useful: 10829
CPLX:pref_late: 8605
CPLX:misses: 15854689
CPLX:misses_by_poll: 81

NL_L1: 
NL:times selected: 21240
NL:pref_filled: 19569
NL:pref_useful: 156
NL:pref_late: 192
NL:misses: 20630
NL:misses_by_poll: 0

total selections: 45187130
total_filled: 17287076
total_useful: 1043076
total_late: 250251
total_polluted: 879
total_misses_after_warmup: 17250450
conflicts: 0
Degree Incremented Times: 525976
Degree Decremented Times: 1627682

L1 IP Table Write Accesses: 157601583
L1 IP Table Read Accesses: 157601583
L1 RST Write Accesses: 74110224
L1 RST Read Accesses: 148220448
L1 CSPT Write Accesses: 74110224
L1 CSPT Read Accesses: 143223114
L1 RR Filter Tag Write Accesses: 80194883
L1 RR Filter Tag Read Accesses: 2727471376
L1 IP Table Tag Write Accesses: 157601639
L1 IP Table Tag Read Accesses: 157601639
L1 RST Tag Write Accesses: 0
L1 RST Tag Read Accesses: 668384205
L1 RR Filter Write Accesses: 0
L1 RR Filter Read Accesses: 86517613
test: 42187972
LLC TOTAL     ACCESS:   33649473  HIT:   16116415  MISS:   17533058  HIT %:     47.895  MISS %:     52.105   MPKI: 86.723
LLC LOAD      ACCESS:   14634683  HIT:    6610508  MISS:    8024175  HIT %:    45.1701  MISS %:    54.8299   MPKI: 39.6896
LLC RFO       ACCESS:      28857  HIT:        175  MISS:      28682  HIT %:   0.606439  MISS %:    99.3936   MPKI: 0.141869
LLC PREFETCH  ACCESS:   15303627  HIT:    6057731  MISS:    9245896  HIT %:    39.5836  MISS %:    60.4164   MPKI: 45.7326
LLC WRITEBACK ACCESS:    3303478  HIT:    3092524  MISS:     210954  HIT %:    93.6142  MISS %:    6.38582   MPKI: 1.04343

RAW hits: 300849
Loads Generated: 48516162
Loads sent to L1D: 48215313
Stores Generated: 6693630
Stores sent to L1D: 6693634

Region of Interest Statistics

CPU 0 cumulative IPC: 0.0938133 instructions: 200000001 cycles: 2131893700
ITLB TOTAL     ACCESS:   42142723  HIT:   42142723  MISS:          0  HIT %:        100  MISS %:          0   MPKI: 0
ITLB LOAD TRANSLATION ACCESS:   42142723  HIT:   42142723  MISS:          0  HIT %:        100  MISS %:          0   MPKI: 0
ITLB PREFETCH  REQUESTED:          0  ISSUED:          0  USEFUL:          0  USELESS:          0
ITLB USEFUL LOAD PREFETCHES:          0 PREFETCH ISSUED TO LOWER LEVEL:          0  ACCURACY: -nan
ITLB TIMELY PREFETCHES:          0 LATE PREFETCHES: 0 DROPPED PREFETCHES: 0
ITLB PREFETCHES SAME FILL-ORIGIN LEVEL: 0 DIFFERENT FILL-ORIGIN LEVEL: 0
ITLB AVERAGE MISS LATENCY: -nan cycles
ITLB RQ	ACCESS:   42427300	FORWARD:          0	MERGED:     284577	TO_CACHE:   42142723

DTLB TOTAL     ACCESS:   42717675  HIT:   32346677  MISS:   10370998  HIT %:     75.722  MISS %:     24.278   MPKI: 51.855
DTLB LOAD TRANSLATION ACCESS:   42717675  HIT:   32346677  MISS:   10370998  HIT %:     75.722  MISS %:     24.278   MPKI: 51.855
DTLB PREFETCH  REQUESTED:          0  ISSUED:          0  USEFUL:          0  USELESS:          0
DTLB USEFUL LOAD PREFETCHES:          0 PREFETCH ISSUED TO LOWER LEVEL:          0  ACCURACY: -nan
DTLB TIMELY PREFETCHES:          0 LATE PREFETCHES: 0 DROPPED PREFETCHES: 0
DTLB PREFETCHES SAME FILL-ORIGIN LEVEL: 0 DIFFERENT FILL-ORIGIN LEVEL: 0
DTLB AVERAGE MISS LATENCY: 15.9883 cycles
DTLB RQ	ACCESS:   45732746	FORWARD:          0	MERGED:    2200853	TO_CACHE:   43531893

STLB TOTAL     ACCESS:   24884415  HIT:   22706771  MISS:    2177644  HIT %:     91.249  MISS %:    8.75104   MPKI: 10.8882
STLB LOAD TRANSLATION ACCESS:   10370997  HIT:    8193635  MISS:    2177362  HIT %:    79.0053  MISS %:    20.9947   MPKI: 10.8868
STLB TRANSLATION FROM L1D PREFETCHER ACCESS:   14513418  HIT:   14513136  MISS:        282  HIT %:    99.9981  MISS %: 0.00194303   MPKI: 0.00141
STLB PREFETCH  REQUESTED:          0  ISSUED:          0  USEFUL:        260  USELESS:         22
STLB USEFUL LOAD PREFETCHES:        260 PREFETCH ISSUED TO LOWER LEVEL:          0  ACCURACY: inf
STLB TIMELY PREFETCHES:        260 LATE PREFETCHES: 0 DROPPED PREFETCHES: 0
STLB PREFETCHES SAME FILL-ORIGIN LEVEL: 0 DIFFERENT FILL-ORIGIN LEVEL: 0
STLB AVERAGE MISS LATENCY: 32.1631 cycles
STLB RQ	ACCESS:   30288253	FORWARD:          0	MERGED:    5403838	TO_CACHE:   24884415

STLB Hit, L1D data hit: 0
STLB Hit, L2C data hit: 0
STLB Hit, LLC data hit: 0
STLB Hit, LLC data miss: 0
STLB STLB hints to L2: 0
L1D TOTAL     ACCESS:   65050785  HIT:   30975524  MISS:   34075261  HIT %:    47.6174  MISS %:    52.3826   MPKI: 170.376
L1D LOAD      ACCESS:   39043686  HIT:   22086881  MISS:   16956805  HIT %:    56.5697  MISS %:    43.4303   MPKI: 84.784
L1D RFO       ACCESS:    6540786  HIT:    6506504  MISS:      34282  HIT %:    99.4759  MISS %:   0.524127   MPKI: 0.17141
L1D PREFETCH  ACCESS:   19466313  HIT:    2382139  MISS:   17084174  HIT %:    12.2372  MISS %:    87.7628   MPKI: 85.4209
L1D PREFETCH  REQUESTED:   39834533  ISSUED:   39834524  USEFUL:    1031237  USELESS:   16052950
L1D USEFUL LOAD PREFETCHES:    1031237 PREFETCH ISSUED TO LOWER LEVEL:   17197194  ACCURACY: 5.99654
L1D TIMELY PREFETCHES:    1031237 LATE PREFETCHES: 113016 DROPPED PREFETCHES: 0
L1D PREFETCHES SAME FILL-ORIGIN LEVEL: 17197194 DIFFERENT FILL-ORIGIN LEVEL: 0
L1D AVERAGE MISS LATENCY: 277.018 cycles
L1D RQ	ACCESS:   47710325	FORWARD:          0	MERGED:    8557306	TO_CACHE:   39151177
L1D WQ	ACCESS:    6625709	FORWARD:       1849	MERGED:      44140	TO_CACHE:    6581569
L1D PQ	ACCESS:   19917268	FORWARD:          0	MERGED:          5	TO_CACHE:   19917256

L1D UNIQUE REGIONS ACCESSED: 0
L1D REGIONS CONFLICTS: 0
L1D Cross Page Prefetch Requests: 0
L1D Same Page Prefetch Requests: 24413065
L1D ROI Sum of L1D PQ occupancy: 237350157
L1D PREFETCHES PUSHED FROM L2C: 0
L1I TOTAL     ACCESS:   42427300  HIT:   42427300  MISS:          0  HIT %:        100  MISS %:          0   MPKI: 0
L1I LOAD      ACCESS:   42427300  HIT:   42427300  MISS:          0  HIT %:        100  MISS %:          0   MPKI: 0
L1I PREFETCH  REQUESTED:          0  ISSUED:          0  USEFUL:          0  USELESS:          0
L1I USEFUL LOAD PREFETCHES:          0 PREFETCH ISSUED TO LOWER LEVEL:          0  ACCURACY: -nan
L1I TIMELY PREFETCHES:          0 LATE PREFETCHES: 0 DROPPED PREFETCHES: 0
L1I PREFETCHES SAME FILL-ORIGIN LEVEL: 0 DIFFERENT FILL-ORIGIN LEVEL: 0
L1I AVERAGE MISS LATENCY: -nan cycles
L1I RQ	ACCESS:   56686135	FORWARD:          0	MERGED:   14258835	TO_CACHE:   42427300

BTB TOTAL     ACCESS:   43362606  HIT:   43362598  MISS:          8  HIT %:        100  MISS %: 1.84491e-05   MPKI: 4e-05
BTB BRANCH_DIRECT_JUMP	ACCESS:     270663  HIT:     270661  MISS:          2
BTB BRANCH_INDIRECT	ACCESS:          0  HIT:          0  MISS:          0
BTB BRANCH_CONDITIONAL	ACCESS:   43091915  HIT:   43091911  MISS:          4
BTB BRANCH_DIRECT_CALL	ACCESS:         14  HIT:         13  MISS:          1
BTB BRANCH_INDIRECT_CALL	ACCESS:          0  HIT:          0  MISS:          0
BTB BRANCH_RETURN	ACCESS:         14  HIT:         13  MISS:          1
BTB BRANCH_OTHER ACCESS:          0  HIT:          0  MISS:          0

L2C TOTAL     ACCESS:   39582629  HIT:    9326920  MISS:   30255709  HIT %:    23.5632  MISS %:    76.4368   MPKI: 151.279
L2C LOAD      ACCESS:   16843789  HIT:    2358546  MISS:   14485243  HIT %:    14.0025  MISS %:    85.9975   MPKI: 72.4262
L2C DATA LOAD MPKI: 72.4262
L2C INSTRUCTION LOAD MPKI: 0
L2C RFO       ACCESS:      34281  HIT:       5554  MISS:      28727  HIT %:    16.2014  MISS %:    83.7986   MPKI: 0.143635
L2C PREFETCH  ACCESS:   17197189  HIT:    2062217  MISS:   15134972  HIT %:    11.9916  MISS %:    88.0084   MPKI: 75.6749
L2C DATA PREFETCH MPKI: 75.6749
L2C INSTRUCTION PREFETCH MPKI: 0
L2C WRITEBACK ACCESS:    3329077  HIT:    3210375  MISS:     118702  HIT %:    96.4344  MISS %:    3.56561   MPKI: 0.59351
L2C LOAD TRANSLATION ACCESS:    2178011  HIT:    1690013  MISS:     487998  HIT %:    77.5943  MISS %:    22.4057   MPKI: 2.43999
L2C TRANSLATION FROM L1D PREFETCHER ACCESS:        282  HIT:        215  MISS:         67  HIT %:    76.2411  MISS %:    23.7589   MPKI: 0.000335
L2C PREFETCH  REQUESTED:          0  ISSUED:          0  USEFUL:     385031  USELESS:   14750045
L2C USEFUL LOAD PREFETCHES:     385031 PREFETCH ISSUED TO LOWER LEVEL:   15134976  ACCURACY: 2.54398
L2C TIMELY PREFETCHES:     385031 LATE PREFETCHES: 0 DROPPED PREFETCHES: 0
L2C PREFETCHES SAME FILL-ORIGIN LEVEL: 0 DIFFERENT FILL-ORIGIN LEVEL: 0
L2C AVERAGE MISS LATENCY: 299.325 cycles
L2C RQ	ACCESS:   19056365	FORWARD:          0	MERGED:          0	TO_CACHE:   19056364
L2C WQ	ACCESS:    3329077	FORWARD:          2	MERGED:          0	TO_CACHE:    3329077
L2C PQ	ACCESS:   17197194	FORWARD:          0	MERGED:          0	TO_CACHE:   17197193

L2C Instructions Evicting Data 0
L2C Translations Evicting Data 476917
L2C Data Evicting Data 29174578
L2C Instructions Evicting Instructions 0
L2C Translations Evicting Instructions 0
L2C Data Evicting Instructions 0
L2C Instructions Evicting Translations 0
L2C Translations Evicting Translations 11148
L2C Data Evicting Translations 474364
L2C Dense regions hint from L2: 0
PSCL5 TOTAL     ACCESS:    2177644  HIT:    2177644  MISS:          0  HIT %:        100  MISS %:          0   MPKI: 0
PSCL5 LOAD TRANSLATION ACCESS:    2177362  HIT:    2177362  MISS:          0  HIT %:        100  MISS %:          0   MPKI: 0
PSCL5 TRANSLATION FROM L1D PREFETCHER ACCESS:        282  HIT:        282  MISS:          0  HIT %:        100  MISS %:          0   MPKI: 0
PSCL5 PREFETCH  REQUESTED:          0  ISSUED:          0  USEFUL:          0  USELESS:          0
PSCL5 USEFUL LOAD PREFETCHES:          0 PREFETCH ISSUED TO LOWER LEVEL:          0  ACCURACY: -nan
PSCL5 TIMELY PREFETCHES:          0 LATE PREFETCHES: 0 DROPPED PREFETCHES: 0
PSCL5 PREFETCHES SAME FILL-ORIGIN LEVEL: 0 DIFFERENT FILL-ORIGIN LEVEL: 0

PSCL4 TOTAL     ACCESS:    2177644  HIT:    2177644  MISS:          0  HIT %:        100  MISS %:          0   MPKI: 0
PSCL4 LOAD TRANSLATION ACCESS:    2177362  HIT:    2177362  MISS:          0  HIT %:        100  MISS %:          0   MPKI: 0
PSCL4 TRANSLATION FROM L1D PREFETCHER ACCESS:        282  HIT:        282  MISS:          0  HIT %:        100  MISS %:          0   MPKI: 0
PSCL4 PREFETCH  REQUESTED:          0  ISSUED:          0  USEFUL:          0  USELESS:          0
PSCL4 USEFUL LOAD PREFETCHES:          0 PREFETCH ISSUED TO LOWER LEVEL:          0  ACCURACY: -nan
PSCL4 TIMELY PREFETCHES:          0 LATE PREFETCHES: 0 DROPPED PREFETCHES: 0
PSCL4 PREFETCHES SAME FILL-ORIGIN LEVEL: 0 DIFFERENT FILL-ORIGIN LEVEL: 0

PSCL3 TOTAL     ACCESS:    2177644  HIT:    2177644  MISS:          0  HIT %:        100  MISS %:          0   MPKI: 0
PSCL3 LOAD TRANSLATION ACCESS:    2177362  HIT:    2177362  MISS:          0  HIT %:        100  MISS %:          0   MPKI: 0
PSCL3 TRANSLATION FROM L1D PREFETCHER ACCESS:        282  HIT:        282  MISS:          0  HIT %:        100  MISS %:          0   MPKI: 0
PSCL3 PREFETCH  REQUESTED:          0  ISSUED:          0  USEFUL:          0  USELESS:          0
PSCL3 USEFUL LOAD PREFETCHES:          0 PREFETCH ISSUED TO LOWER LEVEL:          0  ACCURACY: -nan
PSCL3 TIMELY PREFETCHES:          0 LATE PREFETCHES: 0 DROPPED PREFETCHES: 0
PSCL3 PREFETCHES SAME FILL-ORIGIN LEVEL: 0 DIFFERENT FILL-ORIGIN LEVEL: 0

PSCL2 TOTAL     ACCESS:    2177644  HIT:    2176995  MISS:        649  HIT %:    99.9702  MISS %:  0.0298029   MPKI: 0.003245
PSCL2 LOAD TRANSLATION ACCESS:    2177362  HIT:    2176713  MISS:        649  HIT %:    99.9702  MISS %:  0.0298067   MPKI: 0.003245
PSCL2 TRANSLATION FROM L1D PREFETCHER ACCESS:        282  HIT:        282  MISS:          0  HIT %:        100  MISS %:          0   MPKI: 0
PSCL2 PREFETCH  REQUESTED:          0  ISSUED:          0  USEFUL:          0  USELESS:          0
PSCL2 USEFUL LOAD PREFETCHES:          0 PREFETCH ISSUED TO LOWER LEVEL:          0  ACCURACY: -nan
PSCL2 TIMELY PREFETCHES:          0 LATE PREFETCHES: 0 DROPPED PREFETCHES: 0
PSCL2 PREFETCHES SAME FILL-ORIGIN LEVEL: 0 DIFFERENT FILL-ORIGIN LEVEL: 0

LLC TOTAL     ACCESS:   33405147  HIT:   15931179  MISS:   17473968  HIT %:    47.6908  MISS %:    52.3092   MPKI: 87.3698
LLC LOAD      ACCESS:   14485243  HIT:    6484722  MISS:    8000521  HIT %:    44.7678  MISS %:    55.2322   MPKI: 40.0026
LLC RFO       ACCESS:      28727  HIT:        164  MISS:      28563  HIT %:   0.570891  MISS %:    99.4291   MPKI: 0.142815
LLC PREFETCH  ACCESS:   15134969  HIT:    5929823  MISS:    9205146  HIT %:    39.1796  MISS %:    60.8204   MPKI: 46.0257
LLC WRITEBACK ACCESS:    3268143  HIT:    3043024  MISS:     225119  HIT %:    93.1117  MISS %:    6.88828   MPKI: 1.12559
LLC LOAD TRANSLATION ACCESS:     487998  HIT:     473380  MISS:      14618  HIT %:    97.0045  MISS %:     2.9955   MPKI: 0.07309
LLC TRANSLATION FROM L1D PREFETCHER ACCESS:         67  HIT:         66  MISS:          1  HIT %:    98.5075  MISS %:    1.49254   MPKI: 5e-06
LLC PREFETCH  REQUESTED:          0  ISSUED:          0  USEFUL:    2758613  USELESS:   34094865
LLC USEFUL LOAD PREFETCHES:    2758613 PREFETCH ISSUED TO LOWER LEVEL:   36852114  ACCURACY: 7.48563
LLC TIMELY PREFETCHES:    2758613 LATE PREFETCHES: 0 DROPPED PREFETCHES: 0
LLC PREFETCHES SAME FILL-ORIGIN LEVEL: 0 DIFFERENT FILL-ORIGIN LEVEL: 0
LLC AVERAGE MISS LATENCY: 1863.23 cycles
LLC RQ	ACCESS:   60010997	FORWARD:          0	MERGED:          0	TO_CACHE:   60010991
LLC WQ	ACCESS:   13116318	FORWARD:          9	MERGED:          0	TO_CACHE:   13116318
LLC PQ	ACCESS:   60764765	FORWARD:          0	MERGED:          0	TO_CACHE:   60764762

LLC Dense regions hint to LLC: 0

RAW hits: 289653
Loads Generated: 47999978
Loads sent to L1D: 47710325
Stores Generated: 6625709
Stores sent to L1D: 6625709
Major fault: 0 Minor fault: 32461
Allocated PAGES: 129988

CPU 1 cumulative IPC: 0.0938572 instructions: 200000001 cycles: 2130897658
ITLB TOTAL     ACCESS:   42142436  HIT:   42142436  MISS:          0  HIT %:        100  MISS %:          0   MPKI: 0
ITLB LOAD TRANSLATION ACCESS:   42142436  HIT:   42142436  MISS:          0  HIT %:        100  MISS %:          0   MPKI: 0
ITLB PREFETCH  REQUESTED:          0  ISSUED:          0  USEFUL:          0  USELESS:          0
ITLB USEFUL LOAD PREFETCHES:          0 PREFETCH ISSUED TO LOWER LEVEL:          0  ACCURACY: -nan
ITLB TIMELY PREFETCHES:          0 LATE PREFETCHES: 0 DROPPED PREFETCHES: 0
ITLB PREFETCHES SAME FILL-ORIGIN LEVEL: 0 DIFFERENT FILL-ORIGIN LEVEL: 0
ITLB AVERAGE MISS LATENCY: -nan cycles
ITLB RQ	ACCESS:   42447635	FORWARD:          0	MERGED:     284701	TO_CACHE:   42162934

DTLB TOTAL     ACCESS:   42717753  HIT:   32347525  MISS:   10370228  HIT %:    75.7238  MISS %:    24.2762   MPKI: 51.8511
DTLB LOAD TRANSLATION ACCESS:   42717753  HIT:   32347525  MISS:   10370228  HIT %:    75.7238  MISS %:    24.2762   MPKI: 51.8511
DTLB PREFETCH  REQUESTED:          0  ISSUED:          0  USEFUL:          0  USELESS:          0
DTLB USEFUL LOAD PREFETCHES:          0 PREFETCH ISSUED TO LOWER LEVEL:          0  ACCURACY: -nan
DTLB TIMELY PREFETCHES:          0 LATE PREFETCHES: 0 DROPPED PREFETCHES: 0
DTLB PREFETCHES SAME FILL-ORIGIN LEVEL: 0 DIFFERENT FILL-ORIGIN LEVEL: 0
DTLB AVERAGE MISS LATENCY: 15.8892 cycles
DTLB RQ	ACCESS:   45753776	FORWARD:          0	MERGED:    2201446	TO_CACHE:   43552330

STLB TOTAL     ACCESS:   24888709  HIT:   22710834  MISS:    2177875  HIT %:    91.2495  MISS %:    8.75045   MPKI: 10.8894
STLB LOAD TRANSLATION ACCESS:   10370228  HIT:    8192633  MISS:    2177595  HIT %:    79.0015  MISS %:    20.9985   MPKI: 10.888
STLB TRANSLATION FROM L1D PREFETCHER ACCESS:   14518481  HIT:   14518201  MISS:        280  HIT %:    99.9981  MISS %: 0.00192858   MPKI: 0.0014
STLB PREFETCH  REQUESTED:          0  ISSUED:          0  USEFUL:        258  USELESS:         22
STLB USEFUL LOAD PREFETCHES:        258 PREFETCH ISSUED TO LOWER LEVEL:          0  ACCURACY: inf
STLB TIMELY PREFETCHES:        258 LATE PREFETCHES: 0 DROPPED PREFETCHES: 0
STLB PREFETCHES SAME FILL-ORIGIN LEVEL: 0 DIFFERENT FILL-ORIGIN LEVEL: 0
STLB AVERAGE MISS LATENCY: 31.6536 cycles
STLB RQ	ACCESS:   30312162	FORWARD:          0	MERGED:    5409028	TO_CACHE:   24903134

STLB Hit, L1D data hit: 0
STLB Hit, L2C data hit: 0
STLB Hit, LLC data hit: 0
STLB Hit, LLC data miss: 0
STLB STLB hints to L2: 0
L1D TOTAL     ACCESS:   65058191  HIT:   30977059  MISS:   34081132  HIT %:    47.6144  MISS %:    52.3856   MPKI: 170.406
L1D LOAD      ACCESS:   39042994  HIT:   22086996  MISS:   16955998  HIT %:     56.571  MISS %:     43.429   MPKI: 84.78
L1D RFO       ACCESS:    6540987  HIT:    6506687  MISS:      34300  HIT %:    99.4756  MISS %:   0.524386   MPKI: 0.1715
L1D PREFETCH  ACCESS:   19474210  HIT:    2383376  MISS:   17090834  HIT %:    12.2386  MISS %:    87.7614   MPKI: 85.4542
L1D PREFETCH  REQUESTED:   39870367  ISSUED:   39870360  USEFUL:    1032314  USELESS:   16066998
L1D USEFUL LOAD PREFETCHES:    1032314 PREFETCH ISSUED TO LOWER LEVEL:   17212476  ACCURACY: 5.99748
L1D TIMELY PREFETCHES:    1032314 LATE PREFETCHES: 113149 DROPPED PREFETCHES: 0
L1D PREFETCHES SAME FILL-ORIGIN LEVEL: 17212476 DIFFERENT FILL-ORIGIN LEVEL: 0
L1D AVERAGE MISS LATENCY: 276.966 cycles
L1D RQ	ACCESS:   47732564	FORWARD:          0	MERGED:    8561690	TO_CACHE:   39168975
L1D WQ	ACCESS:    6628874	FORWARD:       1906	MERGED:      44073	TO_CACHE:    6584801
L1D PQ	ACCESS:   19935185	FORWARD:          0	MERGED:          3	TO_CACHE:   19935175

L1D UNIQUE REGIONS ACCESSED: 0
L1D REGIONS CONFLICTS: 0
L1D Cross Page Prefetch Requests: 0
L1D Same Page Prefetch Requests: 24425919
L1D ROI Sum of L1D PQ occupancy: 237614083
L1D PREFETCHES PUSHED FROM L2C: 0
L1I TOTAL     ACCESS:   42427037  HIT:   42427037  MISS:          0  HIT %:        100  MISS %:          0   MPKI: 0
L1I LOAD      ACCESS:   42427037  HIT:   42427037  MISS:          0  HIT %:        100  MISS %:          0   MPKI: 0
L1I PREFETCH  REQUESTED:          0  ISSUED:          0  USEFUL:          0  USELESS:          0
L1I USEFUL LOAD PREFETCHES:          0 PREFETCH ISSUED TO LOWER LEVEL:          0  ACCURACY: -nan
L1I TIMELY PREFETCHES:          0 LATE PREFETCHES: 0 DROPPED PREFETCHES: 0
L1I PREFETCHES SAME FILL-ORIGIN LEVEL: 0 DIFFERENT FILL-ORIGIN LEVEL: 0
L1I AVERAGE MISS LATENCY: -nan cycles
L1I RQ	ACCESS:   56713523	FORWARD:          0	MERGED:   14265888	TO_CACHE:   42447635

BTB TOTAL     ACCESS:   43362349  HIT:   43362341  MISS:          8  HIT %:        100  MISS %: 1.84492e-05   MPKI: 4e-05
BTB BRANCH_DIRECT_JUMP	ACCESS:     270766  HIT:     270764  MISS:          2
BTB BRANCH_INDIRECT	ACCESS:          0  HIT:          0  MISS:          0
BTB BRANCH_CONDITIONAL	ACCESS:   43091555  HIT:   43091551  MISS:          4
BTB BRANCH_DIRECT_CALL	ACCESS:         14  HIT:         13  MISS:          1
BTB BRANCH_INDIRECT_CALL	ACCESS:          0  HIT:          0  MISS:          0
BTB BRANCH_RETURN	ACCESS:         14  HIT:         13  MISS:          1
BTB BRANCH_OTHER ACCESS:          0  HIT:          0  MISS:          0

L2C TOTAL     ACCESS:   39588803  HIT:    9387490  MISS:   30201313  HIT %:    23.7125  MISS %:    76.2875   MPKI: 151.007
L2C LOAD      ACCESS:   16842854  HIT:    2361014  MISS:   14481840  HIT %:    14.0179  MISS %:    85.9821   MPKI: 72.4092
L2C DATA LOAD MPKI: 72.4092
L2C INSTRUCTION LOAD MPKI: 0
L2C RFO       ACCESS:      34298  HIT:       5576  MISS:      28722  HIT %:    16.2575  MISS %:    83.7425   MPKI: 0.14361
L2C PREFETCH  ACCESS:   17203976  HIT:    2064962  MISS:   15139014  HIT %:    12.0028  MISS %:    87.9972   MPKI: 75.6951
L2C DATA PREFETCH MPKI: 75.6951
L2C INSTRUCTION PREFETCH MPKI: 0
L2C WRITEBACK ACCESS:    3329151  HIT:    3211783  MISS:     117368  HIT %:    96.4745  MISS %:    3.52546   MPKI: 0.58684
L2C LOAD TRANSLATION ACCESS:    2178244  HIT:    1743942  MISS:     434302  HIT %:    80.0618  MISS %:    19.9382   MPKI: 2.17151
L2C TRANSLATION FROM L1D PREFETCHER ACCESS:        280  HIT:        213  MISS:         67  HIT %:    76.0714  MISS %:    23.9286   MPKI: 0.000335
L2C PREFETCH  REQUESTED:          0  ISSUED:          0  USEFUL:     384030  USELESS:   14762327
L2C USEFUL LOAD PREFETCHES:     384030 PREFETCH ISSUED TO LOWER LEVEL:   15146198  ACCURACY: 2.53549
L2C TIMELY PREFETCHES:     384030 LATE PREFETCHES: 0 DROPPED PREFETCHES: 0
L2C PREFETCHES SAME FILL-ORIGIN LEVEL: 0 DIFFERENT FILL-ORIGIN LEVEL: 0
L2C AVERAGE MISS LATENCY: 299.805 cycles
L2C RQ	ACCESS:   19064897	FORWARD:          0	MERGED:          0	TO_CACHE:   19064894
L2C WQ	ACCESS:    3330636	FORWARD:          3	MERGED:          0	TO_CACHE:    3330636
L2C PQ	ACCESS:   17212476	FORWARD:          0	MERGED:          0	TO_CACHE:   17212476

L2C Instructions Evicting Data 0
L2C Translations Evicting Data 417816
L2C Data Evicting Data 29247813
L2C Instructions Evicting Instructions 0
L2C Translations Evicting Instructions 0
L2C Data Evicting Instructions 0
L2C Instructions Evicting Translations 0
L2C Translations Evicting Translations 16770
L2C Data Evicting Translations 415752
L2C Dense regions hint from L2: 0
PSCL5 TOTAL     ACCESS:    2177875  HIT:    2177875  MISS:          0  HIT %:        100  MISS %:          0   MPKI: 0
PSCL5 LOAD TRANSLATION ACCESS:    2177595  HIT:    2177595  MISS:          0  HIT %:        100  MISS %:          0   MPKI: 0
PSCL5 TRANSLATION FROM L1D PREFETCHER ACCESS:        280  HIT:        280  MISS:          0  HIT %:        100  MISS %:          0   MPKI: 0
PSCL5 PREFETCH  REQUESTED:          0  ISSUED:          0  USEFUL:          0  USELESS:          0
PSCL5 USEFUL LOAD PREFETCHES:          0 PREFETCH ISSUED TO LOWER LEVEL:          0  ACCURACY: -nan
PSCL5 TIMELY PREFETCHES:          0 LATE PREFETCHES: 0 DROPPED PREFETCHES: 0
PSCL5 PREFETCHES SAME FILL-ORIGIN LEVEL: 0 DIFFERENT FILL-ORIGIN LEVEL: 0

PSCL4 TOTAL     ACCESS:    2177875  HIT:    2177875  MISS:          0  HIT %:        100  MISS %:          0   MPKI: 0
PSCL4 LOAD TRANSLATION ACCESS:    2177595  HIT:    2177595  MISS:          0  HIT %:        100  MISS %:          0   MPKI: 0
PSCL4 TRANSLATION FROM L1D PREFETCHER ACCESS:        280  HIT:        280  MISS:          0  HIT %:        100  MISS %:          0   MPKI: 0
PSCL4 PREFETCH  REQUESTED:          0  ISSUED:          0  USEFUL:          0  USELESS:          0
PSCL4 USEFUL LOAD PREFETCHES:          0 PREFETCH ISSUED TO LOWER LEVEL:          0  ACCURACY: -nan
PSCL4 TIMELY PREFETCHES:          0 LATE PREFETCHES: 0 DROPPED PREFETCHES: 0
PSCL4 PREFETCHES SAME FILL-ORIGIN LEVEL: 0 DIFFERENT FILL-ORIGIN LEVEL: 0

PSCL3 TOTAL     ACCESS:    2177875  HIT:    2177875  MISS:          0  HIT %:        100  MISS %:          0   MPKI: 0
PSCL3 LOAD TRANSLATION ACCESS:    2177595  HIT:    2177595  MISS:          0  HIT %:        100  MISS %:          0   MPKI: 0
PSCL3 TRANSLATION FROM L1D PREFETCHER ACCESS:        280  HIT:        280  MISS:          0  HIT %:        100  MISS %:          0   MPKI: 0
PSCL3 PREFETCH  REQUESTED:          0  ISSUED:          0  USEFUL:          0  USELESS:          0
PSCL3 USEFUL LOAD PREFETCHES:          0 PREFETCH ISSUED TO LOWER LEVEL:          0  ACCURACY: -nan
PSCL3 TIMELY PREFETCHES:          0 LATE PREFETCHES: 0 DROPPED PREFETCHES: 0
PSCL3 PREFETCHES SAME FILL-ORIGIN LEVEL: 0 DIFFERENT FILL-ORIGIN LEVEL: 0

PSCL2 TOTAL     ACCESS:    2177875  HIT:    2177226  MISS:        649  HIT %:    99.9702  MISS %:  0.0297997   MPKI: 0.003245
PSCL2 LOAD TRANSLATION ACCESS:    2177595  HIT:    2176946  MISS:        649  HIT %:    99.9702  MISS %:  0.0298035   MPKI: 0.003245
PSCL2 TRANSLATION FROM L1D PREFETCHER ACCESS:        280  HIT:        280  MISS:          0  HIT %:        100  MISS %:          0   MPKI: 0
PSCL2 PREFETCH  REQUESTED:          0  ISSUED:          0  USEFUL:          0  USELESS:          0
PSCL2 USEFUL LOAD PREFETCHES:          0 PREFETCH ISSUED TO LOWER LEVEL:          0  ACCURACY: -nan
PSCL2 TIMELY PREFETCHES:          0 LATE PREFETCHES: 0 DROPPED PREFETCHES: 0
PSCL2 PREFETCHES SAME FILL-ORIGIN LEVEL: 0 DIFFERENT FILL-ORIGIN LEVEL: 0

LLC TOTAL     ACCESS:   33352070  HIT:   15891070  MISS:   17461000  HIT %:    47.6464  MISS %:    52.3536   MPKI: 87.305
LLC LOAD      ACCESS:   14481837  HIT:    6493528  MISS:    7988309  HIT %:    44.8391  MISS %:    55.1609   MPKI: 39.9415
LLC RFO       ACCESS:      28722  HIT:        155  MISS:      28567  HIT %:   0.539656  MISS %:    99.4603   MPKI: 0.142835
LLC PREFETCH  ACCESS:   15139014  HIT:    5939605  MISS:    9199409  HIT %:    39.2338  MISS %:    60.7662   MPKI: 45.997
LLC WRITEBACK ACCESS:    3268128  HIT:    3039302  MISS:     228826  HIT %:    92.9983  MISS %:    7.00175   MPKI: 1.14413
LLC LOAD TRANSLATION ACCESS:     434302  HIT:     418414  MISS:      15888  HIT %:    96.3417  MISS %:    3.65828   MPKI: 0.07944
LLC TRANSLATION FROM L1D PREFETCHER ACCESS:         67  HIT:         66  MISS:          1  HIT %:    98.5075  MISS %:    1.49254   MPKI: 5e-06
LLC PREFETCH  REQUESTED:          0  ISSUED:          0  USEFUL:    2758613  USELESS:   34094865
LLC USEFUL LOAD PREFETCHES:    2758613 PREFETCH ISSUED TO LOWER LEVEL:   36852114  ACCURACY: 7.48563
LLC TIMELY PREFETCHES:    2758613 LATE PREFETCHES: 0 DROPPED PREFETCHES: 0
LLC PREFETCHES SAME FILL-ORIGIN LEVEL: 0 DIFFERENT FILL-ORIGIN LEVEL: 0
LLC AVERAGE MISS LATENCY: 1864.62 cycles
LLC RQ	ACCESS:   60010997	FORWARD:          0	MERGED:          0	TO_CACHE:   60010991
LLC WQ	ACCESS:   13116318	FORWARD:          9	MERGED:          0	TO_CACHE:   13116318
LLC PQ	ACCESS:   60764765	FORWARD:          0	MERGED:          0	TO_CACHE:   60764762

LLC Dense regions hint to LLC: 0

RAW hits: 290340
Loads Generated: 48000185
Loads sent to L1D: 47709845
Stores Generated: 6625925
Stores sent to L1D: 6625925
Major fault: 0 Minor fault: 32464
Allocated PAGES: 129988

CPU 2 cumulative IPC: 0.0940192 instructions: 200000001 cycles: 2127225123
ITLB TOTAL     ACCESS:   42141893  HIT:   42141893  MISS:          0  HIT %:        100  MISS %:          0   MPKI: 0
ITLB LOAD TRANSLATION ACCESS:   42141893  HIT:   42141893  MISS:          0  HIT %:        100  MISS %:          0   MPKI: 0
ITLB PREFETCH  REQUESTED:          0  ISSUED:          0  USEFUL:          0  USELESS:          0
ITLB USEFUL LOAD PREFETCHES:          0 PREFETCH ISSUED TO LOWER LEVEL:          0  ACCURACY: -nan
ITLB TIMELY PREFETCHES:          0 LATE PREFETCHES: 0 DROPPED PREFETCHES: 0
ITLB PREFETCHES SAME FILL-ORIGIN LEVEL: 0 DIFFERENT FILL-ORIGIN LEVEL: 0
ITLB AVERAGE MISS LATENCY: -nan cycles
ITLB RQ	ACCESS:   42523397	FORWARD:          0	MERGED:     285104	TO_CACHE:   42238293

DTLB TOTAL     ACCESS:   42714677  HIT:   32345812  MISS:   10368865  HIT %:    75.7253  MISS %:    24.2747   MPKI: 51.8443
DTLB LOAD TRANSLATION ACCESS:   42714677  HIT:   32345812  MISS:   10368865  HIT %:    75.7253  MISS %:    24.2747   MPKI: 51.8443
DTLB PREFETCH  REQUESTED:          0  ISSUED:          0  USEFUL:          0  USELESS:          0
DTLB USEFUL LOAD PREFETCHES:          0 PREFETCH ISSUED TO LOWER LEVEL:          0  ACCURACY: -nan
DTLB TIMELY PREFETCHES:          0 LATE PREFETCHES: 0 DROPPED PREFETCHES: 0
DTLB PREFETCHES SAME FILL-ORIGIN LEVEL: 0 DIFFERENT FILL-ORIGIN LEVEL: 0
DTLB AVERAGE MISS LATENCY: 15.9634 cycles
DTLB RQ	ACCESS:   45832092	FORWARD:          0	MERGED:    2205514	TO_CACHE:   43626578

STLB TOTAL     ACCESS:   24887556  HIT:   22709512  MISS:    2178044  HIT %:    91.2485  MISS %:    8.75154   MPKI: 10.8902
STLB LOAD TRANSLATION ACCESS:   10368865  HIT:    8191101  MISS:    2177764  HIT %:    78.9971  MISS %:    21.0029   MPKI: 10.8888
STLB TRANSLATION FROM L1D PREFETCHER ACCESS:   14518691  HIT:   14518411  MISS:        280  HIT %:    99.9981  MISS %: 0.00192855   MPKI: 0.0014
STLB PREFETCH  REQUESTED:          0  ISSUED:          0  USEFUL:        257  USELESS:         23
STLB USEFUL LOAD PREFETCHES:        257 PREFETCH ISSUED TO LOWER LEVEL:          0  ACCURACY: inf
STLB TIMELY PREFETCHES:        257 LATE PREFETCHES: 0 DROPPED PREFETCHES: 0
STLB PREFETCHES SAME FILL-ORIGIN LEVEL: 0 DIFFERENT FILL-ORIGIN LEVEL: 0
STLB AVERAGE MISS LATENCY: 31.9126 cycles
STLB RQ	ACCESS:   30370385	FORWARD:          0	MERGED:    5420724	TO_CACHE:   24949661

STLB Hit, L1D data hit: 0
STLB Hit, L2C data hit: 0
STLB Hit, LLC data hit: 0
STLB Hit, LLC data miss: 0
STLB STLB hints to L2: 0
L1D TOTAL     ACCESS:   65058791  HIT:   30974695  MISS:   34084096  HIT %:    47.6103  MISS %:    52.3897   MPKI: 170.42
L1D LOAD      ACCESS:   39041824  HIT:   22086066  MISS:   16955758  HIT %:    56.5703  MISS %:    43.4297   MPKI: 84.7788
L1D RFO       ACCESS:    6540546  HIT:    6506236  MISS:      34310  HIT %:    99.4754  MISS %:   0.524574   MPKI: 0.17155
L1D PREFETCH  ACCESS:   19476421  HIT:    2382393  MISS:   17094028  HIT %:    12.2322  MISS %:    87.7678   MPKI: 85.4701
L1D PREFETCH  REQUESTED:   39947603  ISSUED:   39947596  USEFUL:    1034159  USELESS:   16099386
L1D USEFUL LOAD PREFETCHES:    1034159 PREFETCH ISSUED TO LOWER LEVEL:   17246847  ACCURACY: 5.99622
L1D TIMELY PREFETCHES:    1034159 LATE PREFETCHES: 113300 DROPPED PREFETCHES: 0
L1D PREFETCHES SAME FILL-ORIGIN LEVEL: 17246847 DIFFERENT FILL-ORIGIN LEVEL: 0
L1D AVERAGE MISS LATENCY: 276.724 cycles
L1D RQ	ACCESS:   47815609	FORWARD:          0	MERGED:    8577058	TO_CACHE:   39236753
L1D WQ	ACCESS:    6640142	FORWARD:       1806	MERGED:      44803	TO_CACHE:    6595339
L1D PQ	ACCESS:   19973803	FORWARD:          0	MERGED:          2	TO_CACHE:   19973793

L1D UNIQUE REGIONS ACCESSED: 0
L1D REGIONS CONFLICTS: 0
L1D Cross Page Prefetch Requests: 0
L1D Same Page Prefetch Requests: 24461287
L1D ROI Sum of L1D PQ occupancy: 237936941
L1D PREFETCHES PUSHED FROM L2C: 0
L1I TOTAL     ACCESS:   42426591  HIT:   42426591  MISS:          0  HIT %:        100  MISS %:          0   MPKI: 0
L1I LOAD      ACCESS:   42426591  HIT:   42426591  MISS:          0  HIT %:        100  MISS %:          0   MPKI: 0
L1I PREFETCH  REQUESTED:          0  ISSUED:          0  USEFUL:          0  USELESS:          0
L1I USEFUL LOAD PREFETCHES:          0 PREFETCH ISSUED TO LOWER LEVEL:          0  ACCURACY: -nan
L1I TIMELY PREFETCHES:          0 LATE PREFETCHES: 0 DROPPED PREFETCHES: 0
L1I PREFETCHES SAME FILL-ORIGIN LEVEL: 0 DIFFERENT FILL-ORIGIN LEVEL: 0
L1I AVERAGE MISS LATENCY: -nan cycles
L1I RQ	ACCESS:   56814747	FORWARD:          0	MERGED:   14291350	TO_CACHE:   42523397

BTB TOTAL     ACCESS:   43361983  HIT:   43361975  MISS:          8  HIT %:        100  MISS %: 1.84493e-05   MPKI: 4e-05
BTB BRANCH_DIRECT_JUMP	ACCESS:     270860  HIT:     270858  MISS:          2
BTB BRANCH_INDIRECT	ACCESS:          0  HIT:          0  MISS:          0
BTB BRANCH_CONDITIONAL	ACCESS:   43091095  HIT:   43091091  MISS:          4
BTB BRANCH_DIRECT_CALL	ACCESS:         14  HIT:         13  MISS:          1
BTB BRANCH_INDIRECT_CALL	ACCESS:          0  HIT:          0  MISS:          0
BTB BRANCH_RETURN	ACCESS:         14  HIT:         13  MISS:          1
BTB BRANCH_OTHER ACCESS:          0  HIT:          0  MISS:          0

L2C TOTAL     ACCESS:   39592091  HIT:    9343743  MISS:   30248348  HIT %:       23.6  MISS %:       76.4   MPKI: 151.242
L2C LOAD      ACCESS:   16842520  HIT:    2356890  MISS:   14485630  HIT %:    13.9937  MISS %:    86.0063   MPKI: 72.4281
L2C DATA LOAD MPKI: 72.4281
L2C INSTRUCTION LOAD MPKI: 0
L2C RFO       ACCESS:      34308  HIT:       5596  MISS:      28712  HIT %:    16.3111  MISS %:    83.6889   MPKI: 0.14356
L2C PREFETCH  ACCESS:   17207263  HIT:    2061427  MISS:   15145836  HIT %:      11.98  MISS %:      88.02   MPKI: 75.7292
L2C DATA PREFETCH MPKI: 75.7292
L2C INSTRUCTION PREFETCH MPKI: 0
L2C WRITEBACK ACCESS:    3329307  HIT:    3207618  MISS:     121689  HIT %:    96.3449  MISS %:    3.65508   MPKI: 0.608445
[...]
Stores Generated: 6626191
Stores sent to L1D: 6626191
Major fault: 0 Minor fault: 32487
Allocated PAGES: 129988

CPU 3 cumulative IPC: 0.0947921 instructions: 200000003 cycles: 2109881500
ITLB TOTAL     ACCESS:   42137824  HIT:   42137824  MISS:          0  HIT %:        100  MISS %:          0   MPKI: 0
ITLB LOAD TRANSLATION ACCESS:   42137824  HIT:   42137824  MISS:          0  HIT %:        100  MISS %:          0   MPKI: 0
ITLB PREFETCH  REQUESTED:          0  ISSUED:          0  USEFUL:          0  USELESS:          0
ITLB USEFUL LOAD PREFETCHES:          0 PREFETCH ISSUED TO LOWER LEVEL:          0  ACCURACY: -nan
ITLB TIMELY PREFETCHES:          0 LATE PREFETCHES: 0 DROPPED PREFETCHES: 0
ITLB PREFETCHES SAME FILL-ORIGIN LEVEL: 0 DIFFERENT FILL-ORIGIN LEVEL: 0
ITLB AVERAGE MISS LATENCY: -nan cycles
ITLB RQ	ACCESS:   42890865	FORWARD:          0	MERGED:     287330	TO_CACHE:   42603535

DTLB TOTAL     ACCESS:   42708338  HIT:   32349966  MISS:   10358372  HIT %:    75.7463  MISS %:    24.2537   MPKI: 51.7919
DTLB LOAD TRANSLATION ACCESS:   42708338  HIT:   32349966  MISS:   10358372  HIT %:    75.7463  MISS %:    24.2537   MPKI: 51.7919
DTLB PREFETCH  REQUESTED:          0  ISSUED:          0  USEFUL:          0  USELESS:          0
DTLB USEFUL LOAD PREFETCHES:          0 PREFETCH ISSUED TO LOWER LEVEL:          0  ACCURACY: -nan
DTLB TIMELY PREFETCHES:          0 LATE PREFETCHES: 0 DROPPED PREFETCHES: 0
DTLB PREFETCHES SAME FILL-ORIGIN LEVEL: 0 DIFFERENT FILL-ORIGIN LEVEL: 0
DTLB AVERAGE MISS LATENCY: 16.3479 cycles
DTLB RQ	ACCESS:   46209741	FORWARD:          0	MERGED:    2219647	TO_CACHE:   43990094

STLB TOTAL     ACCESS:   24875060  HIT:   22695552  MISS:    2179508  HIT %:    91.2382  MISS %:    8.76182   MPKI: 10.8975
STLB LOAD TRANSLATION ACCESS:   10358372  HIT:    8179147  MISS:    2179225  HIT %:    78.9617  MISS %:    21.0383   MPKI: 10.8961
STLB TRANSLATION FROM L1D PREFETCHER ACCESS:   14516688  HIT:   14516405  MISS:        283  HIT %:    99.9981  MISS %: 0.00194948   MPKI: 0.001415
STLB PREFETCH  REQUESTED:          0  ISSUED:          0  USEFUL:        259  USELESS:         24
STLB USEFUL LOAD PREFETCHES:        259 PREFETCH ISSUED TO LOWER LEVEL:          0  ACCURACY: inf
STLB TIMELY PREFETCHES:        259 LATE PREFETCHES: 0 DROPPED PREFETCHES: 0
STLB PREFETCHES SAME FILL-ORIGIN LEVEL: 0 DIFFERENT FILL-ORIGIN LEVEL: 0
STLB AVERAGE MISS LATENCY: 33.1735 cycles
STLB RQ	ACCESS:   30655250	FORWARD:          0	MERGED:    5461382	TO_CACHE:   25193868

STLB Hit, L1D data hit: 0
STLB Hit, L2C data hit: 0
STLB Hit, LLC data hit: 0
STLB Hit, LLC data miss: 0
STLB STLB hints to L2: 0
L1D TOTAL     ACCESS:   65054026  HIT:   30970548  MISS:   34083478  HIT %:    47.6074  MISS %:    52.3926   MPKI: 170.417
L1D LOAD      ACCESS:   39035917  HIT:   22081747  MISS:   16954170  HIT %:    56.5678  MISS %:    43.4322   MPKI: 84.7708
L1D RFO       ACCESS:    6542412  HIT:    6508073  MISS:      34339  HIT %:    99.4751  MISS %:   0.524868   MPKI: 0.171695
L1D PREFETCH  ACCESS:   19475697  HIT:    2380728  MISS:   17094969  HIT %:    12.2241  MISS %:    87.7759   MPKI: 85.4748
L1D PREFETCH  REQUESTED:   40297801  ISSUED:   40297793  USEFUL:    1043076  USELESS:   16244005
L1D USEFUL LOAD PREFETCHES:    1043076 PREFETCH ISSUED TO LOWER LEVEL:   17400083  ACCURACY: 5.99466
L1D TIMELY PREFETCHES:    1043076 LATE PREFETCHES: 113008 DROPPED PREFETCHES: 0
L1D PREFETCHES SAME FILL-ORIGIN LEVEL: 17400083 DIFFERENT FILL-ORIGIN LEVEL: 0
L1D AVERAGE MISS LATENCY: 276.276 cycles
L1D RQ	ACCESS:   48215313	FORWARD:          0	MERGED:    8651564	TO_CACHE:   39561816
L1D WQ	ACCESS:    6693634	FORWARD:       1938	MERGED:      45709	TO_CACHE:    6647925
L1D PQ	ACCESS:   20148900	FORWARD:          0	MERGED:          2	TO_CACHE:   20148893

L1D UNIQUE REGIONS ACCESSED: 0
L1D REGIONS CONFLICTS: 0
L1D Cross Page Prefetch Requests: 0
L1D Same Page Prefetch Requests: 24603857
L1D ROI Sum of L1D PQ occupancy: 239648644
L1D PREFETCHES PUSHED FROM L2C: 0
L1I TOTAL     ACCESS:   42423243  HIT:   42423243  MISS:          0  HIT %:        100  MISS %:          0   MPKI: 0
L1I LOAD      ACCESS:   42423243  HIT:   42423243  MISS:          0  HIT %:        100  MISS %:          0   MPKI: 0
L1I PREFETCH  REQUESTED:          0  ISSUED:          0  USEFUL:          0  USELESS:          0
L1I USEFUL LOAD PREFETCHES:          0 PREFETCH ISSUED TO LOWER LEVEL:          0  ACCURACY: -nan
L1I TIMELY PREFETCHES:          0 LATE PREFETCHES: 0 DROPPED PREFETCHES: 0
L1I PREFETCHES SAME FILL-ORIGIN LEVEL: 0 DIFFERENT FILL-ORIGIN LEVEL: 0
L1I AVERAGE MISS LATENCY: -nan cycles
L1I RQ	ACCESS:   57307356	FORWARD:          0	MERGED:   14416491	TO_CACHE:   42890865

BTB TOTAL     ACCESS:   43358648  HIT:   43358634  MISS:         14  HIT %:        100  MISS %: 3.22888e-05   MPKI: 7e-05
BTB BRANCH_DIRECT_JUMP	ACCESS:     271551  HIT:     271547  MISS:          4
BTB BRANCH_INDIRECT	ACCESS:          0  HIT:          0  MISS:          0
BTB BRANCH_CONDITIONAL	ACCESS:   43087069  HIT:   43087061  MISS:          8
BTB BRANCH_DIRECT_CALL	ACCESS:         14  HIT:         13  MISS:          1
BTB BRANCH_INDIRECT_CALL	ACCESS:          0  HIT:          0  MISS:          0
BTB BRANCH_RETURN	ACCESS:         14  HIT:         13  MISS:          1
BTB BRANCH_OTHER ACCESS:          0  HIT:          0  MISS:          0

L2C TOTAL     ACCESS:   39594109  HIT:    9457599  MISS:   30136510  HIT %:    23.8864  MISS %:    76.1136   MPKI: 150.683
L2C LOAD      ACCESS:   16841370  HIT:    2361313  MISS:   14480057  HIT %:    14.0209  MISS %:    85.9791   MPKI: 72.4003
L2C DATA LOAD MPKI: 72.4003
L2C INSTRUCTION LOAD MPKI: 0
L2C RFO       ACCESS:      34337  HIT:       5551  MISS:      28786  HIT %:    16.1662  MISS %:    83.8338   MPKI: 0.14393
L2C PREFETCH  ACCESS:   17207765  HIT:    2066476  MISS:   15141289  HIT %:     12.009  MISS %:     87.991   MPKI: 75.7064
L2C DATA PREFETCH MPKI: 75.7064
L2C INSTRUCTION PREFETCH MPKI: 0
L2C WRITEBACK ACCESS:    3330480  HIT:    3219051  MISS:     111429  HIT %:    96.6543  MISS %:    3.34573   MPKI: 0.557145
L2C LOAD TRANSLATION ACCESS:    2179874  HIT:    1804981  MISS:     374893  HIT %:    82.8021  MISS %:    17.1979   MPKI: 1.87446
L2C TRANSLATION FROM L1D PREFETCHER ACCESS:        283  HIT:        227  MISS:         56  HIT %:     80.212  MISS %:     19.788   MPKI: 0.00028
L2C PREFETCH  REQUESTED:          0  ISSUED:          0  USEFUL:     390444  USELESS:   14913121
L2C USEFUL LOAD PREFETCHES:     390444 PREFETCH ISSUED TO LOWER LEVEL:   15303628  ACCURACY: 2.55132
L2C TIMELY PREFETCHES:     390444 LATE PREFETCHES: 0 DROPPED PREFETCHES: 0
L2C PREFETCHES SAME FILL-ORIGIN LEVEL: 0 DIFFERENT FILL-ORIGIN LEVEL: 0
L2C AVERAGE MISS LATENCY: 299.573 cycles
L2C RQ	ACCESS:   19265213	FORWARD:          0	MERGED:          0	TO_CACHE:   19265208
L2C WQ	ACCESS:    3363467	FORWARD:          5	MERGED:          0	TO_CACHE:    3363467
L2C PQ	ACCESS:   17400083	FORWARD:          0	MERGED:          0	TO_CACHE:   17400083

L2C Instructions Evicting Data 0
L2C Translations Evicting Data 365854
L2C Data Evicting Data 29602313
L2C Instructions Evicting Instructions 0
L2C Translations Evicting Instructions 0
L2C Data Evicting Instructions 0
L2C Instructions Evicting Translations 0
L2C Translations Evicting Translations 12974
L2C Data Evicting Translations 364857
L2C Dense regions hint from L2: 0
PSCL5 TOTAL     ACCESS:    2179508  HIT:    2179508  MISS:          0  HIT %:        100  MISS %:          0   MPKI: 0
PSCL5 LOAD TRANSLATION ACCESS:    2179225  HIT:    2179225  MISS:          0  HIT %:        100  MISS %:          0   MPKI: 0
PSCL5 TRANSLATION FROM L1D PREFETCHER ACCESS:        283  HIT:        283  MISS:          0  HIT %:        100  MISS %:          0   MPKI: 0
PSCL5 PREFETCH  REQUESTED:          0  ISSUED:          0  USEFUL:          0  USELESS:          0
PSCL5 USEFUL LOAD PREFETCHES:          0 PREFETCH ISSUED TO LOWER LEVEL:          0  ACCURACY: -nan
PSCL5 TIMELY PREFETCHES:          0 LATE PREFETCHES: 0 DROPPED PREFETCHES: 0
PSCL5 PREFETCHES SAME FILL-ORIGIN LEVEL: 0 DIFFERENT FILL-ORIGIN LEVEL: 0

PSCL4 TOTAL     ACCESS:    2179508  HIT:    2179508  MISS:          0  HIT %:        100  MISS %:          0   MPKI: 0
PSCL4 LOAD TRANSLATION ACCESS:    2179225  HIT:    2179225  MISS:          0  HIT %:        100  MISS %:          0   MPKI: 0
PSCL4 TRANSLATION FROM L1D PREFETCHER ACCESS:        283  HIT:        283  MISS:          0  HIT %:        100  MISS %:          0   MPKI: 0
PSCL4 PREFETCH  REQUESTED:          0  ISSUED:          0  USEFUL:          0  USELESS:          0
PSCL4 USEFUL LOAD PREFETCHES:          0 PREFETCH ISSUED TO LOWER LEVEL:          0  ACCURACY: -nan
PSCL4 TIMELY PREFETCHES:          0 LATE PREFETCHES: 0 DROPPED PREFETCHES: 0
PSCL4 PREFETCHES SAME FILL-ORIGIN LEVEL: 0 DIFFERENT FILL-ORIGIN LEVEL: 0

PSCL3 TOTAL     ACCESS:    2179508  HIT:    2179508  MISS:          0  HIT %:        100  MISS %:          0   MPKI: 0
PSCL3 LOAD TRANSLATION ACCESS:    2179225  HIT:    2179225  MISS:          0  HIT %:        100  MISS %:          0   MPKI: 0
PSCL3 TRANSLATION FROM L1D PREFETCHER ACCESS:        283  HIT:        283  MISS:          0  HIT %:        100  MISS %:          0   MPKI: 0
PSCL3 PREFETCH  REQUESTED:          0  ISSUED:          0  USEFUL:          0  USELESS:          0
PSCL3 USEFUL LOAD PREFETCHES:          0 PREFETCH ISSUED TO LOWER LEVEL:          0  ACCURACY: -nan
PSCL3 TIMELY PREFETCHES:          0 LATE PREFETCHES: 0 DROPPED PREFETCHES: 0
PSCL3 PREFETCHES SAME FILL-ORIGIN LEVEL: 0 DIFFERENT FILL-ORIGIN LEVEL: 0

PSCL2 TOTAL     ACCESS:    2179508  HIT:    2178859  MISS:        649  HIT %:    99.9702  MISS %:  0.0297774   MPKI: 0.003245
PSCL2 LOAD TRANSLATION ACCESS:    2179225  HIT:    2178576  MISS:        649  HIT %:    99.9702  MISS %:  0.0297812   MPKI: 0.003245
PSCL2 TRANSLATION FROM L1D PREFETCHER ACCESS:        283  HIT:        283  MISS:          0  HIT %:        100  MISS %:          0   MPKI: 0
PSCL2 PREFETCH  REQUESTED:          0  ISSUED:          0  USEFUL:          0  USELESS:          0
PSCL2 USEFUL LOAD PREFETCHES:          0 PREFETCH ISSUED TO LOWER LEVEL:          0  ACCURACY: -nan
PSCL2 TIMELY PREFETCHES:          0 LATE PREFETCHES: 0 DROPPED PREFETCHES: 0
PSCL2 PREFETCHES SAME FILL-ORIGIN LEVEL: 0 DIFFERENT FILL-ORIGIN LEVEL: 0

LLC TOTAL     ACCESS:   33296351  HIT:   15940746  MISS:   17355605  HIT %:    47.8754  MISS %:    52.1246   MPKI: 86.778
LLC LOAD      ACCESS:   14480054  HIT:    6537773  MISS:    7942281  HIT %:    45.1502  MISS %:    54.8498   MPKI: 39.7114
LLC RFO       ACCESS:      28786  HIT:        175  MISS:      28611  HIT %:   0.607934  MISS %:    99.3921   MPKI: 0.143055
LLC PREFETCH  ACCESS:   15141289  HIT:    5988764  MISS:    9152525  HIT %:    39.5525  MISS %:    60.4475   MPKI: 45.7626
LLC WRITEBACK ACCESS:    3271273  HIT:    3062226  MISS:     209047  HIT %:    93.6096  MISS %:    6.39039   MPKI: 1.04523
LLC LOAD TRANSLATION ACCESS:     374893  HIT:     351756  MISS:      23137  HIT %:    93.8284  MISS %:    6.17163   MPKI: 0.115685
LLC TRANSLATION FROM L1D PREFETCHER ACCESS:         56  HIT:         52  MISS:          4  HIT %:    92.8571  MISS %:    7.14286   MPKI: 2e-05
LLC PREFETCH  REQUESTED:          0  ISSUED:          0  USEFUL:    2758613  USELESS:   34094865
LLC USEFUL LOAD PREFETCHES:    2758613 PREFETCH ISSUED TO LOWER LEVEL:   36852114  ACCURACY: 7.48563
LLC TIMELY PREFETCHES:    2758613 LATE PREFETCHES: 0 DROPPED PREFETCHES: 0
LLC PREFETCHES SAME FILL-ORIGIN LEVEL: 0 DIFFERENT FILL-ORIGIN LEVEL: 0
LLC AVERAGE MISS LATENCY: 1875.94 cycles
LLC RQ	ACCESS:   60010997	FORWARD:          0	MERGED:          0	TO_CACHE:   60010991
LLC WQ	ACCESS:   13116318	FORWARD:          9	MERGED:          0	TO_CACHE:   13116318
LLC PQ	ACCESS:   60764765	FORWARD:          0	MERGED:          0	TO_CACHE:   60764762

LLC Dense regions hint to LLC: 0

RAW hits: 298408
Loads Generated: 48002938
Loads sent to L1D: 47704530
Stores Generated: 6628504
Stores sent to L1D: 6628508
Major fault: 0 Minor fault: 32576
Allocated PAGES: 129988

stream: 
stream:times selected: 22506201
stream:pref_filled: 18978197
stream:pref_useful: 221955
stream:pref_late: 207383
stream:misses: 4698048
stream:misses_by_poll: 0

CS: 
CS:times selected: 1508994
CS:pref_filled: 1387191
CS:pref_useful: 1109226
CS:pref_late: 29063
CS:misses: 223703
CS:misses_by_poll: 751

CPLX: 
CPLX:times selected: 20830429
CPLX:pref_filled: 377119
CPLX:pref_useful: 10925
CPLX:pref_late: 8717
CPLX:misses: 15741381
CPLX:misses_by_poll: 95

NL_L1: 
NL:times selected: 21373
NL:pref_filled: 19674
NL:pref_useful: 166
NL:pref_late: 195
NL:misses: 20766
NL:misses_by_poll: 0

total selections: 44866997
total_filled: 17084174
total_useful: 1031237
total_late: 246669
total_polluted: 846
total_misses_after_warmup: 17099922
conflicts: 0
Degree Incremented Times: 525976
Degree Decremented Times: 1627682

L1 IP Table Write Accesses: 157601583
L1 IP Table Read Accesses: 157601583
L1 RST Write Accesses: 74110224
L1 RST Read Accesses: 148220448
L1 CSPT Write Accesses: 74110224
L1 CSPT Read Accesses: 143223114
L1 RR Filter Tag Write Accesses: 80194883
L1 RR Filter Tag Read Accesses: 2727471376
L1 IP Table Tag Write Accesses: 157601639
L1 IP Table Tag Read Accesses: 157601639
L1 RST Tag Write Accesses: 0
L1 RST Tag Read Accesses: 668384205
L1 RR Filter Write Accesses: 0
L1 RR Filter Read Accesses: 86517613
test: 42187972

stream: 
stream:times selected: 22511584
stream:pref_filled: 18989126
stream:pref_useful: 222471
stream:pref_late: 207659
stream:misses: 4698934
stream:misses_by_poll: 0

CS: 
CS:times selected: 1509649
CS:pref_filled: 1387659
CS:pref_useful: 1109766
CS:pref_late: 28656
CS:misses: 222981
CS:misses_by_poll: 808

CPLX: 
CPLX:times selected: 20834988
CPLX:pref_filled: 377254
CPLX:pref_useful: 10914
CPLX:pref_late: 8573
CPLX:misses: 15745067
CPLX:misses_by_poll: 100

NL_L1: 
NL:times selected: 21138
NL:pref_filled: 19480
NL:pref_useful: 162
NL:pref_late: 156
NL:misses: 20545
NL:misses_by_poll: 0

total selections: 44877359
total_filled: 17099325
total_useful: 1032314
total_late: 246294
total_polluted: 908
total_misses_after_warmup: 17104258
conflicts: 0
Degree Incremented Times: 525976
Degree Decremented Times: 1627682

L1 IP Table Write Accesses: 157601583
L1 IP Table Read Accesses: 157601583
L1 RST Write Accesses: 74110224
L1 RST Read Accesses: 148220448
L1 CSPT Write Accesses: 74110224
L1 CSPT Read Accesses: 143223114
L1 RR Filter Tag Write Accesses: 80194883
L1 RR Filter Tag Read Accesses: 2727471376
L1 IP Table Tag Write Accesses: 157601639
L1 IP Table Tag Read Accesses: 157601639
L1 RST Tag Write Accesses: 0
L1 RST Tag Read Accesses: 668384205
L1 RR Filter Write Accesses: 0
L1 RR Filter Read Accesses: 86517613
test: 42187972

stream: 
stream:times selected: 22540166
stream:pref_filled: 19016834
stream:pref_useful: 221896
stream:pref_late: 208174
stream:misses: 4705047
stream:misses_by_poll: 0

CS: 
CS:times selected: 1511713
CS:pref_filled: 1389428
CS:pref_useful: 1111198
CS:pref_late: 28965
CS:misses: 223653
CS:misses_by_poll: 867

CPLX: 
CPLX:times selected: 20861244
CPLX:pref_filled: 378194
CPLX:pref_useful: 10866
CPLX:pref_late: 8672
CPLX:misses: 15765618
CPLX:misses_by_poll: 76

NL_L1: 
NL:times selected: 21084
NL:pref_filled: 19440
NL:pref_useful: 193
NL:pref_late: 173
NL:misses: 20453
NL:misses_by_poll: 0

total selections: 44934207
total_filled: 17133548
total_useful: 1034159
total_late: 247254
total_polluted: 943
total_misses_after_warmup: 17130308
conflicts: 0
Degree Incremented Times: 525976
Degree Decremented Times: 1627682

L1 IP Table Write Accesses: 157601583
L1 IP Table Read Accesses: 157601583
L1 RST Write Accesses: 74110224
L1 RST Read Accesses: 148220448
L1 CSPT Write Accesses: 74110224
L1 CSPT Read Accesses: 143223114
L1 RR Filter Tag Write Accesses: 80194883
L1 RR Filter Tag Read Accesses: 2727471376
L1 IP Table Tag Write Accesses: 157601639
L1 IP Table Tag Read Accesses: 157601639
L1 RST Tag Write Accesses: 0
L1 RST Tag Read Accesses: 668384205
L1 RR Filter Write Accesses: 0
L1 RR Filter Read Accesses: 86517613
test: 42187972

stream: 
stream:times selected: 22667074
stream:pref_filled: 19128812
stream:pref_useful: 221410
stream:pref_late: 208699
stream:misses: 4735825
stream:misses_by_poll: 0

CS: 
CS:times selected: 1520036
CS:pref_filled: 1395438
CS:pref_useful: 1115163
CS:pref_late: 31469
CS:misses: 228308
CS:misses_by_poll: 798

CPLX: 
CPLX:times selected: 20978780
CPLX:pref_filled: 379286
CPLX:pref_useful: 10829
CPLX:pref_late: 8605
CPLX:misses: 15854689
CPLX:misses_by_poll: 81

NL_L1: 
NL:times selected: 21240
NL:pref_filled: 19569
NL:pref_useful: 156
NL:pref_late: 192
NL:misses: 20630
NL:misses_by_poll: 0

total selections: 45187130
total_filled: 17287076
total_useful: 1043076
total_late: 250251
total_polluted: 879
total_misses_after_warmup: 17250450
conflicts: 0
Degree Incremented Times: 525976
Degree Decremented Times: 1627682

L1 IP Table Write Accesses: 157601583
L1 IP Table Read Accesses: 157601583
L1 RST Write Accesses: 74110224
L1 RST Read Accesses: 148220448
L1 CSPT Write Accesses: 74110224
L1 CSPT Read Accesses: 143223114
L1 RR Filter Tag Write Accesses: 80194883
L1 RR Filter Tag Read Accesses: 2727471376
L1 IP Table Tag Write Accesses: 157601639
L1 IP Table Tag Read Accesses: 157601639
L1 RST Tag Write Accesses: 0
L1 RST Tag Read Accesses: 668384205
L1 RR Filter Write Accesses: 0
L1 RR Filter Read Accesses: 86517613
test: 42187972

DRAM Statistics
 CHANNEL 0
 RQ ROW_BUFFER_HIT:    6292109  ROW_BUFFER_MISS:   62736380
 DBUS_CONGESTED:          1
 WQ ROW_BUFFER_HIT:     237966  ROW_BUFFER_MISS:   12071436  FULL:          0

 AVG_CONGESTED_CYCLE: 5
 All warmup complete: 5
Channel 0 Bank busy for read cycles: 0
Channel 0 Bank busy for write cycles: 0
Channel 0
Rank 0
0banks busy for read cycles: 24900
0banks busy for write cycles: 0
1banks busy for read cycles: 7730000
1banks busy for write cycles: 1342506
2banks busy for read cycles: 39027375
2banks busy for write cycles: 1342502
3banks busy for read cycles: 102149869
3banks busy for write cycles: 1342506
4banks busy for read cycles: 199630343
4banks busy for write cycles: 1345087
5banks busy for read cycles: 311644965
5banks busy for write cycles: 1593302
6banks busy for read cycles: 397758780
6banks busy for write cycles: 9297308
7banks busy for read cycles: 402929340
7banks busy for write cycles: 85863391
8banks busy for read cycles: 282777113
8banks busy for write cycles: 286094414

CPU 0 Branch Prediction Accuracy: 92.9196% MPKI: 15.3338 Average ROB Occupancy at Mispredict: 57.846
Branch types
NOT_BRANCH: 156593782 78.2969%
BRANCH_DIRECT_JUMP: 270663 0.135331%
BRANCH_INDIRECT: 0 0%
BRANCH_CONDITIONAL: 43135560 21.5678%
BRANCH_DIRECT_CALL: 14 7e-06%
BRANCH_INDIRECT_CALL: 0 0%
BRANCH_RETURN: 14 7e-06%
BRANCH_OTHER: 0 0%


CPU 1 Branch Prediction Accuracy: 92.9197% MPKI: 15.3365 Average ROB Occupancy at Mispredict: 57.8545
Branch types
NOT_BRANCH: 156668848 78.2968%
BRANCH_DIRECT_JUMP: 270866 0.135368%
BRANCH_INDIRECT: 0 0%
BRANCH_CONDITIONAL: 43156306 21.5678%
BRANCH_DIRECT_CALL: 14 6.99664e-06%
BRANCH_INDIRECT_CALL: 0 0%
BRANCH_RETURN: 14 6.99664e-06%
BRANCH_OTHER: 0 0%


CPU 2 Branch Prediction Accuracy: 92.92% MPKI: 15.34 Average ROB Occupancy at Mispredict: 57.9276
Branch types
NOT_BRANCH: 156946350 78.2965%
BRANCH_DIRECT_JUMP: 271266 0.135328%
BRANCH_INDIRECT: 0 0%
BRANCH_CONDITIONAL: 43233543 21.5681%
BRANCH_DIRECT_CALL: 14 6.98424e-06%
BRANCH_INDIRECT_CALL: 0 0%
BRANCH_RETURN: 14 6.98424e-06%
BRANCH_OTHER: 0 0%


CPU 3 Branch Prediction Accuracy: 92.9234% MPKI: 15.3605 Average ROB Occupancy at Mispredict: 58.276
Branch types
NOT_BRANCH: 158289253 78.2939%
BRANCH_DIRECT_JUMP: 273462 0.135261%
BRANCH_INDIRECT: 0 0%
BRANCH_CONDITIONAL: 43610088 21.5707%
BRANCH_DIRECT_CALL: 14 6.92476e-06%
BRANCH_INDIRECT_CALL: 0 0%
BRANCH_RETURN: 14 6.92476e-06%
BRANCH_OTHER: 0 0%

DRAM PAGES: 1048576
Allocated PAGES: 129988
