
*** ChampSim Multicore Out-of-Order Simulator ***

Warmup Instructions: 50000000
Simulation Instructions: 200000000
Number of CPUs: 4
LLC sets: 8192
LLC ways: 16
Off-chip DRAM Size: 4096 MB Channels: 1 Width: 64-bit Data Rate: 6400 MT/s
CPU 0 runs ./traces/ligra/ligra_Triangle.com-lj.ungraph.gcc_6.3.0_O3.drop_6000M.length_250M.champsimtrace.xz
.xz
CPU 1 runs ./traces/spec/459.GemsFDTD-1320B.champsimtrace.xz
.xz
CPU 2 runs ./traces/spec/429.mcf-192B.champsimtrace.xz
.xz
CPU 3 runs ./traces/ligra/ligra_PageRankDelta.com-lj.ungraph.gcc_6.3.0_O3.drop_6000M.length_250M.champsimtrace.xz
.xz
BTB has LRU replacement policy
ITLB has LRU replacement policy
DTLB has LRU replacement policy
STLB has LRU replacement policy
L1I has LRU replacement policy
IP Table Entries: 1024
CSPT Entries: 128
RR_ENTRIES: 32
RST_ENTRIES: 8
L1D has LRU replacement policy
Initialize SRRIP state for L2C
Initialize DRRIP state for LLC
BTB has LRU replacement policy
ITLB has LRU replacement policy
DTLB has LRU replacement policy
STLB has LRU replacement policy
L1I has LRU replacement policy
IP Table Entries: 1024
CSPT Entries: 128
RR_ENTRIES: 32
RST_ENTRIES: 8
L1D has LRU replacement policy
Initialize SRRIP state for L2C
Initialize DRRIP state for LLC
BTB has LRU replacement policy
ITLB has LRU replacement policy
DTLB has LRU replacement policy
STLB has LRU replacement policy
L1I has LRU replacement policy
IP Table Entries: 1024
CSPT Entries: 128
RR_ENTRIES: 32
RST_ENTRIES: 8
L1D has LRU replacement policy
Initialize SRRIP state for L2C
Initialize DRRIP state for LLC
BTB has LRU replacement policy
ITLB has LRU replacement policy
DTLB has LRU replacement policy
STLB has LRU replacement policy
L1I has LRU replacement policy
IP Table Entries: 1024
CSPT Entries: 128
RR_ENTRIES: 32
RST_ENTRIES: 8
L1D has LRU replacement policy
Initialize SRRIP state for L2C
Initialize DRRIP state for LLC
Heartbeat CPU 2 instructions: 10000000 cycles: 3347843 heartbeat IPC: 2.987 cumulative IPC: 2.987 (Simulation time: 0 hr 4 min 33 sec) 
Heartbeat CPU 0 instructions: 10000001 cycles: 3836053 heartbeat IPC: 2.60685 cumulative IPC: 2.60685 (Simulation time: 0 hr 5 min 5 sec) 
Heartbeat CPU 3 instructions: 10000000 cycles: 3836118 heartbeat IPC: 2.6068 cumulative IPC: 2.6068 (Simulation time: 0 hr 5 min 5 sec) 
Heartbeat CPU 1 instructions: 10000003 cycles: 4573088 heartbeat IPC: 2.18671 cumulative IPC: 2.18671 (Simulation time: 0 hr 6 min 2 sec) 
Heartbeat CPU 2 instructions: 20000000 cycles: 6690145 heartbeat IPC: 2.99195 cumulative IPC: 2.98947 (Simulation time: 0 hr 8 min 40 sec) 
Heartbeat CPU 0 instructions: 20000001 cycles: 7672047 heartbeat IPC: 2.60689 cumulative IPC: 2.60687 (Simulation time: 0 hr 9 min 56 sec) 
Heartbeat CPU 3 instructions: 20000001 cycles: 7672115 heartbeat IPC: 2.60688 cumulative IPC: 2.60684 (Simulation time: 0 hr 9 min 56 sec) 
Heartbeat CPU 1 instructions: 20000002 cycles: 9028076 heartbeat IPC: 2.24467 cumulative IPC: 2.21531 (Simulation time: 0 hr 11 min 36 sec) 
Heartbeat CPU 2 instructions: 30000003 cycles: 10032994 heartbeat IPC: 2.99146 cumulative IPC: 2.99013 (Simulation time: 0 hr 12 min 44 sec) 
Heartbeat CPU 0 instructions: 30000002 cycles: 11508006 heartbeat IPC: 2.60691 cumulative IPC: 2.60688 (Simulation time: 0 hr 14 min 23 sec) 
Heartbeat CPU 3 instructions: 30000002 cycles: 11508084 heartbeat IPC: 2.6069 cumulative IPC: 2.60686 (Simulation time: 0 hr 14 min 23 sec) 
Heartbeat CPU 2 instructions: 40000003 cycles: 13378650 heartbeat IPC: 2.98895 cumulative IPC: 2.98984 (Simulation time: 0 hr 16 min 42 sec) 
Heartbeat CPU 1 instructions: 30000000 cycles: 13464970 heartbeat IPC: 2.25383 cumulative IPC: 2.228 (Simulation time: 0 hr 16 min 49 sec) 
Heartbeat CPU 0 instructions: 40000000 cycles: 15344042 heartbeat IPC: 2.60686 cumulative IPC: 2.60687 (Simulation time: 0 hr 19 min 22 sec) 
Heartbeat CPU 3 instructions: 40000002 cycles: 15344126 heartbeat IPC: 2.60685 cumulative IPC: 2.60686 (Simulation time: 0 hr 19 min 22 sec) 
Heartbeat CPU 2 instructions: 50000001 cycles: 16726961 heartbeat IPC: 2.98658 cumulative IPC: 2.98919 (Simulation time: 0 hr 21 min 18 sec) 
Heartbeat CPU 1 instructions: 40000000 cycles: 17953685 heartbeat IPC: 2.22781 cumulative IPC: 2.22795 (Simulation time: 0 hr 22 min 30 sec) 
Heartbeat CPU 0 instructions: 50000002 cycles: 19180004 heartbeat IPC: 2.60691 cumulative IPC: 2.60688 (Simulation time: 0 hr 23 min 43 sec) 
Heartbeat CPU 3 instructions: 50000000 cycles: 19180081 heartbeat IPC: 2.60691 cumulative IPC: 2.60687 (Simulation time: 0 hr 23 min 43 sec) 
Heartbeat CPU 1 instructions: 50000000 cycles: 22392659 heartbeat IPC: 2.25277 cumulative IPC: 2.23287 (Simulation time: 0 hr 25 min 56 sec) 

Warmup complete CPU 0 instructions: 58355526 cycles: 22392660 (Simulation time: 0 hr 25 min 56 sec) 
Warmup complete CPU 1 instructions: 50000004 cycles: 22392660 (Simulation time: 0 hr 25 min 56 sec) 
Warmup complete CPU 2 instructions: 58581827 cycles: 22392659 (Simulation time: 0 hr 25 min 56 sec) 
Warmup complete CPU 3 instructions: 58355093 cycles: 22392659 (Simulation time: 0 hr 25 min 56 sec) 

Heartbeat CPU 0 instructions: 60000001 cycles: 23695834 heartbeat IPC: 2.21443 cumulative IPC: 1.2619 (Simulation time: 0 hr 26 min 20 sec) 
Heartbeat CPU 3 instructions: 60000002 cycles: 23791677 heartbeat IPC: 2.16845 cumulative IPC: 1.17576 (Simulation time: 0 hr 26 min 21 sec) 
Heartbeat CPU 0 instructions: 70000002 cycles: 31652983 heartbeat IPC: 1.25673 cumulative IPC: 1.25746 (Simulation time: 0 hr 28 min 29 sec) 
Heartbeat CPU 3 instructions: 70000001 cycles: 32339687 heartbeat IPC: 1.16986 cumulative IPC: 1.17069 (Simulation time: 0 hr 28 min 39 sec) 
Heartbeat CPU 0 instructions: 80000002 cycles: 39633469 heartbeat IPC: 1.25306 cumulative IPC: 1.25542 (Simulation time: 0 hr 30 min 33 sec) 
Heartbeat CPU 3 instructions: 80000002 cycles: 40897899 heartbeat IPC: 1.16847 cumulative IPC: 1.16966 (Simulation time: 0 hr 30 min 50 sec) 
Heartbeat CPU 2 instructions: 60000000 cycles: 45214860 heartbeat IPC: 0.351026 cumulative IPC: 0.0621401 (Simulation time: 0 hr 32 min 3 sec) 
Heartbeat CPU 0 instructions: 90000000 cycles: 47623942 heartbeat IPC: 1.25149 cumulative IPC: 1.25418 (Simulation time: 0 hr 32 min 43 sec) 
Heartbeat CPU 3 instructions: 90000000 cycles: 49465181 heartbeat IPC: 1.16723 cumulative IPC: 1.16889 (Simulation time: 0 hr 33 min 13 sec) 
Heartbeat CPU 0 instructions: 100000001 cycles: 55675601 heartbeat IPC: 1.24198 cumulative IPC: 1.25123 (Simulation time: 0 hr 34 min 50 sec) 
Heartbeat CPU 1 instructions: 60000001 cycles: 57376563 heartbeat IPC: 0.285846 cumulative IPC: 0.285846 (Simulation time: 0 hr 35 min 16 sec) 
Heartbeat CPU 3 instructions: 100000000 cycles: 58030043 heartbeat IPC: 1.16756 cumulative IPC: 1.16857 (Simulation time: 0 hr 35 min 25 sec) 
Heartbeat CPU 0 instructions: 110000000 cycles: 63652134 heartbeat IPC: 1.25368 cumulative IPC: 1.2517 (Simulation time: 0 hr 37 min 0 sec) 
Heartbeat CPU 3 instructions: 110000000 cycles: 66592557 heartbeat IPC: 1.16788 cumulative IPC: 1.16844 (Simulation time: 0 hr 37 min 47 sec) 
Heartbeat CPU 0 instructions: 120000002 cycles: 71624735 heartbeat IPC: 1.2543 cumulative IPC: 1.25212 (Simulation time: 0 hr 39 min 3 sec) 
Heartbeat CPU 3 instructions: 120000002 cycles: 75157637 heartbeat IPC: 1.16753 cumulative IPC: 1.16829 (Simulation time: 0 hr 39 min 52 sec) 
Heartbeat CPU 0 instructions: 130000000 cycles: 79834062 heartbeat IPC: 1.21813 cumulative IPC: 1.24726 (Simulation time: 0 hr 41 min 7 sec) 
Heartbeat CPU 3 instructions: 130000000 cycles: 83708984 heartbeat IPC: 1.16941 cumulative IPC: 1.16845 (Simulation time: 0 hr 42 min 12 sec) 
Heartbeat CPU 1 instructions: 70000002 cycles: 86949004 heartbeat IPC: 0.338153 cumulative IPC: 0.309807 (Simulation time: 0 hr 43 min 14 sec) 
Heartbeat CPU 0 instructions: 140000002 cycles: 87788590 heartbeat IPC: 1.25715 cumulative IPC: 1.24846 (Simulation time: 0 hr 43 min 28 sec) 
Heartbeat CPU 3 instructions: 140000000 cycles: 92246663 heartbeat IPC: 1.17128 cumulative IPC: 1.16879 (Simulation time: 0 hr 44 min 54 sec) 
Heartbeat CPU 0 instructions: 150000001 cycles: 95739448 heartbeat IPC: 1.25773 cumulative IPC: 1.24947 (Simulation time: 0 hr 46 min 4 sec) 
Heartbeat CPU 3 instructions: 150000001 cycles: 100772234 heartbeat IPC: 1.17294 cumulative IPC: 1.16924 (Simulation time: 0 hr 47 min 42 sec) 
Heartbeat CPU 1 instructions: 80000001 cycles: 101239503 heartbeat IPC: 0.699766 cumulative IPC: 0.380484 (Simulation time: 0 hr 47 min 52 sec) 
Heartbeat CPU 0 instructions: 160000002 cycles: 103676127 heartbeat IPC: 1.25997 cumulative IPC: 1.25049 (Simulation time: 0 hr 48 min 43 sec) 
Heartbeat CPU 3 instructions: 160000001 cycles: 109295409 heartbeat IPC: 1.17327 cumulative IPC: 1.16964 (Simulation time: 0 hr 50 min 31 sec) 
Heartbeat CPU 0 instructions: 170000000 cycles: 111608236 heartbeat IPC: 1.2607 cumulative IPC: 1.2514 (Simulation time: 0 hr 51 min 16 sec) 
Heartbeat CPU 1 instructions: 90000002 cycles: 114323858 heartbeat IPC: 0.764272 cumulative IPC: 0.435108 (Simulation time: 0 hr 52 min 4 sec) 
Heartbeat CPU 3 instructions: 170000000 cycles: 117830659 heartbeat IPC: 1.17161 cumulative IPC: 1.16982 (Simulation time: 0 hr 53 min 11 sec) 
Heartbeat CPU 0 instructions: 180000000 cycles: 119542866 heartbeat IPC: 1.2603 cumulative IPC: 1.25213 (Simulation time: 0 hr 53 min 40 sec) 
Heartbeat CPU 1 instructions: 100000003 cycles: 125638236 heartbeat IPC: 0.883831 cumulative IPC: 0.484282 (Simulation time: 0 hr 55 min 25 sec) 
Heartbeat CPU 3 instructions: 180000000 cycles: 126351869 heartbeat IPC: 1.17354 cumulative IPC: 1.17012 (Simulation time: 0 hr 55 min 40 sec) 
Heartbeat CPU 0 instructions: 190000001 cycles: 127481613 heartbeat IPC: 1.25964 cumulative IPC: 1.2527 (Simulation time: 0 hr 56 min 6 sec) 
Heartbeat CPU 3 instructions: 190000001 cycles: 134875549 heartbeat IPC: 1.1732 cumulative IPC: 1.17035 (Simulation time: 0 hr 58 min 44 sec) 
Heartbeat CPU 0 instructions: 200000002 cycles: 135418219 heartbeat IPC: 1.25998 cumulative IPC: 1.25321 (Simulation time: 0 hr 58 min 54 sec) 
Heartbeat CPU 1 instructions: 110000000 cycles: 136560944 heartbeat IPC: 0.915524 cumulative IPC: 0.52554 (Simulation time: 0 hr 59 min 14 sec) 
Heartbeat CPU 3 instructions: 200000001 cycles: 143394326 heartbeat IPC: 1.17388 cumulative IPC: 1.1706 (Simulation time: 1 hr 1 min 36 sec) 
Heartbeat CPU 0 instructions: 210000002 cycles: 143739486 heartbeat IPC: 1.20174 cumulative IPC: 1.24968 (Simulation time: 1 hr 1 min 41 sec) 
Heartbeat CPU 1 instructions: 120000000 cycles: 148235626 heartbeat IPC: 0.856554 cumulative IPC: 0.556249 (Simulation time: 1 hr 2 min 45 sec) 
Heartbeat CPU 3 instructions: 210000002 cycles: 152899624 heartbeat IPC: 1.05204 cumulative IPC: 1.16197 (Simulation time: 1 hr 3 min 40 sec) 
Heartbeat CPU 1 instructions: 130000000 cycles: 179804829 heartbeat IPC: 0.316764 cumulative IPC: 0.50822 (Simulation time: 1 hr 6 min 59 sec) 
Heartbeat CPU 0 instructions: 220000000 cycles: 187793871 heartbeat IPC: 0.226992 cumulative IPC: 0.977287 (Simulation time: 1 hr 7 min 54 sec) 
Heartbeat CPU 3 instructions: 220000000 cycles: 202180640 heartbeat IPC: 0.202918 cumulative IPC: 0.899086 (Simulation time: 1 hr 9 min 39 sec) 
Heartbeat CPU 1 instructions: 140000001 cycles: 217413934 heartbeat IPC: 0.265893 cumulative IPC: 0.461488 (Simulation time: 1 hr 11 min 33 sec) 
Heartbeat CPU 0 instructions: 230000001 cycles: 237570194 heartbeat IPC: 0.200899 cumulative IPC: 0.797688 (Simulation time: 1 hr 13 min 59 sec) 
Heartbeat CPU 3 instructions: 230000002 cycles: 252087213 heartbeat IPC: 0.200374 cumulative IPC: 0.747275 (Simulation time: 1 hr 15 min 40 sec) 
Heartbeat CPU 1 instructions: 150000002 cycles: 256540705 heartbeat IPC: 0.25558 cumulative IPC: 0.42708 (Simulation time: 1 hr 16 min 14 sec) 
Heartbeat CPU 0 instructions: 240000002 cycles: 287547707 heartbeat IPC: 0.20009 cumulative IPC: 0.68505 (Simulation time: 1 hr 19 min 42 sec) 
Heartbeat CPU 1 instructions: 160000003 cycles: 300900024 heartbeat IPC: 0.225432 cumulative IPC: 0.394963 (Simulation time: 1 hr 21 min 23 sec) 
Heartbeat CPU 3 instructions: 240000003 cycles: 302251633 heartbeat IPC: 0.199345 cumulative IPC: 0.649059 (Simulation time: 1 hr 21 min 31 sec) 
*** Reached end of trace for Core: 0 Repeating trace: ./traces/ligra/ligra_Triangle.com-lj.ungraph.gcc_6.3.0_O3.drop_6000M.length_250M.champsimtrace.xz
Heartbeat CPU 0 instructions: 250000002 cycles: 337638670 heartbeat IPC: 0.199637 cumulative IPC: 0.60792 (Simulation time: 1 hr 25 min 49 sec) 
Heartbeat CPU 1 instructions: 170000000 cycles: 344486582 heartbeat IPC: 0.229428 cumulative IPC: 0.372562 (Simulation time: 1 hr 27 min 16 sec) 
Finished CPU 0 instructions: 200000000 cycles: 322942819 cumulative IPC: 0.619305 (Simulation time: 1 hr 27 min 27 sec) 
Heartbeat CPU 0 instructions: 260000001 cycles: 346848856 heartbeat IPC: 1.08575 cumulative IPC: 0.621484 (Simulation time: 1 hr 27 min 46 sec) 
Heartbeat CPU 2 instructions: 70000000 cycles: 350247789 heartbeat IPC: 0.0327833 cumulative IPC: 0.0348269 (Simulation time: 1 hr 28 min 30 sec) 
*** Reached end of trace for Core: 3 Repeating trace: ./traces/ligra/ligra_PageRankDelta.com-lj.ungraph.gcc_6.3.0_O3.drop_6000M.length_250M.champsimtrace.xz
Heartbeat CPU 3 instructions: 250000002 cycles: 350395524 heartbeat IPC: 0.207711 cumulative IPC: 0.584278 (Simulation time: 1 hr 28 min 32 sec) 
Heartbeat CPU 0 instructions: 270000001 cycles: 355492139 heartbeat IPC: 1.15697 cumulative IPC: 0.635379 (Simulation time: 1 hr 29 min 45 sec) 
Finished CPU 3 instructions: 200000002 cycles: 335341655 cumulative IPC: 0.596407 (Simulation time: 1 hr 30 min 21 sec) 
Heartbeat CPU 3 instructions: 260000002 cycles: 359166914 heartbeat IPC: 1.14007 cumulative IPC: 0.598754 (Simulation time: 1 hr 30 min 46 sec) 
Heartbeat CPU 0 instructions: 280000000 cycles: 363747171 heartbeat IPC: 1.21138 cumulative IPC: 0.649309 (Simulation time: 1 hr 32 min 5 sec) 
Heartbeat CPU 3 instructions: 270000000 cycles: 367912101 heartbeat IPC: 1.14349 cumulative IPC: 0.612541 (Simulation time: 1 hr 33 min 14 sec) 
Heartbeat CPU 0 instructions: 290000000 cycles: 372144266 heartbeat IPC: 1.19089 cumulative IPC: 0.662311 (Simulation time: 1 hr 34 min 27 sec) 
Heartbeat CPU 1 instructions: 180000001 cycles: 372878252 heartbeat IPC: 0.352216 cumulative IPC: 0.370914 (Simulation time: 1 hr 34 min 40 sec) 
Heartbeat CPU 3 instructions: 280000001 cycles: 376620909 heartbeat IPC: 1.14826 cumulative IPC: 0.625712 (Simulation time: 1 hr 35 min 42 sec) 
Heartbeat CPU 0 instructions: 300000001 cycles: 380845730 heartbeat IPC: 1.14923 cumulative IPC: 0.674131 (Simulation time: 1 hr 36 min 45 sec) 
Heartbeat CPU 3 instructions: 290000001 cycles: 385318253 heartbeat IPC: 1.14978 cumulative IPC: 0.638271 (Simulation time: 1 hr 38 min 3 sec) 
Heartbeat CPU 0 instructions: 310000001 cycles: 389546464 heartbeat IPC: 1.14933 cumulative IPC: 0.685393 (Simulation time: 1 hr 39 min 13 sec) 
Heartbeat CPU 3 instructions: 300000002 cycles: 394025805 heartbeat IPC: 1.14843 cumulative IPC: 0.650224 (Simulation time: 1 hr 40 min 26 sec) 
Heartbeat CPU 0 instructions: 320000000 cycles: 397810328 heartbeat IPC: 1.21009 cumulative IPC: 0.696942 (Simulation time: 1 hr 41 min 28 sec) 
Heartbeat CPU 1 instructions: 190000002 cycles: 398998021 heartbeat IPC: 0.382852 cumulative IPC: 0.371742 (Simulation time: 1 hr 41 min 48 sec) 
Heartbeat CPU 3 instructions: 310000000 cycles: 402825881 heartbeat IPC: 1.13635 cumulative IPC: 0.661469 (Simulation time: 1 hr 42 min 53 sec) 
Heartbeat CPU 0 instructions: 330000000 cycles: 406063230 heartbeat IPC: 1.21169 cumulative IPC: 0.708015 (Simulation time: 1 hr 43 min 48 sec) 
Heartbeat CPU 3 instructions: 320000002 cycles: 411567043 heartbeat IPC: 1.14401 cumulative IPC: 0.672308 (Simulation time: 1 hr 45 min 14 sec) 
Heartbeat CPU 0 instructions: 340000001 cycles: 414397871 heartbeat IPC: 1.19981 cumulative IPC: 0.718471 (Simulation time: 1 hr 46 min 3 sec) 
Heartbeat CPU 3 instructions: 330000000 cycles: 420318590 heartbeat IPC: 1.14265 cumulative IPC: 0.682652 (Simulation time: 1 hr 47 min 37 sec) 
Heartbeat CPU 0 instructions: 350000001 cycles: 422632379 heartbeat IPC: 1.2144 cumulative IPC: 0.728674 (Simulation time: 1 hr 48 min 16 sec) 
Heartbeat CPU 1 instructions: 200000003 cycles: 425136004 heartbeat IPC: 0.382585 cumulative IPC: 0.372446 (Simulation time: 1 hr 48 min 54 sec) 
Heartbeat CPU 3 instructions: 340000002 cycles: 429045369 heartbeat IPC: 1.1459 cumulative IPC: 0.692593 (Simulation time: 1 hr 49 min 53 sec) 
Heartbeat CPU 0 instructions: 360000000 cycles: 430876836 heartbeat IPC: 1.21294 cumulative IPC: 0.738448 (Simulation time: 1 hr 50 min 25 sec) 
Heartbeat CPU 3 instructions: 350000002 cycles: 437797000 heartbeat IPC: 1.14264 cumulative IPC: 0.702075 (Simulation time: 1 hr 52 min 21 sec) 
Heartbeat CPU 0 instructions: 370000000 cycles: 439435302 heartbeat IPC: 1.16843 cumulative IPC: 0.747272 (Simulation time: 1 hr 52 min 48 sec) 
Heartbeat CPU 3 instructions: 360000000 cycles: 446531620 heartbeat IPC: 1.14487 cumulative IPC: 0.711194 (Simulation time: 1 hr 54 min 45 sec) 
Heartbeat CPU 0 instructions: 380000001 cycles: 447691847 heartbeat IPC: 1.21116 cumulative IPC: 0.756278 (Simulation time: 1 hr 55 min 3 sec) 
Heartbeat CPU 1 instructions: 210000000 cycles: 451363385 heartbeat IPC: 0.381281 cumulative IPC: 0.372986 (Simulation time: 1 hr 56 min 1 sec) 
Heartbeat CPU 3 instructions: 370000001 cycles: 455297779 heartbeat IPC: 1.14075 cumulative IPC: 0.719892 (Simulation time: 1 hr 57 min 2 sec) 
Heartbeat CPU 0 instructions: 390000001 cycles: 455927885 heartbeat IPC: 1.21418 cumulative IPC: 0.764977 (Simulation time: 1 hr 57 min 13 sec) 
Heartbeat CPU 3 instructions: 380000002 cycles: 464011071 heartbeat IPC: 1.14767 cumulative IPC: 0.728332 (Simulation time: 1 hr 59 min 24 sec) 
Heartbeat CPU 0 instructions: 400000001 cycles: 464374290 heartbeat IPC: 1.18394 cumulative IPC: 0.772983 (Simulation time: 1 hr 59 min 30 sec) 
Heartbeat CPU 0 instructions: 410000000 cycles: 472579776 heartbeat IPC: 1.2187 cumulative IPC: 0.781107 (Simulation time: 2 hr 1 min 40 sec) 
Heartbeat CPU 3 instructions: 390000002 cycles: 472681518 heartbeat IPC: 1.15334 cumulative IPC: 0.736516 (Simulation time: 2 hr 1 min 42 sec) 
Heartbeat CPU 1 instructions: 220000000 cycles: 477282138 heartbeat IPC: 0.385821 cumulative IPC: 0.373717 (Simulation time: 2 hr 2 min 48 sec) 
Heartbeat CPU 0 instructions: 420000001 cycles: 480779298 heartbeat IPC: 1.21958 cumulative IPC: 0.788951 (Simulation time: 2 hr 3 min 50 sec) 
Heartbeat CPU 3 instructions: 400000000 cycles: 481356265 heartbeat IPC: 1.15277 cumulative IPC: 0.744383 (Simulation time: 2 hr 4 min 0 sec) 
Heartbeat CPU 0 instructions: 430000001 cycles: 489458335 heartbeat IPC: 1.1522 cumulative IPC: 0.795701 (Simulation time: 2 hr 6 min 7 sec) 
Heartbeat CPU 3 instructions: 410000002 cycles: 490033746 heartbeat IPC: 1.15241 cumulative IPC: 0.751955 (Simulation time: 2 hr 6 min 17 sec) 
Heartbeat CPU 0 instructions: 440000000 cycles: 497932568 heartbeat IPC: 1.18005 cumulative IPC: 0.80255 (Simulation time: 2 hr 8 min 25 sec) 
Heartbeat CPU 3 instructions: 420000001 cycles: 498725723 heartbeat IPC: 1.15049 cumulative IPC: 0.759227 (Simulation time: 2 hr 8 min 37 sec) 
Heartbeat CPU 1 instructions: 230000003 cycles: 503110811 heartbeat IPC: 0.387167 cumulative IPC: 0.37444 (Simulation time: 2 hr 9 min 47 sec) 
Heartbeat CPU 0 instructions: 450000000 cycles: 506070182 heartbeat IPC: 1.22886 cumulative IPC: 0.809722 (Simulation time: 2 hr 10 min 37 sec) 
Heartbeat CPU 3 instructions: 430000002 cycles: 507390608 heartbeat IPC: 1.15408 cumulative IPC: 0.766281 (Simulation time: 2 hr 10 min 56 sec) 
Heartbeat CPU 0 instructions: 460000001 cycles: 514901194 heartbeat IPC: 1.13237 cumulative IPC: 0.815508 (Simulation time: 2 hr 12 min 51 sec) 
Heartbeat CPU 3 instructions: 440000000 cycles: 516175454 heartbeat IPC: 1.13832 cumulative IPC: 0.7729 (Simulation time: 2 hr 13 min 7 sec) 
Heartbeat CPU 3 instructions: 450000000 cycles: 525526517 heartbeat IPC: 1.0694 cumulative IPC: 0.778411 (Simulation time: 2 hr 14 min 49 sec) 
Heartbeat CPU 3 instructions: 460000002 cycles: 535761482 heartbeat IPC: 0.977043 cumulative IPC: 0.782371 (Simulation time: 2 hr 16 min 40 sec) 
Heartbeat CPU 1 instructions: 240000001 cycles: 538661474 heartbeat IPC: 0.281289 cumulative IPC: 0.368025 (Simulation time: 2 hr 17 min 0 sec) 
Heartbeat CPU 0 instructions: 470000001 cycles: 564347584 heartbeat IPC: 0.202239 cumulative IPC: 0.759555 (Simulation time: 2 hr 20 min 12 sec) 
Heartbeat CPU 1 instructions: 250000001 cycles: 589702475 heartbeat IPC: 0.195921 cumulative IPC: 0.352541 (Simulation time: 2 hr 23 min 20 sec) 
Finished CPU 1 instructions: 200000001 cycles: 567309816 cumulative IPC: 0.352541 (Simulation time: 2 hr 23 min 20 sec) 
Heartbeat CPU 3 instructions: 470000002 cycles: 591586296 heartbeat IPC: 0.179132 cumulative IPC: 0.723207 (Simulation time: 2 hr 23 min 34 sec) 
Heartbeat CPU 0 instructions: 480000002 cycles: 620125434 heartbeat IPC: 0.179283 cumulative IPC: 0.705406 (Simulation time: 2 hr 26 min 44 sec) 
Heartbeat CPU 1 instructions: 260000002 cycles: 640292109 heartbeat IPC: 0.197669 cumulative IPC: 0.339861 (Simulation time: 2 hr 29 min 5 sec) 
Heartbeat CPU 3 instructions: 480000002 cycles: 646530893 heartbeat IPC: 0.182002 cumulative IPC: 0.675563 (Simulation time: 2 hr 29 min 42 sec) 
Heartbeat CPU 0 instructions: 490000003 cycles: 674763214 heartbeat IPC: 0.183024 cumulative IPC: 0.661655 (Simulation time: 2 hr 32 min 58 sec) 
Heartbeat CPU 1 instructions: 270000000 cycles: 690789789 heartbeat IPC: 0.198029 cumulative IPC: 0.329146 (Simulation time: 2 hr 34 min 56 sec) 
Heartbeat CPU 3 instructions: 490000002 cycles: 701166948 heartbeat IPC: 0.183029 cumulative IPC: 0.635918 (Simulation time: 2 hr 36 min 15 sec) 
*** Reached end of trace for Core: 0 Repeating trace: ./traces/ligra/ligra_Triangle.com-lj.ungraph.gcc_6.3.0_O3.drop_6000M.length_250M.champsimtrace.xz
Heartbeat CPU 0 instructions: 500000001 cycles: 729457129 heartbeat IPC: 0.182836 cumulative IPC: 0.624617 (Simulation time: 2 hr 39 min 33 sec) 
Heartbeat CPU 0 instructions: 510000002 cycles: 738923658 heartbeat IPC: 1.05635 cumulative IPC: 0.630321 (Simulation time: 2 hr 41 min 29 sec) 
Heartbeat CPU 1 instructions: 280000000 cycles: 738940704 heartbeat IPC: 0.20768 cumulative IPC: 0.320983 (Simulation time: 2 hr 41 min 29 sec) 
Heartbeat CPU 0 instructions: 520000002 cycles: 748255336 heartbeat IPC: 1.07162 cumulative IPC: 0.635994 (Simulation time: 2 hr 43 min 27 sec) 
*** Reached end of trace for Core: 3 Repeating trace: ./traces/ligra/ligra_PageRankDelta.com-lj.ungraph.gcc_6.3.0_O3.drop_6000M.length_250M.champsimtrace.xz
Heartbeat CPU 3 instructions: 500000002 cycles: 750597167 heartbeat IPC: 0.202305 cumulative IPC: 0.606485 (Simulation time: 2 hr 43 min 57 sec) 
Heartbeat CPU 0 instructions: 530000000 cycles: 756756837 heartbeat IPC: 1.17626 cumulative IPC: 0.642249 (Simulation time: 2 hr 45 min 37 sec) 
Heartbeat CPU 3 instructions: 510000000 cycles: 759353371 heartbeat IPC: 1.14205 cumulative IPC: 0.612848 (Simulation time: 2 hr 46 min 22 sec) 
Heartbeat CPU 2 instructions: 80000003 cycles: 760251993 heartbeat IPC: 0.02439 cumulative IPC: 0.0290275 (Simulation time: 2 hr 46 min 38 sec) 
Heartbeat CPU 0 instructions: 540000001 cycles: 765067772 heartbeat IPC: 1.20323 cumulative IPC: 0.648526 (Simulation time: 2 hr 47 min 51 sec) 
Heartbeat CPU 3 instructions: 520000001 cycles: 768104627 heartbeat IPC: 1.14269 cumulative IPC: 0.619066 (Simulation time: 2 hr 48 min 43 sec) 
Heartbeat CPU 1 instructions: 290000002 cycles: 769631261 heartbeat IPC: 0.325833 cumulative IPC: 0.321183 (Simulation time: 2 hr 49 min 11 sec) 
Heartbeat CPU 0 instructions: 550000000 cycles: 773289252 heartbeat IPC: 1.21633 cumulative IPC: 0.654743 (Simulation time: 2 hr 50 min 10 sec) 
Heartbeat CPU 3 instructions: 530000000 cycles: 776823031 heartbeat IPC: 1.147 cumulative IPC: 0.625167 (Simulation time: 2 hr 51 min 11 sec) 
Heartbeat CPU 0 instructions: 560000002 cycles: 781574609 heartbeat IPC: 1.20695 cumulative IPC: 0.66077 (Simulation time: 2 hr 52 min 25 sec) 
Heartbeat CPU 3 instructions: 540000000 cycles: 785577191 heartbeat IPC: 1.14231 cumulative IPC: 0.631099 (Simulation time: 2 hr 53 min 29 sec) 
Heartbeat CPU 0 instructions: 570000000 cycles: 790093511 heartbeat IPC: 1.17386 cumulative IPC: 0.666463 (Simulation time: 2 hr 54 min 39 sec) 
Heartbeat CPU 3 instructions: 550000000 cycles: 794260892 heartbeat IPC: 1.15158 cumulative IPC: 0.636954 (Simulation time: 2 hr 55 min 50 sec) 
Heartbeat CPU 1 instructions: 300000003 cycles: 795447952 heartbeat IPC: 0.387346 cumulative IPC: 0.323392 (Simulation time: 2 hr 56 min 9 sec) 
Heartbeat CPU 0 instructions: 580000002 cycles: 798529343 heartbeat IPC: 1.18542 cumulative IPC: 0.672104 (Simulation time: 2 hr 57 min 3 sec) 
Heartbeat CPU 3 instructions: 560000001 cycles: 803062041 heartbeat IPC: 1.13622 cumulative IPC: 0.642583 (Simulation time: 2 hr 58 min 17 sec) 
Heartbeat CPU 0 instructions: 590000001 cycles: 806778974 heartbeat IPC: 1.21218 cumulative IPC: 0.677784 (Simulation time: 2 hr 59 min 15 sec) 
Heartbeat CPU 3 instructions: 570000000 cycles: 811778757 heartbeat IPC: 1.14722 cumulative IPC: 0.648155 (Simulation time: 3 hr 0 min 39 sec) 
Heartbeat CPU 0 instructions: 600000002 cycles: 815096943 heartbeat IPC: 1.20222 cumulative IPC: 0.683287 (Simulation time: 3 hr 1 min 35 sec) 
Heartbeat CPU 3 instructions: 580000000 cycles: 820539016 heartbeat IPC: 1.14152 cumulative IPC: 0.65357 (Simulation time: 3 hr 3 min 6 sec) 
Heartbeat CPU 1 instructions: 310000000 cycles: 821687016 heartbeat IPC: 0.381111 cumulative IPC: 0.325287 (Simulation time: 3 hr 3 min 22 sec) 
Heartbeat CPU 0 instructions: 610000000 cycles: 823356712 heartbeat IPC: 1.21069 cumulative IPC: 0.688726 (Simulation time: 3 hr 3 min 46 sec) 
Heartbeat CPU 3 instructions: 590000001 cycles: 829260687 heartbeat IPC: 1.14657 cumulative IPC: 0.658899 (Simulation time: 3 hr 5 min 20 sec) 
Heartbeat CPU 0 instructions: 620000000 cycles: 831626776 heartbeat IPC: 1.20918 cumulative IPC: 0.694044 (Simulation time: 3 hr 5 min 57 sec) 
Heartbeat CPU 3 instructions: 600000000 cycles: 837992405 heartbeat IPC: 1.14525 cumulative IPC: 0.664106 (Simulation time: 3 hr 7 min 44 sec) 
Heartbeat CPU 0 instructions: 630000001 cycles: 840126869 heartbeat IPC: 1.17646 cumulative IPC: 0.699059 (Simulation time: 3 hr 8 min 22 sec) 
Heartbeat CPU 3 instructions: 610000002 cycles: 846731463 heartbeat IPC: 1.14429 cumulative IPC: 0.669197 (Simulation time: 3 hr 10 min 10 sec) 
Heartbeat CPU 1 instructions: 320000001 cycles: 847427988 heartbeat IPC: 0.388486 cumulative IPC: 0.327259 (Simulation time: 3 hr 10 min 21 sec) 
Heartbeat CPU 0 instructions: 640000002 cycles: 848552364 heartbeat IPC: 1.18687 cumulative IPC: 0.704034 (Simulation time: 3 hr 10 min 40 sec) 
Heartbeat CPU 3 instructions: 620000000 cycles: 855444622 heartbeat IPC: 1.14769 cumulative IPC: 0.674202 (Simulation time: 3 hr 12 min 34 sec) 
Heartbeat CPU 0 instructions: 650000000 cycles: 856756969 heartbeat IPC: 1.21883 cumulative IPC: 0.709096 (Simulation time: 3 hr 12 min 57 sec) 
Heartbeat CPU 3 instructions: 630000001 cycles: 864199074 heartbeat IPC: 1.14228 cumulative IPC: 0.679069 (Simulation time: 3 hr 15 min 4 sec) 
Heartbeat CPU 0 instructions: 660000000 cycles: 865113542 heartbeat IPC: 1.19666 cumulative IPC: 0.713931 (Simulation time: 3 hr 15 min 18 sec) 
Heartbeat CPU 3 instructions: 640000001 cycles: 872881845 heartbeat IPC: 1.15171 cumulative IPC: 0.683895 (Simulation time: 3 hr 17 min 26 sec) 
Heartbeat CPU 0 instructions: 670000001 cycles: 873339335 heartbeat IPC: 1.21569 cumulative IPC: 0.718781 (Simulation time: 3 hr 17 min 33 sec) 
Heartbeat CPU 1 instructions: 330000000 cycles: 873360468 heartbeat IPC: 0.385617 cumulative IPC: 0.329037 (Simulation time: 3 hr 17 min 34 sec) 
Heartbeat CPU 0 instructions: 680000001 cycles: 881549431 heartbeat IPC: 1.21801 cumulative IPC: 0.723552 (Simulation time: 3 hr 19 min 49 sec) 
Heartbeat CPU 3 instructions: 650000002 cycles: 881565452 heartbeat IPC: 1.1516 cumulative IPC: 0.688622 (Simulation time: 3 hr 19 min 49 sec) 
Heartbeat CPU 0 instructions: 690000000 cycles: 889959819 heartbeat IPC: 1.18901 cumulative IPC: 0.728064 (Simulation time: 3 hr 22 min 6 sec) 
Heartbeat CPU 3 instructions: 660000000 cycles: 890231255 heartbeat IPC: 1.15396 cumulative IPC: 0.693268 (Simulation time: 3 hr 22 min 10 sec) 
Heartbeat CPU 0 instructions: 700000000 cycles: 898187900 heartbeat IPC: 1.21535 cumulative IPC: 0.732642 (Simulation time: 3 hr 24 min 22 sec) 
Heartbeat CPU 3 instructions: 670000002 cycles: 898913979 heartbeat IPC: 1.15171 cumulative IPC: 0.69781 (Simulation time: 3 hr 24 min 35 sec) 
Heartbeat CPU 1 instructions: 340000003 cycles: 899180272 heartbeat IPC: 0.3873 cumulative IPC: 0.330753 (Simulation time: 3 hr 24 min 39 sec) 
Heartbeat CPU 0 instructions: 710000000 cycles: 906982005 heartbeat IPC: 1.13713 cumulative IPC: 0.736663 (Simulation time: 3 hr 26 min 48 sec) 
Heartbeat CPU 3 instructions: 680000001 cycles: 907679020 heartbeat IPC: 1.1409 cumulative IPC: 0.702196 (Simulation time: 3 hr 26 min 56 sec) 
Heartbeat CPU 3 instructions: 690000002 cycles: 916970618 heartbeat IPC: 1.07624 cumulative IPC: 0.706081 (Simulation time: 3 hr 28 min 43 sec) 
Heartbeat CPU 3 instructions: 700000002 cycles: 926403358 heartbeat IPC: 1.06014 cumulative IPC: 0.709776 (Simulation time: 3 hr 30 min 33 sec) 
Heartbeat CPU 1 instructions: 350000000 cycles: 935098332 heartbeat IPC: 0.278411 cumulative IPC: 0.328693 (Simulation time: 3 hr 32 min 12 sec) 
Heartbeat CPU 3 instructions: 710000002 cycles: 936747861 heartbeat IPC: 0.966697 cumulative IPC: 0.712682 (Simulation time: 3 hr 32 min 28 sec) 
Heartbeat CPU 0 instructions: 720000000 cycles: 953833414 heartbeat IPC: 0.213441 cumulative IPC: 0.710345 (Simulation time: 3 hr 34 min 31 sec) 
Heartbeat CPU 1 instructions: 360000001 cycles: 984995679 heartbeat IPC: 0.200411 cumulative IPC: 0.322043 (Simulation time: 3 hr 38 min 13 sec) 
Heartbeat CPU 3 instructions: 720000002 cycles: 992361156 heartbeat IPC: 0.179813 cumulative IPC: 0.68213 (Simulation time: 3 hr 39 min 7 sec) 
Heartbeat CPU 0 instructions: 730000000 cycles: 1008583642 heartbeat IPC: 0.182648 cumulative IPC: 0.681049 (Simulation time: 3 hr 40 min 52 sec) 
Heartbeat CPU 1 instructions: 370000002 cycles: 1035354815 heartbeat IPC: 0.198574 cumulative IPC: 0.315905 (Simulation time: 3 hr 44 min 4 sec) 
Heartbeat CPU 3 instructions: 730000002 cycles: 1047880196 heartbeat IPC: 0.180118 cumulative IPC: 0.654952 (Simulation time: 3 hr 45 min 34 sec) 
Heartbeat CPU 0 instructions: 740000000 cycles: 1063359287 heartbeat IPC: 0.182563 cumulative IPC: 0.654819 (Simulation time: 3 hr 47 min 11 sec) 
Heartbeat CPU 1 instructions: 380000001 cycles: 1085769491 heartbeat IPC: 0.198355 cumulative IPC: 0.310332 (Simulation time: 3 hr 49 min 48 sec) 
Heartbeat CPU 3 instructions: 740000002 cycles: 1103599951 heartbeat IPC: 0.17947 cumulative IPC: 0.630448 (Simulation time: 3 hr 51 min 59 sec) 
*** Reached end of trace for Core: 0 Repeating trace: ./traces/ligra/ligra_Triangle.com-lj.ungraph.gcc_6.3.0_O3.drop_6000M.length_250M.champsimtrace.xz
Heartbeat CPU 0 instructions: 750000000 cycles: 1118138167 heartbeat IPC: 0.182552 cumulative IPC: 0.631209 (Simulation time: 3 hr 53 min 44 sec) 
Heartbeat CPU 0 instructions: 760000000 cycles: 1127460201 heartbeat IPC: 1.07273 cumulative IPC: 0.634934 (Simulation time: 3 hr 55 min 28 sec) 
Heartbeat CPU 2 instructions: 90000000 cycles: 1131593621 heartbeat IPC: 0.0269294 cumulative IPC: 0.0283251 (Simulation time: 3 hr 56 min 18 sec) 
Heartbeat CPU 1 instructions: 390000001 cycles: 1132555416 heartbeat IPC: 0.213739 cumulative IPC: 0.306261 (Simulation time: 3 hr 56 min 26 sec) 
Heartbeat CPU 0 instructions: 770000000 cycles: 1136741682 heartbeat IPC: 1.07741 cumulative IPC: 0.638619 (Simulation time: 3 hr 57 min 11 sec) 
Heartbeat CPU 0 instructions: 780000001 cycles: 1146088565 heartbeat IPC: 1.06988 cumulative IPC: 0.642206 (Simulation time: 3 hr 59 min 1 sec) 
*** Reached end of trace for Core: 3 Repeating trace: ./traces/ligra/ligra_PageRankDelta.com-lj.ungraph.gcc_6.3.0_O3.drop_6000M.length_250M.champsimtrace.xz
Heartbeat CPU 3 instructions: 750000002 cycles: 1150837492 heartbeat IPC: 0.211696 cumulative IPC: 0.612919 (Simulation time: 3 hr 59 min 53 sec) 
Heartbeat CPU 0 instructions: 790000001 cycles: 1155003445 heartbeat IPC: 1.12172 cumulative IPC: 0.64598 (Simulation time: 4 hr 1 min 0 sec) 
Heartbeat CPU 3 instructions: 760000000 cycles: 1159685728 heartbeat IPC: 1.13017 cumulative IPC: 0.616943 (Simulation time: 4 hr 2 min 12 sec) 
Heartbeat CPU 0 instructions: 800000000 cycles: 1163319467 heartbeat IPC: 1.2025 cumulative IPC: 0.650037 (Simulation time: 4 hr 3 min 9 sec) 
Heartbeat CPU 1 instructions: 400000002 cycles: 1166123647 heartbeat IPC: 0.297901 cumulative IPC: 0.306016 (Simulation time: 4 hr 3 min 53 sec) 
Heartbeat CPU 3 instructions: 770000000 cycles: 1168428331 heartbeat IPC: 1.14382 cumulative IPC: 0.620962 (Simulation time: 4 hr 4 min 33 sec) 
Heartbeat CPU 0 instructions: 810000000 cycles: 1171713881 heartbeat IPC: 1.19127 cumulative IPC: 0.65399 (Simulation time: 4 hr 5 min 28 sec) 
Heartbeat CPU 3 instructions: 780000001 cycles: 1177135702 heartbeat IPC: 1.14845 cumulative IPC: 0.62494 (Simulation time: 4 hr 6 min 52 sec) 
Heartbeat CPU 0 instructions: 820000001 cycles: 1179991317 heartbeat IPC: 1.2081 cumulative IPC: 0.657952 (Simulation time: 4 hr 7 min 32 sec) 
Heartbeat CPU 3 instructions: 790000001 cycles: 1185875066 heartbeat IPC: 1.14425 cumulative IPC: 0.628841 (Simulation time: 4 hr 9 min 6 sec) 
Heartbeat CPU 0 instructions: 830000001 cycles: 1188303824 heartbeat IPC: 1.20301 cumulative IPC: 0.661838 (Simulation time: 4 hr 9 min 42 sec) 
Heartbeat CPU 1 instructions: 410000003 cycles: 1192211595 heartbeat IPC: 0.383319 cumulative IPC: 0.30774 (Simulation time: 4 hr 10 min 44 sec) 
Heartbeat CPU 3 instructions: 800000000 cycles: 1194588518 heartbeat IPC: 1.14765 cumulative IPC: 0.632697 (Simulation time: 4 hr 11 min 23 sec) 
Heartbeat CPU 0 instructions: 840000001 cycles: 1196576798 heartbeat IPC: 1.20876 cumulative IPC: 0.665692 (Simulation time: 4 hr 11 min 58 sec) 
Heartbeat CPU 3 instructions: 810000000 cycles: 1203397234 heartbeat IPC: 1.13524 cumulative IPC: 0.636445 (Simulation time: 4 hr 13 min 42 sec) 
Heartbeat CPU 0 instructions: 850000000 cycles: 1204859696 heartbeat IPC: 1.20731 cumulative IPC: 0.669485 (Simulation time: 4 hr 14 min 8 sec) 
Heartbeat CPU 3 instructions: 820000001 cycles: 1212116539 heartbeat IPC: 1.14688 cumulative IPC: 0.640186 (Simulation time: 4 hr 16 min 2 sec) 
Heartbeat CPU 0 instructions: 860000001 cycles: 1213297714 heartbeat IPC: 1.18511 cumulative IPC: 0.673139 (Simulation time: 4 hr 16 min 23 sec) 
Heartbeat CPU 1 instructions: 420000001 cycles: 1218419956 heartbeat IPC: 0.381558 cumulative IPC: 0.309357 (Simulation time: 4 hr 17 min 50 sec) 
Heartbeat CPU 3 instructions: 830000001 cycles: 1220873111 heartbeat IPC: 1.142 cumulative IPC: 0.643853 (Simulation time: 4 hr 18 min 31 sec) 
Heartbeat CPU 0 instructions: 870000001 cycles: 1221561739 heartbeat IPC: 1.21006 cumulative IPC: 0.676839 (Simulation time: 4 hr 18 min 41 sec) 
Heartbeat CPU 3 instructions: 840000000 cycles: 1229617483 heartbeat IPC: 1.14359 cumulative IPC: 0.647473 (Simulation time: 4 hr 20 min 41 sec) 
Heartbeat CPU 0 instructions: 880000000 cycles: 1229805603 heartbeat IPC: 1.21302 cumulative IPC: 0.6805 (Simulation time: 4 hr 20 min 44 sec) 
Heartbeat CPU 3 instructions: 850000000 cycles: 1238339172 heartbeat IPC: 1.14657 cumulative IPC: 0.651052 (Simulation time: 4 hr 23 min 10 sec) 
Heartbeat CPU 0 instructions: 890000000 cycles: 1238370966 heartbeat IPC: 1.16749 cumulative IPC: 0.68393 (Simulation time: 4 hr 23 min 11 sec) 
Heartbeat CPU 1 instructions: 430000001 cycles: 1244393807 heartbeat IPC: 0.385003 cumulative IPC: 0.310965 (Simulation time: 4 hr 24 min 49 sec) 
Heartbeat CPU 0 instructions: 900000001 cycles: 1246898815 heartbeat IPC: 1.17263 cumulative IPC: 0.687334 (Simulation time: 4 hr 25 min 29 sec) 
Heartbeat CPU 3 instructions: 860000000 cycles: 1247088681 heartbeat IPC: 1.14292 cumulative IPC: 0.654566 (Simulation time: 4 hr 25 min 32 sec) 
Heartbeat CPU 0 instructions: 910000001 cycles: 1255119198 heartbeat IPC: 1.21649 cumulative IPC: 0.690862 (Simulation time: 4 hr 27 min 44 sec) 
Heartbeat CPU 3 instructions: 870000001 cycles: 1255823282 heartbeat IPC: 1.14487 cumulative IPC: 0.658039 (Simulation time: 4 hr 27 min 56 sec) 
Heartbeat CPU 0 instructions: 920000002 cycles: 1263354132 heartbeat IPC: 1.21434 cumulative IPC: 0.694336 (Simulation time: 4 hr 30 min 3 sec) 
Heartbeat CPU 3 instructions: 880000000 cycles: 1264528765 heartbeat IPC: 1.1487 cumulative IPC: 0.661477 (Simulation time: 4 hr 30 min 20 sec) 
Heartbeat CPU 1 instructions: 440000000 cycles: 1270370240 heartbeat IPC: 0.384964 cumulative IPC: 0.312506 (Simulation time: 4 hr 31 min 58 sec) 
Heartbeat CPU 0 instructions: 930000001 cycles: 1271572488 heartbeat IPC: 1.21679 cumulative IPC: 0.697773 (Simulation time: 4 hr 32 min 18 sec) 
Heartbeat CPU 3 instructions: 890000000 cycles: 1273220930 heartbeat IPC: 1.15046 cumulative IPC: 0.664875 (Simulation time: 4 hr 32 min 45 sec) 
Heartbeat CPU 0 instructions: 940000000 cycles: 1279781742 heartbeat IPC: 1.21814 cumulative IPC: 0.701171 (Simulation time: 4 hr 34 min 34 sec) 
Heartbeat CPU 3 instructions: 900000001 cycles: 1281919980 heartbeat IPC: 1.14955 cumulative IPC: 0.668223 (Simulation time: 4 hr 35 min 11 sec) 
Heartbeat CPU 0 instructions: 950000001 cycles: 1288188471 heartbeat IPC: 1.18952 cumulative IPC: 0.704414 (Simulation time: 4 hr 36 min 54 sec) 
Heartbeat CPU 3 instructions: 910000001 cycles: 1290579136 heartbeat IPC: 1.15485 cumulative IPC: 0.671546 (Simulation time: 4 hr 37 min 34 sec) 
Heartbeat CPU 1 instructions: 450000003 cycles: 1296232726 heartbeat IPC: 0.386661 cumulative IPC: 0.314011 (Simulation time: 4 hr 39 min 8 sec) 
Heartbeat CPU 0 instructions: 960000003 cycles: 1296995895 heartbeat IPC: 1.13541 cumulative IPC: 0.707392 (Simulation time: 4 hr 39 min 17 sec) 
Heartbeat CPU 3 instructions: 920000000 cycles: 1299483085 heartbeat IPC: 1.1231 cumulative IPC: 0.674694 (Simulation time: 4 hr 39 min 42 sec) 
Heartbeat CPU 3 instructions: 930000000 cycles: 1308826448 heartbeat IPC: 1.07028 cumulative IPC: 0.677567 (Simulation time: 4 hr 41 min 27 sec) 
Heartbeat CPU 3 instructions: 940000001 cycles: 1318256077 heartbeat IPC: 1.06049 cumulative IPC: 0.680353 (Simulation time: 4 hr 43 min 9 sec) 
Heartbeat CPU 3 instructions: 950000000 cycles: 1327645487 heartbeat IPC: 1.06503 cumulative IPC: 0.68312 (Simulation time: 4 hr 44 min 55 sec) 
Heartbeat CPU 1 instructions: 460000001 cycles: 1335981085 heartbeat IPC: 0.251583 cumulative IPC: 0.312122 (Simulation time: 4 hr 46 min 27 sec) 
Heartbeat CPU 3 instructions: 960000002 cycles: 1337970455 heartbeat IPC: 0.968526 cumulative IPC: 0.68536 (Simulation time: 4 hr 46 min 46 sec) 
Heartbeat CPU 0 instructions: 970000003 cycles: 1341094559 heartbeat IPC: 0.226764 cumulative IPC: 0.69132 (Simulation time: 4 hr 47 min 8 sec) 
Heartbeat CPU 1 instructions: 470000002 cycles: 1385967600 heartbeat IPC: 0.200054 cumulative IPC: 0.308014 (Simulation time: 4 hr 52 min 27 sec) 
Heartbeat CPU 3 instructions: 970000002 cycles: 1393489946 heartbeat IPC: 0.180117 cumulative IPC: 0.664902 (Simulation time: 4 hr 53 min 20 sec) 
Heartbeat CPU 0 instructions: 980000003 cycles: 1395988396 heartbeat IPC: 0.18217 cumulative IPC: 0.670972 (Simulation time: 4 hr 53 min 40 sec) 
Heartbeat CPU 1 instructions: 480000000 cycles: 1436310002 heartbeat IPC: 0.19864 cumulative IPC: 0.30412 (Simulation time: 4 hr 58 min 49 sec) 
Heartbeat CPU 3 instructions: 980000002 cycles: 1449259832 heartbeat IPC: 0.179308 cumulative IPC: 0.645922 (Simulation time: 5 hr 0 min 28 sec) 
Heartbeat CPU 0 instructions: 990000000 cycles: 1450513788 heartbeat IPC: 0.183401 cumulative IPC: 0.652357 (Simulation time: 5 hr 0 min 37 sec) 
Heartbeat CPU 1 instructions: 490000000 cycles: 1486820411 heartbeat IPC: 0.197979 cumulative IPC: 0.300459 (Simulation time: 5 hr 5 min 12 sec) 
Heartbeat CPU 2 instructions: 100000000 cycles: 1495985552 heartbeat IPC: 0.027443 cumulative IPC: 0.0281069 (Simulation time: 5 hr 6 min 18 sec) 
Heartbeat CPU 3 instructions: 990000000 cycles: 1504923331 heartbeat IPC: 0.179651 cumulative IPC: 0.628415 (Simulation time: 5 hr 7 min 19 sec) 
*** Reached end of trace for Core: 0 Repeating trace: ./traces/ligra/ligra_Triangle.com-lj.ungraph.gcc_6.3.0_O3.drop_6000M.length_250M.champsimtrace.xz
Heartbeat CPU 0 instructions: 1000000003 cycles: 1505268647 heartbeat IPC: 0.182632 cumulative IPC: 0.635012 (Simulation time: 5 hr 7 min 21 sec) 
Heartbeat CPU 0 instructions: 1010000000 cycles: 1514603077 heartbeat IPC: 1.0713 cumulative IPC: 0.637741 (Simulation time: 5 hr 9 min 21 sec) 
Heartbeat CPU 0 instructions: 1020000002 cycles: 1523948193 heartbeat IPC: 1.07008 cumulative IPC: 0.640432 (Simulation time: 5 hr 11 min 22 sec) 
Heartbeat CPU 1 instructions: 500000002 cycles: 1530649144 heartbeat IPC: 0.228161 cumulative IPC: 0.298358 (Simulation time: 5 hr 12 min 52 sec) 
Heartbeat CPU 0 instructions: 1030000001 cycles: 1533206718 heartbeat IPC: 1.08009 cumulative IPC: 0.643126 (Simulation time: 5 hr 13 min 25 sec) 
Heartbeat CPU 0 instructions: 1040000002 cycles: 1542527141 heartbeat IPC: 1.07291 cumulative IPC: 0.645762 (Simulation time: 5 hr 15 min 25 sec) 
*** Reached end of trace for Core: 3 Repeating trace: ./traces/ligra/ligra_PageRankDelta.com-lj.ungraph.gcc_6.3.0_O3.drop_6000M.length_250M.champsimtrace.xz
Heartbeat CPU 3 instructions: 1000000000 cycles: 1549401228 heartbeat IPC: 0.224831 cumulative IPC: 0.61666 (Simulation time: 5 hr 16 min 51 sec) 
Heartbeat CPU 0 instructions: 1050000000 cycles: 1551564774 heartbeat IPC: 1.10648 cumulative IPC: 0.648485 (Simulation time: 5 hr 17 min 31 sec) 
Heartbeat CPU 3 instructions: 1010000002 cycles: 1558257988 heartbeat IPC: 1.12908 cumulative IPC: 0.619615 (Simulation time: 5 hr 19 min 31 sec) 
Heartbeat CPU 0 instructions: 1060000000 cycles: 1560045053 heartbeat IPC: 1.17921 cumulative IPC: 0.651412 (Simulation time: 5 hr 20 min 4 sec) 
Heartbeat CPU 1 instructions: 510000003 cycles: 1561958447 heartbeat IPC: 0.319394 cumulative IPC: 0.298786 (Simulation time: 5 hr 20 min 32 sec) 
Heartbeat CPU 3 instructions: 1020000002 cycles: 1567011202 heartbeat IPC: 1.14244 cumulative IPC: 0.622578 (Simulation time: 5 hr 22 min 3 sec) 
Heartbeat CPU 0 instructions: 1070000001 cycles: 1568527534 heartbeat IPC: 1.1789 cumulative IPC: 0.654305 (Simulation time: 5 hr 22 min 33 sec) 
Heartbeat CPU 3 instructions: 1030000000 cycles: 1575730688 heartbeat IPC: 1.14686 cumulative IPC: 0.625521 (Simulation time: 5 hr 24 min 46 sec) 
Heartbeat CPU 0 instructions: 1080000002 cycles: 1576774844 heartbeat IPC: 1.21252 cumulative IPC: 0.657267 (Simulation time: 5 hr 25 min 5 sec) 
Heartbeat CPU 1 instructions: 520000003 cycles: 1583773288 heartbeat IPC: 0.458404 cumulative IPC: 0.301016 (Simulation time: 5 hr 27 min 8 sec) 
Heartbeat CPU 3 instructions: 1040000002 cycles: 1584472558 heartbeat IPC: 1.14392 cumulative IPC: 0.628422 (Simulation time: 5 hr 27 min 22 sec) 
Heartbeat CPU 0 instructions: 1090000000 cycles: 1585011940 heartbeat IPC: 1.21402 cumulative IPC: 0.660202 (Simulation time: 5 hr 27 min 32 sec) 
Heartbeat CPU 3 instructions: 1050000000 cycles: 1593173048 heartbeat IPC: 1.14936 cumulative IPC: 0.631307 (Simulation time: 5 hr 30 min 4 sec) 
Heartbeat CPU 0 instructions: 1100000000 cycles: 1593507457 heartbeat IPC: 1.17709 cumulative IPC: 0.662997 (Simulation time: 5 hr 30 min 10 sec) 
Heartbeat CPU 3 instructions: 1060000002 cycles: 1601922801 heartbeat IPC: 1.14289 cumulative IPC: 0.634141 (Simulation time: 5 hr 32 min 37 sec) 
Heartbeat CPU 0 instructions: 1110000001 cycles: 1602016900 heartbeat IPC: 1.17517 cumulative IPC: 0.665756 (Simulation time: 5 hr 32 min 39 sec) 
Heartbeat CPU 1 instructions: 530000001 cycles: 1605696944 heartbeat IPC: 0.456128 cumulative IPC: 0.303163 (Simulation time: 5 hr 33 min 41 sec) 
Heartbeat CPU 0 instructions: 1120000001 cycles: 1610249562 heartbeat IPC: 1.21467 cumulative IPC: 0.668602 (Simulation time: 5 hr 35 min 0 sec) 
Heartbeat CPU 3 instructions: 1070000000 cycles: 1610655939 heartbeat IPC: 1.14506 cumulative IPC: 0.63695 (Simulation time: 5 hr 35 min 6 sec) 
Heartbeat CPU 0 instructions: 1130000000 cycles: 1618408046 heartbeat IPC: 1.22572 cumulative IPC: 0.67145 (Simulation time: 5 hr 37 min 18 sec) 
Heartbeat CPU 3 instructions: 1080000000 cycles: 1619264003 heartbeat IPC: 1.1617 cumulative IPC: 0.639779 (Simulation time: 5 hr 37 min 31 sec) 
Heartbeat CPU 1 instructions: 540000001 cycles: 1623604555 heartbeat IPC: 0.558422 cumulative IPC: 0.306018 (Simulation time: 5 hr 38 min 46 sec) 
Heartbeat CPU 0 instructions: 1140000000 cycles: 1626562273 heartbeat IPC: 1.22636 cumulative IPC: 0.674271 (Simulation time: 5 hr 39 min 39 sec) 
Heartbeat CPU 3 instructions: 1090000001 cycles: 1627888496 heartbeat IPC: 1.15949 cumulative IPC: 0.642571 (Simulation time: 5 hr 39 min 59 sec) 
Heartbeat CPU 0 instructions: 1150000001 cycles: 1634604250 heartbeat IPC: 1.24348 cumulative IPC: 0.67711 (Simulation time: 5 hr 42 min 19 sec) 
Heartbeat CPU 3 instructions: 1100000000 cycles: 1636488551 heartbeat IPC: 1.16278 cumulative IPC: 0.645343 (Simulation time: 5 hr 42 min 52 sec) 
Heartbeat CPU 1 instructions: 550000000 cycles: 1640209999 heartbeat IPC: 0.602212 cumulative IPC: 0.309058 (Simulation time: 5 hr 44 min 6 sec) 
Heartbeat CPU 0 instructions: 1160000001 cycles: 1643050023 heartbeat IPC: 1.18402 cumulative IPC: 0.679752 (Simulation time: 5 hr 45 min 3 sec) 
Heartbeat CPU 3 instructions: 1110000000 cycles: 1645084106 heartbeat IPC: 1.16339 cumulative IPC: 0.648087 (Simulation time: 5 hr 45 min 44 sec) 
Heartbeat CPU 0 instructions: 1170000000 cycles: 1651612954 heartbeat IPC: 1.16782 cumulative IPC: 0.682317 (Simulation time: 5 hr 47 min 28 sec) 
Heartbeat CPU 3 instructions: 1120000000 cycles: 1653717089 heartbeat IPC: 1.15835 cumulative IPC: 0.650787 (Simulation time: 5 hr 48 min 6 sec) 
Heartbeat CPU 1 instructions: 560000003 cycles: 1657272359 heartbeat IPC: 0.586086 cumulative IPC: 0.31195 (Simulation time: 5 hr 49 min 16 sec) 
Heartbeat CPU 0 instructions: 1180000000 cycles: 1659703956 heartbeat IPC: 1.23594 cumulative IPC: 0.685053 (Simulation time: 5 hr 50 min 1 sec) 
Heartbeat CPU 3 instructions: 1130000001 cycles: 1662337708 heartbeat IPC: 1.16001 cumulative IPC: 0.653464 (Simulation time: 5 hr 50 min 53 sec) 
Heartbeat CPU 0 instructions: 1190000000 cycles: 1667763764 heartbeat IPC: 1.24072 cumulative IPC: 0.687775 (Simulation time: 5 hr 52 min 44 sec) 
Heartbeat CPU 3 instructions: 1140000001 cycles: 1670932225 heartbeat IPC: 1.16353 cumulative IPC: 0.656123 (Simulation time: 5 hr 53 min 46 sec) 
Heartbeat CPU 1 instructions: 570000003 cycles: 1674266745 heartbeat IPC: 0.58843 cumulative IPC: 0.314794 (Simulation time: 5 hr 54 min 52 sec) 
Heartbeat CPU 0 instructions: 1200000001 cycles: 1675940779 heartbeat IPC: 1.22294 cumulative IPC: 0.690421 (Simulation time: 5 hr 55 min 25 sec) 
Heartbeat CPU 3 instructions: 1150000000 cycles: 1679537648 heartbeat IPC: 1.16206 cumulative IPC: 0.65875 (Simulation time: 5 hr 56 min 34 sec) 
Heartbeat CPU 0 instructions: 1210000000 cycles: 1684590847 heartbeat IPC: 1.15606 cumulative IPC: 0.692844 (Simulation time: 5 hr 58 min 6 sec) 
Heartbeat CPU 3 instructions: 1160000000 cycles: 1688450741 heartbeat IPC: 1.12195 cumulative IPC: 0.661228 (Simulation time: 5 hr 59 min 1 sec) 
Heartbeat CPU 1 instructions: 580000003 cycles: 1693546278 heartbeat IPC: 0.518685 cumulative IPC: 0.317146 (Simulation time: 6 hr 0 min 11 sec) 
Heartbeat CPU 3 instructions: 1170000001 cycles: 1697756778 heartbeat IPC: 1.07457 cumulative IPC: 0.663524 (Simulation time: 6 hr 1 min 8 sec) 
Heartbeat CPU 3 instructions: 1180000001 cycles: 1707139557 heartbeat IPC: 1.06578 cumulative IPC: 0.665765 (Simulation time: 6 hr 3 min 19 sec) 
Heartbeat CPU 1 instructions: 590000000 cycles: 1715943367 heartbeat IPC: 0.446486 cumulative IPC: 0.318857 (Simulation time: 6 hr 5 min 14 sec) 
Heartbeat CPU 3 instructions: 1190000000 cycles: 1716547390 heartbeat IPC: 1.06294 cumulative IPC: 0.66797 (Simulation time: 6 hr 5 min 23 sec) 
Heartbeat CPU 3 instructions: 1200000000 cycles: 1726055327 heartbeat IPC: 1.05175 cumulative IPC: 0.670112 (Simulation time: 6 hr 7 min 20 sec) 
Heartbeat CPU 0 instructions: 1220000002 cycles: 1726597611 heartbeat IPC: 0.238057 cumulative IPC: 0.681634 (Simulation time: 6 hr 7 min 27 sec) 
Heartbeat CPU 3 instructions: 1210000000 cycles: 1736366499 heartbeat IPC: 0.969822 cumulative IPC: 0.671915 (Simulation time: 6 hr 9 min 27 sec) 
Heartbeat CPU 1 instructions: 600000003 cycles: 1738826376 heartbeat IPC: 0.437006 cumulative IPC: 0.320432 (Simulation time: 6 hr 9 min 50 sec) 
Heartbeat CPU 1 instructions: 610000003 cycles: 1765025686 heartbeat IPC: 0.381689 cumulative IPC: 0.321353 (Simulation time: 6 hr 13 min 43 sec) 
Heartbeat CPU 0 instructions: 1230000003 cycles: 1778276455 heartbeat IPC: 0.193503 cumulative IPC: 0.667268 (Simulation time: 6 hr 15 min 43 sec) 
Heartbeat CPU 1 instructions: 620000000 cycles: 1791223605 heartbeat IPC: 0.38171 cumulative IPC: 0.322247 (Simulation time: 6 hr 17 min 43 sec) 
Heartbeat CPU 3 instructions: 1220000003 cycles: 1791576304 heartbeat IPC: 0.181127 cumulative IPC: 0.656599 (Simulation time: 6 hr 17 min 45 sec) 
Heartbeat CPU 1 instructions: 630000001 cycles: 1817541439 heartbeat IPC: 0.379971 cumulative IPC: 0.323093 (Simulation time: 6 hr 21 min 11 sec) 
Heartbeat CPU 0 instructions: 1240000002 cycles: 1832646060 heartbeat IPC: 0.183926 cumulative IPC: 0.652751 (Simulation time: 6 hr 23 min 28 sec) 
Heartbeat CPU 2 instructions: 110000000 cycles: 1840913286 heartbeat IPC: 0.0289916 cumulative IPC: 0.0282747 (Simulation time: 6 hr 24 min 42 sec) 
Heartbeat CPU 1 instructions: 640000001 cycles: 1843685618 heartbeat IPC: 0.382494 cumulative IPC: 0.323946 (Simulation time: 6 hr 25 min 2 sec) 
Heartbeat CPU 3 instructions: 1230000000 cycles: 1847091020 heartbeat IPC: 0.180132 cumulative IPC: 0.642103 (Simulation time: 6 hr 25 min 27 sec) 
Heartbeat CPU 1 instructions: 650000000 cycles: 1869758160 heartbeat IPC: 0.383545 cumulative IPC: 0.324787 (Simulation time: 6 hr 28 min 31 sec) 
*** Reached end of trace for Core: 0 Repeating trace: ./traces/ligra/ligra_Triangle.com-lj.ungraph.gcc_6.3.0_O3.drop_6000M.length_250M.champsimtrace.xz
Heartbeat CPU 0 instructions: 1250000002 cycles: 1887166145 heartbeat IPC: 0.183419 cumulative IPC: 0.639029 (Simulation time: 6 hr 31 min 6 sec) 
Heartbeat CPU 1 instructions: 660000000 cycles: 1894561922 heartbeat IPC: 0.403165 cumulative IPC: 0.325825 (Simulation time: 6 hr 32 min 55 sec) 
Heartbeat CPU 0 instructions: 1260000001 cycles: 1896382742 heartbeat IPC: 1.085 cumulative IPC: 0.641222 (Simulation time: 6 hr 33 min 23 sec) 
Heartbeat CPU 3 instructions: 1240000002 cycles: 1899089503 heartbeat IPC: 0.192313 cumulative IPC: 0.629641 (Simulation time: 6 hr 34 min 5 sec) 
Heartbeat CPU 0 instructions: 1270000001 cycles: 1905707126 heartbeat IPC: 1.07246 cumulative IPC: 0.643358 (Simulation time: 6 hr 35 min 45 sec) 
Heartbeat CPU 0 instructions: 1280000001 cycles: 1914973884 heartbeat IPC: 1.07913 cumulative IPC: 0.645491 (Simulation time: 6 hr 38 min 5 sec) 
Heartbeat CPU 1 instructions: 670000000 cycles: 1915258203 heartbeat IPC: 0.483179 cumulative IPC: 0.327546 (Simulation time: 6 hr 38 min 10 sec) 
Heartbeat CPU 0 instructions: 1290000000 cycles: 1924173985 heartbeat IPC: 1.08694 cumulative IPC: 0.647627 (Simulation time: 6 hr 40 min 28 sec) 
Heartbeat CPU 0 instructions: 1300000001 cycles: 1933571135 heartbeat IPC: 1.06415 cumulative IPC: 0.649675 (Simulation time: 6 hr 42 min 24 sec) 
*** Reached end of trace for Core: 3 Repeating trace: ./traces/ligra/ligra_PageRankDelta.com-lj.ungraph.gcc_6.3.0_O3.drop_6000M.length_250M.champsimtrace.xz
Heartbeat CPU 3 instructions: 1250000002 cycles: 1942605418 heartbeat IPC: 0.229801 cumulative IPC: 0.62058 (Simulation time: 6 hr 44 min 7 sec) 
Heartbeat CPU 0 instructions: 1310000001 cycles: 1943336599 heartbeat IPC: 1.02402 cumulative IPC: 0.651578 (Simulation time: 6 hr 44 min 19 sec) 
Heartbeat CPU 3 instructions: 1260000001 cycles: 1951514926 heartbeat IPC: 1.1224 cumulative IPC: 0.622897 (Simulation time: 6 hr 46 min 22 sec) 
Heartbeat CPU 0 instructions: 1320000000 cycles: 1952158558 heartbeat IPC: 1.13353 cumulative IPC: 0.653781 (Simulation time: 6 hr 46 min 32 sec) 
Heartbeat CPU 3 instructions: 1270000001 cycles: 1960297286 heartbeat IPC: 1.13865 cumulative IPC: 0.625235 (Simulation time: 6 hr 48 min 39 sec) 
Heartbeat CPU 0 instructions: 1330000000 cycles: 1960564539 heartbeat IPC: 1.18963 cumulative IPC: 0.656105 (Simulation time: 6 hr 48 min 43 sec) 
Heartbeat CPU 1 instructions: 680000000 cycles: 1967757603 heartbeat IPC: 0.190478 cumulative IPC: 0.323847 (Simulation time: 6 hr 50 min 37 sec) 
Heartbeat CPU 0 instructions: 1340000001 cycles: 1968794075 heartbeat IPC: 1.21514 cumulative IPC: 0.658469 (Simulation time: 6 hr 50 min 57 sec) 
Heartbeat CPU 3 instructions: 1280000002 cycles: 1969014310 heartbeat IPC: 1.14718 cumulative IPC: 0.627572 (Simulation time: 6 hr 51 min 0 sec) 
Heartbeat CPU 0 instructions: 1350000001 cycles: 1977056108 heartbeat IPC: 1.21036 cumulative IPC: 0.660801 (Simulation time: 6 hr 53 min 39 sec) 
Heartbeat CPU 3 instructions: 1290000000 cycles: 1977614302 heartbeat IPC: 1.16279 cumulative IPC: 0.629926 (Simulation time: 6 hr 53 min 49 sec) 
Heartbeat CPU 1 instructions: 690000001 cycles: 1983718424 heartbeat IPC: 0.626534 cumulative IPC: 0.32631 (Simulation time: 6 hr 55 min 44 sec) 
Heartbeat CPU 0 instructions: 1360000002 cycles: 1985643018 heartbeat IPC: 1.16456 cumulative IPC: 0.663005 (Simulation time: 6 hr 56 min 20 sec) 
Heartbeat CPU 3 instructions: 1300000002 cycles: 1986193357 heartbeat IPC: 1.16563 cumulative IPC: 0.632266 (Simulation time: 6 hr 56 min 29 sec) 
Heartbeat CPU 0 instructions: 1370000001 cycles: 1994102662 heartbeat IPC: 1.18208 cumulative IPC: 0.665232 (Simulation time: 6 hr 58 min 54 sec) 
Heartbeat CPU 3 instructions: 1310000001 cycles: 1994830087 heartbeat IPC: 1.15785 cumulative IPC: 0.634568 (Simulation time: 6 hr 59 min 9 sec) 
Heartbeat CPU 1 instructions: 700000000 cycles: 2000311635 heartbeat IPC: 0.602656 cumulative IPC: 0.328628 (Simulation time: 7 hr 0 min 53 sec) 
Heartbeat CPU 0 instructions: 1380000000 cycles: 2002234635 heartbeat IPC: 1.22971 cumulative IPC: 0.667551 (Simulation time: 7 hr 1 min 27 sec) 
Heartbeat CPU 3 instructions: 1320000000 cycles: 2003461574 heartbeat IPC: 1.15855 cumulative IPC: 0.636851 (Simulation time: 7 hr 1 min 52 sec) 
Heartbeat CPU 0 instructions: 1390000001 cycles: 2010367920 heartbeat IPC: 1.22952 cumulative IPC: 0.66985 (Simulation time: 7 hr 4 min 7 sec) 
Heartbeat CPU 3 instructions: 1330000002 cycles: 2012116274 heartbeat IPC: 1.15544 cumulative IPC: 0.639106 (Simulation time: 7 hr 4 min 42 sec) 
Heartbeat CPU 1 instructions: 710000001 cycles: 2017172692 heartbeat IPC: 0.593083 cumulative IPC: 0.330864 (Simulation time: 7 hr 6 min 24 sec) 
Heartbeat CPU 0 instructions: 1400000002 cycles: 2018967136 heartbeat IPC: 1.1629 cumulative IPC: 0.671973 (Simulation time: 7 hr 6 min 59 sec) 
Heartbeat CPU 3 instructions: 1340000000 cycles: 2020707027 heartbeat IPC: 1.16404 cumulative IPC: 0.641363 (Simulation time: 7 hr 7 min 31 sec) 
Heartbeat CPU 0 instructions: 1410000002 cycles: 2027132132 heartbeat IPC: 1.22474 cumulative IPC: 0.674224 (Simulation time: 7 hr 9 min 27 sec) 
Heartbeat CPU 3 instructions: 1350000001 cycles: 2029335342 heartbeat IPC: 1.15898 cumulative IPC: 0.643588 (Simulation time: 7 hr 10 min 5 sec) 
Heartbeat CPU 1 instructions: 720000001 cycles: 2033974917 heartbeat IPC: 0.595159 cumulative IPC: 0.333071 (Simulation time: 7 hr 11 min 31 sec) 
Heartbeat CPU 0 instructions: 1420000000 cycles: 2035214738 heartbeat IPC: 1.23722 cumulative IPC: 0.676485 (Simulation time: 7 hr 11 min 52 sec) 
Heartbeat CPU 3 instructions: 1360000002 cycles: 2037990538 heartbeat IPC: 1.15538 cumulative IPC: 0.645786 (Simulation time: 7 hr 12 min 39 sec) 
Heartbeat CPU 0 instructions: 1430000000 cycles: 2043300857 heartbeat IPC: 1.23669 cumulative IPC: 0.678727 (Simulation time: 7 hr 14 min 13 sec) 
Heartbeat CPU 3 instructions: 1370000002 cycles: 2046630415 heartbeat IPC: 1.15742 cumulative IPC: 0.64797 (Simulation time: 7 hr 15 min 13 sec) 
Heartbeat CPU 1 instructions: 730000000 cycles: 2050917815 heartbeat IPC: 0.590218 cumulative IPC: 0.335219 (Simulation time: 7 hr 16 min 33 sec) 
Heartbeat CPU 0 instructions: 1440000003 cycles: 2051392091 heartbeat IPC: 1.23591 cumulative IPC: 0.680949 (Simulation time: 7 hr 16 min 42 sec) 
Heartbeat CPU 3 instructions: 1380000000 cycles: 2055260293 heartbeat IPC: 1.15876 cumulative IPC: 0.650138 (Simulation time: 7 hr 17 min 54 sec) 
Heartbeat CPU 0 instructions: 1450000002 cycles: 2059733458 heartbeat IPC: 1.19884 cumulative IPC: 0.683069 (Simulation time: 7 hr 19 min 16 sec) 
Heartbeat CPU 3 instructions: 1390000002 cycles: 2063830184 heartbeat IPC: 1.16688 cumulative IPC: 0.652307 (Simulation time: 7 hr 20 min 34 sec) 
Heartbeat CPU 1 instructions: 740000001 cycles: 2067628058 heartbeat IPC: 0.598435 cumulative IPC: 0.337369 (Simulation time: 7 hr 21 min 46 sec) 
Heartbeat CPU 0 instructions: 1460000002 cycles: 2068837548 heartbeat IPC: 1.09841 cumulative IPC: 0.684917 (Simulation time: 7 hr 22 min 6 sec) 
Heartbeat CPU 3 instructions: 1400000001 cycles: 2072763022 heartbeat IPC: 1.11946 cumulative IPC: 0.654343 (Simulation time: 7 hr 22 min 58 sec) 
Heartbeat CPU 3 instructions: 1410000002 cycles: 2082083039 heartbeat IPC: 1.07296 cumulative IPC: 0.656237 (Simulation time: 7 hr 24 min 59 sec) 
Heartbeat CPU 1 instructions: 750000000 cycles: 2089378350 heartbeat IPC: 0.459764 cumulative IPC: 0.338657 (Simulation time: 7 hr 26 min 34 sec) 
Heartbeat CPU 3 instructions: 1420000000 cycles: 2091462159 heartbeat IPC: 1.0662 cumulative IPC: 0.658095 (Simulation time: 7 hr 27 min 2 sec) 
Heartbeat CPU 3 instructions: 1430000000 cycles: 2100849741 heartbeat IPC: 1.06524 cumulative IPC: 0.659934 (Simulation time: 7 hr 28 min 58 sec) 
Heartbeat CPU 3 instructions: 1440000001 cycles: 2110235600 heartbeat IPC: 1.06543 cumulative IPC: 0.661757 (Simulation time: 7 hr 30 min 55 sec) 
Heartbeat CPU 0 instructions: 1470000003 cycles: 2110641531 heartbeat IPC: 0.239212 cumulative IPC: 0.675994 (Simulation time: 7 hr 31 min 0 sec) 
Heartbeat CPU 1 instructions: 760000002 cycles: 2111511981 heartbeat IPC: 0.451801 cumulative IPC: 0.339856 (Simulation time: 7 hr 31 min 10 sec) 
Heartbeat CPU 3 instructions: 1450000002 cycles: 2119612285 heartbeat IPC: 1.06648 cumulative IPC: 0.663567 (Simulation time: 7 hr 32 min 54 sec) 
Heartbeat CPU 3 instructions: 1460000002 cycles: 2129881204 heartbeat IPC: 0.973812 cumulative IPC: 0.665078 (Simulation time: 7 hr 35 min 3 sec) 
Heartbeat CPU 1 instructions: 770000000 cycles: 2134290925 heartbeat IPC: 0.439002 cumulative IPC: 0.340926 (Simulation time: 7 hr 35 min 39 sec) 
Heartbeat CPU 0 instructions: 1480000000 cycles: 2159651249 heartbeat IPC: 0.204041 cumulative IPC: 0.665172 (Simulation time: 7 hr 39 min 11 sec) 
Heartbeat CPU 1 instructions: 780000000 cycles: 2160387731 heartbeat IPC: 0.383189 cumulative IPC: 0.341441 (Simulation time: 7 hr 39 min 16 sec) 
Heartbeat CPU 2 instructions: 120000001 cycles: 2176827594 heartbeat IPC: 0.0297695 cumulative IPC: 0.0285078 (Simulation time: 7 hr 41 min 38 sec) 
Heartbeat CPU 3 instructions: 1470000002 cycles: 2184873769 heartbeat IPC: 0.181843 cumulative IPC: 0.652789 (Simulation time: 7 hr 42 min 40 sec) 
Heartbeat CPU 1 instructions: 790000003 cycles: 2186168698 heartbeat IPC: 0.387883 cumulative IPC: 0.341995 (Simulation time: 7 hr 42 min 50 sec) 
Heartbeat CPU 1 instructions: 800000001 cycles: 2212160797 heartbeat IPC: 0.384732 cumulative IPC: 0.342502 (Simulation time: 7 hr 46 min 25 sec) 
Heartbeat CPU 0 instructions: 1490000001 cycles: 2213917690 heartbeat IPC: 0.184276 cumulative IPC: 0.653264 (Simulation time: 7 hr 46 min 40 sec) 
Heartbeat CPU 1 instructions: 810000003 cycles: 2237145026 heartbeat IPC: 0.400253 cumulative IPC: 0.343153 (Simulation time: 7 hr 50 min 1 sec) 
Heartbeat CPU 3 instructions: 1480000002 cycles: 2240110054 heartbeat IPC: 0.18104 cumulative IPC: 0.64104 (Simulation time: 7 hr 50 min 30 sec) 
Heartbeat CPU 1 instructions: 820000003 cycles: 2260444592 heartbeat IPC: 0.429193 cumulative IPC: 0.344049 (Simulation time: 7 hr 53 min 34 sec) 
*** Reached end of trace for Core: 0 Repeating trace: ./traces/ligra/ligra_Triangle.com-lj.ungraph.gcc_6.3.0_O3.drop_6000M.length_250M.champsimtrace.xz
Heartbeat CPU 0 instructions: 1500000001 cycles: 2267754663 heartbeat IPC: 0.185746 cumulative IPC: 0.642054 (Simulation time: 7 hr 54 min 37 sec) 
Heartbeat CPU 0 instructions: 1510000001 cycles: 2276764075 heartbeat IPC: 1.10995 cumulative IPC: 0.643924 (Simulation time: 7 hr 56 min 52 sec) 
Heartbeat CPU 1 instructions: 830000002 cycles: 2278580907 heartbeat IPC: 0.55138 cumulative IPC: 0.345716 (Simulation time: 7 hr 57 min 17 sec) 
Heartbeat CPU 0 instructions: 1520000002 cycles: 2285815006 heartbeat IPC: 1.10486 cumulative IPC: 0.645767 (Simulation time: 7 hr 59 min 11 sec) 
Heartbeat CPU 3 instructions: 1490000002 cycles: 2287696331 heartbeat IPC: 0.210145 cumulative IPC: 0.631988 (Simulation time: 7 hr 59 min 41 sec) 
Heartbeat CPU 1 instructions: 840000000 cycles: 2294767507 heartbeat IPC: 0.617795 cumulative IPC: 0.347654 (Simulation time: 8 hr 1 min 29 sec) 
Heartbeat CPU 0 instructions: 1530000000 cycles: 2294896109 heartbeat IPC: 1.10119 cumulative IPC: 0.647587 (Simulation time: 8 hr 1 min 31 sec) 
Heartbeat CPU 0 instructions: 1540000000 cycles: 2303929733 heartbeat IPC: 1.10698 cumulative IPC: 0.649406 (Simulation time: 8 hr 3 min 40 sec) 
Heartbeat CPU 1 instructions: 850000001 cycles: 2310971789 heartbeat IPC: 0.617121 cumulative IPC: 0.349562 (Simulation time: 8 hr 5 min 25 sec) 
Heartbeat CPU 0 instructions: 1550000001 cycles: 2312959755 heartbeat IPC: 1.10742 cumulative IPC: 0.651212 (Simulation time: 8 hr 5 min 51 sec) 
Heartbeat CPU 0 instructions: 1560000001 cycles: 2322418736 heartbeat IPC: 1.0572 cumulative IPC: 0.652882 (Simulation time: 8 hr 8 min 0 sec) 
Heartbeat CPU 1 instructions: 860000000 cycles: 2327195717 heartbeat IPC: 0.616373 cumulative IPC: 0.35144 (Simulation time: 8 hr 9 min 8 sec) 
*** Reached end of trace for Core: 3 Repeating trace: ./traces/ligra/ligra_PageRankDelta.com-lj.ungraph.gcc_6.3.0_O3.drop_6000M.length_250M.champsimtrace.xz
Heartbeat CPU 3 instructions: 1500000002 cycles: 2328418275 heartbeat IPC: 0.245568 cumulative IPC: 0.625164 (Simulation time: 8 hr 9 min 28 sec) 
Heartbeat CPU 0 instructions: 1570000000 cycles: 2331185156 heartbeat IPC: 1.14072 cumulative IPC: 0.654734 (Simulation time: 8 hr 10 min 22 sec) 
Heartbeat CPU 3 instructions: 1510000000 cycles: 2337042951 heartbeat IPC: 1.15946 cumulative IPC: 0.627155 (Simulation time: 8 hr 12 min 15 sec) 
Heartbeat CPU 0 instructions: 1580000000 cycles: 2339255366 heartbeat IPC: 1.23913 cumulative IPC: 0.656769 (Simulation time: 8 hr 12 min 58 sec) 
Heartbeat CPU 1 instructions: 870000000 cycles: 2341070462 heartbeat IPC: 0.720734 cumulative IPC: 0.35365 (Simulation time: 8 hr 13 min 37 sec) 
Heartbeat CPU 3 instructions: 1520000000 cycles: 2345597790 heartbeat IPC: 1.16893 cumulative IPC: 0.62915 (Simulation time: 8 hr 15 min 14 sec) 
Heartbeat CPU 0 instructions: 1590000001 cycles: 2347700915 heartbeat IPC: 1.18406 cumulative IPC: 0.658684 (Simulation time: 8 hr 15 min 59 sec) 
Heartbeat CPU 3 instructions: 1530000001 cycles: 2354125063 heartbeat IPC: 1.17271 cumulative IPC: 0.631138 (Simulation time: 8 hr 18 min 9 sec) 
Heartbeat CPU 1 instructions: 880000000 cycles: 2354437199 heartbeat IPC: 0.748126 cumulative IPC: 0.355911 (Simulation time: 8 hr 18 min 16 sec) 
Heartbeat CPU 0 instructions: 1600000001 cycles: 2356230973 heartbeat IPC: 1.17233 cumulative IPC: 0.660562 (Simulation time: 8 hr 18 min 51 sec) 
Heartbeat CPU 3 instructions: 1540000000 cycles: 2362666965 heartbeat IPC: 1.1707 cumulative IPC: 0.633107 (Simulation time: 8 hr 20 min 59 sec) 
Heartbeat CPU 0 instructions: 1610000000 cycles: 2364773764 heartbeat IPC: 1.17058 cumulative IPC: 0.662422 (Simulation time: 8 hr 21 min 44 sec) 
Heartbeat CPU 1 instructions: 890000001 cycles: 2367742472 heartbeat IPC: 0.751582 cumulative IPC: 0.358156 (Simulation time: 8 hr 22 min 40 sec) 
Heartbeat CPU 3 instructions: 1550000000 cycles: 2371204313 heartbeat IPC: 1.17132 cumulative IPC: 0.635064 (Simulation time: 8 hr 23 min 47 sec) 
Heartbeat CPU 0 instructions: 1620000000 cycles: 2373313928 heartbeat IPC: 1.17094 cumulative IPC: 0.664269 (Simulation time: 8 hr 24 min 26 sec) 
Heartbeat CPU 3 instructions: 1560000000 cycles: 2379772059 heartbeat IPC: 1.16717 cumulative IPC: 0.636998 (Simulation time: 8 hr 26 min 32 sec) 
Heartbeat CPU 1 instructions: 900000000 cycles: 2381079124 heartbeat IPC: 0.749813 cumulative IPC: 0.36037 (Simulation time: 8 hr 26 min 57 sec) 
Heartbeat CPU 0 instructions: 1630000000 cycles: 2381870077 heartbeat IPC: 1.16875 cumulative IPC: 0.666099 (Simulation time: 8 hr 27 min 13 sec) 
Heartbeat CPU 3 instructions: 1570000001 cycles: 2388300060 heartbeat IPC: 1.17261 cumulative IPC: 0.638928 (Simulation time: 8 hr 29 min 19 sec) 
Heartbeat CPU 0 instructions: 1640000001 cycles: 2390398893 heartbeat IPC: 1.1725 cumulative IPC: 0.667922 (Simulation time: 8 hr 30 min 0 sec) 
Heartbeat CPU 1 instructions: 910000000 cycles: 2394502808 heartbeat IPC: 0.744952 cumulative IPC: 0.362546 (Simulation time: 8 hr 31 min 24 sec) 
Heartbeat CPU 3 instructions: 1580000000 cycles: 2396830109 heartbeat IPC: 1.17233 cumulative IPC: 0.640844 (Simulation time: 8 hr 32 min 8 sec) 
Heartbeat CPU 0 instructions: 1650000000 cycles: 2398930427 heartbeat IPC: 1.17212 cumulative IPC: 0.669732 (Simulation time: 8 hr 32 min 48 sec) 
Heartbeat CPU 3 instructions: 1590000002 cycles: 2405368863 heartbeat IPC: 1.17113 cumulative IPC: 0.642745 (Simulation time: 8 hr 34 min 51 sec) 
Heartbeat CPU 0 instructions: 1660000000 cycles: 2407471990 heartbeat IPC: 1.17075 cumulative IPC: 0.671527 (Simulation time: 8 hr 35 min 33 sec) 
Heartbeat CPU 1 instructions: 920000002 cycles: 2407822759 heartbeat IPC: 0.750754 cumulative IPC: 0.364714 (Simulation time: 8 hr 35 min 40 sec) 
Heartbeat CPU 3 instructions: 1600000000 cycles: 2413910351 heartbeat IPC: 1.17076 cumulative IPC: 0.64463 (Simulation time: 8 hr 37 min 40 sec) 
Heartbeat CPU 0 instructions: 1670000001 cycles: 2415840452 heartbeat IPC: 1.19496 cumulative IPC: 0.673357 (Simulation time: 8 hr 38 min 17 sec) 
Heartbeat CPU 1 instructions: 930000002 cycles: 2421104831 heartbeat IPC: 0.752895 cumulative IPC: 0.366864 (Simulation time: 8 hr 39 min 57 sec) 
Heartbeat CPU 3 instructions: 1610000001 cycles: 2422460596 heartbeat IPC: 1.16956 cumulative IPC: 0.6465 (Simulation time: 8 hr 40 min 23 sec) 
Heartbeat CPU 0 instructions: 1680000001 cycles: 2423813303 heartbeat IPC: 1.25426 cumulative IPC: 0.675285 (Simulation time: 8 hr 40 min 51 sec) 
Heartbeat CPU 3 instructions: 1620000001 cycles: 2431017550 heartbeat IPC: 1.16864 cumulative IPC: 0.648355 (Simulation time: 8 hr 43 min 4 sec) 
Heartbeat CPU 0 instructions: 1690000000 cycles: 2431918666 heartbeat IPC: 1.23375 cumulative IPC: 0.677164 (Simulation time: 8 hr 43 min 21 sec) 
Heartbeat CPU 1 instructions: 940000001 cycles: 2434492277 heartbeat IPC: 0.746968 cumulative IPC: 0.368973 (Simulation time: 8 hr 44 min 7 sec) 
Heartbeat CPU 3 instructions: 1630000002 cycles: 2439582820 heartbeat IPC: 1.16751 cumulative IPC: 0.650195 (Simulation time: 8 hr 45 min 39 sec) 
Heartbeat CPU 0 instructions: 1700000000 cycles: 2439923270 heartbeat IPC: 1.24928 cumulative IPC: 0.679058 (Simulation time: 8 hr 45 min 45 sec) 
Heartbeat CPU 3 instructions: 1640000000 cycles: 2448147508 heartbeat IPC: 1.16758 cumulative IPC: 0.652022 (Simulation time: 8 hr 48 min 15 sec) 
Heartbeat CPU 1 instructions: 950000002 cycles: 2448204304 heartbeat IPC: 0.729287 cumulative IPC: 0.37101 (Simulation time: 8 hr 48 min 16 sec) 
Heartbeat CPU 0 instructions: 1710000000 cycles: 2448451003 heartbeat IPC: 1.17264 cumulative IPC: 0.680793 (Simulation time: 8 hr 48 min 19 sec) 
Heartbeat CPU 3 instructions: 1650000000 cycles: 2457286395 heartbeat IPC: 1.09423 cumulative IPC: 0.653681 (Simulation time: 8 hr 50 min 11 sec) 
Heartbeat CPU 2 instructions: 130000000 cycles: 2464615303 heartbeat IPC: 0.0347478 cumulative IPC: 0.0292431 (Simulation time: 8 hr 51 min 45 sec) 
Heartbeat CPU 1 instructions: 960000001 cycles: 2465729418 heartbeat IPC: 0.57061 cumulative IPC: 0.372442 (Simulation time: 8 hr 52 min 1 sec) 
Heartbeat CPU 3 instructions: 1660000001 cycles: 2466473366 heartbeat IPC: 1.0885 cumulative IPC: 0.655316 (Simulation time: 8 hr 52 min 9 sec) 
Heartbeat CPU 3 instructions: 1670000002 cycles: 2475764520 heartbeat IPC: 1.07629 cumulative IPC: 0.65691 (Simulation time: 8 hr 54 min 16 sec) 
Heartbeat CPU 1 instructions: 970000000 cycles: 2483552816 heartbeat IPC: 0.56106 cumulative IPC: 0.373807 (Simulation time: 8 hr 55 min 56 sec) 
Heartbeat CPU 3 instructions: 1680000002 cycles: 2484994251 heartbeat IPC: 1.08346 cumulative IPC: 0.658509 (Simulation time: 8 hr 56 min 11 sec) 
Heartbeat CPU 0 instructions: 1720000000 cycles: 2487589145 heartbeat IPC: 0.255505 cumulative IPC: 0.674041 (Simulation time: 8 hr 56 min 44 sec) 
Heartbeat CPU 3 instructions: 1690000000 cycles: 2494210829 heartbeat IPC: 1.085 cumulative IPC: 0.660099 (Simulation time: 8 hr 58 min 13 sec) 
Heartbeat CPU 1 instructions: 980000000 cycles: 2501337404 heartbeat IPC: 0.562285 cumulative IPC: 0.37516 (Simulation time: 8 hr 59 min 39 sec) 
Heartbeat CPU 3 instructions: 1700000001 cycles: 2503497459 heartbeat IPC: 1.07682 cumulative IPC: 0.661659 (Simulation time: 9 hr 0 min 7 sec) 
Heartbeat CPU 3 instructions: 1710000002 cycles: 2513561476 heartbeat IPC: 0.993639 cumulative IPC: 0.663 (Simulation time: 9 hr 2 min 11 sec) 
Heartbeat CPU 1 instructions: 990000000 cycles: 2519866286 heartbeat IPC: 0.539698 cumulative IPC: 0.37638 (Simulation time: 9 hr 3 min 14 sec) 
Heartbeat CPU 0 instructions: 1730000000 cycles: 2531688990 heartbeat IPC: 0.226758 cumulative IPC: 0.666181 (Simulation time: 9 hr 5 min 3 sec) 
Heartbeat CPU 1 instructions: 1000000000 cycles: 2539779928 heartbeat IPC: 0.502168 cumulative IPC: 0.377375 (Simulation time: 9 hr 6 min 18 sec) 
Heartbeat CPU 1 instructions: 1010000001 cycles: 2559778982 heartbeat IPC: 0.500024 cumulative IPC: 0.378342 (Simulation time: 9 hr 9 min 20 sec) 
Heartbeat CPU 3 instructions: 1720000002 cycles: 2566314431 heartbeat IPC: 0.189563 cumulative IPC: 0.653182 (Simulation time: 9 hr 10 min 19 sec) 
Heartbeat CPU 1 instructions: 1020000000 cycles: 2579839038 heartbeat IPC: 0.498503 cumulative IPC: 0.379285 (Simulation time: 9 hr 12 min 17 sec) 
Heartbeat CPU 0 instructions: 1740000000 cycles: 2583587951 heartbeat IPC: 0.192682 cumulative IPC: 0.656586 (Simulation time: 9 hr 12 min 53 sec) 
Heartbeat CPU 1 instructions: 1030000003 cycles: 2599977847 heartbeat IPC: 0.496554 cumulative IPC: 0.380201 (Simulation time: 9 hr 15 min 23 sec) 
Heartbeat CPU 3 instructions: 1730000002 cycles: 2619385037 heartbeat IPC: 0.188428 cumulative IPC: 0.643685 (Simulation time: 9 hr 18 min 19 sec) 
Heartbeat CPU 1 instructions: 1040000000 cycles: 2619873905 heartbeat IPC: 0.502612 cumulative IPC: 0.381138 (Simulation time: 9 hr 18 min 24 sec) 
*** Reached end of trace for Core: 0 Repeating trace: ./traces/ligra/ligra_Triangle.com-lj.ungraph.gcc_6.3.0_O3.drop_6000M.length_250M.champsimtrace.xz
Heartbeat CPU 0 instructions: 1750000000 cycles: 2635489410 heartbeat IPC: 0.192673 cumulative IPC: 0.647372 (Simulation time: 9 hr 20 min 43 sec) 
Heartbeat CPU 1 instructions: 1050000002 cycles: 2639302157 heartbeat IPC: 0.514714 cumulative IPC: 0.38213 (Simulation time: 9 hr 21 min 38 sec) 
Heartbeat CPU 0 instructions: 1760000000 cycles: 2644518205 heartbeat IPC: 1.10757 cumulative IPC: 0.648956 (Simulation time: 9 hr 22 min 48 sec) 
Heartbeat CPU 0 instructions: 1770000000 cycles: 2653577363 heartbeat IPC: 1.10386 cumulative IPC: 0.650522 (Simulation time: 9 hr 24 min 58 sec) 
Heartbeat CPU 1 instructions: 1060000000 cycles: 2657240669 heartbeat IPC: 0.55746 cumulative IPC: 0.383324 (Simulation time: 9 hr 25 min 47 sec) 
Heartbeat CPU 0 instructions: 1780000001 cycles: 2662660836 heartbeat IPC: 1.1009 cumulative IPC: 0.652072 (Simulation time: 9 hr 27 min 7 sec) 
Heartbeat CPU 3 instructions: 1740000002 cycles: 2663647881 heartbeat IPC: 0.225923 cumulative IPC: 0.636684 (Simulation time: 9 hr 27 min 22 sec) 
Heartbeat CPU 0 instructions: 1790000001 cycles: 2671710936 heartbeat IPC: 1.10496 cumulative IPC: 0.653619 (Simulation time: 9 hr 29 min 15 sec) 
Heartbeat CPU 1 instructions: 1070000002 cycles: 2674763197 heartbeat IPC: 0.570694 cumulative IPC: 0.384562 (Simulation time: 9 hr 29 min 58 sec) 
Heartbeat CPU 0 instructions: 1800000002 cycles: 2680740439 heartbeat IPC: 1.10748 cumulative IPC: 0.65516 (Simulation time: 9 hr 31 min 20 sec) 
Heartbeat CPU 0 instructions: 1810000001 cycles: 2690211099 heartbeat IPC: 1.05589 cumulative IPC: 0.656583 (Simulation time: 9 hr 33 min 26 sec) 
Heartbeat CPU 1 instructions: 1080000001 cycles: 2691601635 heartbeat IPC: 0.593879 cumulative IPC: 0.385882 (Simulation time: 9 hr 33 min 47 sec) 
Heartbeat CPU 0 instructions: 1820000000 cycles: 2699416572 heartbeat IPC: 1.08631 cumulative IPC: 0.658061 (Simulation time: 9 hr 35 min 40 sec) 
*** Reached end of trace for Core: 3 Repeating trace: ./traces/ligra/ligra_PageRankDelta.com-lj.ungraph.gcc_6.3.0_O3.drop_6000M.length_250M.champsimtrace.xz
Heartbeat CPU 3 instructions: 1750000002 cycles: 2704704013 heartbeat IPC: 0.243569 cumulative IPC: 0.630667 (Simulation time: 9 hr 36 min 53 sec) 
Heartbeat CPU 1 instructions: 1090000001 cycles: 2707880709 heartbeat IPC: 0.614286 cumulative IPC: 0.387267 (Simulation time: 9 hr 37 min 48 sec) 
Heartbeat CPU 0 instructions: 1830000001 cycles: 2708126405 heartbeat IPC: 1.14813 cumulative IPC: 0.65965 (Simulation time: 9 hr 37 min 52 sec) 
Heartbeat CPU 3 instructions: 1760000000 cycles: 2713373665 heartbeat IPC: 1.15345 cumulative IPC: 0.632351 (Simulation time: 9 hr 39 min 29 sec) 
Heartbeat CPU 0 instructions: 1840000002 cycles: 2716266367 heartbeat IPC: 1.22851 cumulative IPC: 0.661369 (Simulation time: 9 hr 40 min 26 sec) 
Heartbeat CPU 1 instructions: 1100000000 cycles: 2721820494 heartbeat IPC: 0.717371 cumulative IPC: 0.388971 (Simulation time: 9 hr 42 min 8 sec) 
Heartbeat CPU 3 instructions: 1770000001 cycles: 2721983069 heartbeat IPC: 1.16152 cumulative IPC: 0.634039 (Simulation time: 9 hr 42 min 11 sec) 
Heartbeat CPU 0 instructions: 1850000002 cycles: 2724322744 heartbeat IPC: 1.24125 cumulative IPC: 0.663098 (Simulation time: 9 hr 42 min 50 sec) 
Heartbeat CPU 3 instructions: 1780000000 cycles: 2730553580 heartbeat IPC: 1.16679 cumulative IPC: 0.635725 (Simulation time: 9 hr 44 min 42 sec) 
Heartbeat CPU 0 instructions: 1860000000 cycles: 2732366384 heartbeat IPC: 1.24322 cumulative IPC: 0.66482 (Simulation time: 9 hr 45 min 18 sec) 
Heartbeat CPU 1 instructions: 1110000002 cycles: 2735465919 heartbeat IPC: 0.732846 cumulative IPC: 0.390701 (Simulation time: 9 hr 46 min 14 sec) 
Heartbeat CPU 3 instructions: 1790000000 cycles: 2739131327 heartbeat IPC: 1.16581 cumulative IPC: 0.637398 (Simulation time: 9 hr 47 min 22 sec) 
Heartbeat CPU 0 instructions: 1870000000 cycles: 2740393958 heartbeat IPC: 1.24571 cumulative IPC: 0.666536 (Simulation time: 9 hr 47 min 49 sec) 
Heartbeat CPU 3 instructions: 1800000000 cycles: 2747690290 heartbeat IPC: 1.16837 cumulative IPC: 0.639066 (Simulation time: 9 hr 50 min 7 sec) 
Heartbeat CPU 0 instructions: 1880000003 cycles: 2748428186 heartbeat IPC: 1.24468 cumulative IPC: 0.668239 (Simulation time: 9 hr 50 min 23 sec) 
Heartbeat CPU 1 instructions: 1120000003 cycles: 2749054512 heartbeat IPC: 0.735911 cumulative IPC: 0.392421 (Simulation time: 9 hr 50 min 35 sec) 
Heartbeat CPU 3 instructions: 1810000001 cycles: 2756274261 heartbeat IPC: 1.16496 cumulative IPC: 0.640717 (Simulation time: 9 hr 52 min 53 sec) 
Heartbeat CPU 0 instructions: 1890000002 cycles: 2756464569 heartbeat IPC: 1.24434 cumulative IPC: 0.669933 (Simulation time: 9 hr 52 min 56 sec) 
Heartbeat CPU 1 instructions: 1130000002 cycles: 2762754914 heartbeat IPC: 0.729906 cumulative IPC: 0.394108 (Simulation time: 9 hr 54 min 56 sec) 
Heartbeat CPU 3 instructions: 1820000000 cycles: 2764827914 heartbeat IPC: 1.16909 cumulative IPC: 0.642365 (Simulation time: 9 hr 55 min 40 sec) 
Heartbeat CPU 0 instructions: 1900000000 cycles: 2764877628 heartbeat IPC: 1.18863 cumulative IPC: 0.671524 (Simulation time: 9 hr 55 min 41 sec) 
Heartbeat CPU 3 instructions: 1830000000 cycles: 2773359491 heartbeat IPC: 1.17212 cumulative IPC: 0.644008 (Simulation time: 9 hr 58 min 20 sec) 
Heartbeat CPU 0 instructions: 1910000000 cycles: 2773410544 heartbeat IPC: 1.17193 cumulative IPC: 0.673076 (Simulation time: 9 hr 58 min 21 sec) 
Heartbeat CPU 1 instructions: 1140000002 cycles: 2776334475 heartbeat IPC: 0.736401 cumulative IPC: 0.395796 (Simulation time: 9 hr 59 min 12 sec) 
Heartbeat CPU 3 instructions: 1840000000 cycles: 2781894212 heartbeat IPC: 1.17168 cumulative IPC: 0.64564 (Simulation time: 10 hr 0 min 48 sec) 
Heartbeat CPU 0 instructions: 1920000001 cycles: 2781943408 heartbeat IPC: 1.17194 cumulative IPC: 0.674619 (Simulation time: 10 hr 0 min 49 sec) 
Heartbeat CPU 1 instructions: 1150000001 cycles: 2789998065 heartbeat IPC: 0.731872 cumulative IPC: 0.397456 (Simulation time: 10 hr 3 min 24 sec) 
Heartbeat CPU 3 instructions: 1850000001 cycles: 2790443153 heartbeat IPC: 1.16974 cumulative IPC: 0.647259 (Simulation time: 10 hr 3 min 31 sec) 
Heartbeat CPU 0 instructions: 1930000002 cycles: 2790493360 heartbeat IPC: 1.1696 cumulative IPC: 0.676148 (Simulation time: 10 hr 3 min 32 sec) 
Heartbeat CPU 2 instructions: 140000002 cycles: 2794048062 heartbeat IPC: 0.0303552 cumulative IPC: 0.0293753 (Simulation time: 10 hr 4 min 41 sec) 
Heartbeat CPU 3 instructions: 1860000000 cycles: 2798972670 heartbeat IPC: 1.1724 cumulative IPC: 0.648872 (Simulation time: 10 hr 6 min 16 sec) 
Heartbeat CPU 0 instructions: 1940000000 cycles: 2799021733 heartbeat IPC: 1.17256 cumulative IPC: 0.677672 (Simulation time: 10 hr 6 min 17 sec) 
Heartbeat CPU 1 instructions: 1160000000 cycles: 2803515016 heartbeat IPC: 0.739812 cumulative IPC: 0.399119 (Simulation time: 10 hr 7 min 42 sec) 
Heartbeat CPU 0 instructions: 1950000000 cycles: 2807104946 heartbeat IPC: 1.23713 cumulative IPC: 0.679296 (Simulation time: 10 hr 8 min 46 sec) 
Heartbeat CPU 3 instructions: 1870000000 cycles: 2807541405 heartbeat IPC: 1.16703 cumulative IPC: 0.650466 (Simulation time: 10 hr 8 min 52 sec) 
Heartbeat CPU 0 instructions: 1960000003 cycles: 2815628716 heartbeat IPC: 1.17319 cumulative IPC: 0.680803 (Simulation time: 10 hr 11 min 17 sec) 
Heartbeat CPU 3 instructions: 1880000001 cycles: 2816205329 heartbeat IPC: 1.15421 cumulative IPC: 0.652028 (Simulation time: 10 hr 11 min 26 sec) 
Heartbeat CPU 1 instructions: 1170000000 cycles: 2817669489 heartbeat IPC: 0.70649 cumulative IPC: 0.400676 (Simulation time: 10 hr 11 min 45 sec) 
Heartbeat CPU 3 instructions: 1890000001 cycles: 2825446456 heartbeat IPC: 1.08212 cumulative IPC: 0.653446 (Simulation time: 10 hr 13 min 32 sec) 
[...]
LLC USEFUL LOAD PREFETCHES:    2347524 PREFETCH ISSUED TO LOWER LEVEL:  126736090  ACCURACY: 1.85229
LLC TIMELY PREFETCHES:    2347524 LATE PREFETCHES: 0 DROPPED PREFETCHES: 0
LLC PREFETCHES SAME FILL-ORIGIN LEVEL: 0 DIFFERENT FILL-ORIGIN LEVEL: 0
LLC AVERAGE MISS LATENCY: 7322.08 cycles
LLC RQ	ACCESS:  109661398	FORWARD:          0	MERGED:          0	TO_CACHE:  109661397
LLC WQ	ACCESS:   95365003	FORWARD:         72	MERGED:          0	TO_CACHE:   95365003
LLC PQ	ACCESS:  145484559	FORWARD:          0	MERGED:          0	TO_CACHE:  145484488

LLC Dense regions hint to LLC: 0

RAW hits: 28964
Loads Generated: 62226129
Loads sent to L1D: 62197165
Stores Generated: 154286
Stores sent to L1D: 154286
Major fault: 0 Minor fault: 222245
Allocated PAGES: 537059

CPU 3 cumulative IPC: 0.596407 instructions: 200000002 cycles: 335341655
ITLB TOTAL     ACCESS:   34001130  HIT:   34001121  MISS:          9  HIT %:        100  MISS %: 2.64697e-05   MPKI: 4.5e-05
ITLB LOAD TRANSLATION ACCESS:   34001130  HIT:   34001121  MISS:          9  HIT %:        100  MISS %: 2.64697e-05   MPKI: 4.5e-05
ITLB PREFETCH  REQUESTED:          0  ISSUED:          0  USEFUL:          0  USELESS:          0
ITLB USEFUL LOAD PREFETCHES:          0 PREFETCH ISSUED TO LOWER LEVEL:          0  ACCURACY: -nan
ITLB TIMELY PREFETCHES:          0 LATE PREFETCHES: 0 DROPPED PREFETCHES: 0
ITLB PREFETCHES SAME FILL-ORIGIN LEVEL: 0 DIFFERENT FILL-ORIGIN LEVEL: 0
ITLB AVERAGE MISS LATENCY: 806.667 cycles
ITLB RQ	ACCESS:  812970934	FORWARD:          0	MERGED:     374115	TO_CACHE:  812596819

DTLB TOTAL     ACCESS:   22026442  HIT:   21966709  MISS:      59733  HIT %:    99.7288  MISS %:   0.271188   MPKI: 0.298665
DTLB LOAD TRANSLATION ACCESS:   22026442  HIT:   21966709  MISS:      59733  HIT %:    99.7288  MISS %:   0.271188   MPKI: 0.298665
DTLB PREFETCH  REQUESTED:          0  ISSUED:          0  USEFUL:          0  USELESS:          0
DTLB USEFUL LOAD PREFETCHES:          0 PREFETCH ISSUED TO LOWER LEVEL:          0  ACCURACY: -nan
DTLB TIMELY PREFETCHES:          0 LATE PREFETCHES: 0 DROPPED PREFETCHES: 0
DTLB PREFETCHES SAME FILL-ORIGIN LEVEL: 0 DIFFERENT FILL-ORIGIN LEVEL: 0
DTLB AVERAGE MISS LATENCY: 2951.51 cycles
DTLB RQ	ACCESS:  546395133	FORWARD:          0	MERGED:   36618178	TO_CACHE:  509776955

STLB TOTAL     ACCESS:    1335582  HIT:    1275840  MISS:      59742  HIT %:    95.5269  MISS %:    4.47311   MPKI: 0.29871
STLB LOAD TRANSLATION ACCESS:      59742  HIT:          0  MISS:      59742  HIT %:          0  MISS %:        100   MPKI: 0.29871
STLB TRANSLATION FROM L1D PREFETCHER ACCESS:    1275840  HIT:    1275840  MISS:          0  HIT %:        100  MISS %:          0   MPKI: 0
STLB PREFETCH  REQUESTED:          0  ISSUED:          0  USEFUL:          0  USELESS:          0
STLB USEFUL LOAD PREFETCHES:          0 PREFETCH ISSUED TO LOWER LEVEL:          0  ACCURACY: -nan
STLB TIMELY PREFETCHES:          0 LATE PREFETCHES: 0 DROPPED PREFETCHES: 0
STLB PREFETCHES SAME FILL-ORIGIN LEVEL: 0 DIFFERENT FILL-ORIGIN LEVEL: 0
STLB AVERAGE MISS LATENCY: 2766.34 cycles
STLB RQ	ACCESS:   58948877	FORWARD:          0	MERGED:   31077224	TO_CACHE:   27871653

STLB Hit, L1D data hit: 0
STLB Hit, L2C data hit: 0
STLB Hit, LLC data hit: 0
STLB Hit, LLC data miss: 0
STLB STLB hints to L2: 0
L1D TOTAL     ACCESS:   19344211  HIT:   15522005  MISS:    3822206  HIT %:    80.2411  MISS %:    19.7589   MPKI: 19.111
L1D LOAD      ACCESS:   14198372  HIT:   13420953  MISS:     777419  HIT %:    94.5246  MISS %:    5.47541   MPKI: 3.88709
L1D RFO       ACCESS:    2697310  HIT:     787218  MISS:    1910092  HIT %:    29.1853  MISS %:    70.8147   MPKI: 9.55046
L1D PREFETCH  ACCESS:    2448529  HIT:    1313834  MISS:    1134695  HIT %:    53.6581  MISS %:    46.3419   MPKI: 5.67347
L1D PREFETCH  REQUESTED:  115453212  ISSUED:  115453081  USEFUL:   23950390  USELESS:       3554
L1D USEFUL LOAD PREFETCHES:   23950390 PREFETCH ISSUED TO LOWER LEVEL:   37593013  ACCURACY: 63.7097
L1D TIMELY PREFETCHES:   23950390 LATE PREFETCHES: 13639065 DROPPED PREFETCHES: 0
L1D PREFETCHES SAME FILL-ORIGIN LEVEL: 37593013 DIFFERENT FILL-ORIGIN LEVEL: 0
L1D AVERAGE MISS LATENCY: 11436.2 cycles
L1D RQ	ACCESS:  875875875	FORWARD:          0	MERGED:  534270418	TO_CACHE:  341605440
L1D WQ	ACCESS:  204789693	FORWARD:         17	MERGED:          0	TO_CACHE:  204789693
L1D PQ	ACCESS:   57731257	FORWARD:          0	MERGED:       9433	TO_CACHE:   57721824

L1D UNIQUE REGIONS ACCESSED: 0
L1D REGIONS CONFLICTS: 0
L1D Cross Page Prefetch Requests: 0
L1D Same Page Prefetch Requests: 58711262
L1D ROI Sum of L1D PQ occupancy: 3257806958
L1D PREFETCHES PUSHED FROM L2C: 0
L1I TOTAL     ACCESS:   34015978  HIT:   34015905  MISS:         73  HIT %:    99.9998  MISS %: 0.000214605   MPKI: 0.000365
L1I LOAD      ACCESS:   34015978  HIT:   34015905  MISS:         73  HIT %:    99.9998  MISS %: 0.000214605   MPKI: 0.000365
L1I PREFETCH  REQUESTED:          0  ISSUED:          0  USEFUL:          0  USELESS:          0
L1I USEFUL LOAD PREFETCHES:          0 PREFETCH ISSUED TO LOWER LEVEL:          0  ACCURACY: -nan
L1I TIMELY PREFETCHES:          0 LATE PREFETCHES: 0 DROPPED PREFETCHES: 0
L1I PREFETCHES SAME FILL-ORIGIN LEVEL: 0 DIFFERENT FILL-ORIGIN LEVEL: 0
L1I AVERAGE MISS LATENCY: 523.37 cycles
L1I RQ	ACCESS: 2130936678	FORWARD:          0	MERGED: 1317965744	TO_CACHE:  812970934

BTB TOTAL     ACCESS:   66535069  HIT:   66534995  MISS:         74  HIT %:    99.9999  MISS %: 0.00011122   MPKI: 0.00037
BTB BRANCH_DIRECT_JUMP	ACCESS:         14  HIT:          0  MISS:         14
BTB BRANCH_INDIRECT	ACCESS:          0  HIT:          0  MISS:          0
BTB BRANCH_CONDITIONAL	ACCESS:   66535040  HIT:   66534995  MISS:         45
BTB BRANCH_DIRECT_CALL	ACCESS:          6  HIT:          0  MISS:          6
BTB BRANCH_INDIRECT_CALL	ACCESS:          1  HIT:          0  MISS:          1
BTB BRANCH_RETURN	ACCESS:          8  HIT:          0  MISS:          8
BTB BRANCH_OTHER ACCESS:          0  HIT:          0  MISS:          0

L2C TOTAL     ACCESS:    5792133  HIT:    1889042  MISS:    3903091  HIT %:    32.6139  MISS %:    67.3861   MPKI: 19.5155
L2C LOAD      ACCESS:      82603  HIT:          5  MISS:      82598  HIT %: 0.00605305  MISS %:    99.9939   MPKI: 0.41299
L2C DATA LOAD MPKI: 0.412625
L2C INSTRUCTION LOAD MPKI: 0.000365
L2C RFO       ACCESS:    1910092  HIT:          0  MISS:    1910092  HIT %:          0  MISS %:        100   MPKI: 9.55046
L2C PREFETCH  ACCESS:    1829584  HIT:         80  MISS:    1829504  HIT %: 0.00437258  MISS %:    99.9956   MPKI: 9.14752
L2C DATA PREFETCH MPKI: 9.14752
L2C INSTRUCTION PREFETCH MPKI: 0
L2C WRITEBACK ACCESS:    1910103  HIT:    1836858  MISS:      73245  HIT %:    96.1654  MISS %:    3.83461   MPKI: 0.366225
L2C LOAD TRANSLATION ACCESS:      59751  HIT:      52099  MISS:       7652  HIT %:    87.1935  MISS %:    12.8065   MPKI: 0.03826
L2C PREFETCH  REQUESTED:          0  ISSUED:          0  USEFUL:        244  USELESS:   37590878
L2C USEFUL LOAD PREFETCHES:        244 PREFETCH ISSUED TO LOWER LEVEL:   37590841  ACCURACY: 0.000649094
L2C TIMELY PREFETCHES:        244 LATE PREFETCHES: 0 DROPPED PREFETCHES: 0
L2C PREFETCHES SAME FILL-ORIGIN LEVEL: 0 DIFFERENT FILL-ORIGIN LEVEL: 0
L2C AVERAGE MISS LATENCY: 14245.8 cycles
L2C RQ	ACCESS:   42154266	FORWARD:          0	MERGED:          0	TO_CACHE:   42154266
L2C WQ	ACCESS:   39233734	FORWARD:          0	MERGED:          0	TO_CACHE:   39233734
L2C PQ	ACCESS:   37593013	FORWARD:          0	MERGED:          0	TO_CACHE:   37593013

L2C Instructions Evicting Data 73
L2C Translations Evicting Data 156916
L2C Data Evicting Data 78361520
L2C Instructions Evicting Instructions 0
L2C Translations Evicting Instructions 0
L2C Data Evicting Instructions 73
L2C Instructions Evicting Translations 0
L2C Translations Evicting Translations 18
L2C Data Evicting Translations 153665
L2C Dense regions hint from L2: 0
PSCL5 TOTAL     ACCESS:      59742  HIT:      59742  MISS:          0  HIT %:        100  MISS %:          0   MPKI: 0
PSCL5 LOAD TRANSLATION ACCESS:      59742  HIT:      59742  MISS:          0  HIT %:        100  MISS %:          0   MPKI: 0
PSCL5 PREFETCH  REQUESTED:          0  ISSUED:          0  USEFUL:          0  USELESS:          0
PSCL5 USEFUL LOAD PREFETCHES:          0 PREFETCH ISSUED TO LOWER LEVEL:          0  ACCURACY: -nan
PSCL5 TIMELY PREFETCHES:          0 LATE PREFETCHES: 0 DROPPED PREFETCHES: 0
PSCL5 PREFETCHES SAME FILL-ORIGIN LEVEL: 0 DIFFERENT FILL-ORIGIN LEVEL: 0

PSCL4 TOTAL     ACCESS:      59742  HIT:      59742  MISS:          0  HIT %:        100  MISS %:          0   MPKI: 0
PSCL4 LOAD TRANSLATION ACCESS:      59742  HIT:      59742  MISS:          0  HIT %:        100  MISS %:          0   MPKI: 0
PSCL4 PREFETCH  REQUESTED:          0  ISSUED:          0  USEFUL:          0  USELESS:          0
PSCL4 USEFUL LOAD PREFETCHES:          0 PREFETCH ISSUED TO LOWER LEVEL:          0  ACCURACY: -nan
PSCL4 TIMELY PREFETCHES:          0 LATE PREFETCHES: 0 DROPPED PREFETCHES: 0
PSCL4 PREFETCHES SAME FILL-ORIGIN LEVEL: 0 DIFFERENT FILL-ORIGIN LEVEL: 0

PSCL3 TOTAL     ACCESS:      59742  HIT:      59742  MISS:          0  HIT %:        100  MISS %:          0   MPKI: 0
PSCL3 LOAD TRANSLATION ACCESS:      59742  HIT:      59742  MISS:          0  HIT %:        100  MISS %:          0   MPKI: 0
PSCL3 PREFETCH  REQUESTED:          0  ISSUED:          0  USEFUL:          0  USELESS:          0
PSCL3 USEFUL LOAD PREFETCHES:          0 PREFETCH ISSUED TO LOWER LEVEL:          0  ACCURACY: -nan
PSCL3 TIMELY PREFETCHES:          0 LATE PREFETCHES: 0 DROPPED PREFETCHES: 0
PSCL3 PREFETCHES SAME FILL-ORIGIN LEVEL: 0 DIFFERENT FILL-ORIGIN LEVEL: 0

PSCL2 TOTAL     ACCESS:      59742  HIT:      59613  MISS:        129  HIT %:    99.7841  MISS %:   0.215928   MPKI: 0.000645
PSCL2 LOAD TRANSLATION ACCESS:      59742  HIT:      59613  MISS:        129  HIT %:    99.7841  MISS %:   0.215928   MPKI: 0.000645
PSCL2 PREFETCH  REQUESTED:          0  ISSUED:          0  USEFUL:          0  USELESS:          0
PSCL2 USEFUL LOAD PREFETCHES:          0 PREFETCH ISSUED TO LOWER LEVEL:          0  ACCURACY: -nan
PSCL2 TIMELY PREFETCHES:          0 LATE PREFETCHES: 0 DROPPED PREFETCHES: 0
PSCL2 PREFETCHES SAME FILL-ORIGIN LEVEL: 0 DIFFERENT FILL-ORIGIN LEVEL: 0

LLC TOTAL     ACCESS:    5739747  HIT:    1840379  MISS:    3899368  HIT %:    32.0638  MISS %:    67.9362   MPKI: 19.4968
LLC LOAD      ACCESS:      82598  HIT:          3  MISS:      82595  HIT %: 0.00363205  MISS %:    99.9964   MPKI: 0.412975
LLC RFO       ACCESS:    1910092  HIT:          0  MISS:    1910092  HIT %:          0  MISS %:        100   MPKI: 9.55046
LLC PREFETCH  ACCESS:    1829504  HIT:         47  MISS:    1829457  HIT %:   0.002569  MISS %:    99.9974   MPKI: 9.14728
LLC WRITEBACK ACCESS:    1909901  HIT:    1840298  MISS:      69603  HIT %:    96.3557  MISS %:    3.64433   MPKI: 0.348015
LLC LOAD TRANSLATION ACCESS:       7652  HIT:         31  MISS:       7621  HIT %:   0.405123  MISS %:    99.5949   MPKI: 0.038105
LLC PREFETCH  REQUESTED:          0  ISSUED:          0  USEFUL:    2347524  USELESS:  124380313
LLC USEFUL LOAD PREFETCHES:    2347524 PREFETCH ISSUED TO LOWER LEVEL:  126736090  ACCURACY: 1.85229
LLC TIMELY PREFETCHES:    2347524 LATE PREFETCHES: 0 DROPPED PREFETCHES: 0
LLC PREFETCHES SAME FILL-ORIGIN LEVEL: 0 DIFFERENT FILL-ORIGIN LEVEL: 0
LLC AVERAGE MISS LATENCY: 43037 cycles
LLC RQ	ACCESS:  109661398	FORWARD:          0	MERGED:          0	TO_CACHE:  109661397
LLC WQ	ACCESS:   95365003	FORWARD:         72	MERGED:          0	TO_CACHE:   95365003
LLC PQ	ACCESS:  145484559	FORWARD:          0	MERGED:          0	TO_CACHE:  145484488

LLC Dense regions hint to LLC: 0

RAW hits: 4
Loads Generated: 36175217
Loads sent to L1D: 36175211
Stores Generated: 9539778
Stores sent to L1D: 9539779
Major fault: 0 Minor fault: 64538
Allocated PAGES: 537059

stream: 
stream:times selected: 50779584
stream:pref_filled: 24457977
stream:pref_useful: 24455422
stream:pref_late: 13988033
stream:misses: 10114
stream:misses_by_poll: 0

CS: 
CS:times selected: 47653832
CS:pref_filled: 74644
CS:pref_useful: 74644
CS:pref_late: 38551
CS:misses: 25193478
CS:misses_by_poll: 360

CPLX: 
CPLX:times selected: 3125686
CPLX:pref_filled: 11322
CPLX:pref_useful: 11322
CPLX:pref_late: 7939
CPLX:misses: 1931557
CPLX:misses_by_poll: 20

NL_L1: 
NL:times selected: 480
NL:pref_filled: 15
NL:pref_useful: 15
NL:pref_late: 10
NL:misses: 359
NL:misses_by_poll: 0

total selections: 101559582
total_filled: 24372615
total_useful: 24370088
total_late: 14062438
total_polluted: 380
total_misses_after_warmup: 27130203
conflicts: 387720
Degree Incremented Times: 5528921
Degree Decremented Times: 2128318

L1 IP Table Write Accesses: 1580625496
L1 IP Table Read Accesses: 1580237776
L1 RST Write Accesses: 228462477
L1 RST Read Accesses: 456924954
L1 CSPT Write Accesses: 228462477
L1 CSPT Read Accesses: 366870113
L1 RR Filter Tag Write Accesses: 231057514
L1 RR Filter Tag Read Accesses: 29524213622
L1 IP Table Tag Write Accesses: 1588294693
L1 IP Table Tag Read Accesses: 1588294693
L1 RST Tag Write Accesses: 0
L1 RST Tag Read Accesses: 2056023685
L1 RR Filter Write Accesses: 0
L1 RR Filter Read Accesses: 1191929400
test: 50652600

stream: 
stream:times selected: 79135240
stream:pref_filled: 34762580
stream:pref_useful: 24064191
stream:pref_late: 9611105
stream:misses: 1519456
stream:misses_by_poll: 0

CS: 
CS:times selected: 58442314
CS:pref_filled: 1252651
CS:pref_useful: 659064
CS:pref_late: 35773
CS:misses: 85447
CS:misses_by_poll: 5393

CPLX: 
CPLX:times selected: 79134274
CPLX:pref_filled: 7391709
CPLX:pref_useful: 3200097
CPLX:pref_late: 267346
CPLX:misses: 28926937
CPLX:misses_by_poll: 54585

NL_L1: 
NL:times selected: 55538
NL:pref_filled: 29159
NL:pref_useful: 393
NL:pref_late: 111
NL:misses: 34164
NL:misses_by_poll: 6

total selections: 216767366
total_filled: 40861215
total_useful: 27349122
total_late: 9945513
total_polluted: 59984
total_misses_after_warmup: 29886493
conflicts: 387720
Degree Incremented Times: 5528921
Degree Decremented Times: 2128318

L1 IP Table Write Accesses: 1580625496
L1 IP Table Read Accesses: 1580237776
L1 RST Write Accesses: 228462477
L1 RST Read Accesses: 456924954
L1 CSPT Write Accesses: 228462477
L1 CSPT Read Accesses: 366870113
L1 RR Filter Tag Write Accesses: 231057514
L1 RR Filter Tag Read Accesses: 29524213622
L1 IP Table Tag Write Accesses: 1588294693
L1 IP Table Tag Read Accesses: 1588294693
L1 RST Tag Write Accesses: 0
L1 RST Tag Read Accesses: 2056023685
L1 RR Filter Write Accesses: 0
L1 RR Filter Read Accesses: 1191929400
test: 50652600

stream: 
stream:times selected: 53558665
stream:pref_filled: 37079488
stream:pref_useful: 83898
stream:pref_late: 1589
stream:misses: 8324632
stream:misses_by_poll: 0

CS: 
CS:times selected: 16010297
CS:pref_filled: 10753756
CS:pref_useful: 110
CS:pref_late: 9
CS:misses: 414430
CS:misses_by_poll: 23898

CPLX: 
CPLX:times selected: 52827038
CPLX:pref_filled: 1970703
CPLX:pref_useful: 7843
CPLX:pref_late: 87
CPLX:misses: 30676593
CPLX:misses_by_poll: 4314

NL_L1: 
NL:times selected: 91863
NL:pref_filled: 76639
NL:pref_useful: 81
NL:pref_late: 2
NL:misses: 71884
NL:misses_by_poll: 0

total selections: 122487863
total_filled: 39314822
total_useful: 70897
total_late: 1741
total_polluted: 28212
total_misses_after_warmup: 31935838
conflicts: 387720
Degree Incremented Times: 5528921
Degree Decremented Times: 2128318

L1 IP Table Write Accesses: 1580625496
L1 IP Table Read Accesses: 1580237776
L1 RST Write Accesses: 228462477
L1 RST Read Accesses: 456924954
L1 CSPT Write Accesses: 228462477
L1 CSPT Read Accesses: 366870113
L1 RR Filter Tag Write Accesses: 231057514
L1 RR Filter Tag Read Accesses: 29524213622
L1 IP Table Tag Write Accesses: 1588294693
L1 IP Table Tag Read Accesses: 1588294693
L1 RST Tag Write Accesses: 0
L1 RST Tag Read Accesses: 2056023685
L1 RR Filter Write Accesses: 0
L1 RR Filter Read Accesses: 1191929400
test: 50652600

stream: 
stream:times selected: 57210155
stream:pref_filled: 24044190
stream:pref_useful: 24040609
stream:pref_late: 13570593
stream:misses: 13484
stream:misses_by_poll: 0

CS: 
CS:times selected: 54147287
CS:pref_filled: 69179
CS:pref_useful: 69178
CS:pref_late: 35605
CS:misses: 24342048
CS:misses_by_poll: 319

CPLX: 
CPLX:times selected: 3062795
CPLX:pref_filled: 11902
CPLX:pref_useful: 11902
CPLX:pref_late: 8178
CPLX:misses: 1864365
CPLX:misses_by_poll: 11

NL_L1: 
NL:times selected: 476
NL:pref_filled: 12
NL:pref_useful: 12
NL:pref_late: 5
NL:misses: 368
NL:misses_by_poll: 0

total selections: 114420713
total_filled: 23953945
total_useful: 23950390
total_late: 13639065
total_polluted: 330
total_misses_after_warmup: 26214759
conflicts: 387720
Degree Incremented Times: 5528921
Degree Decremented Times: 2128318

L1 IP Table Write Accesses: 1580625496
L1 IP Table Read Accesses: 1580237776
L1 RST Write Accesses: 228462477
L1 RST Read Accesses: 456924954
L1 CSPT Write Accesses: 228462477
L1 CSPT Read Accesses: 366870113
L1 RR Filter Tag Write Accesses: 231057514
L1 RR Filter Tag Read Accesses: 29524213622
L1 IP Table Tag Write Accesses: 1588294693
L1 IP Table Tag Read Accesses: 1588294693
L1 RST Tag Write Accesses: 0
L1 RST Tag Read Accesses: 2056023685
L1 RR Filter Write Accesses: 0
L1 RR Filter Read Accesses: 1191929400
test: 50652600

DRAM Statistics
 CHANNEL 0
 RQ ROW_BUFFER_HIT:   60539989  ROW_BUFFER_MISS:  164956937
 DBUS_CONGESTED:         11
 WQ ROW_BUFFER_HIT:    7195545  ROW_BUFFER_MISS:   87948347  FULL:       6527

 AVG_CONGESTED_CYCLE: 5
 All warmup complete: 5
Channel 0 Bank busy for read cycles: 0
Channel 0 Bank busy for write cycles: 0
Channel 0
Rank 0
0banks busy for read cycles: 69799
0banks busy for write cycles: 0
1banks busy for read cycles: 19605840
1banks busy for write cycles: 9807703
2banks busy for read cycles: 70337535
2banks busy for write cycles: 9810909
3banks busy for read cycles: 175763159
3banks busy for write cycles: 9828616
4banks busy for read cycles: 325041372
4banks busy for write cycles: 9996144
5banks busy for read cycles: 501553956
5banks busy for write cycles: 12085550
6banks busy for read cycles: 691545258
6banks busy for write cycles: 42496005
7banks busy for read cycles: 985599439
7banks busy for write cycles: 393180491
8banks busy for read cycles: 1971340294
8banks busy for write cycles: 2125648333

CPU 0 Branch Prediction Accuracy: 99.9772% MPKI: 0.0780242 Average ROB Occupancy at Mispredict: 281.174
Branch types
NOT_BRANCH: 3231697378 65.7109%
BRANCH_DIRECT_JUMP: 280 5.69331e-06%
BRANCH_INDIRECT: 0 0%
BRANCH_CONDITIONAL: 1686353778 34.2891%
BRANCH_DIRECT_CALL: 120 2.43999e-06%
BRANCH_INDIRECT_CALL: 20 4.06665e-07%
BRANCH_RETURN: 160 3.25332e-06%
BRANCH_OTHER: 0 0%


CPU 1 Branch Prediction Accuracy: 99.6474% MPKI: 0.0619382 Average ROB Occupancy at Mispredict: 301.914
Branch types
NOT_BRANCH: 2480394484 98.2435%
BRANCH_DIRECT_JUMP: 594618 0.0235516%
BRANCH_INDIRECT: 161448 0.00639464%
BRANCH_CONDITIONAL: 40627040 1.60916%
BRANCH_DIRECT_CALL: 1481807 0.0586914%
BRANCH_INDIRECT_CALL: 0 0%
BRANCH_RETURN: 1481807 0.0586914%
BRANCH_OTHER: 0 0%


CPU 2 Branch Prediction Accuracy: 91.9174% MPKI: 18.6374 Average ROB Occupancy at Mispredict: 31.0867
Branch types
NOT_BRANCH: 151903657 75.9518%
BRANCH_DIRECT_JUMP: 71122 0.035561%
BRANCH_INDIRECT: 0 0%
BRANCH_CONDITIONAL: 48019335 24.0097%
BRANCH_DIRECT_CALL: 2988 0.001494%
BRANCH_INDIRECT_CALL: 0 0%
BRANCH_RETURN: 2988 0.001494%
BRANCH_OTHER: 0 0%


CPU 3 Branch Prediction Accuracy: 99.9772% MPKI: 0.0779477 Average ROB Occupancy at Mispredict: 108.098
Branch types
NOT_BRANCH: 3148528378 65.7302%
BRANCH_DIRECT_JUMP: 266 5.55315e-06%
BRANCH_INDIRECT: 0 0%
BRANCH_CONDITIONAL: 1641548957 34.2698%
BRANCH_DIRECT_CALL: 114 2.37992e-06%
BRANCH_INDIRECT_CALL: 19 3.96653e-07%
BRANCH_RETURN: 152 3.17323e-06%
BRANCH_OTHER: 0 0%

DRAM PAGES: 1048576
Allocated PAGES: 537059
