
*** ChampSim Multicore Out-of-Order Simulator ***

Warmup Instructions: 50000000
Simulation Instructions: 200000000
Number of CPUs: 4
LLC sets: 8192
LLC ways: 16
Off-chip DRAM Size: 4096 MB Channels: 1 Width: 64-bit Data Rate: 6400 MT/s
CPU 0 runs ./traces/ligra/ligra_BellmanFord.com-lj.ungraph.gcc_6.3.0_O3.drop_7500M.length_250M.champsimtrace.xz
.xz
CPU 1 runs ./traces/ligra/ligra_BellmanFord.com-lj.ungraph.gcc_6.3.0_O3.drop_7500M.length_250M.champsimtrace.xz
.xz
CPU 2 runs ./traces/ligra/ligra_BellmanFord.com-lj.ungraph.gcc_6.3.0_O3.drop_7500M.length_250M.champsimtrace.xz
.xz
CPU 3 runs ./traces/ligra/ligra_BellmanFord.com-lj.ungraph.gcc_6.3.0_O3.drop_7500M.length_250M.champsimtrace.xz
.xz
BTB has LRU replacement policy
ITLB has LRU replacement policy
DTLB has LRU replacement policy
STLB has LRU replacement policy
L1I has LRU replacement policy
IP Table Entries: 1024
CSPT Entries: 128
RR_ENTRIES: 32
RST_ENTRIES: 8
L1D has LRU replacement policy
Initialize SRRIP state for L2C
Initialize DRRIP state for LLC
BTB has LRU replacement policy
ITLB has LRU replacement policy
DTLB has LRU replacement policy
STLB has LRU replacement policy
L1I has LRU replacement policy
IP Table Entries: 1024
CSPT Entries: 128
RR_ENTRIES: 32
RST_ENTRIES: 8
L1D has LRU replacement policy
Initialize SRRIP state for L2C
Initialize DRRIP state for LLC
BTB has LRU replacement policy
ITLB has LRU replacement policy
DTLB has LRU replacement policy
STLB has LRU replacement policy
L1I has LRU replacement policy
IP Table Entries: 1024
CSPT Entries: 128
RR_ENTRIES: 32
RST_ENTRIES: 8
L1D has LRU replacement policy
Initialize SRRIP state for L2C
Initialize DRRIP state for LLC
BTB has LRU replacement policy
ITLB has LRU replacement policy
DTLB has LRU replacement policy
STLB has LRU replacement policy
L1I has LRU replacement policy
IP Table Entries: 1024
CSPT Entries: 128
RR_ENTRIES: 32
RST_ENTRIES: 8
L1D has LRU replacement policy
Initialize SRRIP state for L2C
Initialize DRRIP state for LLC
Heartbeat CPU 0 instructions: 10000002 cycles: 3835979 heartbeat IPC: 2.6069 cumulative IPC: 2.6069 (Simulation time: 0 hr 3 min 30 sec) 
Heartbeat CPU 1 instructions: 10000002 cycles: 3837337 heartbeat IPC: 2.60597 cumulative IPC: 2.60597 (Simulation time: 0 hr 3 min 30 sec) 
Heartbeat CPU 2 instructions: 10000002 cycles: 3837338 heartbeat IPC: 2.60597 cumulative IPC: 2.60597 (Simulation time: 0 hr 3 min 30 sec) 
Heartbeat CPU 3 instructions: 10000002 cycles: 3837341 heartbeat IPC: 2.60597 cumulative IPC: 2.60597 (Simulation time: 0 hr 3 min 30 sec) 
Heartbeat CPU 0 instructions: 20000001 cycles: 7672017 heartbeat IPC: 2.60686 cumulative IPC: 2.60688 (Simulation time: 0 hr 6 min 53 sec) 
Heartbeat CPU 1 instructions: 20000001 cycles: 7674722 heartbeat IPC: 2.60594 cumulative IPC: 2.60596 (Simulation time: 0 hr 6 min 53 sec) 
Heartbeat CPU 2 instructions: 20000001 cycles: 7674732 heartbeat IPC: 2.60593 cumulative IPC: 2.60595 (Simulation time: 0 hr 6 min 53 sec) 
Heartbeat CPU 3 instructions: 20000001 cycles: 7674737 heartbeat IPC: 2.60593 cumulative IPC: 2.60595 (Simulation time: 0 hr 6 min 53 sec) 
Heartbeat CPU 0 instructions: 30000002 cycles: 11507973 heartbeat IPC: 2.60691 cumulative IPC: 2.60689 (Simulation time: 0 hr 10 min 20 sec) 
Heartbeat CPU 1 instructions: 30000002 cycles: 11510678 heartbeat IPC: 2.60691 cumulative IPC: 2.60628 (Simulation time: 0 hr 10 min 20 sec) 
Heartbeat CPU 2 instructions: 30000002 cycles: 11511863 heartbeat IPC: 2.60611 cumulative IPC: 2.60601 (Simulation time: 0 hr 10 min 20 sec) 
Heartbeat CPU 3 instructions: 30000002 cycles: 11511961 heartbeat IPC: 2.60605 cumulative IPC: 2.60599 (Simulation time: 0 hr 10 min 20 sec) 
Heartbeat CPU 0 instructions: 40000002 cycles: 15343966 heartbeat IPC: 2.60689 cumulative IPC: 2.60689 (Simulation time: 0 hr 14 min 9 sec) 
Heartbeat CPU 1 instructions: 40000002 cycles: 15346671 heartbeat IPC: 2.60689 cumulative IPC: 2.60643 (Simulation time: 0 hr 14 min 9 sec) 
Heartbeat CPU 2 instructions: 40000002 cycles: 15348075 heartbeat IPC: 2.60674 cumulative IPC: 2.60619 (Simulation time: 0 hr 14 min 9 sec) 
Heartbeat CPU 3 instructions: 40000002 cycles: 15348781 heartbeat IPC: 2.60632 cumulative IPC: 2.60607 (Simulation time: 0 hr 14 min 9 sec) 
Heartbeat CPU 0 instructions: 50000000 cycles: 19179990 heartbeat IPC: 2.60687 cumulative IPC: 2.60688 (Simulation time: 0 hr 17 min 43 sec) 
Heartbeat CPU 1 instructions: 50000000 cycles: 19182695 heartbeat IPC: 2.60687 cumulative IPC: 2.60652 (Simulation time: 0 hr 17 min 43 sec) 
Heartbeat CPU 2 instructions: 50000000 cycles: 19184099 heartbeat IPC: 2.60687 cumulative IPC: 2.60633 (Simulation time: 0 hr 17 min 43 sec) 
Heartbeat CPU 3 instructions: 50000000 cycles: 19184919 heartbeat IPC: 2.60679 cumulative IPC: 2.60621 (Simulation time: 0 hr 17 min 43 sec) 

Warmup complete CPU 0 instructions: 50012826 cycles: 19184920 (Simulation time: 0 hr 17 min 43 sec) 
Warmup complete CPU 1 instructions: 50005788 cycles: 19184920 (Simulation time: 0 hr 17 min 43 sec) 
Warmup complete CPU 2 instructions: 50002142 cycles: 19184920 (Simulation time: 0 hr 17 min 43 sec) 
Warmup complete CPU 3 instructions: 50000003 cycles: 19184920 (Simulation time: 0 hr 17 min 43 sec) 

Heartbeat CPU 0 instructions: 60000001 cycles: 27685444 heartbeat IPC: 1.17572 cumulative IPC: 1.17489 (Simulation time: 0 hr 20 min 11 sec) 
Heartbeat CPU 1 instructions: 60000001 cycles: 27693302 heartbeat IPC: 1.175 cumulative IPC: 1.17463 (Simulation time: 0 hr 20 min 11 sec) 
Heartbeat CPU 2 instructions: 60000001 cycles: 27697312 heartbeat IPC: 1.17464 cumulative IPC: 1.17451 (Simulation time: 0 hr 20 min 12 sec) 
Heartbeat CPU 3 instructions: 60000001 cycles: 27702168 heartbeat IPC: 1.17409 cumulative IPC: 1.17409 (Simulation time: 0 hr 20 min 12 sec) 
Heartbeat CPU 0 instructions: 70000002 cycles: 36198923 heartbeat IPC: 1.17461 cumulative IPC: 1.17475 (Simulation time: 0 hr 22 min 50 sec) 
Heartbeat CPU 1 instructions: 70000002 cycles: 36205774 heartbeat IPC: 1.17475 cumulative IPC: 1.17469 (Simulation time: 0 hr 22 min 50 sec) 
Heartbeat CPU 2 instructions: 70000002 cycles: 36214834 heartbeat IPC: 1.17405 cumulative IPC: 1.17428 (Simulation time: 0 hr 22 min 50 sec) 
Heartbeat CPU 3 instructions: 70000002 cycles: 36221124 heartbeat IPC: 1.17385 cumulative IPC: 1.17397 (Simulation time: 0 hr 22 min 50 sec) 
Heartbeat CPU 0 instructions: 80000002 cycles: 44709298 heartbeat IPC: 1.17504 cumulative IPC: 1.17484 (Simulation time: 0 hr 25 min 17 sec) 
Heartbeat CPU 1 instructions: 80000002 cycles: 44715425 heartbeat IPC: 1.17514 cumulative IPC: 1.17484 (Simulation time: 0 hr 25 min 17 sec) 
Heartbeat CPU 2 instructions: 80000002 cycles: 44725591 heartbeat IPC: 1.17498 cumulative IPC: 1.17451 (Simulation time: 0 hr 25 min 17 sec) 
Heartbeat CPU 3 instructions: 80000002 cycles: 44732532 heartbeat IPC: 1.17489 cumulative IPC: 1.17428 (Simulation time: 0 hr 25 min 17 sec) 
Heartbeat CPU 0 instructions: 90000000 cycles: 53213440 heartbeat IPC: 1.1759 cumulative IPC: 1.17511 (Simulation time: 0 hr 27 min 56 sec) 
Heartbeat CPU 1 instructions: 90000000 cycles: 53229498 heartbeat IPC: 1.17453 cumulative IPC: 1.17476 (Simulation time: 0 hr 27 min 56 sec) 
Heartbeat CPU 2 instructions: 90000000 cycles: 53237835 heartbeat IPC: 1.17478 cumulative IPC: 1.17458 (Simulation time: 0 hr 27 min 56 sec) 
Heartbeat CPU 3 instructions: 90000000 cycles: 53245743 heartbeat IPC: 1.17464 cumulative IPC: 1.17437 (Simulation time: 0 hr 27 min 56 sec) 
Heartbeat CPU 0 instructions: 100000002 cycles: 61729456 heartbeat IPC: 1.17426 cumulative IPC: 1.17494 (Simulation time: 0 hr 30 min 12 sec) 
Heartbeat CPU 1 instructions: 100000002 cycles: 61741799 heartbeat IPC: 1.17477 cumulative IPC: 1.17476 (Simulation time: 0 hr 30 min 13 sec) 
Heartbeat CPU 2 instructions: 100000002 cycles: 61750314 heartbeat IPC: 1.17475 cumulative IPC: 1.17461 (Simulation time: 0 hr 30 min 13 sec) 
Heartbeat CPU 3 instructions: 100000002 cycles: 61757124 heartbeat IPC: 1.1749 cumulative IPC: 1.17448 (Simulation time: 0 hr 30 min 13 sec) 
Heartbeat CPU 0 instructions: 110000000 cycles: 70235091 heartbeat IPC: 1.17569 cumulative IPC: 1.17506 (Simulation time: 0 hr 32 min 52 sec) 
Heartbeat CPU 1 instructions: 110000000 cycles: 70250341 heartbeat IPC: 1.17529 cumulative IPC: 1.17485 (Simulation time: 0 hr 32 min 52 sec) 
Heartbeat CPU 2 instructions: 110000000 cycles: 70258729 heartbeat IPC: 1.17531 cumulative IPC: 1.17473 (Simulation time: 0 hr 32 min 53 sec) 
Heartbeat CPU 3 instructions: 110000000 cycles: 70264521 heartbeat IPC: 1.17545 cumulative IPC: 1.17464 (Simulation time: 0 hr 32 min 53 sec) 
Heartbeat CPU 0 instructions: 120000002 cycles: 78745666 heartbeat IPC: 1.17501 cumulative IPC: 1.17506 (Simulation time: 0 hr 35 min 23 sec) 
Heartbeat CPU 1 instructions: 120000002 cycles: 78758097 heartbeat IPC: 1.1754 cumulative IPC: 1.17493 (Simulation time: 0 hr 35 min 23 sec) 
Heartbeat CPU 2 instructions: 120000002 cycles: 78762017 heartbeat IPC: 1.17602 cumulative IPC: 1.17491 (Simulation time: 0 hr 35 min 23 sec) 
Heartbeat CPU 3 instructions: 120000002 cycles: 78772729 heartbeat IPC: 1.17534 cumulative IPC: 1.17474 (Simulation time: 0 hr 35 min 23 sec) 
Heartbeat CPU 0 instructions: 130000000 cycles: 87264251 heartbeat IPC: 1.1739 cumulative IPC: 1.17491 (Simulation time: 0 hr 37 min 54 sec) 
Heartbeat CPU 1 instructions: 130000000 cycles: 87274215 heartbeat IPC: 1.17424 cumulative IPC: 1.17484 (Simulation time: 0 hr 37 min 54 sec) 
Heartbeat CPU 2 instructions: 130000000 cycles: 87278596 heartbeat IPC: 1.17418 cumulative IPC: 1.17482 (Simulation time: 0 hr 37 min 54 sec) 
Heartbeat CPU 3 instructions: 130000000 cycles: 87288436 heartbeat IPC: 1.1743 cumulative IPC: 1.17468 (Simulation time: 0 hr 37 min 54 sec) 
Heartbeat CPU 0 instructions: 140000000 cycles: 95777230 heartbeat IPC: 1.17468 cumulative IPC: 1.17489 (Simulation time: 0 hr 40 min 40 sec) 
Heartbeat CPU 1 instructions: 140000000 cycles: 95782964 heartbeat IPC: 1.17526 cumulative IPC: 1.17489 (Simulation time: 0 hr 40 min 40 sec) 
Heartbeat CPU 2 instructions: 140000000 cycles: 95791291 heartbeat IPC: 1.17472 cumulative IPC: 1.17481 (Simulation time: 0 hr 40 min 40 sec) 
Heartbeat CPU 3 instructions: 140000000 cycles: 95797923 heartbeat IPC: 1.17516 cumulative IPC: 1.17474 (Simulation time: 0 hr 40 min 40 sec) 
Heartbeat CPU 0 instructions: 150000001 cycles: 104290492 heartbeat IPC: 1.17464 cumulative IPC: 1.17486 (Simulation time: 0 hr 43 min 8 sec) 
Heartbeat CPU 1 instructions: 150000001 cycles: 104302191 heartbeat IPC: 1.17382 cumulative IPC: 1.17478 (Simulation time: 0 hr 43 min 8 sec) 
Heartbeat CPU 2 instructions: 150000001 cycles: 104306683 heartbeat IPC: 1.17434 cumulative IPC: 1.17476 (Simulation time: 0 hr 43 min 8 sec) 
Heartbeat CPU 3 instructions: 150000001 cycles: 104316615 heartbeat IPC: 1.17389 cumulative IPC: 1.17465 (Simulation time: 0 hr 43 min 8 sec) 
Heartbeat CPU 0 instructions: 160000002 cycles: 112803501 heartbeat IPC: 1.17467 cumulative IPC: 1.17484 (Simulation time: 0 hr 45 min 45 sec) 
Heartbeat CPU 1 instructions: 160000002 cycles: 112813719 heartbeat IPC: 1.17488 cumulative IPC: 1.17479 (Simulation time: 0 hr 45 min 45 sec) 
Heartbeat CPU 2 instructions: 160000002 cycles: 112819335 heartbeat IPC: 1.17472 cumulative IPC: 1.17476 (Simulation time: 0 hr 45 min 45 sec) 
Heartbeat CPU 3 instructions: 160000002 cycles: 112823861 heartbeat IPC: 1.17547 cumulative IPC: 1.17472 (Simulation time: 0 hr 45 min 45 sec) 
Heartbeat CPU 0 instructions: 170000000 cycles: 121318971 heartbeat IPC: 1.17433 cumulative IPC: 1.1748 (Simulation time: 0 hr 48 min 8 sec) 
Heartbeat CPU 1 instructions: 170000000 cycles: 121327637 heartbeat IPC: 1.17455 cumulative IPC: 1.17477 (Simulation time: 0 hr 48 min 8 sec) 
Heartbeat CPU 2 instructions: 170000000 cycles: 121335213 heartbeat IPC: 1.17428 cumulative IPC: 1.17472 (Simulation time: 0 hr 48 min 8 sec) 
Heartbeat CPU 3 instructions: 170000000 cycles: 121351871 heartbeat IPC: 1.17261 cumulative IPC: 1.17455 (Simulation time: 0 hr 48 min 9 sec) 
Heartbeat CPU 0 instructions: 180000000 cycles: 129833530 heartbeat IPC: 1.17446 cumulative IPC: 1.17477 (Simulation time: 0 hr 50 min 25 sec) 
Heartbeat CPU 1 instructions: 180000000 cycles: 129842607 heartbeat IPC: 1.1744 cumulative IPC: 1.17474 (Simulation time: 0 hr 50 min 25 sec) 
Heartbeat CPU 2 instructions: 180000000 cycles: 129848529 heartbeat IPC: 1.17463 cumulative IPC: 1.17471 (Simulation time: 0 hr 50 min 25 sec) 
Heartbeat CPU 3 instructions: 180000000 cycles: 129855141 heartbeat IPC: 1.17602 cumulative IPC: 1.17466 (Simulation time: 0 hr 50 min 25 sec) 
Heartbeat CPU 0 instructions: 190000000 cycles: 139482228 heartbeat IPC: 1.03641 cumulative IPC: 1.16368 (Simulation time: 0 hr 53 min 17 sec) 
Heartbeat CPU 1 instructions: 190000000 cycles: 139494581 heartbeat IPC: 1.03606 cumulative IPC: 1.16362 (Simulation time: 0 hr 53 min 18 sec) 
Heartbeat CPU 2 instructions: 190000000 cycles: 139505852 heartbeat IPC: 1.03548 cumulative IPC: 1.16354 (Simulation time: 0 hr 53 min 18 sec) 
Heartbeat CPU 3 instructions: 190000000 cycles: 139514340 heartbeat IPC: 1.03528 cumulative IPC: 1.16347 (Simulation time: 0 hr 53 min 18 sec) 
Heartbeat CPU 0 instructions: 200000000 cycles: 155673966 heartbeat IPC: 0.617599 cumulative IPC: 1.0989 (Simulation time: 0 hr 55 min 58 sec) 
Heartbeat CPU 1 instructions: 200000000 cycles: 155693610 heartbeat IPC: 0.617321 cumulative IPC: 1.09879 (Simulation time: 0 hr 55 min 58 sec) 
Heartbeat CPU 2 instructions: 200000000 cycles: 155709520 heartbeat IPC: 0.617144 cumulative IPC: 1.09869 (Simulation time: 0 hr 55 min 58 sec) 
Heartbeat CPU 3 instructions: 200000000 cycles: 155721842 heartbeat IPC: 0.616998 cumulative IPC: 1.0986 (Simulation time: 0 hr 55 min 58 sec) 
Heartbeat CPU 0 instructions: 210000000 cycles: 171884944 heartbeat IPC: 0.616866 cumulative IPC: 1.04772 (Simulation time: 0 hr 58 min 26 sec) 
Heartbeat CPU 1 instructions: 210000000 cycles: 171906925 heartbeat IPC: 0.616777 cumulative IPC: 1.04762 (Simulation time: 0 hr 58 min 26 sec) 
Heartbeat CPU 2 instructions: 210000000 cycles: 171916913 heartbeat IPC: 0.617002 cumulative IPC: 1.04757 (Simulation time: 0 hr 58 min 27 sec) 
Heartbeat CPU 3 instructions: 210000000 cycles: 171936901 heartbeat IPC: 0.616711 cumulative IPC: 1.04745 (Simulation time: 0 hr 58 min 27 sec) 
Heartbeat CPU 0 instructions: 220000000 cycles: 188085319 heartbeat IPC: 0.61727 cumulative IPC: 1.00643 (Simulation time: 1 hr 1 min 21 sec) 
Heartbeat CPU 1 instructions: 220000000 cycles: 188113887 heartbeat IPC: 0.617019 cumulative IPC: 1.00631 (Simulation time: 1 hr 1 min 21 sec) 
Heartbeat CPU 2 instructions: 220000000 cycles: 188128203 heartbeat IPC: 0.616854 cumulative IPC: 1.00624 (Simulation time: 1 hr 1 min 21 sec) 
Heartbeat CPU 3 instructions: 220000000 cycles: 188139001 heartbeat IPC: 0.617204 cumulative IPC: 1.00619 (Simulation time: 1 hr 1 min 21 sec) 
Heartbeat CPU 0 instructions: 230000001 cycles: 204279117 heartbeat IPC: 0.61752 cumulative IPC: 0.972409 (Simulation time: 1 hr 4 min 12 sec) 
Heartbeat CPU 1 instructions: 230000001 cycles: 204309748 heartbeat IPC: 0.617442 cumulative IPC: 0.972286 (Simulation time: 1 hr 4 min 12 sec) 
Heartbeat CPU 2 instructions: 230000001 cycles: 204328148 heartbeat IPC: 0.617286 cumulative IPC: 0.972209 (Simulation time: 1 hr 4 min 12 sec) 
Heartbeat CPU 3 instructions: 230000001 cycles: 204338238 heartbeat IPC: 0.617313 cumulative IPC: 0.972167 (Simulation time: 1 hr 4 min 12 sec) 
Heartbeat CPU 0 instructions: 240000000 cycles: 220477710 heartbeat IPC: 0.617338 cumulative IPC: 0.943835 (Simulation time: 1 hr 7 min 2 sec) 
Heartbeat CPU 1 instructions: 240000000 cycles: 220520999 heartbeat IPC: 0.616856 cumulative IPC: 0.943667 (Simulation time: 1 hr 7 min 2 sec) 
Heartbeat CPU 2 instructions: 240000000 cycles: 220532731 heartbeat IPC: 0.617109 cumulative IPC: 0.94363 (Simulation time: 1 hr 7 min 2 sec) 
Heartbeat CPU 3 instructions: 240000000 cycles: 220554182 heartbeat IPC: 0.616677 cumulative IPC: 0.94354 (Simulation time: 1 hr 7 min 2 sec) 
*** Reached end of trace for Core: 0 Repeating trace: ./traces/ligra/ligra_BellmanFord.com-lj.ungraph.gcc_6.3.0_O3.drop_7500M.length_250M.champsimtrace.xz
Heartbeat CPU 0 instructions: 250000001 cycles: 236681574 heartbeat IPC: 0.617137 cumulative IPC: 0.919495 (Simulation time: 1 hr 9 min 51 sec) 
Finished CPU 0 instructions: 200000000 cycles: 217511949 cumulative IPC: 0.91949 (Simulation time: 1 hr 9 min 52 sec) 
*** Reached end of trace for Core: 1 Repeating trace: ./traces/ligra/ligra_BellmanFord.com-lj.ungraph.gcc_6.3.0_O3.drop_7500M.length_250M.champsimtrace.xz
Heartbeat CPU 1 instructions: 250000001 cycles: 236722137 heartbeat IPC: 0.617241 cumulative IPC: 0.919356 (Simulation time: 1 hr 9 min 52 sec) 
Finished CPU 1 instructions: 200000002 cycles: 217546999 cumulative IPC: 0.919342 (Simulation time: 1 hr 9 min 52 sec) 
*** Reached end of trace for Core: 2 Repeating trace: ./traces/ligra/ligra_BellmanFord.com-lj.ungraph.gcc_6.3.0_O3.drop_7500M.length_250M.champsimtrace.xz
Heartbeat CPU 2 instructions: 250000001 cycles: 236747222 heartbeat IPC: 0.616732 cumulative IPC: 0.919267 (Simulation time: 1 hr 9 min 52 sec) 
Finished CPU 2 instructions: 200000001 cycles: 217568182 cumulative IPC: 0.919252 (Simulation time: 1 hr 9 min 53 sec) 
*** Reached end of trace for Core: 3 Repeating trace: ./traces/ligra/ligra_BellmanFord.com-lj.ungraph.gcc_6.3.0_O3.drop_7500M.length_250M.champsimtrace.xz
Heartbeat CPU 3 instructions: 250000001 cycles: 236756142 heartbeat IPC: 0.617209 cumulative IPC: 0.919239 (Simulation time: 1 hr 9 min 53 sec) 
Finished CPU 3 instructions: 200000000 cycles: 217573254 cumulative IPC: 0.919231 (Simulation time: 1 hr 9 min 53 sec) 

ChampSim completed all CPUs

Total Simulation Statistics (not including warmup)

CPU 0 cumulative IPC: 0.919536 instructions: 200066334 cycles: 217573254
ITLB TOTAL     ACCESS:   31919874  HIT:   31919874  MISS:          0  HIT %:        100  MISS %:          0   MPKI: 0
ITLB LOAD      ACCESS:          0  HIT:          0  MISS:          0  HIT %:       -nan  MISS %:       -nan   MPKI: 0
ITLB RFO       ACCESS:          0  HIT:          0  MISS:          0  HIT %:       -nan  MISS %:       -nan   MPKI: 0
ITLB PREFETCH  ACCESS:          0  HIT:          0  MISS:          0  HIT %:       -nan  MISS %:       -nan   MPKI: 0
ITLB WRITEBACK ACCESS:          0  HIT:          0  MISS:          0  HIT %:       -nan  MISS %:       -nan   MPKI: 0
DTLB TOTAL     ACCESS:   23315670  HIT:   23292103  MISS:      23567  HIT %:    99.8989  MISS %:   0.101078   MPKI: 0.117796
DTLB LOAD      ACCESS:          0  HIT:          0  MISS:          0  HIT %:       -nan  MISS %:       -nan   MPKI: 0
DTLB RFO       ACCESS:          0  HIT:          0  MISS:          0  HIT %:       -nan  MISS %:       -nan   MPKI: 0
DTLB PREFETCH  ACCESS:          0  HIT:          0  MISS:          0  HIT %:       -nan  MISS %:       -nan   MPKI: 0
DTLB WRITEBACK ACCESS:          0  HIT:          0  MISS:          0  HIT %:       -nan  MISS %:       -nan   MPKI: 0
STLB TOTAL     ACCESS:     569054  HIT:     545487  MISS:      23567  HIT %:    95.8586  MISS %:    4.14143   MPKI: 0.117796
STLB LOAD      ACCESS:          0  HIT:          0  MISS:          0  HIT %:       -nan  MISS %:       -nan   MPKI: 0
STLB RFO       ACCESS:          0  HIT:          0  MISS:          0  HIT %:       -nan  MISS %:       -nan   MPKI: 0
STLB PREFETCH  ACCESS:          0  HIT:          0  MISS:          0  HIT %:       -nan  MISS %:       -nan   MPKI: 0
STLB WRITEBACK ACCESS:          0  HIT:          0  MISS:          0  HIT %:       -nan  MISS %:       -nan   MPKI: 0
L1D TOTAL     ACCESS:   18599140  HIT:   17087266  MISS:    1511874  HIT %:    91.8713  MISS %:    8.12873   MPKI: 7.55686
L1D LOAD      ACCESS:   16116576  HIT:   16105891  MISS:      10685  HIT %:    99.9337  MISS %:  0.0662982   MPKI: 0.0534073
L1D RFO       ACCESS:    1603707  HIT:     675678  MISS:     928029  HIT %:    42.1323  MISS %:    57.8677   MPKI: 4.63861
L1D PREFETCH  ACCESS:     878857  HIT:     305697  MISS:     573160  HIT %:    34.7835  MISS %:    65.2165   MPKI: 2.86485
L1D WRITEBACK ACCESS:          0  HIT:          0  MISS:          0  HIT %:       -nan  MISS %:       -nan   MPKI: 0
L1I TOTAL     ACCESS:   31937931  HIT:   31937931  MISS:          0  HIT %:        100  MISS %:          0   MPKI: 0
L1I LOAD      ACCESS:   31937931  HIT:   31937931  MISS:          0  HIT %:        100  MISS %:          0   MPKI: 0
L1I RFO       ACCESS:          0  HIT:          0  MISS:          0  HIT %:       -nan  MISS %:       -nan   MPKI: 0
L1I PREFETCH  ACCESS:          0  HIT:          0  MISS:          0  HIT %:       -nan  MISS %:       -nan   MPKI: 0
L1I WRITEBACK ACCESS:          0  HIT:          0  MISS:          0  HIT %:       -nan  MISS %:       -nan   MPKI: 0
L2C TOTAL     ACCESS:    2463406  HIT:     660680  MISS:    1802726  HIT %:    26.8198  MISS %:    73.1802   MPKI: 9.01064
L2C LOAD      ACCESS:       9731  HIT:        639  MISS:       9092  HIT %:    6.56664  MISS %:    93.4334   MPKI: 0.0454449
L2C RFO       ACCESS:     928029  HIT:          0  MISS:     928029  HIT %:          0  MISS %:        100   MPKI: 4.63861
L2C PREFETCH  ACCESS:     574114  HIT:       2934  MISS:     571180  HIT %:   0.511048  MISS %:     99.489   MPKI: 2.85495
L2C WRITEBACK ACCESS:     927962  HIT:     636567  MISS:     291395  HIT %:    68.5984  MISS %:    31.4016   MPKI: 1.45649
PSCL5 TOTAL     ACCESS:      23567  HIT:      23567  MISS:          0  HIT %:        100  MISS %:          0   MPKI: 0
PSCL5 LOAD      ACCESS:          0  HIT:          0  MISS:          0  HIT %:       -nan  MISS %:       -nan   MPKI: 0
PSCL5 RFO       ACCESS:          0  HIT:          0  MISS:          0  HIT %:       -nan  MISS %:       -nan   MPKI: 0
PSCL5 PREFETCH  ACCESS:          0  HIT:          0  MISS:          0  HIT %:       -nan  MISS %:       -nan   MPKI: 0
PSCL5 WRITEBACK ACCESS:          0  HIT:          0  MISS:          0  HIT %:       -nan  MISS %:       -nan   MPKI: 0
PSCL4 TOTAL     ACCESS:      23567  HIT:      23567  MISS:          0  HIT %:        100  MISS %:          0   MPKI: 0
PSCL4 LOAD      ACCESS:          0  HIT:          0  MISS:          0  HIT %:       -nan  MISS %:       -nan   MPKI: 0
PSCL4 RFO       ACCESS:          0  HIT:          0  MISS:          0  HIT %:       -nan  MISS %:       -nan   MPKI: 0
PSCL4 PREFETCH  ACCESS:          0  HIT:          0  MISS:          0  HIT %:       -nan  MISS %:       -nan   MPKI: 0
PSCL4 WRITEBACK ACCESS:          0  HIT:          0  MISS:          0  HIT %:       -nan  MISS %:       -nan   MPKI: 0
PSCL3 TOTAL     ACCESS:      23567  HIT:      23567  MISS:          0  HIT %:        100  MISS %:          0   MPKI: 0
PSCL3 LOAD      ACCESS:          0  HIT:          0  MISS:          0  HIT %:       -nan  MISS %:       -nan   MPKI: 0
PSCL3 RFO       ACCESS:          0  HIT:          0  MISS:          0  HIT %:       -nan  MISS %:       -nan   MPKI: 0
PSCL3 PREFETCH  ACCESS:          0  HIT:          0  MISS:          0  HIT %:       -nan  MISS %:       -nan   MPKI: 0
PSCL3 WRITEBACK ACCESS:          0  HIT:          0  MISS:          0  HIT %:       -nan  MISS %:       -nan   MPKI: 0
PSCL2 TOTAL     ACCESS:      23567  HIT:      23518  MISS:         49  HIT %:    99.7921  MISS %:   0.207918   MPKI: 0.000244919
PSCL2 LOAD      ACCESS:          0  HIT:          0  MISS:          0  HIT %:       -nan  MISS %:       -nan   MPKI: 0
PSCL2 RFO       ACCESS:          0  HIT:          0  MISS:          0  HIT %:       -nan  MISS %:       -nan   MPKI: 0
PSCL2 PREFETCH  ACCESS:          0  HIT:          0  MISS:          0  HIT %:       -nan  MISS %:       -nan   MPKI: 0
PSCL2 WRITEBACK ACCESS:          0  HIT:          0  MISS:          0  HIT %:       -nan  MISS %:       -nan   MPKI: 0

stream: 
stream:times selected: 1184275
stream:pref_filled: 716996
stream:pref_useful: 713173
stream:pref_late: 884
stream:misses: 139
stream:misses_by_poll: 0

CS: 
CS:times selected: 1184264
CS:pref_filled: 3021
CS:pref_useful: 3018
CS:pref_late: 61
CS:misses: 56691
CS:misses_by_poll: 6

CPLX: 
CPLX:times selected: 8
CPLX:pref_filled: 0
CPLX:pref_useful: 0
CPLX:pref_late: 0
CPLX:misses: 0
CPLX:misses_by_poll: 0

NL_L1: 
NL:times selected: 0
NL:pref_filled: 0
NL:pref_useful: 0
NL:pref_late: 0
NL:misses: 0
NL:misses_by_poll: 0

total selections: 2368547
total_filled: 573160
total_useful: 569364
total_late: 954
total_polluted: 6
total_misses_after_warmup: 51051
conflicts: 0
Degree Incremented Times: 759437
Degree Decremented Times: 0

L1 IP Table Write Accesses: 64616868
L1 IP Table Read Accesses: 64616868
L1 RST Write Accesses: 4139514
L1 RST Read Accesses: 8279028
L1 CSPT Write Accesses: 4139514
L1 CSPT Read Accesses: 4139514
L1 RR Filter Tag Write Accesses: 3515689
L1 RR Filter Tag Read Accesses: 681194872
L1 IP Table Tag Write Accesses: 64616868
L1 IP Table Tag Read Accesses: 64616868
L1 RST Tag Write Accesses: 0
L1 RST Tag Read Accesses: 37518037
L1 RR Filter Write Accesses: 0
L1 RR Filter Read Accesses: 35530223
test: 45231
LLC TOTAL     ACCESS:    2437152  HIT:     877340  MISS:    1559812  HIT %:    35.9986  MISS %:    64.0014   MPKI: 7.79647
LLC LOAD      ACCESS:       9092  HIT:         10  MISS:       9082  HIT %:   0.109987  MISS %:      99.89   MPKI: 0.0453949
LLC RFO       ACCESS:     928029  HIT:          0  MISS:     928029  HIT %:          0  MISS %:        100   MPKI: 4.63861
LLC PREFETCH  ACCESS:     571180  HIT:        195  MISS:     570985  HIT %:  0.0341399  MISS %:    99.9659   MPKI: 2.85398
LLC WRITEBACK ACCESS:     925821  HIT:     877124  MISS:      48697  HIT %:    94.7401  MISS %:    5.25987   MPKI: 0.243404

RAW hits: 0
Loads Generated: 37032759
Loads sent to L1D: 37032759
Stores Generated: 7424231
Stores sent to L1D: 7424229

CPU 1 cumulative IPC: 0.919373 instructions: 200030936 cycles: 217573254
ITLB TOTAL     ACCESS:   31914013  HIT:   31914013  MISS:          0  HIT %:        100  MISS %:          0   MPKI: 0
ITLB LOAD      ACCESS:          0  HIT:          0  MISS:          0  HIT %:       -nan  MISS %:       -nan   MPKI: 0
ITLB RFO       ACCESS:          0  HIT:          0  MISS:          0  HIT %:       -nan  MISS %:       -nan   MPKI: 0
ITLB PREFETCH  ACCESS:          0  HIT:          0  MISS:          0  HIT %:       -nan  MISS %:       -nan   MPKI: 0
ITLB WRITEBACK ACCESS:          0  HIT:          0  MISS:          0  HIT %:       -nan  MISS %:       -nan   MPKI: 0
DTLB TOTAL     ACCESS:   23310549  HIT:   23286986  MISS:      23563  HIT %:    99.8989  MISS %:   0.101083   MPKI: 0.117797
DTLB LOAD      ACCESS:          0  HIT:          0  MISS:          0  HIT %:       -nan  MISS %:       -nan   MPKI: 0
DTLB RFO       ACCESS:          0  HIT:          0  MISS:          0  HIT %:       -nan  MISS %:       -nan   MPKI: 0
DTLB PREFETCH  ACCESS:          0  HIT:          0  MISS:          0  HIT %:       -nan  MISS %:       -nan   MPKI: 0
DTLB WRITEBACK ACCESS:          0  HIT:          0  MISS:          0  HIT %:       -nan  MISS %:       -nan   MPKI: 0
STLB TOTAL     ACCESS:     569204  HIT:     545641  MISS:      23563  HIT %:    95.8604  MISS %:    4.13964   MPKI: 0.117797
STLB LOAD      ACCESS:          0  HIT:          0  MISS:          0  HIT %:       -nan  MISS %:       -nan   MPKI: 0
STLB RFO       ACCESS:          0  HIT:          0  MISS:          0  HIT %:       -nan  MISS %:       -nan   MPKI: 0
STLB PREFETCH  ACCESS:          0  HIT:          0  MISS:          0  HIT %:       -nan  MISS %:       -nan   MPKI: 0
STLB WRITEBACK ACCESS:          0  HIT:          0  MISS:          0  HIT %:       -nan  MISS %:       -nan   MPKI: 0
L1D TOTAL     ACCESS:   18587226  HIT:   17075588  MISS:    1511638  HIT %:    91.8673  MISS %:    8.13267   MPKI: 7.55702
L1D LOAD      ACCESS:   16110637  HIT:   16099757  MISS:      10880  HIT %:    99.9325  MISS %:   0.067533   MPKI: 0.0543916
L1D RFO       ACCESS:    1598938  HIT:     671017  MISS:     927921  HIT %:    41.9664  MISS %:    58.0336   MPKI: 4.63889
L1D PREFETCH  ACCESS:     877651  HIT:     304814  MISS:     572837  HIT %:    34.7307  MISS %:    65.2693   MPKI: 2.86374
L1D WRITEBACK ACCESS:          0  HIT:          0  MISS:          0  HIT %:       -nan  MISS %:       -nan   MPKI: 0
L1I TOTAL     ACCESS:   31932066  HIT:   31932066  MISS:          0  HIT %:        100  MISS %:          0   MPKI: 0
L1I LOAD      ACCESS:   31932066  HIT:   31932066  MISS:          0  HIT %:        100  MISS %:          0   MPKI: 0
L1I RFO       ACCESS:          0  HIT:          0  MISS:          0  HIT %:       -nan  MISS %:       -nan   MPKI: 0
L1I PREFETCH  ACCESS:          0  HIT:          0  MISS:          0  HIT %:       -nan  MISS %:       -nan   MPKI: 0
L1I WRITEBACK ACCESS:          0  HIT:          0  MISS:          0  HIT %:       -nan  MISS %:       -nan   MPKI: 0
L2C TOTAL     ACCESS:    2462987  HIT:     663560  MISS:    1799427  HIT %:    26.9413  MISS %:    73.0587   MPKI: 8.99574
L2C LOAD      ACCESS:       9871  HIT:        637  MISS:       9234  HIT %:    6.45325  MISS %:    93.5468   MPKI: 0.0461629
L2C RFO       ACCESS:     927921  HIT:          0  MISS:     927921  HIT %:          0  MISS %:        100   MPKI: 4.63889
L2C PREFETCH  ACCESS:     573846  HIT:       2913  MISS:     570933  HIT %:   0.507627  MISS %:    99.4924   MPKI: 2.85422
L2C WRITEBACK ACCESS:     927783  HIT:     639472  MISS:     288311  HIT %:    68.9247  MISS %:    31.0753   MPKI: 1.44133
PSCL5 TOTAL     ACCESS:      23563  HIT:      23563  MISS:          0  HIT %:        100  MISS %:          0   MPKI: 0
PSCL5 LOAD      ACCESS:          0  HIT:          0  MISS:          0  HIT %:       -nan  MISS %:       -nan   MPKI: 0
PSCL5 RFO       ACCESS:          0  HIT:          0  MISS:          0  HIT %:       -nan  MISS %:       -nan   MPKI: 0
PSCL5 PREFETCH  ACCESS:          0  HIT:          0  MISS:          0  HIT %:       -nan  MISS %:       -nan   MPKI: 0
PSCL5 WRITEBACK ACCESS:          0  HIT:          0  MISS:          0  HIT %:       -nan  MISS %:       -nan   MPKI: 0
PSCL4 TOTAL     ACCESS:      23563  HIT:      23563  MISS:          0  HIT %:        100  MISS %:          0   MPKI: 0
PSCL4 LOAD      ACCESS:          0  HIT:          0  MISS:          0  HIT %:       -nan  MISS %:       -nan   MPKI: 0
PSCL4 RFO       ACCESS:          0  HIT:          0  MISS:          0  HIT %:       -nan  MISS %:       -nan   MPKI: 0
PSCL4 PREFETCH  ACCESS:          0  HIT:          0  MISS:          0  HIT %:       -nan  MISS %:       -nan   MPKI: 0
PSCL4 WRITEBACK ACCESS:          0  HIT:          0  MISS:          0  HIT %:       -nan  MISS %:       -nan   MPKI: 0
PSCL3 TOTAL     ACCESS:      23563  HIT:      23563  MISS:          0  HIT %:        100  MISS %:          0   MPKI: 0
PSCL3 LOAD      ACCESS:          0  HIT:          0  MISS:          0  HIT %:       -nan  MISS %:       -nan   MPKI: 0
PSCL3 RFO       ACCESS:          0  HIT:          0  MISS:          0  HIT %:       -nan  MISS %:       -nan   MPKI: 0
PSCL3 PREFETCH  ACCESS:          0  HIT:          0  MISS:          0  HIT %:       -nan  MISS %:       -nan   MPKI: 0
PSCL3 WRITEBACK ACCESS:          0  HIT:          0  MISS:          0  HIT %:       -nan  MISS %:       -nan   MPKI: 0
PSCL2 TOTAL     ACCESS:      23563  HIT:      23514  MISS:         49  HIT %:     99.792  MISS %:   0.207953   MPKI: 0.000244962
PSCL2 LOAD      ACCESS:          0  HIT:          0  MISS:          0  HIT %:       -nan  MISS %:       -nan   MPKI: 0
PSCL2 RFO       ACCESS:          0  HIT:          0  MISS:          0  HIT %:       -nan  MISS %:       -nan   MPKI: 0
PSCL2 PREFETCH  ACCESS:          0  HIT:          0  MISS:          0  HIT %:       -nan  MISS %:       -nan   MPKI: 0
PSCL2 WRITEBACK ACCESS:          0  HIT:          0  MISS:          0  HIT %:       -nan  MISS %:       -nan   MPKI: 0

stream: 
stream:times selected: 1184060
stream:pref_filled: 658093
stream:pref_useful: 654304
stream:pref_late: 942
stream:misses: 120
stream:misses_by_poll: 0

CS: 
CS:times selected: 1184049
CS:pref_filled: 3002
CS:pref_useful: 2996
CS:pref_late: 54
CS:misses: 208896
CS:misses_by_poll: 8

CPLX: 
CPLX:times selected: 8
CPLX:pref_filled: 0
CPLX:pref_useful: 0
CPLX:pref_late: 0
CPLX:misses: 18
CPLX:misses_by_poll: 0

NL_L1: 
NL:times selected: 0
NL:pref_filled: 0
NL:pref_useful: 0
NL:pref_late: 0
NL:misses: 0
NL:misses_by_poll: 0

total selections: 2368117
total_filled: 572837
total_useful: 569064
total_late: 1009
total_polluted: 8
total_misses_after_warmup: 52630
conflicts: 0
Degree Incremented Times: 759437
Degree Decremented Times: 0

L1 IP Table Write Accesses: 64616868
L1 IP Table Read Accesses: 64616868
L1 RST Write Accesses: 4139514
L1 RST Read Accesses: 8279028
L1 CSPT Write Accesses: 4139514
L1 CSPT Read Accesses: 4139514
L1 RR Filter Tag Write Accesses: 3515689
L1 RR Filter Tag Read Accesses: 681194872
L1 IP Table Tag Write Accesses: 64616868
L1 IP Table Tag Read Accesses: 64616868
L1 RST Tag Write Accesses: 0
L1 RST Tag Read Accesses: 37518037
L1 RR Filter Write Accesses: 0
L1 RR Filter Read Accesses: 35530223
test: 45231
LLC TOTAL     ACCESS:    2437147  HIT:     881067  MISS:    1556080  HIT %:    36.1516  MISS %:    63.8484   MPKI: 7.7792
LLC LOAD      ACCESS:       9234  HIT:         10  MISS:       9224  HIT %:   0.108295  MISS %:    99.8917   MPKI: 0.0461129
LLC RFO       ACCESS:     927921  HIT:          0  MISS:     927921  HIT %:          0  MISS %:        100   MPKI: 4.63889
LLC PREFETCH  ACCESS:     570933  HIT:        203  MISS:     570730  HIT %:  0.0355558  MISS %:    99.9644   MPKI: 2.85321
LLC WRITEBACK ACCESS:     926031  HIT:     880841  MISS:      45190  HIT %:      95.12  MISS %:    4.87997   MPKI: 0.225915

RAW hits: 0
Loads Generated: 37026011
Loads sent to L1D: 37026010
Stores Generated: 7423389
Stores sent to L1D: 7423387

CPU 2 cumulative IPC: 0.919249 instructions: 200003939 cycles: 217573254
ITLB TOTAL     ACCESS:   31909344  HIT:   31909344  MISS:          0  HIT %:        100  MISS %:          0   MPKI: 0
ITLB LOAD      ACCESS:          0  HIT:          0  MISS:          0  HIT %:       -nan  MISS %:       -nan   MPKI: 0
ITLB RFO       ACCESS:          0  HIT:          0  MISS:          0  HIT %:       -nan  MISS %:       -nan   MPKI: 0
ITLB PREFETCH  ACCESS:          0  HIT:          0  MISS:          0  HIT %:       -nan  MISS %:       -nan   MPKI: 0
ITLB WRITEBACK ACCESS:          0  HIT:          0  MISS:          0  HIT %:       -nan  MISS %:       -nan   MPKI: 0
DTLB TOTAL     ACCESS:   23307231  HIT:   23283670  MISS:      23561  HIT %:    99.8989  MISS %:   0.101089   MPKI: 0.117803
DTLB LOAD      ACCESS:          0  HIT:          0  MISS:          0  HIT %:       -nan  MISS %:       -nan   MPKI: 0
DTLB RFO       ACCESS:          0  HIT:          0  MISS:          0  HIT %:       -nan  MISS %:       -nan   MPKI: 0
DTLB PREFETCH  ACCESS:          0  HIT:          0  MISS:          0  HIT %:       -nan  MISS %:       -nan   MPKI: 0
DTLB WRITEBACK ACCESS:          0  HIT:          0  MISS:          0  HIT %:       -nan  MISS %:       -nan   MPKI: 0
STLB TOTAL     ACCESS:     568217  HIT:     544656  MISS:      23561  HIT %:    95.8535  MISS %:    4.14648   MPKI: 0.117803
STLB LOAD      ACCESS:          0  HIT:          0  MISS:          0  HIT %:       -nan  MISS %:       -nan   MPKI: 0
STLB RFO       ACCESS:          0  HIT:          0  MISS:          0  HIT %:       -nan  MISS %:       -nan   MPKI: 0
STLB PREFETCH  ACCESS:          0  HIT:          0  MISS:          0  HIT %:       -nan  MISS %:       -nan   MPKI: 0
STLB WRITEBACK ACCESS:          0  HIT:          0  MISS:          0  HIT %:       -nan  MISS %:       -nan   MPKI: 0
L1D TOTAL     ACCESS:   18575650  HIT:   17064096  MISS:    1511554  HIT %:    91.8627  MISS %:    8.13729   MPKI: 7.55762
L1D LOAD      ACCESS:   16106357  HIT:   16095266  MISS:      11091  HIT %:    99.9311  MISS %:   0.068861   MPKI: 0.0554539
L1D RFO       ACCESS:    1593949  HIT:     666106  MISS:     927843  HIT %:    41.7897  MISS %:    58.2103   MPKI: 4.63912
L1D PREFETCH  ACCESS:     875344  HIT:     302724  MISS:     572620  HIT %:    34.5834  MISS %:    65.4166   MPKI: 2.86304
L1D WRITEBACK ACCESS:          0  HIT:          0  MISS:          0  HIT %:       -nan  MISS %:       -nan   MPKI: 0
L1I TOTAL     ACCESS:   31927394  HIT:   31927394  MISS:          0  HIT %:        100  MISS %:          0   MPKI: 0
L1I LOAD      ACCESS:   31927394  HIT:   31927394  MISS:          0  HIT %:        100  MISS %:          0   MPKI: 0
L1I RFO       ACCESS:          0  HIT:          0  MISS:          0  HIT %:       -nan  MISS %:       -nan   MPKI: 0
L1I PREFETCH  ACCESS:          0  HIT:          0  MISS:          0  HIT %:       -nan  MISS %:       -nan   MPKI: 0
L1I WRITEBACK ACCESS:          0  HIT:          0  MISS:          0  HIT %:       -nan  MISS %:       -nan   MPKI: 0
L2C TOTAL     ACCESS:    2462786  HIT:     663048  MISS:    1799738  HIT %:    26.9227  MISS %:    73.0773   MPKI: 8.99851
L2C LOAD      ACCESS:      10083  HIT:        648  MISS:       9435  HIT %:    6.42666  MISS %:    93.5733   MPKI: 0.0471741
L2C RFO       ACCESS:     927843  HIT:          0  MISS:     927843  HIT %:          0  MISS %:        100   MPKI: 4.63912
L2C PREFETCH  ACCESS:     573628  HIT:       2988  MISS:     570640  HIT %:   0.520895  MISS %:    99.4791   MPKI: 2.85314
L2C WRITEBACK ACCESS:     927668  HIT:     638874  MISS:     288794  HIT %:    68.8688  MISS %:    31.1312   MPKI: 1.44394
PSCL5 TOTAL     ACCESS:      23561  HIT:      23561  MISS:          0  HIT %:        100  MISS %:          0   MPKI: 0
PSCL5 LOAD      ACCESS:          0  HIT:          0  MISS:          0  HIT %:       -nan  MISS %:       -nan   MPKI: 0
PSCL5 RFO       ACCESS:          0  HIT:          0  MISS:          0  HIT %:       -nan  MISS %:       -nan   MPKI: 0
PSCL5 PREFETCH  ACCESS:          0  HIT:          0  MISS:          0  HIT %:       -nan  MISS %:       -nan   MPKI: 0
PSCL5 WRITEBACK ACCESS:          0  HIT:          0  MISS:          0  HIT %:       -nan  MISS %:       -nan   MPKI: 0
PSCL4 TOTAL     ACCESS:      23561  HIT:      23561  MISS:          0  HIT %:        100  MISS %:          0   MPKI: 0
PSCL4 LOAD      ACCESS:          0  HIT:          0  MISS:          0  HIT %:       -nan  MISS %:       -nan   MPKI: 0
PSCL4 RFO       ACCESS:          0  HIT:          0  MISS:          0  HIT %:       -nan  MISS %:       -nan   MPKI: 0
PSCL4 PREFETCH  ACCESS:          0  HIT:          0  MISS:          0  HIT %:       -nan  MISS %:       -nan   MPKI: 0
PSCL4 WRITEBACK ACCESS:          0  HIT:          0  MISS:          0  HIT %:       -nan  MISS %:       -nan   MPKI: 0
PSCL3 TOTAL     ACCESS:      23561  HIT:      23561  MISS:          0  HIT %:        100  MISS %:          0   MPKI: 0
PSCL3 LOAD      ACCESS:          0  HIT:          0  MISS:          0  HIT %:       -nan  MISS %:       -nan   MPKI: 0
PSCL3 RFO       ACCESS:          0  HIT:          0  MISS:          0  HIT %:       -nan  MISS %:       -nan   MPKI: 0
PSCL3 PREFETCH  ACCESS:          0  HIT:          0  MISS:          0  HIT %:       -nan  MISS %:       -nan   MPKI: 0
PSCL3 WRITEBACK ACCESS:          0  HIT:          0  MISS:          0  HIT %:       -nan  MISS %:       -nan   MPKI: 0
PSCL2 TOTAL     ACCESS:      23561  HIT:      23512  MISS:         49  HIT %:     99.792  MISS %:   0.207971   MPKI: 0.000244995
PSCL2 LOAD      ACCESS:          0  HIT:          0  MISS:          0  HIT %:       -nan  MISS %:       -nan   MPKI: 0
PSCL2 RFO       ACCESS:          0  HIT:          0  MISS:          0  HIT %:       -nan  MISS %:       -nan   MPKI: 0
PSCL2 PREFETCH  ACCESS:          0  HIT:          0  MISS:          0  HIT %:       -nan  MISS %:       -nan   MPKI: 0
PSCL2 WRITEBACK ACCESS:          0  HIT:          0  MISS:          0  HIT %:       -nan  MISS %:       -nan   MPKI: 0

stream: 
stream:times selected: 1183861
stream:pref_filled: 626142
stream:pref_useful: 622282
stream:pref_late: 923
stream:misses: 128
stream:misses_by_poll: 0

CS: 
CS:times selected: 1183850
CS:pref_filled: 3145
CS:pref_useful: 3133
CS:pref_late: 77
CS:misses: 291939
CS:misses_by_poll: 6

CPLX: 
CPLX:times selected: 8
CPLX:pref_filled: 0
CPLX:pref_useful: 0
CPLX:pref_late: 0
CPLX:misses: 19
CPLX:misses_by_poll: 0

NL_L1: 
NL:times selected: 0
NL:pref_filled: 0
NL:pref_useful: 0
NL:pref_late: 0
NL:misses: 0
NL:misses_by_poll: 0

total selections: 2367719
total_filled: 572620
total_useful: 568772
total_late: 1008
total_polluted: 6
total_misses_after_warmup: 54058
conflicts: 0
Degree Incremented Times: 759437
Degree Decremented Times: 0

L1 IP Table Write Accesses: 64616868
L1 IP Table Read Accesses: 64616868
L1 RST Write Accesses: 4139514
L1 RST Read Accesses: 8279028
L1 CSPT Write Accesses: 4139514
L1 CSPT Read Accesses: 4139514
L1 RR Filter Tag Write Accesses: 3515689
L1 RR Filter Tag Read Accesses: 681194872
L1 IP Table Tag Write Accesses: 64616868
L1 IP Table Tag Read Accesses: 64616868
L1 RST Tag Write Accesses: 0
L1 RST Tag Read Accesses: 37518037
L1 RR Filter Write Accesses: 0
L1 RR Filter Read Accesses: 35530223
test: 45231
LLC TOTAL     ACCESS:    2436385  HIT:     877519  MISS:    1558866  HIT %:    36.0173  MISS %:    63.9827   MPKI: 7.79418
LLC LOAD      ACCESS:       9435  HIT:          9  MISS:       9426  HIT %:  0.0953895  MISS %:    99.9046   MPKI: 0.0471291
LLC RFO       ACCESS:     927843  HIT:          0  MISS:     927843  HIT %:          0  MISS %:        100   MPKI: 4.63912
LLC PREFETCH  ACCESS:     570641  HIT:        194  MISS:     570447  HIT %:  0.0339969  MISS %:     99.966   MPKI: 2.85218
LLC WRITEBACK ACCESS:     925440  HIT:     877309  MISS:      48131  HIT %:    94.7991  MISS %:    5.20088   MPKI: 0.24065

RAW hits: 0
Loads Generated: 37020852
Loads sent to L1D: 37020850
Stores Generated: 7422745
Stores sent to L1D: 7422746

CPU 3 cumulative IPC: 0.919231 instructions: 200000000 cycles: 217573254
ITLB TOTAL     ACCESS:   31908926  HIT:   31908926  MISS:          0  HIT %:        100  MISS %:          0   MPKI: 0
ITLB LOAD      ACCESS:          0  HIT:          0  MISS:          0  HIT %:       -nan  MISS %:       -nan   MPKI: 0
ITLB RFO       ACCESS:          0  HIT:          0  MISS:          0  HIT %:       -nan  MISS %:       -nan   MPKI: 0
ITLB PREFETCH  ACCESS:          0  HIT:          0  MISS:          0  HIT %:       -nan  MISS %:       -nan   MPKI: 0
ITLB WRITEBACK ACCESS:          0  HIT:          0  MISS:          0  HIT %:       -nan  MISS %:       -nan   MPKI: 0
DTLB TOTAL     ACCESS:   23305808  HIT:   23282249  MISS:      23559  HIT %:    99.8989  MISS %:   0.101086   MPKI: 0.117795
DTLB LOAD      ACCESS:          0  HIT:          0  MISS:          0  HIT %:       -nan  MISS %:       -nan   MPKI: 0
DTLB RFO       ACCESS:          0  HIT:          0  MISS:          0  HIT %:       -nan  MISS %:       -nan   MPKI: 0
DTLB PREFETCH  ACCESS:          0  HIT:          0  MISS:          0  HIT %:       -nan  MISS %:       -nan   MPKI: 0
DTLB WRITEBACK ACCESS:          0  HIT:          0  MISS:          0  HIT %:       -nan  MISS %:       -nan   MPKI: 0
STLB TOTAL     ACCESS:     567313  HIT:     543754  MISS:      23559  HIT %:    95.8473  MISS %:    4.15273   MPKI: 0.117795
STLB LOAD      ACCESS:          0  HIT:          0  MISS:          0  HIT %:       -nan  MISS %:       -nan   MPKI: 0
STLB RFO       ACCESS:          0  HIT:          0  MISS:          0  HIT %:       -nan  MISS %:       -nan   MPKI: 0
STLB PREFETCH  ACCESS:          0  HIT:          0  MISS:          0  HIT %:       -nan  MISS %:       -nan   MPKI: 0
STLB WRITEBACK ACCESS:          0  HIT:          0  MISS:          0  HIT %:       -nan  MISS %:       -nan   MPKI: 0
L1D TOTAL     ACCESS:   18577937  HIT:   17066427  MISS:    1511510  HIT %:     91.864  MISS %:    8.13605   MPKI: 7.55755
L1D LOAD      ACCESS:   16105737  HIT:   16094522  MISS:      11215  HIT %:    99.9304  MISS %:  0.0696336   MPKI: 0.056075
L1D RFO       ACCESS:    1596626  HIT:     668795  MISS:     927831  HIT %:     41.888  MISS %:     58.112   MPKI: 4.63915
L1D PREFETCH  ACCESS:     875574  HIT:     303110  MISS:     572464  HIT %:    34.6184  MISS %:    65.3816   MPKI: 2.86232
L1D WRITEBACK ACCESS:          0  HIT:          0  MISS:          0  HIT %:       -nan  MISS %:       -nan   MPKI: 0
L1I TOTAL     ACCESS:   31926976  HIT:   31926976  MISS:          0  HIT %:        100  MISS %:          0   MPKI: 0
L1I LOAD      ACCESS:   31926976  HIT:   31926976  MISS:          0  HIT %:        100  MISS %:          0   MPKI: 0
L1I RFO       ACCESS:          0  HIT:          0  MISS:          0  HIT %:       -nan  MISS %:       -nan   MPKI: 0
L1I PREFETCH  ACCESS:          0  HIT:          0  MISS:          0  HIT %:       -nan  MISS %:       -nan   MPKI: 0
L1I WRITEBACK ACCESS:          0  HIT:          0  MISS:          0  HIT %:       -nan  MISS %:       -nan   MPKI: 0
L2C TOTAL     ACCESS:    2462706  HIT:     666283  MISS:    1796423  HIT %:    27.0549  MISS %:    72.9451   MPKI: 8.98212
L2C LOAD      ACCESS:      10176  HIT:        643  MISS:       9533  HIT %:    6.31879  MISS %:    93.6812   MPKI: 0.047665
L2C RFO       ACCESS:     927831  HIT:          0  MISS:     927831  HIT %:          0  MISS %:        100   MPKI: 4.63915
L2C PREFETCH  ACCESS:     573506  HIT:       2961  MISS:     570545  HIT %:   0.516298  MISS %:    99.4837   MPKI: 2.85272
L2C WRITEBACK ACCESS:     927632  HIT:     642140  MISS:     285492  HIT %:    69.2236  MISS %:    30.7764   MPKI: 1.42746
PSCL5 TOTAL     ACCESS:      23559  HIT:      23559  MISS:          0  HIT %:        100  MISS %:          0   MPKI: 0
PSCL5 LOAD      ACCESS:          0  HIT:          0  MISS:          0  HIT %:       -nan  MISS %:       -nan   MPKI: 0
PSCL5 RFO       ACCESS:          0  HIT:          0  MISS:          0  HIT %:       -nan  MISS %:       -nan   MPKI: 0
PSCL5 PREFETCH  ACCESS:          0  HIT:          0  MISS:          0  HIT %:       -nan  MISS %:       -nan   MPKI: 0
PSCL5 WRITEBACK ACCESS:          0  HIT:          0  MISS:          0  HIT %:       -nan  MISS %:       -nan   MPKI: 0
PSCL4 TOTAL     ACCESS:      23559  HIT:      23559  MISS:          0  HIT %:        100  MISS %:          0   MPKI: 0
PSCL4 LOAD      ACCESS:          0  HIT:          0  MISS:          0  HIT %:       -nan  MISS %:       -nan   MPKI: 0
PSCL4 RFO       ACCESS:          0  HIT:          0  MISS:          0  HIT %:       -nan  MISS %:       -nan   MPKI: 0
PSCL4 PREFETCH  ACCESS:          0  HIT:          0  MISS:          0  HIT %:       -nan  MISS %:       -nan   MPKI: 0
PSCL4 WRITEBACK ACCESS:          0  HIT:          0  MISS:          0  HIT %:       -nan  MISS %:       -nan   MPKI: 0
PSCL3 TOTAL     ACCESS:      23559  HIT:      23559  MISS:          0  HIT %:        100  MISS %:          0   MPKI: 0
PSCL3 LOAD      ACCESS:          0  HIT:          0  MISS:          0  HIT %:       -nan  MISS %:       -nan   MPKI: 0
PSCL3 RFO       ACCESS:          0  HIT:          0  MISS:          0  HIT %:       -nan  MISS %:       -nan   MPKI: 0
PSCL3 PREFETCH  ACCESS:          0  HIT:          0  MISS:          0  HIT %:       -nan  MISS %:       -nan   MPKI: 0
PSCL3 WRITEBACK ACCESS:          0  HIT:          0  MISS:          0  HIT %:       -nan  MISS %:       -nan   MPKI: 0
PSCL2 TOTAL     ACCESS:      23559  HIT:      23511  MISS:         48  HIT %:    99.7963  MISS %:   0.203744   MPKI: 0.00024
PSCL2 LOAD      ACCESS:          0  HIT:          0  MISS:          0  HIT %:       -nan  MISS %:       -nan   MPKI: 0
PSCL2 RFO       ACCESS:          0  HIT:          0  MISS:          0  HIT %:       -nan  MISS %:       -nan   MPKI: 0
PSCL2 PREFETCH  ACCESS:          0  HIT:          0  MISS:          0  HIT %:       -nan  MISS %:       -nan   MPKI: 0
PSCL2 WRITEBACK ACCESS:          0  HIT:          0  MISS:          0  HIT %:       -nan  MISS %:       -nan   MPKI: 0

stream: 
stream:times selected: 1183793
stream:pref_filled: 610090
stream:pref_useful: 606195
stream:pref_late: 938
stream:misses: 140
stream:misses_by_poll: 0

CS: 
CS:times selected: 1183782
CS:pref_filled: 3023
CS:pref_useful: 3017
CS:pref_late: 90
CS:misses: 333306
CS:misses_by_poll: 12

CPLX: 
CPLX:times selected: 8
CPLX:pref_filled: 0
CPLX:pref_useful: 0
CPLX:pref_late: 0
CPLX:misses: 19
CPLX:misses_by_poll: 0

NL_L1: 
NL:times selected: 0
NL:pref_filled: 0
NL:pref_useful: 0
NL:pref_late: 0
NL:misses: 0
NL:misses_by_poll: 0

total selections: 2367583
total_filled: 572464
total_useful: 568634
total_late: 1039
total_polluted: 12
total_misses_after_warmup: 54376
conflicts: 0
Degree Incremented Times: 759437
Degree Decremented Times: 0

L1 IP Table Write Accesses: 64616868
L1 IP Table Read Accesses: 64616868
L1 RST Write Accesses: 4139514
L1 RST Read Accesses: 8279028
L1 CSPT Write Accesses: 4139514
L1 CSPT Read Accesses: 4139514
L1 RR Filter Tag Write Accesses: 3515689
L1 RR Filter Tag Read Accesses: 681194872
L1 IP Table Tag Write Accesses: 64616868
L1 IP Table Tag Read Accesses: 64616868
L1 RST Tag Write Accesses: 0
L1 RST Tag Read Accesses: 37518037
L1 RR Filter Write Accesses: 0
L1 RR Filter Read Accesses: 35530223
test: 45231
LLC TOTAL     ACCESS:    2436847  HIT:     880156  MISS:    1556691  HIT %:    36.1186  MISS %:    63.8814   MPKI: 7.78346
LLC LOAD      ACCESS:       9533  HIT:         10  MISS:       9523  HIT %:   0.104899  MISS %:    99.8951   MPKI: 0.047615
LLC RFO       ACCESS:     927831  HIT:          0  MISS:     927831  HIT %:          0  MISS %:        100   MPKI: 4.63915
LLC PREFETCH  ACCESS:     570547  HIT:        210  MISS:     570337  HIT %:  0.0368068  MISS %:    99.9632   MPKI: 2.85168
LLC WRITEBACK ACCESS:     925914  HIT:     879927  MISS:      45987  HIT %:    95.0333  MISS %:    4.96666   MPKI: 0.229935

RAW hits: 0
Loads Generated: 37020085
Loads sent to L1D: 37020085
Stores Generated: 7422649
Stores sent to L1D: 7422652

Region of Interest Statistics

CPU 0 cumulative IPC: 0.91949 instructions: 200000000 cycles: 217511949
ITLB TOTAL     ACCESS:   31908761  HIT:   31908761  MISS:          0  HIT %:        100  MISS %:          0   MPKI: 0
ITLB LOAD TRANSLATION ACCESS:   31908761  HIT:   31908761  MISS:          0  HIT %:        100  MISS %:          0   MPKI: 0
ITLB PREFETCH  REQUESTED:          0  ISSUED:          0  USEFUL:          0  USELESS:          0
ITLB USEFUL LOAD PREFETCHES:          0 PREFETCH ISSUED TO LOWER LEVEL:          0  ACCURACY: -nan
ITLB TIMELY PREFETCHES:          0 LATE PREFETCHES: 0 DROPPED PREFETCHES: 0
ITLB PREFETCHES SAME FILL-ORIGIN LEVEL: 0 DIFFERENT FILL-ORIGIN LEVEL: 0
ITLB AVERAGE MISS LATENCY: -nan cycles
ITLB RQ	ACCESS:   31937931	FORWARD:          0	MERGED:      18057	TO_CACHE:   31919874

DTLB TOTAL     ACCESS:   23309386  HIT:   23285825  MISS:      23561  HIT %:    99.8989  MISS %:   0.101079   MPKI: 0.117805
DTLB LOAD TRANSLATION ACCESS:   23309386  HIT:   23285825  MISS:      23561  HIT %:    99.8989  MISS %:   0.101079   MPKI: 0.117805
DTLB PREFETCH  REQUESTED:          0  ISSUED:          0  USEFUL:          0  USELESS:          0
DTLB USEFUL LOAD PREFETCHES:          0 PREFETCH ISSUED TO LOWER LEVEL:          0  ACCURACY: -nan
DTLB TIMELY PREFETCHES:          0 LATE PREFETCHES: 0 DROPPED PREFETCHES: 0
DTLB PREFETCHES SAME FILL-ORIGIN LEVEL: 0 DIFFERENT FILL-ORIGIN LEVEL: 0
DTLB AVERAGE MISS LATENCY: 180.613 cycles
DTLB RQ	ACCESS:   23581171	FORWARD:          0	MERGED:     227529	TO_CACHE:   23353642

STLB TOTAL     ACCESS:     568867  HIT:     545306  MISS:      23561  HIT %:    95.8583  MISS %:    4.14174   MPKI: 0.117805
STLB LOAD TRANSLATION ACCESS:      23561  HIT:          0  MISS:      23561  HIT %:          0  MISS %:        100   MPKI: 0.117805
STLB TRANSLATION FROM L1D PREFETCHER ACCESS:     545306  HIT:     545306  MISS:          0  HIT %:        100  MISS %:          0   MPKI: 0
STLB PREFETCH  REQUESTED:          0  ISSUED:          0  USEFUL:          0  USELESS:          0
STLB USEFUL LOAD PREFETCHES:          0 PREFETCH ISSUED TO LOWER LEVEL:          0  ACCURACY: -nan
STLB TIMELY PREFETCHES:          0 LATE PREFETCHES: 0 DROPPED PREFETCHES: 0
STLB PREFETCHES SAME FILL-ORIGIN LEVEL: 0 DIFFERENT FILL-ORIGIN LEVEL: 0
STLB AVERAGE MISS LATENCY: 171.574 cycles
STLB RQ	ACCESS:     904380	FORWARD:          0	MERGED:     335326	TO_CACHE:     569054

STLB Hit, L1D data hit: 0
STLB Hit, L2C data hit: 0
STLB Hit, LLC data hit: 0
STLB Hit, LLC data miss: 0
STLB STLB hints to L2: 0
L1D TOTAL     ACCESS:   18594030  HIT:   17082559  MISS:    1511471  HIT %:    91.8712  MISS %:     8.1288   MPKI: 7.55736
L1D LOAD      ACCESS:   16111945  HIT:   16101272  MISS:      10673  HIT %:    99.9338  MISS %:  0.0662428   MPKI: 0.053365
L1D RFO       ACCESS:    1603433  HIT:     675605  MISS:     927828  HIT %:    42.1349  MISS %:    57.8651   MPKI: 4.63914
L1D PREFETCH  ACCESS:     878652  HIT:     305682  MISS:     572970  HIT %:    34.7899  MISS %:    65.2101   MPKI: 2.86485
L1D PREFETCH  REQUESTED:    1761626  ISSUED:    1761626  USEFUL:     569364  USELESS:       3785
L1D USEFUL LOAD PREFETCHES:     569364 PREFETCH ISSUED TO LOWER LEVEL:     574115  ACCURACY: 99.1725
L1D TIMELY PREFETCHES:     569364 LATE PREFETCHES: 955 DROPPED PREFETCHES: 0
L1D PREFETCHES SAME FILL-ORIGIN LEVEL: 574115 DIFFERENT FILL-ORIGIN LEVEL: 0
L1D AVERAGE MISS LATENCY: 361.568 cycles
L1D RQ	ACCESS:   37032759	FORWARD:          0	MERGED:   20875817	TO_CACHE:   16156942
L1D WQ	ACCESS:    7424229	FORWARD:          0	MERGED:          0	TO_CACHE:    7424229
L1D PQ	ACCESS:     880813	FORWARD:          0	MERGED:          0	TO_CACHE:     880813

L1D UNIQUE REGIONS ACCESSED: 0
L1D REGIONS CONFLICTS: 0
L1D Cross Page Prefetch Requests: 0
L1D Same Page Prefetch Requests: 1030867
L1D ROI Sum of L1D PQ occupancy: 9774271
L1D PREFETCHES PUSHED FROM L2C: 0
L1I TOTAL     ACCESS:   31926810  HIT:   31926810  MISS:          0  HIT %:        100  MISS %:          0   MPKI: 0
L1I LOAD      ACCESS:   31926810  HIT:   31926810  MISS:          0  HIT %:        100  MISS %:          0   MPKI: 0
L1I PREFETCH  REQUESTED:          0  ISSUED:          0  USEFUL:          0  USELESS:          0
L1I USEFUL LOAD PREFETCHES:          0 PREFETCH ISSUED TO LOWER LEVEL:          0  ACCURACY: -nan
L1I TIMELY PREFETCHES:          0 LATE PREFETCHES: 0 DROPPED PREFETCHES: 0
L1I PREFETCHES SAME FILL-ORIGIN LEVEL: 0 DIFFERENT FILL-ORIGIN LEVEL: 0
L1I AVERAGE MISS LATENCY: -nan cycles
L1I RQ	ACCESS:   89098244	FORWARD:          0	MERGED:   57160313	TO_CACHE:   31937931

BTB TOTAL     ACCESS:   73950058  HIT:   73950058  MISS:          0  HIT %:        100  MISS %:          0   MPKI: 0
BTB BRANCH_DIRECT_JUMP	ACCESS:          0  HIT:          0  MISS:          0
BTB BRANCH_INDIRECT	ACCESS:          0  HIT:          0  MISS:          0
BTB BRANCH_CONDITIONAL	ACCESS:   73950058  HIT:   73950058  MISS:          0
BTB BRANCH_DIRECT_CALL	ACCESS:          0  HIT:          0  MISS:          0
BTB BRANCH_INDIRECT_CALL	ACCESS:          0  HIT:          0  MISS:          0
BTB BRANCH_RETURN	ACCESS:          0  HIT:          0  MISS:          0
BTB BRANCH_OTHER ACCESS:          0  HIT:          0  MISS:          0

L2C TOTAL     ACCESS:    2462700  HIT:     660378  MISS:    1802322  HIT %:    26.8152  MISS %:    73.1848   MPKI: 9.01161
L2C LOAD      ACCESS:       9728  HIT:        639  MISS:       9089  HIT %:    6.56867  MISS %:    93.4313   MPKI: 0.045445
L2C DATA LOAD MPKI: 0.045445
L2C INSTRUCTION LOAD MPKI: 0
L2C RFO       ACCESS:     927828  HIT:          0  MISS:     927828  HIT %:          0  MISS %:        100   MPKI: 4.63914
L2C PREFETCH  ACCESS:     573915  HIT:       2934  MISS:     570981  HIT %:   0.511226  MISS %:    99.4888   MPKI: 2.85491
L2C DATA PREFETCH MPKI: 2.85491
L2C INSTRUCTION PREFETCH MPKI: 0
L2C WRITEBACK ACCESS:     927665  HIT:     636271  MISS:     291394  HIT %:    68.5884  MISS %:    31.4116   MPKI: 1.45697
L2C LOAD TRANSLATION ACCESS:      23564  HIT:      20534  MISS:       3030  HIT %:    87.1414  MISS %:    12.8586   MPKI: 0.01515
L2C PREFETCH  REQUESTED:          0  ISSUED:          0  USEFUL:        639  USELESS:     572731
L2C USEFUL LOAD PREFETCHES:        639 PREFETCH ISSUED TO LOWER LEVEL:     571181  ACCURACY: 0.111873
L2C TIMELY PREFETCHES:        639 LATE PREFETCHES: 0 DROPPED PREFETCHES: 0
L2C PREFETCHES SAME FILL-ORIGIN LEVEL: 0 DIFFERENT FILL-ORIGIN LEVEL: 0
L2C AVERAGE MISS LATENCY: 293.452 cycles
L2C RQ	ACCESS:     961330	FORWARD:          0	MERGED:          0	TO_CACHE:     961330
L2C WQ	ACCESS:     927962	FORWARD:          0	MERGED:          0	TO_CACHE:     927962
L2C PQ	ACCESS:     574115	FORWARD:          0	MERGED:          0	TO_CACHE:     574115

L2C Instructions Evicting Data 0
L2C Translations Evicting Data 3030
L2C Data Evicting Data 1505578
L2C Instructions Evicting Instructions 0
L2C Translations Evicting Instructions 0
L2C Data Evicting Instructions 0
L2C Instructions Evicting Translations 0
L2C Translations Evicting Translations 0
L2C Data Evicting Translations 2723
L2C Dense regions hint from L2: 0
PSCL5 TOTAL     ACCESS:      23561  HIT:      23561  MISS:          0  HIT %:        100  MISS %:          0   MPKI: 0
PSCL5 LOAD TRANSLATION ACCESS:      23561  HIT:      23561  MISS:          0  HIT %:        100  MISS %:          0   MPKI: 0
PSCL5 PREFETCH  REQUESTED:          0  ISSUED:          0  USEFUL:          0  USELESS:          0
PSCL5 USEFUL LOAD PREFETCHES:          0 PREFETCH ISSUED TO LOWER LEVEL:          0  ACCURACY: -nan
PSCL5 TIMELY PREFETCHES:          0 LATE PREFETCHES: 0 DROPPED PREFETCHES: 0
PSCL5 PREFETCHES SAME FILL-ORIGIN LEVEL: 0 DIFFERENT FILL-ORIGIN LEVEL: 0

PSCL4 TOTAL     ACCESS:      23561  HIT:      23561  MISS:          0  HIT %:        100  MISS %:          0   MPKI: 0
PSCL4 LOAD TRANSLATION ACCESS:      23561  HIT:      23561  MISS:          0  HIT %:        100  MISS %:          0   MPKI: 0
PSCL4 PREFETCH  REQUESTED:          0  ISSUED:          0  USEFUL:          0  USELESS:          0
PSCL4 USEFUL LOAD PREFETCHES:          0 PREFETCH ISSUED TO LOWER LEVEL:          0  ACCURACY: -nan
PSCL4 TIMELY PREFETCHES:          0 LATE PREFETCHES: 0 DROPPED PREFETCHES: 0
PSCL4 PREFETCHES SAME FILL-ORIGIN LEVEL: 0 DIFFERENT FILL-ORIGIN LEVEL: 0

PSCL3 TOTAL     ACCESS:      23561  HIT:      23561  MISS:          0  HIT %:        100  MISS %:          0   MPKI: 0
PSCL3 LOAD TRANSLATION ACCESS:      23561  HIT:      23561  MISS:          0  HIT %:        100  MISS %:          0   MPKI: 0
PSCL3 PREFETCH  REQUESTED:          0  ISSUED:          0  USEFUL:          0  USELESS:          0
PSCL3 USEFUL LOAD PREFETCHES:          0 PREFETCH ISSUED TO LOWER LEVEL:          0  ACCURACY: -nan
PSCL3 TIMELY PREFETCHES:          0 LATE PREFETCHES: 0 DROPPED PREFETCHES: 0
PSCL3 PREFETCHES SAME FILL-ORIGIN LEVEL: 0 DIFFERENT FILL-ORIGIN LEVEL: 0

PSCL2 TOTAL     ACCESS:      23561  HIT:      23512  MISS:         49  HIT %:     99.792  MISS %:   0.207971   MPKI: 0.000245
PSCL2 LOAD TRANSLATION ACCESS:      23561  HIT:      23512  MISS:         49  HIT %:     99.792  MISS %:   0.207971   MPKI: 0.000245
PSCL2 PREFETCH  REQUESTED:          0  ISSUED:          0  USEFUL:          0  USELESS:          0
PSCL2 USEFUL LOAD PREFETCHES:          0 PREFETCH ISSUED TO LOWER LEVEL:          0  ACCURACY: -nan
PSCL2 TIMELY PREFETCHES:          0 LATE PREFETCHES: 0 DROPPED PREFETCHES: 0
PSCL2 PREFETCHES SAME FILL-ORIGIN LEVEL: 0 DIFFERENT FILL-ORIGIN LEVEL: 0

LLC TOTAL     ACCESS:    2436452  HIT:     877051  MISS:    1559401  HIT %:    35.9971  MISS %:    64.0029   MPKI: 7.79701
LLC LOAD      ACCESS:       9089  HIT:         10  MISS:       9079  HIT %:   0.110023  MISS %:      99.89   MPKI: 0.045395
LLC RFO       ACCESS:     927828  HIT:          0  MISS:     927828  HIT %:          0  MISS %:        100   MPKI: 4.63914
LLC PREFETCH  ACCESS:     570981  HIT:        195  MISS:     570786  HIT %:  0.0341517  MISS %:    99.9658   MPKI: 2.85393
LLC WRITEBACK ACCESS:     925524  HIT:     876835  MISS:      48689  HIT %:    94.7393  MISS %:     5.2607   MPKI: 0.243445
LLC LOAD TRANSLATION ACCESS:       3030  HIT:         11  MISS:       3019  HIT %:   0.363036  MISS %:     99.637   MPKI: 0.015095
LLC PREFETCH  REQUESTED:          0  ISSUED:          0  USEFUL:         39  USELESS:    2313695
LLC USEFUL LOAD PREFETCHES:         39 PREFETCH ISSUED TO LOWER LEVEL:    2282503  ACCURACY: 0.00170865
LLC TIMELY PREFETCHES:         39 LATE PREFETCHES: 0 DROPPED PREFETCHES: 0
LLC PREFETCHES SAME FILL-ORIGIN LEVEL: 0 DIFFERENT FILL-ORIGIN LEVEL: 0
LLC AVERAGE MISS LATENCY: 1239.03 cycles
LLC RQ	ACCESS:    3761028	FORWARD:          0	MERGED:          0	TO_CACHE:    3761028
LLC WQ	ACCESS:    3703210	FORWARD:          0	MERGED:          0	TO_CACHE:    3703210
LLC PQ	ACCESS:    2283306	FORWARD:          0	MERGED:          0	TO_CACHE:    2283306

LLC Dense regions hint to LLC: 0

RAW hits: 0
Loads Generated: 37020122
Loads sent to L1D: 37020122
Stores Generated: 7422654
Stores sent to L1D: 7422652
Major fault: 0 Minor fault: 28281
Allocated PAGES: 113124

CPU 1 cumulative IPC: 0.919342 instructions: 200000002 cycles: 217546999
ITLB TOTAL     ACCESS:   31908849  HIT:   31908849  MISS:          0  HIT %:        100  MISS %:          0   MPKI: 0
ITLB LOAD TRANSLATION ACCESS:   31908849  HIT:   31908849  MISS:          0  HIT %:        100  MISS %:          0   MPKI: 0
ITLB PREFETCH  REQUESTED:          0  ISSUED:          0  USEFUL:          0  USELESS:          0
ITLB USEFUL LOAD PREFETCHES:          0 PREFETCH ISSUED TO LOWER LEVEL:          0  ACCURACY: -nan
ITLB TIMELY PREFETCHES:          0 LATE PREFETCHES: 0 DROPPED PREFETCHES: 0
ITLB PREFETCHES SAME FILL-ORIGIN LEVEL: 0 DIFFERENT FILL-ORIGIN LEVEL: 0
ITLB AVERAGE MISS LATENCY: -nan cycles
ITLB RQ	ACCESS:   31932066	FORWARD:          0	MERGED:      18054	TO_CACHE:   31914012

DTLB TOTAL     ACCESS:   23307563  HIT:   23284003  MISS:      23560  HIT %:    99.8989  MISS %:   0.101083   MPKI: 0.1178
DTLB LOAD TRANSLATION ACCESS:   23307563  HIT:   23284003  MISS:      23560  HIT %:    99.8989  MISS %:   0.101083   MPKI: 0.1178
DTLB PREFETCH  REQUESTED:          0  ISSUED:          0  USEFUL:          0  USELESS:          0
DTLB USEFUL LOAD PREFETCHES:          0 PREFETCH ISSUED TO LOWER LEVEL:          0  ACCURACY: -nan
DTLB TIMELY PREFETCHES:          0 LATE PREFETCHES: 0 DROPPED PREFETCHES: 0
DTLB PREFETCHES SAME FILL-ORIGIN LEVEL: 0 DIFFERENT FILL-ORIGIN LEVEL: 0
DTLB AVERAGE MISS LATENCY: 180.777 cycles
DTLB RQ	ACCESS:   23575774	FORWARD:          0	MERGED:     227484	TO_CACHE:   23348290

STLB TOTAL     ACCESS:     569115  HIT:     545555  MISS:      23560  HIT %:    95.8602  MISS %:    4.13976   MPKI: 0.1178
STLB LOAD TRANSLATION ACCESS:      23560  HIT:          0  MISS:      23560  HIT %:          0  MISS %:        100   MPKI: 0.1178
STLB TRANSLATION FROM L1D PREFETCHER ACCESS:     545555  HIT:     545555  MISS:          0  HIT %:        100  MISS %:          0   MPKI: 0
STLB PREFETCH  REQUESTED:          0  ISSUED:          0  USEFUL:          0  USELESS:          0
STLB USEFUL LOAD PREFETCHES:          0 PREFETCH ISSUED TO LOWER LEVEL:          0  ACCURACY: -nan
STLB TIMELY PREFETCHES:          0 LATE PREFETCHES: 0 DROPPED PREFETCHES: 0
STLB PREFETCHES SAME FILL-ORIGIN LEVEL: 0 DIFFERENT FILL-ORIGIN LEVEL: 0
STLB AVERAGE MISS LATENCY: 171.747 cycles
STLB RQ	ACCESS:     903205	FORWARD:          0	MERGED:     334001	TO_CACHE:     569204

STLB Hit, L1D data hit: 0
STLB Hit, L2C data hit: 0
STLB Hit, LLC data hit: 0
STLB Hit, LLC data miss: 0
STLB STLB hints to L2: 0
L1D TOTAL     ACCESS:   18584761  HIT:   17073306  MISS:    1511455  HIT %:    91.8672  MISS %:    8.13277   MPKI: 7.55727
L1D LOAD      ACCESS:   16108373  HIT:   16097495  MISS:      10878  HIT %:    99.9325  MISS %:  0.0675301   MPKI: 0.05439
L1D RFO       ACCESS:    1598827  HIT:     670997  MISS:     927830  HIT %:    41.9681  MISS %:    58.0319   MPKI: 4.63915
L1D PREFETCH  ACCESS:     877561  HIT:     304814  MISS:     572747  HIT %:    34.7342  MISS %:    65.2658   MPKI: 2.86373
L1D PREFETCH  REQUESTED:    1759284  ISSUED:    1759284  USEFUL:     569064  USELESS:       3770
L1D USEFUL LOAD PREFETCHES:     569064 PREFETCH ISSUED TO LOWER LEVEL:     573849  ACCURACY: 99.1662
L1D TIMELY PREFETCHES:     569064 LATE PREFETCHES: 1009 DROPPED PREFETCHES: 0
L1D PREFETCHES SAME FILL-ORIGIN LEVEL: 573849 DIFFERENT FILL-ORIGIN LEVEL: 0
L1D AVERAGE MISS LATENCY: 361.389 cycles
L1D RQ	ACCESS:   37026010	FORWARD:          0	MERGED:   20873623	TO_CACHE:   16152387
L1D WQ	ACCESS:    7423387	FORWARD:          0	MERGED:          0	TO_CACHE:    7423387
L1D PQ	ACCESS:     879642	FORWARD:          0	MERGED:          0	TO_CACHE:     879642

L1D UNIQUE REGIONS ACCESSED: 0
L1D REGIONS CONFLICTS: 0
L1D Cross Page Prefetch Requests: 0
L1D Same Page Prefetch Requests: 970016
L1D ROI Sum of L1D PQ occupancy: 9758722
L1D PREFETCHES PUSHED FROM L2C: 0
L1I TOTAL     ACCESS:   31926900  HIT:   31926900  MISS:          0  HIT %:        100  MISS %:          0   MPKI: 0
L1I LOAD      ACCESS:   31926900  HIT:   31926900  MISS:          0  HIT %:        100  MISS %:          0   MPKI: 0
L1I PREFETCH  REQUESTED:          0  ISSUED:          0  USEFUL:          0  USELESS:          0
L1I USEFUL LOAD PREFETCHES:          0 PREFETCH ISSUED TO LOWER LEVEL:          0  ACCURACY: -nan
L1I TIMELY PREFETCHES:          0 LATE PREFETCHES: 0 DROPPED PREFETCHES: 0
L1I PREFETCHES SAME FILL-ORIGIN LEVEL: 0 DIFFERENT FILL-ORIGIN LEVEL: 0
L1I AVERAGE MISS LATENCY: -nan cycles
L1I RQ	ACCESS:   89079068	FORWARD:          0	MERGED:   57147002	TO_CACHE:   31932066

BTB TOTAL     ACCESS:   73949867  HIT:   73949866  MISS:          1  HIT %:        100  MISS %: 1.35227e-06   MPKI: 5e-06
BTB BRANCH_DIRECT_JUMP	ACCESS:          0  HIT:          0  MISS:          0
BTB BRANCH_INDIRECT	ACCESS:          0  HIT:          0  MISS:          0
BTB BRANCH_CONDITIONAL	ACCESS:   73949867  HIT:   73949866  MISS:          1
BTB BRANCH_DIRECT_CALL	ACCESS:          0  HIT:          0  MISS:          0
BTB BRANCH_INDIRECT_CALL	ACCESS:          0  HIT:          0  MISS:          0
BTB BRANCH_RETURN	ACCESS:          0  HIT:          0  MISS:          0
BTB BRANCH_OTHER ACCESS:          0  HIT:          0  MISS:          0

L2C TOTAL     ACCESS:    2462674  HIT:     663450  MISS:    1799224  HIT %:    26.9402  MISS %:    73.0598   MPKI: 8.99612
L2C LOAD      ACCESS:       9870  HIT:        637  MISS:       9233  HIT %:     6.4539  MISS %:    93.5461   MPKI: 0.046165
L2C DATA LOAD MPKI: 0.046165
L2C INSTRUCTION LOAD MPKI: 0
L2C RFO       ACCESS:     927830  HIT:          0  MISS:     927830  HIT %:          0  MISS %:        100   MPKI: 4.63915
L2C PREFETCH  ACCESS:     573755  HIT:       2913  MISS:     570842  HIT %:   0.507708  MISS %:    99.4923   MPKI: 2.85421
L2C DATA PREFETCH MPKI: 2.85421
L2C INSTRUCTION PREFETCH MPKI: 0
L2C WRITEBACK ACCESS:     927656  HIT:     639365  MISS:     288291  HIT %:    68.9226  MISS %:    31.0774   MPKI: 1.44145
L2C LOAD TRANSLATION ACCESS:      23563  HIT:      20535  MISS:       3028  HIT %:    87.1493  MISS %:    12.8507   MPKI: 0.01514
L2C PREFETCH  REQUESTED:          0  ISSUED:          0  USEFUL:        637  USELESS:     572163
L2C USEFUL LOAD PREFETCHES:        637 PREFETCH ISSUED TO LOWER LEVEL:     570936  ACCURACY: 0.111571
L2C TIMELY PREFETCHES:        637 LATE PREFETCHES: 0 DROPPED PREFETCHES: 0
L2C PREFETCHES SAME FILL-ORIGIN LEVEL: 0 DIFFERENT FILL-ORIGIN LEVEL: 0
L2C AVERAGE MISS LATENCY: 293.829 cycles
L2C RQ	ACCESS:     961361	FORWARD:          0	MERGED:          0	TO_CACHE:     961361
L2C WQ	ACCESS:     927783	FORWARD:          0	MERGED:          0	TO_CACHE:     927783
L2C PQ	ACCESS:     573849	FORWARD:          0	MERGED:          0	TO_CACHE:     573849

L2C Instructions Evicting Data 0
L2C Translations Evicting Data 3026
L2C Data Evicting Data 1505386
L2C Instructions Evicting Instructions 0
L2C Translations Evicting Instructions 0
L2C Data Evicting Instructions 0
L2C Instructions Evicting Translations 0
L2C Translations Evicting Translations 2
L2C Data Evicting Translations 2702
L2C Dense regions hint from L2: 0
PSCL5 TOTAL     ACCESS:      23560  HIT:      23560  MISS:          0  HIT %:        100  MISS %:          0   MPKI: 0
PSCL5 LOAD TRANSLATION ACCESS:      23560  HIT:      23560  MISS:          0  HIT %:        100  MISS %:          0   MPKI: 0
PSCL5 PREFETCH  REQUESTED:          0  ISSUED:          0  USEFUL:          0  USELESS:          0
PSCL5 USEFUL LOAD PREFETCHES:          0 PREFETCH ISSUED TO LOWER LEVEL:          0  ACCURACY: -nan
PSCL5 TIMELY PREFETCHES:          0 LATE PREFETCHES: 0 DROPPED PREFETCHES: 0
PSCL5 PREFETCHES SAME FILL-ORIGIN LEVEL: 0 DIFFERENT FILL-ORIGIN LEVEL: 0

PSCL4 TOTAL     ACCESS:      23560  HIT:      23560  MISS:          0  HIT %:        100  MISS %:          0   MPKI: 0
PSCL4 LOAD TRANSLATION ACCESS:      23560  HIT:      23560  MISS:          0  HIT %:        100  MISS %:          0   MPKI: 0
PSCL4 PREFETCH  REQUESTED:          0  ISSUED:          0  USEFUL:          0  USELESS:          0
PSCL4 USEFUL LOAD PREFETCHES:          0 PREFETCH ISSUED TO LOWER LEVEL:          0  ACCURACY: -nan
PSCL4 TIMELY PREFETCHES:          0 LATE PREFETCHES: 0 DROPPED PREFETCHES: 0
PSCL4 PREFETCHES SAME FILL-ORIGIN LEVEL: 0 DIFFERENT FILL-ORIGIN LEVEL: 0

PSCL3 TOTAL     ACCESS:      23560  HIT:      23560  MISS:          0  HIT %:        100  MISS %:          0   MPKI: 0
PSCL3 LOAD TRANSLATION ACCESS:      23560  HIT:      23560  MISS:          0  HIT %:        100  MISS %:          0   MPKI: 0
PSCL3 PREFETCH  REQUESTED:          0  ISSUED:          0  USEFUL:          0  USELESS:          0
PSCL3 USEFUL LOAD PREFETCHES:          0 PREFETCH ISSUED TO LOWER LEVEL:          0  ACCURACY: -nan
PSCL3 TIMELY PREFETCHES:          0 LATE PREFETCHES: 0 DROPPED PREFETCHES: 0
PSCL3 PREFETCHES SAME FILL-ORIGIN LEVEL: 0 DIFFERENT FILL-ORIGIN LEVEL: 0

PSCL2 TOTAL     ACCESS:      23560  HIT:      23511  MISS:         49  HIT %:     99.792  MISS %:    0.20798   MPKI: 0.000245
PSCL2 LOAD TRANSLATION ACCESS:      23560  HIT:      23511  MISS:         49  HIT %:     99.792  MISS %:    0.20798   MPKI: 0.000245
PSCL2 PREFETCH  REQUESTED:          0  ISSUED:          0  USEFUL:          0  USELESS:          0
PSCL2 USEFUL LOAD PREFETCHES:          0 PREFETCH ISSUED TO LOWER LEVEL:          0  ACCURACY: -nan
PSCL2 TIMELY PREFETCHES:          0 LATE PREFETCHES: 0 DROPPED PREFETCHES: 0
PSCL2 PREFETCHES SAME FILL-ORIGIN LEVEL: 0 DIFFERENT FILL-ORIGIN LEVEL: 0

LLC TOTAL     ACCESS:    2436793  HIT:     880906  MISS:    1555887  HIT %:    36.1502  MISS %:    63.8498   MPKI: 7.77943
LLC LOAD      ACCESS:       9233  HIT:         10  MISS:       9223  HIT %:   0.108307  MISS %:    99.8917   MPKI: 0.046115
LLC RFO       ACCESS:     927830  HIT:          0  MISS:     927830  HIT %:          0  MISS %:        100   MPKI: 4.63915
LLC PREFETCH  ACCESS:     570842  HIT:        203  MISS:     570639  HIT %:  0.0355615  MISS %:    99.9644   MPKI: 2.85319
LLC WRITEBACK ACCESS:     925860  HIT:     880680  MISS:      45180  HIT %:    95.1202  MISS %:    4.87979   MPKI: 0.2259
LLC LOAD TRANSLATION ACCESS:       3028  HIT:         13  MISS:       3015  HIT %:   0.429326  MISS %:    99.5707   MPKI: 0.015075
LLC PREFETCH  REQUESTED:          0  ISSUED:          0  USEFUL:         39  USELESS:    2313695
LLC USEFUL LOAD PREFETCHES:         39 PREFETCH ISSUED TO LOWER LEVEL:    2282503  ACCURACY: 0.00170865
LLC TIMELY PREFETCHES:         39 LATE PREFETCHES: 0 DROPPED PREFETCHES: 0
LLC PREFETCHES SAME FILL-ORIGIN LEVEL: 0 DIFFERENT FILL-ORIGIN LEVEL: 0
LLC AVERAGE MISS LATENCY: 1241.82 cycles
LLC RQ	ACCESS:    3761028	FORWARD:          0	MERGED:          0	TO_CACHE:    3761028
LLC WQ	ACCESS:    3703210	FORWARD:          0	MERGED:          0	TO_CACHE:    3703210
LLC PQ	ACCESS:    2283306	FORWARD:          0	MERGED:          0	TO_CACHE:    2283306

LLC Dense regions hint to LLC: 0

RAW hits: 0
Loads Generated: 37020121
Loads sent to L1D: 37020121
Stores Generated: 7422654
Stores sent to L1D: 7422652
Major fault: 0 Minor fault: 28281
Allocated PAGES: 113124

CPU 2 cumulative IPC: 0.919252 instructions: 200000001 cycles: 217568182
ITLB TOTAL     ACCESS:   31908689  HIT:   31908689  MISS:          0  HIT %:        100  MISS %:          0   MPKI: 0
ITLB LOAD TRANSLATION ACCESS:   31908689  HIT:   31908689  MISS:          0  HIT %:        100  MISS %:          0   MPKI: 0
ITLB PREFETCH  REQUESTED:          0  ISSUED:          0  USEFUL:          0  USELESS:          0
ITLB USEFUL LOAD PREFETCHES:          0 PREFETCH ISSUED TO LOWER LEVEL:          0  ACCURACY: -nan
ITLB TIMELY PREFETCHES:          0 LATE PREFETCHES: 0 DROPPED PREFETCHES: 0
ITLB PREFETCHES SAME FILL-ORIGIN LEVEL: 0 DIFFERENT FILL-ORIGIN LEVEL: 0
ITLB AVERAGE MISS LATENCY: -nan cycles
ITLB RQ	ACCESS:   31927394	FORWARD:          0	MERGED:      18051	TO_CACHE:   31909343

DTLB TOTAL     ACCESS:   23306842  HIT:   23283282  MISS:      23560  HIT %:    99.8989  MISS %:   0.101086   MPKI: 0.1178
DTLB LOAD TRANSLATION ACCESS:   23306842  HIT:   23283282  MISS:      23560  HIT %:    99.8989  MISS %:   0.101086   MPKI: 0.1178
DTLB PREFETCH  REQUESTED:          0  ISSUED:          0  USEFUL:          0  USELESS:          0
DTLB USEFUL LOAD PREFETCHES:          0 PREFETCH ISSUED TO LOWER LEVEL:          0  ACCURACY: -nan
DTLB TIMELY PREFETCHES:          0 LATE PREFETCHES: 0 DROPPED PREFETCHES: 0
DTLB PREFETCHES SAME FILL-ORIGIN LEVEL: 0 DIFFERENT FILL-ORIGIN LEVEL: 0
DTLB AVERAGE MISS LATENCY: 180.539 cycles
DTLB RQ	ACCESS:   23572071	FORWARD:          0	MERGED:     227426	TO_CACHE:   23344645

STLB TOTAL     ACCESS:     568203  HIT:     544643  MISS:      23560  HIT %:    95.8536  MISS %:    4.14641   MPKI: 0.1178
STLB LOAD TRANSLATION ACCESS:      23560  HIT:          0  MISS:      23560  HIT %:          0  MISS %:        100   MPKI: 0.1178
STLB TRANSLATION FROM L1D PREFETCHER ACCESS:     544643  HIT:     544643  MISS:          0  HIT %:        100  MISS %:          0   MPKI: 0
STLB PREFETCH  REQUESTED:          0  ISSUED:          0  USEFUL:          0  USELESS:          0
STLB USEFUL LOAD PREFETCHES:          0 PREFETCH ISSUED TO LOWER LEVEL:          0  ACCURACY: -nan
STLB TIMELY PREFETCHES:          0 LATE PREFETCHES: 0 DROPPED PREFETCHES: 0
STLB PREFETCHES SAME FILL-ORIGIN LEVEL: 0 DIFFERENT FILL-ORIGIN LEVEL: 0
STLB AVERAGE MISS LATENCY: 171.51 cycles
STLB RQ	ACCESS:     900984	FORWARD:          0	MERGED:     332767	TO_CACHE:     568217

STLB Hit, L1D data hit: 0
STLB Hit, L2C data hit: 0
STLB Hit, LLC data hit: 0
STLB Hit, LLC data miss: 0
STLB STLB hints to L2: 0
L1D TOTAL     ACCESS:   18575307  HIT:   17063783  MISS:    1511524  HIT %:    91.8627  MISS %:    8.13728   MPKI: 7.55762
L1D LOAD      ACCESS:   16106061  HIT:   16094971  MISS:      11090  HIT %:    99.9311  MISS %:  0.0688561   MPKI: 0.05545
L1D RFO       ACCESS:    1593923  HIT:     666093  MISS:     927830  HIT %:    41.7895  MISS %:    58.2105   MPKI: 4.63915
L1D PREFETCH  ACCESS:     875323  HIT:     302719  MISS:     572604  HIT %:    34.5837  MISS %:    65.4163   MPKI: 2.86302
L1D PREFETCH  REQUESTED:    1754846  ISSUED:    1754846  USEFUL:     568772  USELESS:       3845
L1D USEFUL LOAD PREFETCHES:     568772 PREFETCH ISSUED TO LOWER LEVEL:     573631  ACCURACY: 99.1529
L1D TIMELY PREFETCHES:     568772 LATE PREFETCHES: 1008 DROPPED PREFETCHES: 0
L1D PREFETCHES SAME FILL-ORIGIN LEVEL: 573631 DIFFERENT FILL-ORIGIN LEVEL: 0
L1D AVERAGE MISS LATENCY: 361.818 cycles
L1D RQ	ACCESS:   37020850	FORWARD:          0	MERGED:   20871525	TO_CACHE:   16149325
L1D WQ	ACCESS:    7422746	FORWARD:          0	MERGED:          0	TO_CACHE:    7422746
L1D PQ	ACCESS:     877423	FORWARD:          0	MERGED:          0	TO_CACHE:     877423

L1D UNIQUE REGIONS ACCESSED: 0
L1D REGIONS CONFLICTS: 0
L1D Cross Page Prefetch Requests: 0
L1D Same Page Prefetch Requests: 935878
L1D ROI Sum of L1D PQ occupancy: 9735761
L1D PREFETCHES PUSHED FROM L2C: 0
L1I TOTAL     ACCESS:   31926738  HIT:   31926738  MISS:          0  HIT %:        100  MISS %:          0   MPKI: 0
L1I LOAD      ACCESS:   31926738  HIT:   31926738  MISS:          0  HIT %:        100  MISS %:          0   MPKI: 0
L1I PREFETCH  REQUESTED:          0  ISSUED:          0  USEFUL:          0  USELESS:          0
L1I USEFUL LOAD PREFETCHES:          0 PREFETCH ISSUED TO LOWER LEVEL:          0  ACCURACY: -nan
L1I TIMELY PREFETCHES:          0 LATE PREFETCHES: 0 DROPPED PREFETCHES: 0
L1I PREFETCHES SAME FILL-ORIGIN LEVEL: 0 DIFFERENT FILL-ORIGIN LEVEL: 0
L1I AVERAGE MISS LATENCY: -nan cycles
L1I RQ	ACCESS:   89063481	FORWARD:          0	MERGED:   57136087	TO_CACHE:   31927394

BTB TOTAL     ACCESS:   73949875  HIT:   73949874  MISS:          1  HIT %:        100  MISS %: 1.35227e-06   MPKI: 5e-06
BTB BRANCH_DIRECT_JUMP	ACCESS:          0  HIT:          0  MISS:          0
BTB BRANCH_INDIRECT	ACCESS:          0  HIT:          0  MISS:          0
BTB BRANCH_CONDITIONAL	ACCESS:   73949875  HIT:   73949874  MISS:          1
BTB BRANCH_DIRECT_CALL	ACCESS:          0  HIT:          0  MISS:          0
BTB BRANCH_INDIRECT_CALL	ACCESS:          0  HIT:          0  MISS:          0
BTB BRANCH_RETURN	ACCESS:          0  HIT:          0  MISS:          0
BTB BRANCH_OTHER ACCESS:          0  HIT:          0  MISS:          0

L2C TOTAL     ACCESS:    2462731  HIT:     663042  MISS:    1799689  HIT %:     26.923  MISS %:     73.077   MPKI: 8.99844
L2C LOAD      ACCESS:      10082  HIT:        648  MISS:       9434  HIT %:     6.4273  MISS %:    93.5727   MPKI: 0.04717
L2C DATA LOAD MPKI: 0.04717
L2C INSTRUCTION LOAD MPKI: 0
L2C RFO       ACCESS:     927830  HIT:          0  MISS:     927830  HIT %:          0  MISS %:        100   MPKI: 4.63915
L2C PREFETCH  ACCESS:     573612  HIT:       2988  MISS:     570624  HIT %:    0.52091  MISS %:    99.4791   MPKI: 2.85312
L2C DATA PREFETCH MPKI: 2.85312
L2C INSTRUCTION PREFETCH MPKI: 0
L2C WRITEBACK ACCESS:     927644  HIT:     638868  MISS:     288776  HIT %:      68.87  MISS %:      31.13   MPKI: 1.44388
L2C LOAD TRANSLATION ACCESS:      23563  HIT:      20538  MISS:       3025  HIT %:    87.1621  MISS %:    12.8379   MPKI: 0.015125
L2C PREFETCH  REQUESTED:          0  ISSUED:          0  USEFUL:        648  USELESS:     572320
L2C USEFUL LOAD PREFETCHES:        648 PREFETCH ISSUED TO LOWER LEVEL:     570643  ACCURACY: 0.113556
L2C TIMELY PREFETCHES:        648 LATE PREFETCHES: 0 DROPPED PREFETCHES: 0
L2C PREFETCHES SAME FILL-ORIGIN LEVEL: 0 DIFFERENT FILL-ORIGIN LEVEL: 0
L2C AVERAGE MISS LATENCY: 294.125 cycles
L2C RQ	ACCESS:     961491	FORWARD:          0	MERGED:          0	TO_CACHE:     961491
L2C WQ	ACCESS:     927668	FORWARD:          0	MERGED:          0	TO_CACHE:     927668
L2C PQ	ACCESS:     573631	FORWARD:          0	MERGED:          0	TO_CACHE:     573631

L2C Instructions Evicting Data 0
L2C Translations Evicting Data 3024
L2C Data Evicting Data 1505159
L2C Instructions Evicting Instructions 0
L2C Translations Evicting Instructions 0
L2C Data Evicting Instructions 0
L2C Instructions Evicting Translations 0
L2C Translations Evicting Translations 2
L2C Data Evicting Translations 2759
L2C Dense regions hint from L2: 0
PSCL5 TOTAL     ACCESS:      23560  HIT:      23560  MISS:          0  HIT %:        100  MISS %:          0   MPKI: 0
PSCL5 LOAD TRANSLATION ACCESS:      23560  HIT:      23560  MISS:          0  HIT %:        100  MISS %:          0   MPKI: 0
PSCL5 PREFETCH  REQUESTED:          0  ISSUED:          0  USEFUL:          0  USELESS:          0
PSCL5 USEFUL LOAD PREFETCHES:          0 PREFETCH ISSUED TO LOWER LEVEL:          0  ACCURACY: -nan
PSCL5 TIMELY PREFETCHES:          0 LATE PREFETCHES: 0 DROPPED PREFETCHES: 0
[...]
LLC LOAD      ACCESS:       9434  HIT:          9  MISS:       9425  HIT %:  0.0953996  MISS %:    99.9046   MPKI: 0.047125
LLC RFO       ACCESS:     927830  HIT:          0  MISS:     927830  HIT %:          0  MISS %:        100   MPKI: 4.63915
LLC PREFETCH  ACCESS:     570624  HIT:        194  MISS:     570430  HIT %:  0.0339979  MISS %:     99.966   MPKI: 2.85215
LLC WRITEBACK ACCESS:     925400  HIT:     877269  MISS:      48131  HIT %:    94.7989  MISS %:     5.2011   MPKI: 0.240655
LLC LOAD TRANSLATION ACCESS:       3025  HIT:          7  MISS:       3018  HIT %:   0.231405  MISS %:    99.7686   MPKI: 0.01509
LLC PREFETCH  REQUESTED:          0  ISSUED:          0  USEFUL:         39  USELESS:    2313695
LLC USEFUL LOAD PREFETCHES:         39 PREFETCH ISSUED TO LOWER LEVEL:    2282503  ACCURACY: 0.00170865
LLC TIMELY PREFETCHES:         39 LATE PREFETCHES: 0 DROPPED PREFETCHES: 0
LLC PREFETCHES SAME FILL-ORIGIN LEVEL: 0 DIFFERENT FILL-ORIGIN LEVEL: 0
LLC AVERAGE MISS LATENCY: 1239.48 cycles
LLC RQ	ACCESS:    3761028	FORWARD:          0	MERGED:          0	TO_CACHE:    3761028
LLC WQ	ACCESS:    3703210	FORWARD:          0	MERGED:          0	TO_CACHE:    3703210
LLC PQ	ACCESS:    2283306	FORWARD:          0	MERGED:          0	TO_CACHE:    2283306

LLC Dense regions hint to LLC: 0

RAW hits: 0
Loads Generated: 37020101
Loads sent to L1D: 37020100
Stores Generated: 7422651
Stores sent to L1D: 7422652
Major fault: 0 Minor fault: 28281
Allocated PAGES: 113124

CPU 3 cumulative IPC: 0.919231 instructions: 200000000 cycles: 217573254
ITLB TOTAL     ACCESS:   31908926  HIT:   31908926  MISS:          0  HIT %:        100  MISS %:          0   MPKI: 0
ITLB LOAD TRANSLATION ACCESS:   31908926  HIT:   31908926  MISS:          0  HIT %:        100  MISS %:          0   MPKI: 0
ITLB PREFETCH  REQUESTED:          0  ISSUED:          0  USEFUL:          0  USELESS:          0
ITLB USEFUL LOAD PREFETCHES:          0 PREFETCH ISSUED TO LOWER LEVEL:          0  ACCURACY: -nan
ITLB TIMELY PREFETCHES:          0 LATE PREFETCHES: 0 DROPPED PREFETCHES: 0
ITLB PREFETCHES SAME FILL-ORIGIN LEVEL: 0 DIFFERENT FILL-ORIGIN LEVEL: 0
ITLB AVERAGE MISS LATENCY: -nan cycles
ITLB RQ	ACCESS:   31926975	FORWARD:          0	MERGED:      18050	TO_CACHE:   31908925

DTLB TOTAL     ACCESS:   23305808  HIT:   23282249  MISS:      23559  HIT %:    99.8989  MISS %:   0.101086   MPKI: 0.117795
DTLB LOAD TRANSLATION ACCESS:   23305808  HIT:   23282249  MISS:      23559  HIT %:    99.8989  MISS %:   0.101086   MPKI: 0.117795
DTLB PREFETCH  REQUESTED:          0  ISSUED:          0  USEFUL:          0  USELESS:          0
DTLB USEFUL LOAD PREFETCHES:          0 PREFETCH ISSUED TO LOWER LEVEL:          0  ACCURACY: -nan
DTLB TIMELY PREFETCHES:          0 LATE PREFETCHES: 0 DROPPED PREFETCHES: 0
DTLB PREFETCHES SAME FILL-ORIGIN LEVEL: 0 DIFFERENT FILL-ORIGIN LEVEL: 0
DTLB AVERAGE MISS LATENCY: 181.587 cycles
DTLB RQ	ACCESS:   23571550	FORWARD:          0	MERGED:     227403	TO_CACHE:   23344147

STLB TOTAL     ACCESS:     567313  HIT:     543754  MISS:      23559  HIT %:    95.8473  MISS %:    4.15273   MPKI: 0.117795
STLB LOAD TRANSLATION ACCESS:      23559  HIT:          0  MISS:      23559  HIT %:          0  MISS %:        100   MPKI: 0.117795
STLB TRANSLATION FROM L1D PREFETCHER ACCESS:     543754  HIT:     543754  MISS:          0  HIT %:        100  MISS %:          0   MPKI: 0
STLB PREFETCH  REQUESTED:          0  ISSUED:          0  USEFUL:          0  USELESS:          0
STLB USEFUL LOAD PREFETCHES:          0 PREFETCH ISSUED TO LOWER LEVEL:          0  ACCURACY: -nan
STLB TIMELY PREFETCHES:          0 LATE PREFETCHES: 0 DROPPED PREFETCHES: 0
STLB PREFETCHES SAME FILL-ORIGIN LEVEL: 0 DIFFERENT FILL-ORIGIN LEVEL: 0
STLB AVERAGE MISS LATENCY: 172.559 cycles
STLB RQ	ACCESS:     901231	FORWARD:          0	MERGED:     333918	TO_CACHE:     567313

STLB Hit, L1D data hit: 0
STLB Hit, L2C data hit: 0
STLB Hit, LLC data hit: 0
STLB Hit, LLC data miss: 0
STLB STLB hints to L2: 0
L1D TOTAL     ACCESS:   18577937  HIT:   17066427  MISS:    1511510  HIT %:     91.864  MISS %:    8.13605   MPKI: 7.55755
L1D LOAD      ACCESS:   16105737  HIT:   16094522  MISS:      11215  HIT %:    99.9304  MISS %:  0.0696336   MPKI: 0.056075
L1D RFO       ACCESS:    1596626  HIT:     668795  MISS:     927831  HIT %:     41.888  MISS %:     58.112   MPKI: 4.63915
L1D PREFETCH  ACCESS:     875574  HIT:     303110  MISS:     572464  HIT %:    34.6184  MISS %:    65.3816   MPKI: 2.86232
L1D PREFETCH  REQUESTED:    1755344  ISSUED:    1755344  USEFUL:     568634  USELESS:       3830
L1D USEFUL LOAD PREFETCHES:     568634 PREFETCH ISSUED TO LOWER LEVEL:     573507  ACCURACY: 99.1503
L1D TIMELY PREFETCHES:     568634 LATE PREFETCHES: 1039 DROPPED PREFETCHES: 0
L1D PREFETCHES SAME FILL-ORIGIN LEVEL: 573507 DIFFERENT FILL-ORIGIN LEVEL: 0
L1D AVERAGE MISS LATENCY: 361.733 cycles
L1D RQ	ACCESS:   37020085	FORWARD:          0	MERGED:   20871187	TO_CACHE:   16148898
L1D WQ	ACCESS:    7422652	FORWARD:          0	MERGED:          0	TO_CACHE:    7422652
L1D PQ	ACCESS:     877672	FORWARD:          0	MERGED:          0	TO_CACHE:     877672

L1D UNIQUE REGIONS ACCESSED: 0
L1D REGIONS CONFLICTS: 0
L1D Cross Page Prefetch Requests: 0
L1D Same Page Prefetch Requests: 918408
L1D ROI Sum of L1D PQ occupancy: 9739230
L1D PREFETCHES PUSHED FROM L2C: 0
L1I TOTAL     ACCESS:   31926976  HIT:   31926976  MISS:          0  HIT %:        100  MISS %:          0   MPKI: 0
L1I LOAD      ACCESS:   31926976  HIT:   31926976  MISS:          0  HIT %:        100  MISS %:          0   MPKI: 0
L1I PREFETCH  REQUESTED:          0  ISSUED:          0  USEFUL:          0  USELESS:          0
L1I USEFUL LOAD PREFETCHES:          0 PREFETCH ISSUED TO LOWER LEVEL:          0  ACCURACY: -nan
L1I TIMELY PREFETCHES:          0 LATE PREFETCHES: 0 DROPPED PREFETCHES: 0
L1I PREFETCHES SAME FILL-ORIGIN LEVEL: 0 DIFFERENT FILL-ORIGIN LEVEL: 0
L1I AVERAGE MISS LATENCY: -nan cycles
L1I RQ	ACCESS:   89068726	FORWARD:          0	MERGED:   57141751	TO_CACHE:   31926975

BTB TOTAL     ACCESS:   73949825  HIT:   73949822  MISS:          3  HIT %:        100  MISS %: 4.0568e-06   MPKI: 1.5e-05
BTB BRANCH_DIRECT_JUMP	ACCESS:          0  HIT:          0  MISS:          0
BTB BRANCH_INDIRECT	ACCESS:          0  HIT:          0  MISS:          0
BTB BRANCH_CONDITIONAL	ACCESS:   73949825  HIT:   73949822  MISS:          3
BTB BRANCH_DIRECT_CALL	ACCESS:          0  HIT:          0  MISS:          0
BTB BRANCH_INDIRECT_CALL	ACCESS:          0  HIT:          0  MISS:          0
BTB BRANCH_RETURN	ACCESS:          0  HIT:          0  MISS:          0
BTB BRANCH_OTHER ACCESS:          0  HIT:          0  MISS:          0

L2C TOTAL     ACCESS:    2462706  HIT:     666283  MISS:    1796423  HIT %:    27.0549  MISS %:    72.9451   MPKI: 8.98212
L2C LOAD      ACCESS:      10176  HIT:        643  MISS:       9533  HIT %:    6.31879  MISS %:    93.6812   MPKI: 0.047665
L2C DATA LOAD MPKI: 0.047665
L2C INSTRUCTION LOAD MPKI: 0
L2C RFO       ACCESS:     927831  HIT:          0  MISS:     927831  HIT %:          0  MISS %:        100   MPKI: 4.63915
L2C PREFETCH  ACCESS:     573506  HIT:       2961  MISS:     570545  HIT %:   0.516298  MISS %:    99.4837   MPKI: 2.85272
L2C DATA PREFETCH MPKI: 2.85272
L2C INSTRUCTION PREFETCH MPKI: 0
L2C WRITEBACK ACCESS:     927632  HIT:     642140  MISS:     285492  HIT %:    69.2236  MISS %:    30.7764   MPKI: 1.42746
L2C LOAD TRANSLATION ACCESS:      23561  HIT:      20539  MISS:       3022  HIT %:    87.1737  MISS %:    12.8263   MPKI: 0.01511
L2C PREFETCH  REQUESTED:          0  ISSUED:          0  USEFUL:        643  USELESS:     571522
L2C USEFUL LOAD PREFETCHES:        643 PREFETCH ISSUED TO LOWER LEVEL:     570546  ACCURACY: 0.112699
L2C TIMELY PREFETCHES:        643 LATE PREFETCHES: 0 DROPPED PREFETCHES: 0
L2C PREFETCHES SAME FILL-ORIGIN LEVEL: 0 DIFFERENT FILL-ORIGIN LEVEL: 0
L2C AVERAGE MISS LATENCY: 294.606 cycles
L2C RQ	ACCESS:     961568	FORWARD:          0	MERGED:          0	TO_CACHE:     961568
L2C WQ	ACCESS:     927634	FORWARD:          0	MERGED:          0	TO_CACHE:     927634
L2C PQ	ACCESS:     573507	FORWARD:          0	MERGED:          0	TO_CACHE:     573507

L2C Instructions Evicting Data 0
L2C Translations Evicting Data 3022
L2C Data Evicting Data 1505167
L2C Instructions Evicting Instructions 0
L2C Translations Evicting Instructions 0
L2C Data Evicting Instructions 0
L2C Instructions Evicting Translations 0
L2C Translations Evicting Translations 0
L2C Data Evicting Translations 2742
L2C Dense regions hint from L2: 0
PSCL5 TOTAL     ACCESS:      23559  HIT:      23559  MISS:          0  HIT %:        100  MISS %:          0   MPKI: 0
PSCL5 LOAD TRANSLATION ACCESS:      23559  HIT:      23559  MISS:          0  HIT %:        100  MISS %:          0   MPKI: 0
PSCL5 PREFETCH  REQUESTED:          0  ISSUED:          0  USEFUL:          0  USELESS:          0
PSCL5 USEFUL LOAD PREFETCHES:          0 PREFETCH ISSUED TO LOWER LEVEL:          0  ACCURACY: -nan
PSCL5 TIMELY PREFETCHES:          0 LATE PREFETCHES: 0 DROPPED PREFETCHES: 0
PSCL5 PREFETCHES SAME FILL-ORIGIN LEVEL: 0 DIFFERENT FILL-ORIGIN LEVEL: 0

PSCL4 TOTAL     ACCESS:      23559  HIT:      23559  MISS:          0  HIT %:        100  MISS %:          0   MPKI: 0
PSCL4 LOAD TRANSLATION ACCESS:      23559  HIT:      23559  MISS:          0  HIT %:        100  MISS %:          0   MPKI: 0
PSCL4 PREFETCH  REQUESTED:          0  ISSUED:          0  USEFUL:          0  USELESS:          0
PSCL4 USEFUL LOAD PREFETCHES:          0 PREFETCH ISSUED TO LOWER LEVEL:          0  ACCURACY: -nan
PSCL4 TIMELY PREFETCHES:          0 LATE PREFETCHES: 0 DROPPED PREFETCHES: 0
PSCL4 PREFETCHES SAME FILL-ORIGIN LEVEL: 0 DIFFERENT FILL-ORIGIN LEVEL: 0

PSCL3 TOTAL     ACCESS:      23559  HIT:      23559  MISS:          0  HIT %:        100  MISS %:          0   MPKI: 0
PSCL3 LOAD TRANSLATION ACCESS:      23559  HIT:      23559  MISS:          0  HIT %:        100  MISS %:          0   MPKI: 0
PSCL3 PREFETCH  REQUESTED:          0  ISSUED:          0  USEFUL:          0  USELESS:          0
PSCL3 USEFUL LOAD PREFETCHES:          0 PREFETCH ISSUED TO LOWER LEVEL:          0  ACCURACY: -nan
PSCL3 TIMELY PREFETCHES:          0 LATE PREFETCHES: 0 DROPPED PREFETCHES: 0
PSCL3 PREFETCHES SAME FILL-ORIGIN LEVEL: 0 DIFFERENT FILL-ORIGIN LEVEL: 0

PSCL2 TOTAL     ACCESS:      23559  HIT:      23511  MISS:         48  HIT %:    99.7963  MISS %:   0.203744   MPKI: 0.00024
PSCL2 LOAD TRANSLATION ACCESS:      23559  HIT:      23511  MISS:         48  HIT %:    99.7963  MISS %:   0.203744   MPKI: 0.00024
PSCL2 PREFETCH  REQUESTED:          0  ISSUED:          0  USEFUL:          0  USELESS:          0
PSCL2 USEFUL LOAD PREFETCHES:          0 PREFETCH ISSUED TO LOWER LEVEL:          0  ACCURACY: -nan
PSCL2 TIMELY PREFETCHES:          0 LATE PREFETCHES: 0 DROPPED PREFETCHES: 0
PSCL2 PREFETCHES SAME FILL-ORIGIN LEVEL: 0 DIFFERENT FILL-ORIGIN LEVEL: 0

LLC TOTAL     ACCESS:    2436847  HIT:     880156  MISS:    1556691  HIT %:    36.1186  MISS %:    63.8814   MPKI: 7.78346
LLC LOAD      ACCESS:       9533  HIT:         10  MISS:       9523  HIT %:   0.104899  MISS %:    99.8951   MPKI: 0.047615
LLC RFO       ACCESS:     927831  HIT:          0  MISS:     927831  HIT %:          0  MISS %:        100   MPKI: 4.63915
LLC PREFETCH  ACCESS:     570547  HIT:        210  MISS:     570337  HIT %:  0.0368068  MISS %:    99.9632   MPKI: 2.85168
LLC WRITEBACK ACCESS:     925914  HIT:     879927  MISS:      45987  HIT %:    95.0333  MISS %:    4.96666   MPKI: 0.229935
LLC LOAD TRANSLATION ACCESS:       3022  HIT:          9  MISS:       3013  HIT %:   0.297816  MISS %:    99.7022   MPKI: 0.015065
LLC PREFETCH  REQUESTED:          0  ISSUED:          0  USEFUL:         39  USELESS:    2313695
LLC USEFUL LOAD PREFETCHES:         39 PREFETCH ISSUED TO LOWER LEVEL:    2282503  ACCURACY: 0.00170865
LLC TIMELY PREFETCHES:         39 LATE PREFETCHES: 0 DROPPED PREFETCHES: 0
LLC PREFETCHES SAME FILL-ORIGIN LEVEL: 0 DIFFERENT FILL-ORIGIN LEVEL: 0
LLC AVERAGE MISS LATENCY: 1241.18 cycles
LLC RQ	ACCESS:    3761028	FORWARD:          0	MERGED:          0	TO_CACHE:    3761028
LLC WQ	ACCESS:    3703210	FORWARD:          0	MERGED:          0	TO_CACHE:    3703210
LLC PQ	ACCESS:    2283306	FORWARD:          0	MERGED:          0	TO_CACHE:    2283306

LLC Dense regions hint to LLC: 0

RAW hits: 0
Loads Generated: 37020085
Loads sent to L1D: 37020085
Stores Generated: 7422649
Stores sent to L1D: 7422652
Major fault: 0 Minor fault: 28281
Allocated PAGES: 113124

stream: 
stream:times selected: 1184275
stream:pref_filled: 716996
stream:pref_useful: 713173
stream:pref_late: 884
stream:misses: 139
stream:misses_by_poll: 0

CS: 
CS:times selected: 1184264
CS:pref_filled: 3021
CS:pref_useful: 3018
CS:pref_late: 61
CS:misses: 56691
CS:misses_by_poll: 6

CPLX: 
CPLX:times selected: 8
CPLX:pref_filled: 0
CPLX:pref_useful: 0
CPLX:pref_late: 0
CPLX:misses: 0
CPLX:misses_by_poll: 0

NL_L1: 
NL:times selected: 0
NL:pref_filled: 0
NL:pref_useful: 0
NL:pref_late: 0
NL:misses: 0
NL:misses_by_poll: 0

total selections: 2368547
total_filled: 573160
total_useful: 569364
total_late: 954
total_polluted: 6
total_misses_after_warmup: 51051
conflicts: 0
Degree Incremented Times: 759437
Degree Decremented Times: 0

L1 IP Table Write Accesses: 64616868
L1 IP Table Read Accesses: 64616868
L1 RST Write Accesses: 4139514
L1 RST Read Accesses: 8279028
L1 CSPT Write Accesses: 4139514
L1 CSPT Read Accesses: 4139514
L1 RR Filter Tag Write Accesses: 3515689
L1 RR Filter Tag Read Accesses: 681194872
L1 IP Table Tag Write Accesses: 64616868
L1 IP Table Tag Read Accesses: 64616868
L1 RST Tag Write Accesses: 0
L1 RST Tag Read Accesses: 37518037
L1 RR Filter Write Accesses: 0
L1 RR Filter Read Accesses: 35530223
test: 45231

stream: 
stream:times selected: 1184060
stream:pref_filled: 658093
stream:pref_useful: 654304
stream:pref_late: 942
stream:misses: 120
stream:misses_by_poll: 0

CS: 
CS:times selected: 1184049
CS:pref_filled: 3002
CS:pref_useful: 2996
CS:pref_late: 54
CS:misses: 208896
CS:misses_by_poll: 8

CPLX: 
CPLX:times selected: 8
CPLX:pref_filled: 0
CPLX:pref_useful: 0
CPLX:pref_late: 0
CPLX:misses: 18
CPLX:misses_by_poll: 0

NL_L1: 
NL:times selected: 0
NL:pref_filled: 0
NL:pref_useful: 0
NL:pref_late: 0
NL:misses: 0
NL:misses_by_poll: 0

total selections: 2368117
total_filled: 572837
total_useful: 569064
total_late: 1009
total_polluted: 8
total_misses_after_warmup: 52630
conflicts: 0
Degree Incremented Times: 759437
Degree Decremented Times: 0

L1 IP Table Write Accesses: 64616868
L1 IP Table Read Accesses: 64616868
L1 RST Write Accesses: 4139514
L1 RST Read Accesses: 8279028
L1 CSPT Write Accesses: 4139514
L1 CSPT Read Accesses: 4139514
L1 RR Filter Tag Write Accesses: 3515689
L1 RR Filter Tag Read Accesses: 681194872
L1 IP Table Tag Write Accesses: 64616868
L1 IP Table Tag Read Accesses: 64616868
L1 RST Tag Write Accesses: 0
L1 RST Tag Read Accesses: 37518037
L1 RR Filter Write Accesses: 0
L1 RR Filter Read Accesses: 35530223
test: 45231

stream: 
stream:times selected: 1183861
stream:pref_filled: 626142
stream:pref_useful: 622282
stream:pref_late: 923
stream:misses: 128
stream:misses_by_poll: 0

CS: 
CS:times selected: 1183850
CS:pref_filled: 3145
CS:pref_useful: 3133
CS:pref_late: 77
CS:misses: 291939
CS:misses_by_poll: 6

CPLX: 
CPLX:times selected: 8
CPLX:pref_filled: 0
CPLX:pref_useful: 0
CPLX:pref_late: 0
CPLX:misses: 19
CPLX:misses_by_poll: 0

NL_L1: 
NL:times selected: 0
NL:pref_filled: 0
NL:pref_useful: 0
NL:pref_late: 0
NL:misses: 0
NL:misses_by_poll: 0

total selections: 2367719
total_filled: 572620
total_useful: 568772
total_late: 1008
total_polluted: 6
total_misses_after_warmup: 54058
conflicts: 0
Degree Incremented Times: 759437
Degree Decremented Times: 0

L1 IP Table Write Accesses: 64616868
L1 IP Table Read Accesses: 64616868
L1 RST Write Accesses: 4139514
L1 RST Read Accesses: 8279028
L1 CSPT Write Accesses: 4139514
L1 CSPT Read Accesses: 4139514
L1 RR Filter Tag Write Accesses: 3515689
L1 RR Filter Tag Read Accesses: 681194872
L1 IP Table Tag Write Accesses: 64616868
L1 IP Table Tag Read Accesses: 64616868
L1 RST Tag Write Accesses: 0
L1 RST Tag Read Accesses: 37518037
L1 RR Filter Write Accesses: 0
L1 RR Filter Read Accesses: 35530223
test: 45231

stream: 
stream:times selected: 1183793
stream:pref_filled: 610090
stream:pref_useful: 606195
stream:pref_late: 938
stream:misses: 140
stream:misses_by_poll: 0

CS: 
CS:times selected: 1183782
CS:pref_filled: 3023
CS:pref_useful: 3017
CS:pref_late: 90
CS:misses: 333306
CS:misses_by_poll: 12

CPLX: 
CPLX:times selected: 8
CPLX:pref_filled: 0
CPLX:pref_useful: 0
CPLX:pref_late: 0
CPLX:misses: 19
CPLX:misses_by_poll: 0

NL_L1: 
NL:times selected: 0
NL:pref_filled: 0
NL:pref_useful: 0
NL:pref_late: 0
NL:misses: 0
NL:misses_by_poll: 0

total selections: 2367583
total_filled: 572464
total_useful: 568634
total_late: 1039
total_polluted: 12
total_misses_after_warmup: 54376
conflicts: 0
Degree Incremented Times: 759437
Degree Decremented Times: 0

L1 IP Table Write Accesses: 64616868
L1 IP Table Read Accesses: 64616868
L1 RST Write Accesses: 4139514
L1 RST Read Accesses: 8279028
L1 CSPT Write Accesses: 4139514
L1 CSPT Read Accesses: 4139514
L1 RR Filter Tag Write Accesses: 3515689
L1 RR Filter Tag Read Accesses: 681194872
L1 IP Table Tag Write Accesses: 64616868
L1 IP Table Tag Read Accesses: 64616868
L1 RST Tag Write Accesses: 0
L1 RST Tag Read Accesses: 37518037
L1 RR Filter Write Accesses: 0
L1 RR Filter Read Accesses: 35530223
test: 45231

DRAM Statistics
 CHANNEL 0
 RQ ROW_BUFFER_HIT:    2764075  ROW_BUFFER_MISS:    3279368
 DBUS_CONGESTED:         36
 WQ ROW_BUFFER_HIT:     636166  ROW_BUFFER_MISS:    3041701  FULL:        442

 AVG_CONGESTED_CYCLE: 5
 All warmup complete: 5
Channel 0 Bank busy for read cycles: 0
Channel 0 Bank busy for write cycles: 0
Channel 0
Rank 0
0banks busy for read cycles: 105692
0banks busy for write cycles: 0
1banks busy for read cycles: 5592616
1banks busy for write cycles: 397628
2banks busy for read cycles: 11933935
2banks busy for write cycles: 397541
3banks busy for read cycles: 16726004
3banks busy for write cycles: 397523
4banks busy for read cycles: 19039549
4banks busy for write cycles: 397514
5banks busy for read cycles: 21311390
5banks busy for write cycles: 397573
6banks busy for read cycles: 22361640
6banks busy for write cycles: 417242
7banks busy for read cycles: 21282195
7banks busy for write cycles: 4526016
8banks busy for read cycles: 17549080
8banks busy for write cycles: 74740117

CPU 0 Branch Prediction Accuracy: 97.5832% MPKI: 8.94002 Average ROB Occupancy at Mispredict: 12.7503
Branch types
NOT_BRANCH: 126055228 63.0067%
BRANCH_DIRECT_JUMP: 0 0%
BRANCH_INDIRECT: 0 0%
BRANCH_CONDITIONAL: 74011435 36.9934%
BRANCH_DIRECT_CALL: 0 0%
BRANCH_INDIRECT_CALL: 0 0%
BRANCH_RETURN: 0 0%
BRANCH_OTHER: 0 0%


CPU 1 Branch Prediction Accuracy: 97.5828% MPKI: 8.94186 Average ROB Occupancy at Mispredict: 12.7521
Branch types
NOT_BRANCH: 126032939 63.0067%
BRANCH_DIRECT_JUMP: 0 0%
BRANCH_INDIRECT: 0 0%
BRANCH_CONDITIONAL: 73997739 36.9931%
BRANCH_DIRECT_CALL: 0 0%
BRANCH_INDIRECT_CALL: 0 0%
BRANCH_RETURN: 0 0%
BRANCH_OTHER: 0 0%


CPU 2 Branch Prediction Accuracy: 97.5824% MPKI: 8.94318 Average ROB Occupancy at Mispredict: 12.7544
Branch types
NOT_BRANCH: 126016228 63.0069%
BRANCH_DIRECT_JUMP: 0 0%
BRANCH_INDIRECT: 0 0%
BRANCH_CONDITIONAL: 73987473 36.993%
BRANCH_DIRECT_CALL: 0 0%
BRANCH_INDIRECT_CALL: 0 0%
BRANCH_RETURN: 0 0%
BRANCH_OTHER: 0 0%


CPU 3 Branch Prediction Accuracy: 97.5825% MPKI: 8.94319 Average ROB Occupancy at Mispredict: 12.7558
Branch types
NOT_BRANCH: 126013700 63.0069%
BRANCH_DIRECT_JUMP: 0 0%
BRANCH_INDIRECT: 0 0%
BRANCH_CONDITIONAL: 73985925 36.993%
BRANCH_DIRECT_CALL: 0 0%
BRANCH_INDIRECT_CALL: 0 0%
BRANCH_RETURN: 0 0%
BRANCH_OTHER: 0 0%

DRAM PAGES: 1048576
Allocated PAGES: 113124
