
*** ChampSim Multicore Out-of-Order Simulator ***

Warmup Instructions: 50000000
Simulation Instructions: 200000000
Number of CPUs: 4
LLC sets: 8192
LLC ways: 16
Off-chip DRAM Size: 4096 MB Channels: 1 Width: 64-bit Data Rate: 6400 MT/s
CPU 0 runs ./traces/spec/481.wrf-455B.champsimtrace.xz
.xz
CPU 1 runs ./traces/ligra/ligra_BellmanFord.com-lj.ungraph.gcc_6.3.0_O3.drop_1750M.length_250M.champsimtrace.xz
.xz
CPU 2 runs ./traces/spec/429.mcf-51B.champsimtrace.xz
.xz
CPU 3 runs ./traces/ligra/ligra_PageRank.com-lj.ungraph.gcc_6.3.0_O3.drop_5000M.length_250M.champsimtrace.xz
.xz
BTB has LRU replacement policy
ITLB has LRU replacement policy
DTLB has LRU replacement policy
STLB has LRU replacement policy
L1I has LRU replacement policy
IP Table Entries: 1024
CSPT Entries: 128
RR_ENTRIES: 32
RST_ENTRIES: 8
L1D has LRU replacement policy
Initialize SRRIP state for L2C
Initialize DRRIP state for LLC
BTB has LRU replacement policy
ITLB has LRU replacement policy
DTLB has LRU replacement policy
STLB has LRU replacement policy
L1I has LRU replacement policy
IP Table Entries: 1024
CSPT Entries: 128
RR_ENTRIES: 32
RST_ENTRIES: 8
L1D has LRU replacement policy
Initialize SRRIP state for L2C
Initialize DRRIP state for LLC
BTB has LRU replacement policy
ITLB has LRU replacement policy
DTLB has LRU replacement policy
STLB has LRU replacement policy
L1I has LRU replacement policy
IP Table Entries: 1024
CSPT Entries: 128
RR_ENTRIES: 32
RST_ENTRIES: 8
L1D has LRU replacement policy
Initialize SRRIP state for L2C
Initialize DRRIP state for LLC
BTB has LRU replacement policy
ITLB has LRU replacement policy
DTLB has LRU replacement policy
STLB has LRU replacement policy
L1I has LRU replacement policy
IP Table Entries: 1024
CSPT Entries: 128
RR_ENTRIES: 32
RST_ENTRIES: 8
L1D has LRU replacement policy
Initialize SRRIP state for L2C
Initialize DRRIP state for LLC
Heartbeat CPU 1 instructions: 10000000 cycles: 3240258 heartbeat IPC: 3.08617 cumulative IPC: 3.08617 (Simulation time: 0 hr 4 min 19 sec) 
Heartbeat CPU 2 instructions: 10000001 cycles: 3434024 heartbeat IPC: 2.91204 cumulative IPC: 2.91204 (Simulation time: 0 hr 4 min 34 sec) 
Heartbeat CPU 3 instructions: 10000001 cycles: 3795218 heartbeat IPC: 2.6349 cumulative IPC: 2.6349 (Simulation time: 0 hr 5 min 3 sec) 
Heartbeat CPU 0 instructions: 10000000 cycles: 3962536 heartbeat IPC: 2.52364 cumulative IPC: 2.52364 (Simulation time: 0 hr 5 min 14 sec) 
Heartbeat CPU 1 instructions: 20000002 cycles: 6480503 heartbeat IPC: 3.08619 cumulative IPC: 3.08618 (Simulation time: 0 hr 8 min 31 sec) 
Heartbeat CPU 2 instructions: 20000003 cycles: 6806131 heartbeat IPC: 2.96551 cumulative IPC: 2.93853 (Simulation time: 0 hr 8 min 52 sec) 
Heartbeat CPU 3 instructions: 20000001 cycles: 7591429 heartbeat IPC: 2.63421 cumulative IPC: 2.63455 (Simulation time: 0 hr 9 min 48 sec) 
Heartbeat CPU 0 instructions: 20000003 cycles: 8104544 heartbeat IPC: 2.41429 cumulative IPC: 2.46775 (Simulation time: 0 hr 10 min 26 sec) 
Heartbeat CPU 1 instructions: 30000001 cycles: 9720747 heartbeat IPC: 3.08619 cumulative IPC: 3.08618 (Simulation time: 0 hr 12 min 22 sec) 
Heartbeat CPU 2 instructions: 30000001 cycles: 10234445 heartbeat IPC: 2.91689 cumulative IPC: 2.93128 (Simulation time: 0 hr 12 min 55 sec) 
Heartbeat CPU 3 instructions: 30000001 cycles: 11387074 heartbeat IPC: 2.6346 cumulative IPC: 2.63457 (Simulation time: 0 hr 14 min 8 sec) 
Heartbeat CPU 0 instructions: 30000000 cycles: 12246423 heartbeat IPC: 2.41436 cumulative IPC: 2.44969 (Simulation time: 0 hr 15 min 11 sec) 
Heartbeat CPU 1 instructions: 40000000 cycles: 12960991 heartbeat IPC: 3.08619 cumulative IPC: 3.08618 (Simulation time: 0 hr 16 min 8 sec) 
Heartbeat CPU 2 instructions: 40000002 cycles: 13614403 heartbeat IPC: 2.95862 cumulative IPC: 2.93807 (Simulation time: 0 hr 17 min 1 sec) 
Heartbeat CPU 3 instructions: 40000000 cycles: 15185097 heartbeat IPC: 2.63295 cumulative IPC: 2.63416 (Simulation time: 0 hr 18 min 55 sec) 
Heartbeat CPU 1 instructions: 50000001 cycles: 16201235 heartbeat IPC: 3.08619 cumulative IPC: 3.08618 (Simulation time: 0 hr 20 min 14 sec) 
Heartbeat CPU 0 instructions: 40000003 cycles: 16395370 heartbeat IPC: 2.41025 cumulative IPC: 2.43971 (Simulation time: 0 hr 20 min 29 sec) 
Heartbeat CPU 2 instructions: 50000001 cycles: 17071530 heartbeat IPC: 2.89258 cumulative IPC: 2.92885 (Simulation time: 0 hr 21 min 13 sec) 
Heartbeat CPU 3 instructions: 50000001 cycles: 18985763 heartbeat IPC: 2.63112 cumulative IPC: 2.63355 (Simulation time: 0 hr 23 min 0 sec) 
Heartbeat CPU 1 instructions: 60000000 cycles: 19441479 heartbeat IPC: 3.08619 cumulative IPC: 0.514364 (Simulation time: 0 hr 23 min 22 sec) 
Heartbeat CPU 0 instructions: 50000003 cycles: 20460502 heartbeat IPC: 2.45994 cumulative IPC: 2.44373 (Simulation time: 0 hr 24 min 11 sec) 

Warmup complete CPU 0 instructions: 50000003 cycles: 20460502 (Simulation time: 0 hr 24 min 11 sec) 
Warmup complete CPU 1 instructions: 63144895 cycles: 20460501 (Simulation time: 0 hr 24 min 11 sec) 
Warmup complete CPU 2 instructions: 56935629 cycles: 20460501 (Simulation time: 0 hr 24 min 11 sec) 
Warmup complete CPU 3 instructions: 53818717 cycles: 20460501 (Simulation time: 0 hr 24 min 11 sec) 

Heartbeat CPU 1 instructions: 70000002 cycles: 24730203 heartbeat IPC: 1.89082 cumulative IPC: 1.60552 (Simulation time: 0 hr 25 min 43 sec) 
Heartbeat CPU 3 instructions: 60000000 cycles: 26014066 heartbeat IPC: 1.42282 cumulative IPC: 1.11303 (Simulation time: 0 hr 26 min 9 sec) 
Heartbeat CPU 0 instructions: 60000002 cycles: 27258630 heartbeat IPC: 1.47099 cumulative IPC: 1.47099 (Simulation time: 0 hr 26 min 38 sec) 
Heartbeat CPU 1 instructions: 80000001 cycles: 30968210 heartbeat IPC: 1.60308 cumulative IPC: 1.60407 (Simulation time: 0 hr 28 min 6 sec) 
Heartbeat CPU 0 instructions: 70000000 cycles: 34199775 heartbeat IPC: 1.44068 cumulative IPC: 1.45568 (Simulation time: 0 hr 29 min 19 sec) 
Heartbeat CPU 3 instructions: 70000000 cycles: 35013642 heartbeat IPC: 1.11116 cumulative IPC: 1.11188 (Simulation time: 0 hr 29 min 36 sec) 
Heartbeat CPU 1 instructions: 90000002 cycles: 37162310 heartbeat IPC: 1.61444 cumulative IPC: 1.60792 (Simulation time: 0 hr 30 min 28 sec) 
Heartbeat CPU 0 instructions: 80000003 cycles: 41114104 heartbeat IPC: 1.44627 cumulative IPC: 1.45253 (Simulation time: 0 hr 32 min 3 sec) 
Heartbeat CPU 1 instructions: 100000001 cycles: 43342990 heartbeat IPC: 1.61794 cumulative IPC: 1.61062 (Simulation time: 0 hr 32 min 54 sec) 
Heartbeat CPU 3 instructions: 80000001 cycles: 43961594 heartbeat IPC: 1.11757 cumulative IPC: 1.11405 (Simulation time: 0 hr 33 min 7 sec) 
Heartbeat CPU 0 instructions: 90000003 cycles: 48046375 heartbeat IPC: 1.44253 cumulative IPC: 1.45002 (Simulation time: 0 hr 34 min 43 sec) 
Heartbeat CPU 1 instructions: 110000000 cycles: 49538740 heartbeat IPC: 1.61401 cumulative IPC: 1.61135 (Simulation time: 0 hr 35 min 21 sec) 
Heartbeat CPU 3 instructions: 90000002 cycles: 52972630 heartbeat IPC: 1.10975 cumulative IPC: 1.11285 (Simulation time: 0 hr 36 min 39 sec) 
Heartbeat CPU 0 instructions: 100000001 cycles: 54534420 heartbeat IPC: 1.5413 cumulative IPC: 1.4674 (Simulation time: 0 hr 37 min 11 sec) 
Heartbeat CPU 1 instructions: 120000001 cycles: 55840230 heartbeat IPC: 1.58693 cumulative IPC: 1.607 (Simulation time: 0 hr 37 min 41 sec) 
Heartbeat CPU 0 instructions: 110000000 cycles: 60738540 heartbeat IPC: 1.61183 cumulative IPC: 1.48965 (Simulation time: 0 hr 39 min 34 sec) 
Heartbeat CPU 1 instructions: 130000000 cycles: 62098536 heartbeat IPC: 1.59788 cumulative IPC: 1.60563 (Simulation time: 0 hr 40 min 2 sec) 
Heartbeat CPU 3 instructions: 100000001 cycles: 62135644 heartbeat IPC: 1.09134 cumulative IPC: 1.10813 (Simulation time: 0 hr 40 min 3 sec) 
Heartbeat CPU 2 instructions: 60000000 cycles: 65027234 heartbeat IPC: 0.208526 cumulative IPC: 0.0687592 (Simulation time: 0 hr 41 min 8 sec) 
Heartbeat CPU 0 instructions: 120000002 cycles: 67435172 heartbeat IPC: 1.49329 cumulative IPC: 1.49016 (Simulation time: 0 hr 42 min 3 sec) 
Heartbeat CPU 1 instructions: 140000002 cycles: 68377848 heartbeat IPC: 1.59253 cumulative IPC: 1.60391 (Simulation time: 0 hr 42 min 27 sec) 
Heartbeat CPU 3 instructions: 110000000 cycles: 71298894 heartbeat IPC: 1.09132 cumulative IPC: 1.1051 (Simulation time: 0 hr 43 min 34 sec) 
Heartbeat CPU 0 instructions: 130000001 cycles: 74068731 heartbeat IPC: 1.50749 cumulative IPC: 1.49231 (Simulation time: 0 hr 44 min 32 sec) 
Heartbeat CPU 1 instructions: 150000001 cycles: 74627059 heartbeat IPC: 1.6002 cumulative IPC: 1.60348 (Simulation time: 0 hr 44 min 43 sec) 
Heartbeat CPU 0 instructions: 140000002 cycles: 80034838 heartbeat IPC: 1.67614 cumulative IPC: 1.51072 (Simulation time: 0 hr 46 min 38 sec) 
Heartbeat CPU 3 instructions: 120000002 cycles: 80461961 heartbeat IPC: 1.09134 cumulative IPC: 1.10299 (Simulation time: 0 hr 46 min 47 sec) 
Heartbeat CPU 1 instructions: 160000000 cycles: 80839348 heartbeat IPC: 1.60971 cumulative IPC: 1.60412 (Simulation time: 0 hr 46 min 55 sec) 
Heartbeat CPU 1 instructions: 170000001 cycles: 87107163 heartbeat IPC: 1.59545 cumulative IPC: 1.60331 (Simulation time: 0 hr 49 min 22 sec) 
Heartbeat CPU 0 instructions: 150000001 cycles: 87149700 heartbeat IPC: 1.40551 cumulative IPC: 1.49949 (Simulation time: 0 hr 49 min 24 sec) 
Heartbeat CPU 3 instructions: 130000000 cycles: 89582193 heartbeat IPC: 1.09646 cumulative IPC: 1.10213 (Simulation time: 0 hr 50 min 19 sec) 
Heartbeat CPU 1 instructions: 180000000 cycles: 93395950 heartbeat IPC: 1.59013 cumulative IPC: 1.60217 (Simulation time: 0 hr 51 min 46 sec) 
Heartbeat CPU 0 instructions: 160000001 cycles: 94173641 heartbeat IPC: 1.4237 cumulative IPC: 1.49227 (Simulation time: 0 hr 52 min 1 sec) 
Heartbeat CPU 3 instructions: 140000001 cycles: 98649498 heartbeat IPC: 1.10286 cumulative IPC: 1.10222 (Simulation time: 0 hr 53 min 30 sec) 
Heartbeat CPU 1 instructions: 190000002 cycles: 99690402 heartbeat IPC: 1.5887 cumulative IPC: 1.6011 (Simulation time: 0 hr 53 min 52 sec) 
Heartbeat CPU 0 instructions: 170000002 cycles: 101254828 heartbeat IPC: 1.41219 cumulative IPC: 1.48525 (Simulation time: 0 hr 54 min 23 sec) 
Heartbeat CPU 1 instructions: 200000001 cycles: 105960857 heartbeat IPC: 1.59478 cumulative IPC: 1.60064 (Simulation time: 0 hr 56 min 9 sec) 
Heartbeat CPU 3 instructions: 150000001 cycles: 107668962 heartbeat IPC: 1.10871 cumulative IPC: 1.10289 (Simulation time: 0 hr 56 min 48 sec) 
Heartbeat CPU 0 instructions: 180000002 cycles: 107947516 heartbeat IPC: 1.49417 cumulative IPC: 1.48593 (Simulation time: 0 hr 56 min 54 sec) 
Heartbeat CPU 1 instructions: 210000002 cycles: 112278345 heartbeat IPC: 1.58291 cumulative IPC: 1.59942 (Simulation time: 0 hr 58 min 33 sec) 
Heartbeat CPU 0 instructions: 190000002 cycles: 114526768 heartbeat IPC: 1.51993 cumulative IPC: 1.48831 (Simulation time: 0 hr 59 min 21 sec) 
Heartbeat CPU 3 instructions: 160000001 cycles: 116920775 heartbeat IPC: 1.08087 cumulative IPC: 1.10078 (Simulation time: 1 hr 0 min 6 sec) 
Heartbeat CPU 0 instructions: 200000003 cycles: 121165338 heartbeat IPC: 1.50635 cumulative IPC: 1.4895 (Simulation time: 1 hr 1 min 23 sec) 
Heartbeat CPU 1 instructions: 220000000 cycles: 121650693 heartbeat IPC: 1.06697 cumulative IPC: 1.5501 (Simulation time: 1 hr 1 min 30 sec) 
Heartbeat CPU 3 instructions: 170000000 cycles: 126145970 heartbeat IPC: 1.08399 cumulative IPC: 1.09931 (Simulation time: 1 hr 2 min 46 sec) 
Heartbeat CPU 0 instructions: 210000003 cycles: 128941542 heartbeat IPC: 1.28597 cumulative IPC: 1.47491 (Simulation time: 1 hr 3 min 35 sec) 
Heartbeat CPU 1 instructions: 230000002 cycles: 132052504 heartbeat IPC: 0.961371 cumulative IPC: 1.49522 (Simulation time: 1 hr 4 min 30 sec) 
Heartbeat CPU 3 instructions: 180000000 cycles: 135511490 heartbeat IPC: 1.06775 cumulative IPC: 1.09674 (Simulation time: 1 hr 5 min 28 sec) 
Heartbeat CPU 0 instructions: 220000000 cycles: 136419280 heartbeat IPC: 1.3373 cumulative IPC: 1.46604 (Simulation time: 1 hr 5 min 45 sec) 
Heartbeat CPU 1 instructions: 240000000 cycles: 142484589 heartbeat IPC: 0.958581 cumulative IPC: 1.44935 (Simulation time: 1 hr 7 min 30 sec) 
Heartbeat CPU 0 instructions: 230000001 cycles: 143061350 heartbeat IPC: 1.50555 cumulative IPC: 1.46818 (Simulation time: 1 hr 7 min 39 sec) 
Heartbeat CPU 3 instructions: 190000000 cycles: 144873090 heartbeat IPC: 1.06819 cumulative IPC: 1.09459 (Simulation time: 1 hr 8 min 9 sec) 
Heartbeat CPU 0 instructions: 240000001 cycles: 148809544 heartbeat IPC: 1.73968 cumulative IPC: 1.48034 (Simulation time: 1 hr 9 min 26 sec) 
*** Reached end of trace for Core: 1 Repeating trace: ./traces/ligra/ligra_BellmanFord.com-lj.ungraph.gcc_6.3.0_O3.drop_1750M.length_250M.champsimtrace.xz
Heartbeat CPU 1 instructions: 250000003 cycles: 152932819 heartbeat IPC: 0.9571 cumulative IPC: 1.41052 (Simulation time: 1 hr 10 min 41 sec) 
Heartbeat CPU 3 instructions: 200000000 cycles: 154018647 heartbeat IPC: 1.09343 cumulative IPC: 1.09451 (Simulation time: 1 hr 11 min 1 sec) 
Heartbeat CPU 1 instructions: 260000001 cycles: 159796716 heartbeat IPC: 1.4569 cumulative IPC: 1.41281 (Simulation time: 1 hr 12 min 35 sec) 
Heartbeat CPU 0 instructions: 250000002 cycles: 160325401 heartbeat IPC: 0.868368 cumulative IPC: 1.42995 (Simulation time: 1 hr 12 min 43 sec) 
Finished CPU 0 instructions: 200000003 cycles: 139864900 cumulative IPC: 1.42995 (Simulation time: 1 hr 12 min 43 sec) 
Finished CPU 1 instructions: 200000000 cycles: 141415539 cumulative IPC: 1.41427 (Simulation time: 1 hr 13 min 6 sec) 
Heartbeat CPU 3 instructions: 210000003 cycles: 163353286 heartbeat IPC: 1.07128 cumulative IPC: 1.093 (Simulation time: 1 hr 13 min 39 sec) 
Heartbeat CPU 1 instructions: 270000000 cycles: 166337152 heartbeat IPC: 1.52895 cumulative IPC: 1.41801 (Simulation time: 1 hr 14 min 38 sec) 
Heartbeat CPU 0 instructions: 260000003 cycles: 170214738 heartbeat IPC: 1.01119 cumulative IPC: 1.4023 (Simulation time: 1 hr 15 min 47 sec) 
Heartbeat CPU 3 instructions: 220000000 cycles: 172732255 heartbeat IPC: 1.06621 cumulative IPC: 1.09135 (Simulation time: 1 hr 16 min 37 sec) 
Heartbeat CPU 1 instructions: 280000002 cycles: 173570956 heartbeat IPC: 1.3824 cumulative IPC: 1.41633 (Simulation time: 1 hr 16 min 54 sec) 
Heartbeat CPU 0 instructions: 270000001 cycles: 179987020 heartbeat IPC: 1.0233 cumulative IPC: 1.37908 (Simulation time: 1 hr 18 min 58 sec) 
Heartbeat CPU 1 instructions: 290000001 cycles: 180400451 heartbeat IPC: 1.46424 cumulative IPC: 1.41838 (Simulation time: 1 hr 19 min 6 sec) 
Heartbeat CPU 3 instructions: 230000000 cycles: 182196764 heartbeat IPC: 1.05658 cumulative IPC: 1.08931 (Simulation time: 1 hr 19 min 36 sec) 
Heartbeat CPU 1 instructions: 300000002 cycles: 187793168 heartbeat IPC: 1.35268 cumulative IPC: 1.41547 (Simulation time: 1 hr 21 min 22 sec) 
Heartbeat CPU 0 instructions: 280000000 cycles: 190825806 heartbeat IPC: 0.922612 cumulative IPC: 1.35004 (Simulation time: 1 hr 22 min 14 sec) 
Heartbeat CPU 3 instructions: 240000000 cycles: 192295092 heartbeat IPC: 0.990263 cumulative IPC: 1.08349 (Simulation time: 1 hr 22 min 43 sec) 
Heartbeat CPU 1 instructions: 310000001 cycles: 195374806 heartbeat IPC: 1.31898 cumulative IPC: 1.41129 (Simulation time: 1 hr 23 min 46 sec) 
*** Reached end of trace for Core: 3 Repeating trace: ./traces/ligra/ligra_PageRank.com-lj.ungraph.gcc_6.3.0_O3.drop_5000M.length_250M.champsimtrace.xz
Heartbeat CPU 3 instructions: 250000000 cycles: 201922011 heartbeat IPC: 1.03875 cumulative IPC: 1.08112 (Simulation time: 1 hr 25 min 40 sec) 
Heartbeat CPU 0 instructions: 290000000 cycles: 202179888 heartbeat IPC: 0.880741 cumulative IPC: 1.32072 (Simulation time: 1 hr 25 min 44 sec) 
Heartbeat CPU 1 instructions: 320000000 cycles: 202594818 heartbeat IPC: 1.38504 cumulative IPC: 1.41025 (Simulation time: 1 hr 25 min 51 sec) 
Finished CPU 3 instructions: 200000000 cycles: 185136355 cumulative IPC: 1.08028 (Simulation time: 1 hr 26 min 49 sec) 
Heartbeat CPU 1 instructions: 330000000 cycles: 209777198 heartbeat IPC: 1.3923 cumulative IPC: 1.40957 (Simulation time: 1 hr 28 min 17 sec) 
Heartbeat CPU 0 instructions: 300000000 cycles: 210501844 heartbeat IPC: 1.20164 cumulative IPC: 1.3155 (Simulation time: 1 hr 28 min 32 sec) 
Heartbeat CPU 3 instructions: 260000001 cycles: 211331897 heartbeat IPC: 1.06271 cumulative IPC: 1.08021 (Simulation time: 1 hr 28 min 48 sec) 
Heartbeat CPU 1 instructions: 340000000 cycles: 216638383 heartbeat IPC: 1.45747 cumulative IPC: 1.41125 (Simulation time: 1 hr 30 min 22 sec) 
Heartbeat CPU 3 instructions: 270000001 cycles: 220395004 heartbeat IPC: 1.10337 cumulative IPC: 1.08126 (Simulation time: 1 hr 31 min 32 sec) 
Heartbeat CPU 0 instructions: 310000002 cycles: 220565782 heartbeat IPC: 0.993647 cumulative IPC: 1.29932 (Simulation time: 1 hr 31 min 36 sec) 
Heartbeat CPU 1 instructions: 350000002 cycles: 223095163 heartbeat IPC: 1.54876 cumulative IPC: 1.41563 (Simulation time: 1 hr 32 min 26 sec) 
Heartbeat CPU 0 instructions: 320000000 cycles: 228492374 heartbeat IPC: 1.26158 cumulative IPC: 1.29788 (Simulation time: 1 hr 34 min 8 sec) 
Heartbeat CPU 3 instructions: 280000001 cycles: 229316617 heartbeat IPC: 1.12087 cumulative IPC: 1.08295 (Simulation time: 1 hr 34 min 21 sec) 
Heartbeat CPU 1 instructions: 360000001 cycles: 229529990 heartbeat IPC: 1.55404 cumulative IPC: 1.41989 (Simulation time: 1 hr 34 min 25 sec) 
Heartbeat CPU 1 instructions: 370000000 cycles: 236197315 heartbeat IPC: 1.49985 cumulative IPC: 1.42236 (Simulation time: 1 hr 36 min 35 sec) 
Heartbeat CPU 2 instructions: 70000002 cycles: 237577086 heartbeat IPC: 0.0579543 cumulative IPC: 0.0601722 (Simulation time: 1 hr 36 min 56 sec) 
Heartbeat CPU 3 instructions: 290000000 cycles: 238682393 heartbeat IPC: 1.06772 cumulative IPC: 1.0823 (Simulation time: 1 hr 37 min 13 sec) 
Heartbeat CPU 0 instructions: 330000000 cycles: 239957016 heartbeat IPC: 0.872247 cumulative IPC: 1.27565 (Simulation time: 1 hr 37 min 38 sec) 
Heartbeat CPU 1 instructions: 380000001 cycles: 242925502 heartbeat IPC: 1.48628 cumulative IPC: 1.42429 (Simulation time: 1 hr 38 min 39 sec) 
Heartbeat CPU 0 instructions: 340000003 cycles: 247499952 heartbeat IPC: 1.32574 cumulative IPC: 1.27731 (Simulation time: 1 hr 40 min 11 sec) 
Heartbeat CPU 3 instructions: 300000001 cycles: 247597824 heartbeat IPC: 1.12165 cumulative IPC: 1.08384 (Simulation time: 1 hr 40 min 12 sec) 
Heartbeat CPU 1 instructions: 390000000 cycles: 249146756 heartbeat IPC: 1.60739 cumulative IPC: 1.42927 (Simulation time: 1 hr 40 min 45 sec) 
Heartbeat CPU 0 instructions: 350000003 cycles: 255134065 heartbeat IPC: 1.30991 cumulative IPC: 1.27837 (Simulation time: 1 hr 42 min 53 sec) 
Heartbeat CPU 1 instructions: 400000002 cycles: 255519949 heartbeat IPC: 1.56907 cumulative IPC: 1.43306 (Simulation time: 1 hr 43 min 1 sec) 
Heartbeat CPU 3 instructions: 310000000 cycles: 256531725 heartbeat IPC: 1.11933 cumulative IPC: 1.08519 (Simulation time: 1 hr 43 min 26 sec) 
Heartbeat CPU 1 instructions: 410000001 cycles: 261781767 heartbeat IPC: 1.59698 cumulative IPC: 1.43732 (Simulation time: 1 hr 45 min 27 sec) 
Heartbeat CPU 0 instructions: 360000000 cycles: 262672089 heartbeat IPC: 1.32661 cumulative IPC: 1.27987 (Simulation time: 1 hr 45 min 49 sec) 
Heartbeat CPU 3 instructions: 320000002 cycles: 265455374 heartbeat IPC: 1.12062 cumulative IPC: 1.08648 (Simulation time: 1 hr 46 min 56 sec) 
Heartbeat CPU 1 instructions: 420000002 cycles: 268009734 heartbeat IPC: 1.60566 cumulative IPC: 1.44155 (Simulation time: 1 hr 47 min 49 sec) 
Heartbeat CPU 0 instructions: 370000001 cycles: 270146624 heartbeat IPC: 1.33788 cumulative IPC: 1.28161 (Simulation time: 1 hr 48 min 36 sec) 
Heartbeat CPU 1 instructions: 430000001 cycles: 274220737 heartbeat IPC: 1.61005 cumulative IPC: 1.44568 (Simulation time: 1 hr 50 min 8 sec) 
Heartbeat CPU 3 instructions: 330000000 cycles: 274350598 heartbeat IPC: 1.1242 cumulative IPC: 1.0878 (Simulation time: 1 hr 50 min 11 sec) 
Heartbeat CPU 0 instructions: 380000002 cycles: 277641785 heartbeat IPC: 1.33419 cumulative IPC: 1.28314 (Simulation time: 1 hr 51 min 18 sec) 
Heartbeat CPU 1 instructions: 440000000 cycles: 280422114 heartbeat IPC: 1.61254 cumulative IPC: 1.44966 (Simulation time: 1 hr 52 min 21 sec) 
Heartbeat CPU 3 instructions: 340000002 cycles: 283286549 heartbeat IPC: 1.11908 cumulative IPC: 1.08886 (Simulation time: 1 hr 53 min 29 sec) 
Heartbeat CPU 0 instructions: 390000000 cycles: 285047677 heartbeat IPC: 1.35028 cumulative IPC: 1.28502 (Simulation time: 1 hr 54 min 8 sec) 
Heartbeat CPU 1 instructions: 450000000 cycles: 286613790 heartbeat IPC: 1.61507 cumulative IPC: 1.4535 (Simulation time: 1 hr 54 min 42 sec) 
Heartbeat CPU 0 instructions: 400000001 cycles: 292169139 heartbeat IPC: 1.40421 cumulative IPC: 1.28814 (Simulation time: 1 hr 56 min 45 sec) 
Heartbeat CPU 3 instructions: 350000001 cycles: 292312985 heartbeat IPC: 1.10786 cumulative IPC: 1.08949 (Simulation time: 1 hr 56 min 48 sec) 
Heartbeat CPU 1 instructions: 460000003 cycles: 292840134 heartbeat IPC: 1.60608 cumulative IPC: 1.45699 (Simulation time: 1 hr 56 min 57 sec) 
Heartbeat CPU 0 instructions: 410000000 cycles: 299259403 heartbeat IPC: 1.41038 cumulative IPC: 1.29125 (Simulation time: 1 hr 59 min 2 sec) 
Heartbeat CPU 3 instructions: 360000001 cycles: 301337307 heartbeat IPC: 1.10812 cumulative IPC: 1.09009 (Simulation time: 1 hr 59 min 42 sec) 
Heartbeat CPU 1 instructions: 470000000 cycles: 302191521 heartbeat IPC: 1.06936 cumulative IPC: 1.44413 (Simulation time: 2 hr 0 min 0 sec) 
Heartbeat CPU 0 instructions: 420000000 cycles: 306472093 heartbeat IPC: 1.38645 cumulative IPC: 1.29365 (Simulation time: 2 hr 1 min 16 sec) 
Heartbeat CPU 3 instructions: 370000002 cycles: 310433774 heartbeat IPC: 1.09933 cumulative IPC: 1.09038 (Simulation time: 2 hr 2 min 26 sec) 
Heartbeat CPU 1 instructions: 480000003 cycles: 312607717 heartbeat IPC: 0.960044 cumulative IPC: 1.42687 (Simulation time: 2 hr 3 min 5 sec) 
Heartbeat CPU 0 instructions: 430000000 cycles: 313497834 heartbeat IPC: 1.42334 cumulative IPC: 1.29676 (Simulation time: 2 hr 3 min 19 sec) 
Heartbeat CPU 3 instructions: 380000000 cycles: 319429258 heartbeat IPC: 1.11167 cumulative IPC: 1.09102 (Simulation time: 2 hr 4 min 53 sec) 
Heartbeat CPU 1 instructions: 490000001 cycles: 323023275 heartbeat IPC: 0.960102 cumulative IPC: 1.4108 (Simulation time: 2 hr 6 min 1 sec) 
Heartbeat CPU 0 instructions: 440000000 cycles: 323179656 heartbeat IPC: 1.03286 cumulative IPC: 1.28832 (Simulation time: 2 hr 6 min 5 sec) 
Heartbeat CPU 3 instructions: 390000001 cycles: 328316356 heartbeat IPC: 1.12523 cumulative IPC: 1.09201 (Simulation time: 2 hr 7 min 37 sec) 
Heartbeat CPU 0 instructions: 450000002 cycles: 331364933 heartbeat IPC: 1.22171 cumulative IPC: 1.28657 (Simulation time: 2 hr 8 min 38 sec) 
*** Reached end of trace for Core: 1 Repeating trace: ./traces/ligra/ligra_BellmanFord.com-lj.ungraph.gcc_6.3.0_O3.drop_1750M.length_250M.champsimtrace.xz
Heartbeat CPU 1 instructions: 500000000 cycles: 333428107 heartbeat IPC: 0.961092 cumulative IPC: 1.39585 (Simulation time: 2 hr 9 min 17 sec) 
Heartbeat CPU 3 instructions: 400000001 cycles: 337178829 heartbeat IPC: 1.12835 cumulative IPC: 1.09303 (Simulation time: 2 hr 10 min 36 sec) 
Heartbeat CPU 0 instructions: 460000000 cycles: 339494396 heartbeat IPC: 1.23009 cumulative IPC: 1.28513 (Simulation time: 2 hr 11 min 26 sec) 
Heartbeat CPU 1 instructions: 510000002 cycles: 339599011 heartbeat IPC: 1.62051 cumulative IPC: 1.40019 (Simulation time: 2 hr 11 min 28 sec) 
Heartbeat CPU 1 instructions: 520000001 cycles: 345802207 heartbeat IPC: 1.61207 cumulative IPC: 1.40423 (Simulation time: 2 hr 13 min 53 sec) 
Heartbeat CPU 3 instructions: 410000001 cycles: 346231169 heartbeat IPC: 1.10469 cumulative IPC: 1.09335 (Simulation time: 2 hr 14 min 3 sec) 
Heartbeat CPU 0 instructions: 470000001 cycles: 347734761 heartbeat IPC: 1.21354 cumulative IPC: 1.28333 (Simulation time: 2 hr 14 min 37 sec) 
Heartbeat CPU 1 instructions: 530000000 cycles: 352218170 heartbeat IPC: 1.55861 cumulative IPC: 1.40722 (Simulation time: 2 hr 15 min 55 sec) 
Heartbeat CPU 3 instructions: 420000000 cycles: 355641481 heartbeat IPC: 1.06266 cumulative IPC: 1.09249 (Simulation time: 2 hr 17 min 0 sec) 
Heartbeat CPU 0 instructions: 480000002 cycles: 357057188 heartbeat IPC: 1.07268 cumulative IPC: 1.27749 (Simulation time: 2 hr 17 min 25 sec) 
Heartbeat CPU 1 instructions: 540000002 cycles: 358760567 heartbeat IPC: 1.52849 cumulative IPC: 1.40956 (Simulation time: 2 hr 18 min 3 sec) 
Heartbeat CPU 0 instructions: 490000003 cycles: 363732866 heartbeat IPC: 1.49798 cumulative IPC: 1.28178 (Simulation time: 2 hr 19 min 56 sec) 
Heartbeat CPU 3 instructions: 430000000 cycles: 365142178 heartbeat IPC: 1.05255 cumulative IPC: 1.09139 (Simulation time: 2 hr 20 min 27 sec) 
Heartbeat CPU 1 instructions: 550000000 cycles: 365257269 heartbeat IPC: 1.53924 cumulative IPC: 1.41201 (Simulation time: 2 hr 20 min 30 sec) 
Heartbeat CPU 0 instructions: 500000002 cycles: 370536037 heartbeat IPC: 1.4699 cumulative IPC: 1.28544 (Simulation time: 2 hr 22 min 26 sec) 
Heartbeat CPU 1 instructions: 560000003 cycles: 371632467 heartbeat IPC: 1.56858 cumulative IPC: 1.41485 (Simulation time: 2 hr 22 min 45 sec) 
Heartbeat CPU 3 instructions: 440000000 cycles: 374825570 heartbeat IPC: 1.0327 cumulative IPC: 1.08978 (Simulation time: 2 hr 23 min 43 sec) 
Heartbeat CPU 2 instructions: 80000001 cycles: 378606010 heartbeat IPC: 0.0709074 cumulative IPC: 0.0643994 (Simulation time: 2 hr 24 min 58 sec) 
Heartbeat CPU 1 instructions: 570000001 cycles: 379438023 heartbeat IPC: 1.28114 cumulative IPC: 1.41194 (Simulation time: 2 hr 25 min 11 sec) 
Heartbeat CPU 3 instructions: 450000000 cycles: 384654860 heartbeat IPC: 1.01737 cumulative IPC: 1.08783 (Simulation time: 2 hr 26 min 30 sec) 
Heartbeat CPU 0 instructions: 510000000 cycles: 384923913 heartbeat IPC: 0.695029 cumulative IPC: 1.26213 (Simulation time: 2 hr 26 min 35 sec) 
Heartbeat CPU 1 instructions: 580000000 cycles: 386212543 heartbeat IPC: 1.47612 cumulative IPC: 1.41313 (Simulation time: 2 hr 26 min 58 sec) 
Heartbeat CPU 1 instructions: 590000001 cycles: 392802800 heartbeat IPC: 1.51739 cumulative IPC: 1.41498 (Simulation time: 2 hr 28 min 58 sec) 
Heartbeat CPU 3 instructions: 460000003 cycles: 393845642 heartbeat IPC: 1.08805 cumulative IPC: 1.08783 (Simulation time: 2 hr 29 min 17 sec) 
Heartbeat CPU 0 instructions: 520000002 cycles: 398046482 heartbeat IPC: 0.762046 cumulative IPC: 1.24475 (Simulation time: 2 hr 30 min 41 sec) 
Heartbeat CPU 1 instructions: 600000000 cycles: 399193979 heartbeat IPC: 1.56466 cumulative IPC: 1.4175 (Simulation time: 2 hr 31 min 7 sec) 
Heartbeat CPU 3 instructions: 470000000 cycles: 402738502 heartbeat IPC: 1.1245 cumulative IPC: 1.08869 (Simulation time: 2 hr 32 min 28 sec) 
Heartbeat CPU 1 instructions: 610000002 cycles: 405414041 heartbeat IPC: 1.6077 cumulative IPC: 1.42057 (Simulation time: 2 hr 33 min 19 sec) 
Heartbeat CPU 0 instructions: 530000002 cycles: 405586737 heartbeat IPC: 1.32622 cumulative IPC: 1.24634 (Simulation time: 2 hr 33 min 23 sec) 
Heartbeat CPU 1 instructions: 620000001 cycles: 411779025 heartbeat IPC: 1.5711 cumulative IPC: 1.42302 (Simulation time: 2 hr 35 min 35 sec) 
Heartbeat CPU 3 instructions: 480000000 cycles: 411859367 heartbeat IPC: 1.09639 cumulative IPC: 1.08887 (Simulation time: 2 hr 35 min 37 sec) 
Heartbeat CPU 0 instructions: 540000000 cycles: 413466854 heartbeat IPC: 1.26902 cumulative IPC: 1.2468 (Simulation time: 2 hr 36 min 14 sec) 
Heartbeat CPU 1 instructions: 630000002 cycles: 418069682 heartbeat IPC: 1.58966 cumulative IPC: 1.42566 (Simulation time: 2 hr 38 min 2 sec) 
Heartbeat CPU 0 instructions: 550000000 cycles: 421186197 heartbeat IPC: 1.29545 cumulative IPC: 1.24774 (Simulation time: 2 hr 39 min 12 sec) 
Heartbeat CPU 3 instructions: 490000000 cycles: 421220903 heartbeat IPC: 1.0682 cumulative IPC: 1.08838 (Simulation time: 2 hr 39 min 12 sec) 
Heartbeat CPU 1 instructions: 640000001 cycles: 424319412 heartbeat IPC: 1.60007 cumulative IPC: 1.42836 (Simulation time: 2 hr 40 min 23 sec) 
Heartbeat CPU 0 instructions: 560000003 cycles: 428889232 heartbeat IPC: 1.29819 cumulative IPC: 1.24869 (Simulation time: 2 hr 42 min 10 sec) 
*** Reached end of trace for Core: 3 Repeating trace: ./traces/ligra/ligra_PageRank.com-lj.ungraph.gcc_6.3.0_O3.drop_5000M.length_250M.champsimtrace.xz
Heartbeat CPU 3 instructions: 500000000 cycles: 430304350 heartbeat IPC: 1.1009 cumulative IPC: 1.08866 (Simulation time: 2 hr 42 min 39 sec) 
Heartbeat CPU 1 instructions: 650000000 cycles: 430594530 heartbeat IPC: 1.5936 cumulative IPC: 1.43089 (Simulation time: 2 hr 42 min 45 sec) 
Heartbeat CPU 0 instructions: 570000000 cycles: 436639173 heartbeat IPC: 1.29033 cumulative IPC: 1.24946 (Simulation time: 2 hr 45 min 2 sec) 
Heartbeat CPU 1 instructions: 660000000 cycles: 436869298 heartbeat IPC: 1.59368 cumulative IPC: 1.43334 (Simulation time: 2 hr 45 min 8 sec) 
Heartbeat CPU 3 instructions: 510000001 cycles: 439070275 heartbeat IPC: 1.14078 cumulative IPC: 1.08975 (Simulation time: 2 hr 45 min 58 sec) 
Heartbeat CPU 1 instructions: 670000003 cycles: 443338379 heartbeat IPC: 1.54582 cumulative IPC: 1.43506 (Simulation time: 2 hr 47 min 30 sec) 
Heartbeat CPU 0 instructions: 580000001 cycles: 444695731 heartbeat IPC: 1.24123 cumulative IPC: 1.24931 (Simulation time: 2 hr 48 min 0 sec) 
Heartbeat CPU 3 instructions: 520000001 cycles: 447977515 heartbeat IPC: 1.12268 cumulative IPC: 1.09044 (Simulation time: 2 hr 49 min 7 sec) 
Heartbeat CPU 1 instructions: 680000002 cycles: 449721489 heartbeat IPC: 1.56663 cumulative IPC: 1.43702 (Simulation time: 2 hr 49 min 48 sec) 
Heartbeat CPU 0 instructions: 590000002 cycles: 452739117 heartbeat IPC: 1.24326 cumulative IPC: 1.24919 (Simulation time: 2 hr 50 min 54 sec) 
Heartbeat CPU 1 instructions: 690000001 cycles: 456107600 heartbeat IPC: 1.5659 cumulative IPC: 1.43891 (Simulation time: 2 hr 52 min 7 sec) 
Heartbeat CPU 3 instructions: 530000001 cycles: 456848900 heartbeat IPC: 1.12722 cumulative IPC: 1.09119 (Simulation time: 2 hr 52 min 23 sec) 
Heartbeat CPU 0 instructions: 600000000 cycles: 460622674 heartbeat IPC: 1.26846 cumulative IPC: 1.24954 (Simulation time: 2 hr 53 min 46 sec) 
Heartbeat CPU 1 instructions: 700000000 cycles: 462425213 heartbeat IPC: 1.58288 cumulative IPC: 1.44096 (Simulation time: 2 hr 54 min 26 sec) 
Heartbeat CPU 3 instructions: 540000000 cycles: 465750053 heartbeat IPC: 1.12345 cumulative IPC: 1.09183 (Simulation time: 2 hr 55 min 38 sec) 
Heartbeat CPU 1 instructions: 710000000 cycles: 469169502 heartbeat IPC: 1.48274 cumulative IPC: 1.44159 (Simulation time: 2 hr 56 min 34 sec) 
Heartbeat CPU 0 instructions: 610000001 cycles: 471611557 heartbeat IPC: 0.910011 cumulative IPC: 1.24127 (Simulation time: 2 hr 57 min 22 sec) 
Heartbeat CPU 3 instructions: 550000000 cycles: 474957809 heartbeat IPC: 1.08604 cumulative IPC: 1.09171 (Simulation time: 2 hr 58 min 21 sec) 
Heartbeat CPU 1 instructions: 720000000 cycles: 478656416 heartbeat IPC: 1.05408 cumulative IPC: 1.43357 (Simulation time: 2 hr 59 min 20 sec) 
Heartbeat CPU 0 instructions: 620000003 cycles: 478905873 heartbeat IPC: 1.37093 cumulative IPC: 1.24333 (Simulation time: 2 hr 59 min 25 sec) 
Heartbeat CPU 3 instructions: 560000000 cycles: 483994971 heartbeat IPC: 1.10654 cumulative IPC: 1.092 (Simulation time: 3 hr 0 min 48 sec) 
Heartbeat CPU 0 instructions: 630000001 cycles: 488785623 heartbeat IPC: 1.01217 cumulative IPC: 1.23846 (Simulation time: 3 hr 2 min 3 sec) 
Heartbeat CPU 1 instructions: 730000000 cycles: 489177050 heartbeat IPC: 0.950513 cumulative IPC: 1.42273 (Simulation time: 3 hr 2 min 11 sec) 
Heartbeat CPU 3 instructions: 570000002 cycles: 493090046 heartbeat IPC: 1.0995 cumulative IPC: 1.09215 (Simulation time: 3 hr 3 min 23 sec) 
Heartbeat CPU 0 instructions: 640000002 cycles: 496266744 heartbeat IPC: 1.3367 cumulative IPC: 1.24 (Simulation time: 3 hr 4 min 27 sec) 
Heartbeat CPU 1 instructions: 740000002 cycles: 499587214 heartbeat IPC: 0.9606 cumulative IPC: 1.41268 (Simulation time: 3 hr 5 min 26 sec) 
Heartbeat CPU 3 instructions: 580000001 cycles: 501986194 heartbeat IPC: 1.12408 cumulative IPC: 1.09274 (Simulation time: 3 hr 6 min 10 sec) 
Heartbeat CPU 0 instructions: 650000000 cycles: 503701157 heartbeat IPC: 1.3451 cumulative IPC: 1.24162 (Simulation time: 3 hr 6 min 40 sec) 
*** Reached end of trace for Core: 1 Repeating trace: ./traces/ligra/ligra_BellmanFord.com-lj.ungraph.gcc_6.3.0_O3.drop_1750M.length_250M.champsimtrace.xz
Heartbeat CPU 1 instructions: 750000001 cycles: 509991339 heartbeat IPC: 0.961157 cumulative IPC: 1.40309 (Simulation time: 3 hr 8 min 35 sec) 
Heartbeat CPU 3 instructions: 590000002 cycles: 510920456 heartbeat IPC: 1.11929 cumulative IPC: 1.09322 (Simulation time: 3 hr 8 min 59 sec) 
Heartbeat CPU 0 instructions: 660000000 cycles: 511135974 heartbeat IPC: 1.34502 cumulative IPC: 1.24318 (Simulation time: 3 hr 9 min 4 sec) 
Heartbeat CPU 1 instructions: 760000000 cycles: 516212481 heartbeat IPC: 1.60742 cumulative IPC: 1.40565 (Simulation time: 3 hr 10 min 56 sec) 
Heartbeat CPU 0 instructions: 670000002 cycles: 518601954 heartbeat IPC: 1.33941 cumulative IPC: 1.24463 (Simulation time: 3 hr 11 min 54 sec) 
Heartbeat CPU 3 instructions: 600000001 cycles: 519906846 heartbeat IPC: 1.11279 cumulative IPC: 1.09357 (Simulation time: 3 hr 12 min 26 sec) 
Heartbeat CPU 2 instructions: 90000002 cycles: 520881123 heartbeat IPC: 0.0702864 cumulative IPC: 0.0660732 (Simulation time: 3 hr 12 min 50 sec) 
Heartbeat CPU 1 instructions: 770000000 cycles: 522414294 heartbeat IPC: 1.61243 cumulative IPC: 1.40821 (Simulation time: 3 hr 13 min 26 sec) 
Heartbeat CPU 0 instructions: 680000001 cycles: 526044177 heartbeat IPC: 1.34368 cumulative IPC: 1.24608 (Simulation time: 3 hr 14 min 44 sec) 
Heartbeat CPU 1 instructions: 780000003 cycles: 528593582 heartbeat IPC: 1.61831 cumulative IPC: 1.41076 (Simulation time: 3 hr 15 min 46 sec) 
Heartbeat CPU 3 instructions: 610000001 cycles: 528918584 heartbeat IPC: 1.10966 cumulative IPC: 1.09386 (Simulation time: 3 hr 15 min 54 sec) 
Heartbeat CPU 0 instructions: 690000001 cycles: 533536414 heartbeat IPC: 1.33471 cumulative IPC: 1.24738 (Simulation time: 3 hr 17 min 36 sec) 
Heartbeat CPU 1 instructions: 790000000 cycles: 534799604 heartbeat IPC: 1.61134 cumulative IPC: 1.41318 (Simulation time: 3 hr 17 min 59 sec) 
Heartbeat CPU 3 instructions: 620000002 cycles: 538014186 heartbeat IPC: 1.09943 cumulative IPC: 1.09396 (Simulation time: 3 hr 19 min 7 sec) 
Heartbeat CPU 0 instructions: 700000001 cycles: 540741478 heartbeat IPC: 1.38791 cumulative IPC: 1.24932 (Simulation time: 3 hr 20 min 4 sec) 
Heartbeat CPU 1 instructions: 800000001 cycles: 541047337 heartbeat IPC: 1.60058 cumulative IPC: 1.41543 (Simulation time: 3 hr 20 min 11 sec) 
Heartbeat CPU 3 instructions: 630000000 cycles: 547000997 heartbeat IPC: 1.11274 cumulative IPC: 1.09428 (Simulation time: 3 hr 22 min 23 sec) 
Heartbeat CPU 1 instructions: 810000000 cycles: 547301730 heartbeat IPC: 1.59888 cumulative IPC: 1.41761 (Simulation time: 3 hr 22 min 30 sec) 
Heartbeat CPU 0 instructions: 710000001 cycles: 547927354 heartbeat IPC: 1.39162 cumulative IPC: 1.25126 (Simulation time: 3 hr 22 min 44 sec) 
Heartbeat CPU 1 instructions: 820000002 cycles: 553758594 heartbeat IPC: 1.54874 cumulative IPC: 1.4192 (Simulation time: 3 hr 24 min 43 sec) 
Heartbeat CPU 0 instructions: 720000000 cycles: 555505137 heartbeat IPC: 1.31965 cumulative IPC: 1.25223 (Simulation time: 3 hr 25 min 17 sec) 
Heartbeat CPU 3 instructions: 640000001 cycles: 556030574 heartbeat IPC: 1.10747 cumulative IPC: 1.0945 (Simulation time: 3 hr 25 min 28 sec) 
Heartbeat CPU 1 instructions: 830000001 cycles: 560084049 heartbeat IPC: 1.58091 cumulative IPC: 1.42109 (Simulation time: 3 hr 26 min 59 sec) 
Heartbeat CPU 0 instructions: 730000001 cycles: 562846942 heartbeat IPC: 1.36206 cumulative IPC: 1.25372 (Simulation time: 3 hr 27 min 54 sec) 
Heartbeat CPU 3 instructions: 650000001 cycles: 564976559 heartbeat IPC: 1.11782 cumulative IPC: 1.09488 (Simulation time: 3 hr 28 min 37 sec) 
Heartbeat CPU 1 instructions: 840000002 cycles: 566559208 heartbeat IPC: 1.54436 cumulative IPC: 1.42255 (Simulation time: 3 hr 28 min 59 sec) 
Heartbeat CPU 1 instructions: 850000001 cycles: 572911906 heartbeat IPC: 1.57413 cumulative IPC: 1.4243 (Simulation time: 3 hr 31 min 0 sec) 
Heartbeat CPU 0 instructions: 740000001 cycles: 573242779 heartbeat IPC: 0.961923 cumulative IPC: 1.24823 (Simulation time: 3 hr 31 min 8 sec) 
Heartbeat CPU 3 instructions: 660000000 cycles: 574224090 heartbeat IPC: 1.08137 cumulative IPC: 1.09466 (Simulation time: 3 hr 31 min 32 sec) 
Heartbeat CPU 1 instructions: 860000000 cycles: 579128236 heartbeat IPC: 1.60867 cumulative IPC: 1.42635 (Simulation time: 3 hr 33 min 24 sec) 
Heartbeat CPU 0 instructions: 750000001 cycles: 581427150 heartbeat IPC: 1.22184 cumulative IPC: 1.24785 (Simulation time: 3 hr 34 min 18 sec) 
Heartbeat CPU 3 instructions: 670000000 cycles: 583372423 heartbeat IPC: 1.0931 cumulative IPC: 1.09463 (Simulation time: 3 hr 35 min 1 sec) 
Heartbeat CPU 1 instructions: 870000002 cycles: 585309679 heartbeat IPC: 1.61775 cumulative IPC: 1.42844 (Simulation time: 3 hr 35 min 41 sec) 
Heartbeat CPU 0 instructions: 760000001 cycles: 589634417 heartbeat IPC: 1.21843 cumulative IPC: 1.24742 (Simulation time: 3 hr 37 min 22 sec) 
Heartbeat CPU 1 instructions: 880000000 cycles: 591506836 heartbeat IPC: 1.61364 cumulative IPC: 1.43045 (Simulation time: 3 hr 38 min 2 sec) 
Heartbeat CPU 3 instructions: 680000000 cycles: 592662081 heartbeat IPC: 1.07647 cumulative IPC: 1.09434 (Simulation time: 3 hr 38 min 23 sec) 
Heartbeat CPU 1 instructions: 890000002 cycles: 597720550 heartbeat IPC: 1.60934 cumulative IPC: 1.43238 (Simulation time: 3 hr 40 min 15 sec) 
Heartbeat CPU 0 instructions: 770000000 cycles: 597963091 heartbeat IPC: 1.20067 cumulative IPC: 1.24675 (Simulation time: 3 hr 40 min 20 sec) 
Heartbeat CPU 3 instructions: 690000000 cycles: 602076985 heartbeat IPC: 1.06215 cumulative IPC: 1.09382 (Simulation time: 3 hr 41 min 37 sec) 
Heartbeat CPU 1 instructions: 900000001 cycles: 604382007 heartbeat IPC: 1.50117 cumulative IPC: 1.43316 (Simulation time: 3 hr 42 min 20 sec) 
Heartbeat CPU 0 instructions: 780000000 cycles: 607612883 heartbeat IPC: 1.03629 cumulative IPC: 1.24329 (Simulation time: 3 hr 43 min 24 sec) 
Heartbeat CPU 1 instructions: 910000000 cycles: 611124124 heartbeat IPC: 1.48321 cumulative IPC: 1.43374 (Simulation time: 3 hr 44 min 34 sec) 
Heartbeat CPU 3 instructions: 700000000 cycles: 611480861 heartbeat IPC: 1.06339 cumulative IPC: 1.09333 (Simulation time: 3 hr 44 min 42 sec) 
Heartbeat CPU 0 instructions: 790000002 cycles: 614384021 heartbeat IPC: 1.47686 cumulative IPC: 1.24595 (Simulation time: 3 hr 45 min 48 sec) 
Heartbeat CPU 1 instructions: 920000000 cycles: 617504861 heartbeat IPC: 1.56722 cumulative IPC: 1.43516 (Simulation time: 3 hr 47 min 1 sec) 
Heartbeat CPU 3 instructions: 710000003 cycles: 620491021 heartbeat IPC: 1.10986 cumulative IPC: 1.09358 (Simulation time: 3 hr 48 min 14 sec) 
Heartbeat CPU 0 instructions: 800000000 cycles: 620967775 heartbeat IPC: 1.51889 cumulative IPC: 1.24894 (Simulation time: 3 hr 48 min 26 sec) 
Heartbeat CPU 1 instructions: 930000000 cycles: 624136275 heartbeat IPC: 1.50797 cumulative IPC: 1.43596 (Simulation time: 3 hr 49 min 24 sec) 
Heartbeat CPU 3 instructions: 720000000 cycles: 629625190 heartbeat IPC: 1.09479 cumulative IPC: 1.0936 (Simulation time: 3 hr 51 min 11 sec) 
Heartbeat CPU 1 instructions: 940000002 cycles: 630643576 heartbeat IPC: 1.53674 cumulative IPC: 1.43704 (Simulation time: 3 hr 51 min 30 sec) 
Heartbeat CPU 0 instructions: 810000000 cycles: 636395670 heartbeat IPC: 0.648177 cumulative IPC: 1.2339 (Simulation time: 3 hr 53 min 13 sec) 
Heartbeat CPU 1 instructions: 950000001 cycles: 637242719 heartbeat IPC: 1.51535 cumulative IPC: 1.43787 (Simulation time: 3 hr 53 min 30 sec) 
Heartbeat CPU 3 instructions: 730000000 cycles: 638892417 heartbeat IPC: 1.07907 cumulative IPC: 1.09338 (Simulation time: 3 hr 54 min 0 sec) 
Heartbeat CPU 1 instructions: 960000001 cycles: 643593469 heartbeat IPC: 1.57462 cumulative IPC: 1.43927 (Simulation time: 3 hr 55 min 38 sec) 
Heartbeat CPU 0 instructions: 820000002 cycles: 646676491 heartbeat IPC: 0.972685 cumulative IPC: 1.22961 (Simulation time: 3 hr 56 min 40 sec) 
Heartbeat CPU 3 instructions: 740000000 cycles: 648323661 heartbeat IPC: 1.06031 cumulative IPC: 1.09288 (Simulation time: 3 hr 57 min 10 sec) 
Heartbeat CPU 1 instructions: 970000000 cycles: 653010263 heartbeat IPC: 1.06193 cumulative IPC: 1.43365 (Simulation time: 3 hr 58 min 29 sec) 
Heartbeat CPU 0 instructions: 830000003 cycles: 656695942 heartbeat IPC: 0.998059 cumulative IPC: 1.22596 (Simulation time: 3 hr 59 min 28 sec) 
*** Reached end of trace for Core: 3 Repeating trace: ./traces/ligra/ligra_PageRank.com-lj.ungraph.gcc_6.3.0_O3.drop_5000M.length_250M.champsimtrace.xz
Heartbeat CPU 3 instructions: 750000000 cycles: 657462792 heartbeat IPC: 1.0942 cumulative IPC: 1.0929 (Simulation time: 3 hr 59 min 45 sec) 
Heartbeat CPU 1 instructions: 980000001 cycles: 663440304 heartbeat IPC: 0.958769 cumulative IPC: 1.42595 (Simulation time: 4 hr 1 min 46 sec) 
Heartbeat CPU 0 instructions: 840000002 cycles: 664311364 heartbeat IPC: 1.31312 cumulative IPC: 1.22699 (Simulation time: 4 hr 2 min 4 sec) 
Heartbeat CPU 3 instructions: 760000001 cycles: 666196952 heartbeat IPC: 1.14493 cumulative IPC: 1.09361 (Simulation time: 4 hr 2 min 43 sec) 
Heartbeat CPU 0 instructions: 850000003 cycles: 672092285 heartbeat IPC: 1.28519 cumulative IPC: 1.22769 (Simulation time: 4 hr 4 min 45 sec) 
Heartbeat CPU 1 instructions: 990000000 cycles: 673886605 heartbeat IPC: 0.957277 cumulative IPC: 1.41845 (Simulation time: 4 hr 5 min 23 sec) 
Heartbeat CPU 2 instructions: 100000001 cycles: 674519749 heartbeat IPC: 0.0650878 cumulative IPC: 0.0658417 (Simulation time: 4 hr 5 min 36 sec) 
Heartbeat CPU 3 instructions: 770000000 cycles: 675013077 heartbeat IPC: 1.13429 cumulative IPC: 1.09415 (Simulation time: 4 hr 5 min 45 sec) 
Heartbeat CPU 0 instructions: 860000003 cycles: 679545065 heartbeat IPC: 1.34178 cumulative IPC: 1.22898 (Simulation time: 4 hr 7 min 10 sec) 
Heartbeat CPU 3 instructions: 780000001 cycles: 683746240 heartbeat IPC: 1.14506 cumulative IPC: 1.09482 (Simulation time: 4 hr 8 min 25 sec) 
*** Reached end of trace for Core: 1 Repeating trace: ./traces/ligra/ligra_BellmanFord.com-lj.ungraph.gcc_6.3.0_O3.drop_1750M.length_250M.champsimtrace.xz
Heartbeat CPU 1 instructions: 1000000003 cycles: 684288356 heartbeat IPC: 0.961377 cumulative IPC: 1.41129 (Simulation time: 4 hr 8 min 36 sec) 
Heartbeat CPU 0 instructions: 870000003 cycles: 686890618 heartbeat IPC: 1.36137 cumulative IPC: 1.23044 (Simulation time: 4 hr 9 min 39 sec) 
Heartbeat CPU 1 instructions: 1010000001 cycles: 690505526 heartbeat IPC: 1.60845 cumulative IPC: 1.41312 (Simulation time: 4 hr 11 min 3 sec) 
Heartbeat CPU 3 instructions: 790000000 cycles: 692564139 heartbeat IPC: 1.13406 cumulative IPC: 1.09534 (Simulation time: 4 hr 11 min 49 sec) 
Heartbeat CPU 0 instructions: 880000000 cycles: 694578247 heartbeat IPC: 1.30079 cumulative IPC: 1.23124 (Simulation time: 4 hr 12 min 33 sec) 
Heartbeat CPU 1 instructions: 1020000000 cycles: 696793488 heartbeat IPC: 1.59034 cumulative IPC: 1.41477 (Simulation time: 4 hr 13 min 24 sec) 
Heartbeat CPU 3 instructions: 800000001 cycles: 701563509 heartbeat IPC: 1.11119 cumulative IPC: 1.09555 (Simulation time: 4 hr 15 min 12 sec) 
Heartbeat CPU 0 instructions: 890000002 cycles: 702598306 heartbeat IPC: 1.24687 cumulative IPC: 1.23142 (Simulation time: 4 hr 15 min 37 sec) 
Heartbeat CPU 1 instructions: 1030000002 cycles: 703223637 heartbeat IPC: 1.55517 cumulative IPC: 1.41609 (Simulation time: 4 hr 15 min 52 sec) 
Heartbeat CPU 1 instructions: 1040000001 cycles: 709533737 heartbeat IPC: 1.58476 cumulative IPC: 1.41764 (Simulation time: 4 hr 18 min 25 sec) 
Heartbeat CPU 0 instructions: 900000001 cycles: 710445764 heartbeat IPC: 1.2743 cumulative IPC: 1.23191 (Simulation time: 4 hr 18 min 46 sec) 
Heartbeat CPU 3 instructions: 810000000 cycles: 710514345 heartbeat IPC: 1.11721 cumulative IPC: 1.09583 (Simulation time: 4 hr 18 min 48 sec) 
Heartbeat CPU 1 instructions: 1050000002 cycles: 715849697 heartbeat IPC: 1.58329 cumulative IPC: 1.41914 (Simulation time: 4 hr 20 min 59 sec) 
Heartbeat CPU 0 instructions: 910000000 cycles: 718141518 heartbeat IPC: 1.29942 cumulative IPC: 1.23266 (Simulation time: 4 hr 21 min 55 sec) 
Heartbeat CPU 3 instructions: 820000000 cycles: 719458065 heartbeat IPC: 1.1181 cumulative IPC: 1.09611 (Simulation time: 4 hr 22 min 27 sec) 
Heartbeat CPU 1 instructions: 1060000001 cycles: 722105758 heartbeat IPC: 1.59845 cumulative IPC: 1.42074 (Simulation time: 4 hr 23 min 31 sec) 
Heartbeat CPU 3 instructions: 830000001 cycles: 728615996 heartbeat IPC: 1.09195 cumulative IPC: 1.09606 (Simulation time: 4 hr 25 min 41 sec) 
Heartbeat CPU 1 instructions: 1070000000 cycles: 728798141 heartbeat IPC: 1.49424 cumulative IPC: 1.42143 (Simulation time: 4 hr 25 min 43 sec) 
Heartbeat CPU 0 instructions: 920000001 cycles: 729031617 heartbeat IPC: 0.918265 cumulative IPC: 1.22782 (Simulation time: 4 hr 25 min 49 sec) 
Heartbeat CPU 1 instructions: 1080000002 cycles: 735516988 heartbeat IPC: 1.48835 cumulative IPC: 1.42206 (Simulation time: 4 hr 28 min 2 sec) 
Heartbeat CPU 0 instructions: 930000001 cycles: 736820514 heartbeat IPC: 1.28388 cumulative IPC: 1.22843 (Simulation time: 4 hr 28 min 28 sec) 
Heartbeat CPU 3 instructions: 840000002 cycles: 737903835 heartbeat IPC: 1.07668 cumulative IPC: 1.09581 (Simulation time: 4 hr 28 min 52 sec) 
Heartbeat CPU 1 instructions: 1090000003 cycles: 742192548 heartbeat IPC: 1.498 cumulative IPC: 1.42277 (Simulation time: 4 hr 30 min 9 sec) 
Heartbeat CPU 0 instructions: 940000003 cycles: 746298772 heartbeat IPC: 1.05505 cumulative IPC: 1.22617 (Simulation time: 4 hr 31 min 25 sec) 
Heartbeat CPU 3 instructions: 850000001 cycles: 747213331 heartbeat IPC: 1.07417 cumulative IPC: 1.09553 (Simulation time: 4 hr 31 min 39 sec) 
Heartbeat CPU 1 instructions: 1100000000 cycles: 748905736 heartbeat IPC: 1.4896 cumulative IPC: 1.42338 (Simulation time: 4 hr 32 min 4 sec) 
Heartbeat CPU 1 instructions: 1110000002 cycles: 755417839 heartbeat IPC: 1.5356 cumulative IPC: 1.42438 (Simulation time: 4 hr 34 min 7 sec) 
Heartbeat CPU 3 instructions: 860000001 cycles: 756523948 heartbeat IPC: 1.07404 cumulative IPC: 1.09526 (Simulation time: 4 hr 34 min 28 sec) 
Heartbeat CPU 0 instructions: 950000001 cycles: 757025925 heartbeat IPC: 0.932214 cumulative IPC: 1.22189 (Simulation time: 4 hr 34 min 38 sec) 
Heartbeat CPU 1 instructions: 1120000002 cycles: 762109708 heartbeat IPC: 1.49435 cumulative IPC: 1.42501 (Simulation time: 4 hr 36 min 21 sec) 
Heartbeat CPU 3 instructions: 870000002 cycles: 766046008 heartbeat IPC: 1.05019 cumulative IPC: 1.09469 (Simulation time: 4 hr 37 min 37 sec) 
Heartbeat CPU 0 instructions: 960000001 cycles: 768535238 heartbeat IPC: 0.868862 cumulative IPC: 1.21646 (Simulation time: 4 hr 38 min 24 sec) 
Heartbeat CPU 1 instructions: 1130000000 cycles: 769182890 heartbeat IPC: 1.41379 cumulative IPC: 1.4249 (Simulation time: 4 hr 38 min 36 sec) 
Heartbeat CPU 3 instructions: 880000000 cycles: 775557712 heartbeat IPC: 1.05134 cumulative IPC: 1.09414 (Simulation time: 4 hr 40 min 38 sec) 
Heartbeat CPU 1 instructions: 1140000000 cycles: 776088138 heartbeat IPC: 1.44817 cumulative IPC: 1.42511 (Simulation time: 4 hr 40 min 47 sec) 
Heartbeat CPU 0 instructions: 970000003 cycles: 780362475 heartbeat IPC: 0.845506 cumulative IPC: 1.21068 (Simulation time: 4 hr 42 min 0 sec) 
Heartbeat CPU 1 instructions: 1150000002 cycles: 782662400 heartbeat IPC: 1.52108 cumulative IPC: 1.42594 (Simulation time: 4 hr 42 min 43 sec) 
Heartbeat CPU 3 instructions: 890000001 cycles: 784691221 heartbeat IPC: 1.09487 cumulative IPC: 1.09415 (Simulation time: 4 hr 43 min 18 sec) 
Heartbeat CPU 0 instructions: 980000003 cycles: 787646261 heartbeat IPC: 1.37291 cumulative IPC: 1.21222 (Simulation time: 4 hr 44 min 20 sec) 
Heartbeat CPU 1 instructions: 1160000001 cycles: 789104113 heartbeat IPC: 1.55238 cumulative IPC: 1.427 (Simulation time: 4 hr 44 min 49 sec) 
Heartbeat CPU 0 instructions: 990000000 cycles: 793603429 heartbeat IPC: 1.67865 cumulative IPC: 1.21582 (Simulation time: 4 hr 46 min 28 sec) 
Heartbeat CPU 3 instructions: 900000001 cycles: 793613227 heartbeat IPC: 1.12082 cumulative IPC: 1.09446 (Simulation time: 4 hr 46 min 28 sec) 
Heartbeat CPU 1 instructions: 1170000001 cycles: 795319688 heartbeat IPC: 1.60886 cumulative IPC: 1.42846 (Simulation time: 4 hr 47 min 6 sec) 
Heartbeat CPU 0 instructions: 1000000000 cycles: 799522065 heartbeat IPC: 1.68958 cumulative IPC: 1.21942 (Simulation time: 4 hr 48 min 44 sec) 
Heartbeat CPU 1 instructions: 1180000001 cycles: 801516488 heartbeat IPC: 1.61374 cumulative IPC: 1.42993 (Simulation time: 4 hr 49 min 26 sec) 
Heartbeat CPU 3 instructions: 910000001 cycles: 802681094 heartbeat IPC: 1.1028 cumulative IPC: 1.09455 (Simulation time: 4 hr 49 min 48 sec) 
Heartbeat CPU 0 instructions: 1010000002 cycles: 805311194 heartbeat IPC: 1.72738 cumulative IPC: 1.22316 (Simulation time: 4 hr 50 min 49 sec) 
Heartbeat CPU 1 instructions: 1190000000 cycles: 807743520 heartbeat IPC: 1.6059 cumulative IPC: 1.43132 (Simulation time: 4 hr 51 min 44 sec) 
Heartbeat CPU 0 instructions: 1020000003 cycles: 811177232 heartbeat IPC: 1.70473 cumulative IPC: 1.22674 (Simulation time: 4 hr 53 min 1 sec) 
Heartbeat CPU 3 instructions: 920000000 cycles: 811883598 heartbeat IPC: 1.08666 cumulative IPC: 1.09446 (Simulation time: 4 hr 53 min 18 sec) 
Heartbeat CPU 1 instructions: 1200000002 cycles: 813978181 heartbeat IPC: 1.60394 cumulative IPC: 1.43268 (Simulation time: 4 hr 54 min 5 sec) 
Heartbeat CPU 0 instructions: 1030000001 cycles: 817559511 heartbeat IPC: 1.56684 cumulative IPC: 1.22946 (Simulation time: 4 hr 55 min 20 sec) 
Heartbeat CPU 1 instructions: 1210000000 cycles: 820183295 heartbeat IPC: 1.61157 cumulative IPC: 1.43407 (Simulation time: 4 hr 56 min 12 sec) 
Heartbeat CPU 3 instructions: 930000000 cycles: 821204957 heartbeat IPC: 1.0728 cumulative IPC: 1.09421 (Simulation time: 4 hr 56 min 33 sec) 
Heartbeat CPU 0 instructions: 1040000000 cycles: 824559552 heartbeat IPC: 1.42856 cumulative IPC: 1.23119 (Simulation time: 4 hr 57 min 31 sec) 
Heartbeat CPU 1 instructions: 1220000001 cycles: 829524035 heartbeat IPC: 1.07058 cumulative IPC: 1.42987 (Simulation time: 4 hr 58 min 57 sec) 
Heartbeat CPU 3 instructions: 940000000 cycles: 830557021 heartbeat IPC: 1.06928 cumulative IPC: 1.09392 (Simulation time: 4 hr 59 min 12 sec) 
Heartbeat CPU 0 instructions: 1050000002 cycles: 832827639 heartbeat IPC: 1.20947 cumulative IPC: 1.23097 (Simulation time: 4 hr 59 min 50 sec) 
Heartbeat CPU 2 instructions: 110000000 cycles: 838421685 heartbeat IPC: 0.0610121 cumulative IPC: 0.0648739 (Simulation time: 5 hr 1 min 20 sec) 
Heartbeat CPU 3 instructions: 950000000 cycles: 839601360 heartbeat IPC: 1.10566 cumulative IPC: 1.09405 (Simulation time: 5 hr 1 min 40 sec) 
Heartbeat CPU 1 instructions: 1230000002 cycles: 839971022 heartbeat IPC: 0.957214 cumulative IPC: 1.42384 (Simulation time: 5 hr 1 min 47 sec) 
Heartbeat CPU 0 instructions: 1060000001 cycles: 842655717 heartbeat IPC: 1.01749 cumulative IPC: 1.22842 (Simulation time: 5 hr 2 min 35 sec) 
Heartbeat CPU 3 instructions: 960000003 cycles: 848603995 heartbeat IPC: 1.11079 cumulative IPC: 1.09423 (Simulation time: 5 hr 4 min 11 sec) 
Heartbeat CPU 0 instructions: 1070000003 cycles: 849991977 heartbeat IPC: 1.36309 cumulative IPC: 1.22961 (Simulation time: 5 hr 4 min 36 sec) 
Heartbeat CPU 1 instructions: 1240000001 cycles: 850403710 heartbeat IPC: 0.958526 cumulative IPC: 1.41799 (Simulation time: 5 hr 4 min 43 sec) 
Heartbeat CPU 0 instructions: 1080000002 cycles: 856628426 heartbeat IPC: 1.50683 cumulative IPC: 1.23181 (Simulation time: 5 hr 6 min 40 sec) 
Heartbeat CPU 3 instructions: 970000000 cycles: 857430879 heartbeat IPC: 1.1329 cumulative IPC: 1.09464 (Simulation time: 5 hr 6 min 55 sec) 
*** Reached end of trace for Core: 1 Repeating trace: ./traces/ligra/ligra_BellmanFord.com-lj.ungraph.gcc_6.3.0_O3.drop_1750M.length_250M.champsimtrace.xz
Heartbeat CPU 1 instructions: 1250000003 cycles: 860815205 heartbeat IPC: 0.960477 cumulative IPC: 1.41233 (Simulation time: 5 hr 7 min 59 sec) 
Heartbeat CPU 0 instructions: 1090000000 cycles: 863234842 heartbeat IPC: 1.51368 cumulative IPC: 1.23402 (Simulation time: 5 hr 8 min 55 sec) 
Heartbeat CPU 3 instructions: 980000000 cycles: 866449052 heartbeat IPC: 1.10887 cumulative IPC: 1.09479 (Simulation time: 5 hr 10 min 7 sec) 
Heartbeat CPU 1 instructions: 1260000002 cycles: 867029579 heartbeat IPC: 1.60917 cumulative IPC: 1.41377 (Simulation time: 5 hr 10 min 20 sec) 
Heartbeat CPU 0 instructions: 1100000000 cycles: 869051468 heartbeat IPC: 1.71921 cumulative IPC: 1.23735 (Simulation time: 5 hr 11 min 2 sec) 
Heartbeat CPU 1 instructions: 1270000001 cycles: 873256325 heartbeat IPC: 1.60598 cumulative IPC: 1.41517 (Simulation time: 5 hr 12 min 33 sec) 
Heartbeat CPU 0 instructions: 1110000003 cycles: 874833900 heartbeat IPC: 1.72938 cumulative IPC: 1.24068 (Simulation time: 5 hr 13 min 10 sec) 
Heartbeat CPU 3 instructions: 990000000 cycles: 875759858 heartbeat IPC: 1.07402 cumulative IPC: 1.09457 (Simulation time: 5 hr 13 min 31 sec) 
Heartbeat CPU 1 instructions: 1280000000 cycles: 879601480 heartbeat IPC: 1.57601 cumulative IPC: 1.41636 (Simulation time: 5 hr 14 min 53 sec) 
Heartbeat CPU 0 instructions: 1120000000 cycles: 881356514 heartbeat IPC: 1.53313 cumulative IPC: 1.24289 (Simulation time: 5 hr 15 min 30 sec) 
*** Reached end of trace for Core: 3 Repeating trace: ./traces/ligra/ligra_PageRank.com-lj.ungraph.gcc_6.3.0_O3.drop_5000M.length_250M.champsimtrace.xz
Heartbeat CPU 3 instructions: 1000000000 cycles: 884880277 heartbeat IPC: 1.09644 cumulative IPC: 1.09459 (Simulation time: 5 hr 16 min 46 sec) 
Heartbeat CPU 1 instructions: 1290000002 cycles: 885876912 heartbeat IPC: 1.59352 cumulative IPC: 1.41765 (Simulation time: 5 hr 17 min 7 sec) 
Heartbeat CPU 0 instructions: 1130000001 cycles: 888429647 heartbeat IPC: 1.4138 cumulative IPC: 1.24428 (Simulation time: 5 hr 18 min 5 sec) 
Heartbeat CPU 1 instructions: 1300000003 cycles: 892135893 heartbeat IPC: 1.5977 cumulative IPC: 1.41894 (Simulation time: 5 hr 19 min 29 sec) 
Heartbeat CPU 3 instructions: 1010000001 cycles: 893679355 heartbeat IPC: 1.13648 cumulative IPC: 1.09501 (Simulation time: 5 hr 19 min 57 sec) 
Heartbeat CPU 0 instructions: 1140000002 cycles: 896811626 heartbeat IPC: 1.19304 cumulative IPC: 1.24379 (Simulation time: 5 hr 20 min 57 sec) 
Heartbeat CPU 1 instructions: 1310000002 cycles: 898735874 heartbeat IPC: 1.51516 cumulative IPC: 1.41966 (Simulation time: 5 hr 21 min 37 sec) 
Heartbeat CPU 3 instructions: 1020000001 cycles: 902603020 heartbeat IPC: 1.12062 cumulative IPC: 1.09527 (Simulation time: 5 hr 22 min 51 sec) 
Heartbeat CPU 1 instructions: 1320000000 cycles: 905287352 heartbeat IPC: 1.52637 cumulative IPC: 1.42045 (Simulation time: 5 hr 23 min 35 sec) 
Heartbeat CPU 0 instructions: 1150000001 cycles: 908429712 heartbeat IPC: 0.860727 cumulative IPC: 1.23878 (Simulation time: 5 hr 24 min 38 sec) 
Heartbeat CPU 3 instructions: 1030000001 cycles: 911631653 heartbeat IPC: 1.10759 cumulative IPC: 1.09539 (Simulation time: 5 hr 25 min 33 sec) 
Heartbeat CPU 1 instructions: 1330000003 cycles: 911944766 heartbeat IPC: 1.50209 cumulative IPC: 1.42106 (Simulation time: 5 hr 25 min 39 sec) 
Heartbeat CPU 0 instructions: 1160000002 cycles: 915794458 heartbeat IPC: 1.35782 cumulative IPC: 1.23976 (Simulation time: 5 hr 27 min 3 sec) 
Heartbeat CPU 1 instructions: 1340000000 cycles: 918233204 heartbeat IPC: 1.59022 cumulative IPC: 1.42225 (Simulation time: 5 hr 27 min 57 sec) 
Heartbeat CPU 3 instructions: 1040000000 cycles: 920496778 heartbeat IPC: 1.12802 cumulative IPC: 1.09571 (Simulation time: 5 hr 28 min 45 sec) 
Heartbeat CPU 0 instructions: 1170000003 cycles: 921823574 heartbeat IPC: 1.65862 cumulative IPC: 1.24256 (Simulation time: 5 hr 29 min 16 sec) 
Heartbeat CPU 1 instructions: 1350000000 cycles: 924450591 heartbeat IPC: 1.60839 cumulative IPC: 1.42353 (Simulation time: 5 hr 30 min 16 sec) 
Heartbeat CPU 0 instructions: 1180000003 cycles: 927813893 heartbeat IPC: 1.66936 cumulative IPC: 1.24538 (Simulation time: 5 hr 31 min 29 sec) 
Heartbeat CPU 3 instructions: 1050000001 cycles: 929393847 heartbeat IPC: 1.12397 cumulative IPC: 1.09599 (Simulation time: 5 hr 32 min 3 sec) 
Heartbeat CPU 1 instructions: 1360000002 cycles: 930681958 heartbeat IPC: 1.60478 cumulative IPC: 1.42477 (Simulation time: 5 hr 32 min 28 sec) 
Heartbeat CPU 0 instructions: 1190000001 cycles: 933727131 heartbeat IPC: 1.69112 cumulative IPC: 1.24827 (Simulation time: 5 hr 33 min 35 sec) 
Heartbeat CPU 1 instructions: 1370000001 cycles: 936931736 heartbeat IPC: 1.60006 cumulative IPC: 1.42596 (Simulation time: 5 hr 34 min 39 sec) 
Heartbeat CPU 3 instructions: 1060000000 cycles: 938271281 heartbeat IPC: 1.12645 cumulative IPC: 1.09628 (Simulation time: 5 hr 35 min 5 sec) 
Heartbeat CPU 0 instructions: 1200000002 cycles: 939559991 heartbeat IPC: 1.71442 cumulative IPC: 1.25122 (Simulation time: 5 hr 35 min 32 sec) 
Heartbeat CPU 1 instructions: 1380000001 cycles: 943324984 heartbeat IPC: 1.56415 cumulative IPC: 1.42692 (Simulation time: 5 hr 36 min 53 sec) 
Heartbeat CPU 0 instructions: 1210000000 cycles: 946127713 heartbeat IPC: 1.5226 cumulative IPC: 1.25315 (Simulation time: 5 hr 37 min 53 sec) 
Heartbeat CPU 3 instructions: 1070000002 cycles: 947300370 heartbeat IPC: 1.10753 cumulative IPC: 1.09639 (Simulation time: 5 hr 38 min 19 sec) 
Heartbeat CPU 1 instructions: 1390000001 cycles: 949628611 heartbeat IPC: 1.58639 cumulative IPC: 1.428 (Simulation time: 5 hr 39 min 11 sec) 
Heartbeat CPU 0 instructions: 1220000002 cycles: 953272749 heartbeat IPC: 1.39957 cumulative IPC: 1.25427 (Simulation time: 5 hr 40 min 32 sec) 
Heartbeat CPU 1 instructions: 1400000000 cycles: 955900238 heartbeat IPC: 1.59448 cumulative IPC: 1.42912 (Simulation time: 5 hr 41 min 30 sec) 
Heartbeat CPU 3 instructions: 1080000001 cycles: 956214019 heartbeat IPC: 1.12187 cumulative IPC: 1.09664 (Simulation time: 5 hr 41 min 37 sec) 
Heartbeat CPU 0 instructions: 1230000000 cycles: 961005799 heartbeat IPC: 1.29315 cumulative IPC: 1.25459 (Simulation time: 5 hr 43 min 8 sec) 
Heartbeat CPU 1 instructions: 1410000002 cycles: 962322622 heartbeat IPC: 1.55705 cumulative IPC: 1.42999 (Simulation time: 5 hr 43 min 34 sec) 
Heartbeat CPU 3 instructions: 1090000002 cycles: 965201596 heartbeat IPC: 1.11265 cumulative IPC: 1.09679 (Simulation time: 5 hr 44 min 28 sec) 
Heartbeat CPU 1 instructions: 1420000002 cycles: 968591548 heartbeat IPC: 1.59517 cumulative IPC: 1.43108 (Simulation time: 5 hr 45 min 31 sec) 
Heartbeat CPU 0 instructions: 1240000002 cycles: 970741617 heartbeat IPC: 1.02714 cumulative IPC: 1.25226 (Simulation time: 5 hr 46 min 15 sec) 
Heartbeat CPU 3 instructions: 1100000000 cycles: 974525237 heartbeat IPC: 1.07254 cumulative IPC: 1.09655 (Simulation time: 5 hr 47 min 24 sec) 
Heartbeat CPU 1 instructions: 1430000000 cycles: 975445314 heartbeat IPC: 1.45905 cumulative IPC: 1.43128 (Simulation time: 5 hr 47 min 40 sec) 
Heartbeat CPU 0 instructions: 1250000002 cycles: 978989772 heartbeat IPC: 1.21239 cumulative IPC: 1.25192 (Simulation time: 5 hr 48 min 57 sec) 
Heartbeat CPU 1 instructions: 1440000001 cycles: 981813022 heartbeat IPC: 1.57042 cumulative IPC: 1.43221 (Simulation time: 5 hr 49 min 54 sec) 
Heartbeat CPU 3 instructions: 1110000001 cycles: 983678113 heartbeat IPC: 1.09255 cumulative IPC: 1.09651 (Simulation time: 5 hr 50 min 37 sec) 
Heartbeat CPU 2 instructions: 120000001 cycles: 983718625 heartbeat IPC: 0.0688246 cumulative IPC: 0.0654699 (Simulation time: 5 hr 50 min 38 sec) 
Heartbeat CPU 0 instructions: 1260000002 cycles: 986107478 heartbeat IPC: 1.40495 cumulative IPC: 1.25305 (Simulation time: 5 hr 51 min 24 sec) 
Heartbeat CPU 1 instructions: 1450000000 cycles: 988030727 heartbeat IPC: 1.60831 cumulative IPC: 1.43334 (Simulation time: 5 hr 52 min 4 sec) 
Heartbeat CPU 3 instructions: 1120000002 cycles: 992742198 heartbeat IPC: 1.10326 cumulative IPC: 1.09658 (Simulation time: 5 hr 53 min 45 sec) 
Heartbeat CPU 0 instructions: 1270000003 cycles: 992783725 heartbeat IPC: 1.49785 cumulative IPC: 1.25473 (Simulation time: 5 hr 53 min 45 sec) 
Heartbeat CPU 1 instructions: 1460000003 cycles: 994244709 heartbeat IPC: 1.60927 cumulative IPC: 1.43446 (Simulation time: 5 hr 54 min 14 sec) 
Heartbeat CPU 0 instructions: 1280000000 cycles: 998677223 heartbeat IPC: 1.69678 cumulative IPC: 1.25739 (Simulation time: 5 hr 55 min 41 sec) 
Heartbeat CPU 3 instructions: 1130000000 cycles: 1001706763 heartbeat IPC: 1.1155 cumulative IPC: 1.09675 (Simulation time: 5 hr 56 min 31 sec) 
Heartbeat CPU 1 instructions: 1470000002 cycles: 1003574940 heartbeat IPC: 1.07178 cumulative IPC: 1.43102 (Simulation time: 5 hr 57 min 5 sec) 
Heartbeat CPU 0 instructions: 1290000002 cycles: 1004407132 heartbeat IPC: 1.74523 cumulative IPC: 1.26023 (Simulation time: 5 hr 57 min 21 sec) 
Heartbeat CPU 0 instructions: 1300000000 cycles: 1010441442 heartbeat IPC: 1.65719 cumulative IPC: 1.26265 (Simulation time: 5 hr 59 min 5 sec) 
Heartbeat CPU 3 instructions: 1140000001 cycles: 1010611520 heartbeat IPC: 1.123 cumulative IPC: 1.09699 (Simulation time: 5 hr 59 min 8 sec) 
Heartbeat CPU 1 instructions: 1480000003 cycles: 1013971670 heartbeat IPC: 0.961841 cumulative IPC: 1.42611 (Simulation time: 6 hr 0 min 6 sec) 
Heartbeat CPU 0 instructions: 1310000001 cycles: 1017301302 heartbeat IPC: 1.45776 cumulative IPC: 1.26399 (Simulation time: 6 hr 1 min 8 sec) 
Heartbeat CPU 3 instructions: 1150000001 cycles: 1019474230 heartbeat IPC: 1.12832 cumulative IPC: 1.09726 (Simulation time: 6 hr 1 min 47 sec) 
Heartbeat CPU 1 instructions: 1490000002 cycles: 1024390920 heartbeat IPC: 0.959762 cumulative IPC: 1.42127 (Simulation time: 6 hr 3 min 5 sec) 
Heartbeat CPU 0 instructions: 1320000000 cycles: 1024870084 heartbeat IPC: 1.32122 cumulative IPC: 1.26442 (Simulation time: 6 hr 3 min 12 sec) 
Heartbeat CPU 3 instructions: 1160000001 cycles: 1028593085 heartbeat IPC: 1.09663 cumulative IPC: 1.09726 (Simulation time: 6 hr 4 min 12 sec) 
Heartbeat CPU 0 instructions: 1330000002 cycles: 1034650130 heartbeat IPC: 1.02249 cumulative IPC: 1.26209 (Simulation time: 6 hr 5 min 55 sec) 
*** Reached end of trace for Core: 1 Repeating trace: ./traces/ligra/ligra_BellmanFord.com-lj.ungraph.gcc_6.3.0_O3.drop_1750M.length_250M.champsimtrace.xz
Heartbeat CPU 1 instructions: 1500000000 cycles: 1034840502 heartbeat IPC: 0.956976 cumulative IPC: 1.41649 (Simulation time: 6 hr 5 min 58 sec) 
Heartbeat CPU 3 instructions: 1170000000 cycles: 1037853695 heartbeat IPC: 1.07984 cumulative IPC: 1.0971 (Simulation time: 6 hr 6 min 54 sec) 
Heartbeat CPU 1 instructions: 1510000003 cycles: 1041254642 heartbeat IPC: 1.55906 cumulative IPC: 1.41738 (Simulation time: 6 hr 7 min 57 sec) 
Heartbeat CPU 0 instructions: 1340000002 cycles: 1042176492 heartbeat IPC: 1.32866 cumulative IPC: 1.26258 (Simulation time: 6 hr 8 min 17 sec) 
Heartbeat CPU 3 instructions: 1180000000 cycles: 1047227298 heartbeat IPC: 1.06683 cumulative IPC: 1.09682 (Simulation time: 6 hr 10 min 9 sec) 
Heartbeat CPU 1 instructions: 1520000002 cycles: 1047514105 heartbeat IPC: 1.59758 cumulative IPC: 1.41848 (Simulation time: 6 hr 10 min 16 sec) 
Heartbeat CPU 0 instructions: 1350000002 cycles: 1048163541 heartbeat IPC: 1.67027 cumulative IPC: 1.26496 (Simulation time: 6 hr 10 min 32 sec) 
Heartbeat CPU 1 instructions: 1530000001 cycles: 1053715152 heartbeat IPC: 1.61263 cumulative IPC: 1.41965 (Simulation time: 6 hr 12 min 33 sec) 
Heartbeat CPU 0 instructions: 1360000003 cycles: 1054036615 heartbeat IPC: 1.70269 cumulative IPC: 1.26744 (Simulation time: 6 hr 12 min 41 sec) 
Heartbeat CPU 3 instructions: 1190000000 cycles: 1056504143 heartbeat IPC: 1.07795 cumulative IPC: 1.09665 (Simulation time: 6 hr 13 min 41 sec) 
Heartbeat CPU 0 instructions: 1370000000 cycles: 1059874367 heartbeat IPC: 1.71299 cumulative IPC: 1.26995 (Simulation time: 6 hr 14 min 59 sec) 
Heartbeat CPU 1 instructions: 1540000000 cycles: 1059954226 heartbeat IPC: 1.6028 cumulative IPC: 1.42074 (Simulation time: 6 hr 15 min 1 sec) 
Heartbeat CPU 3 instructions: 1200000000 cycles: 1065474774 heartbeat IPC: 1.11475 cumulative IPC: 1.09681 (Simulation time: 6 hr 17 min 5 sec) 
Heartbeat CPU 0 instructions: 1380000001 cycles: 1065715270 heartbeat IPC: 1.71206 cumulative IPC: 1.27242 (Simulation time: 6 hr 17 min 11 sec) 
Heartbeat CPU 1 instructions: 1550000000 cycles: 1066210502 heartbeat IPC: 1.59839 cumulative IPC: 1.42181 (Simulation time: 6 hr 17 min 23 sec) 
Heartbeat CPU 0 instructions: 1390000001 cycles: 1071841818 heartbeat IPC: 1.63224 cumulative IPC: 1.27451 (Simulation time: 6 hr 19 min 35 sec) 
Heartbeat CPU 1 instructions: 1560000000 cycles: 1072450206 heartbeat IPC: 1.60264 cumulative IPC: 1.42288 (Simulation time: 6 hr 19 min 49 sec) 
Heartbeat CPU 3 instructions: 1210000000 cycles: 1074408165 heartbeat IPC: 1.1194 cumulative IPC: 1.097 (Simulation time: 6 hr 20 min 29 sec) 
Heartbeat CPU 1 instructions: 1570000002 cycles: 1078751630 heartbeat IPC: 1.58694 cumulative IPC: 1.42386 (Simulation time: 6 hr 22 min 2 sec) 
Heartbeat CPU 0 instructions: 1400000003 cycles: 1078951343 heartbeat IPC: 1.40656 cumulative IPC: 1.2754 (Simulation time: 6 hr 22 min 5 sec) 
Heartbeat CPU 3 instructions: 1220000000 cycles: 1083335375 heartbeat IPC: 1.12017 cumulative IPC: 1.0972 (Simulation time: 6 hr 23 min 38 sec) 
Heartbeat CPU 1 instructions: 1580000001 cycles: 1085058292 heartbeat IPC: 1.58562 cumulative IPC: 1.42482 (Simulation time: 6 hr 24 min 11 sec) 
Heartbeat CPU 0 instructions: 1410000000 cycles: 1086532305 heartbeat IPC: 1.31909 cumulative IPC: 1.27571 (Simulation time: 6 hr 24 min 35 sec) 
Heartbeat CPU 1 instructions: 1590000001 cycles: 1091553539 heartbeat IPC: 1.53959 cumulative IPC: 1.42551 (Simulation time: 6 hr 26 min 0 sec) 
Heartbeat CPU 3 instructions: 1230000000 cycles: 1092535561 heartbeat IPC: 1.08693 cumulative IPC: 1.09711 (Simulation time: 6 hr 26 min 15 sec) 
Heartbeat CPU 0 instructions: 1420000002 cycles: 1097629171 heartbeat IPC: 0.901156 cumulative IPC: 1.27185 (Simulation time: 6 hr 27 min 45 sec) 
Heartbeat CPU 1 instructions: 1600000001 cycles: 1097968263 heartbeat IPC: 1.55891 cumulative IPC: 1.42631 (Simulation time: 6 hr 27 min 51 sec) 
Heartbeat CPU 3 instructions: 1240000000 cycles: 1102044518 heartbeat IPC: 1.05164 cumulative IPC: 1.09671 (Simulation time: 6 hr 29 min 4 sec) 
Heartbeat CPU 1 instructions: 1610000000 cycles: 1104447681 heartbeat IPC: 1.54335 cumulative IPC: 1.427 (Simulation time: 6 hr 29 min 54 sec) 
Heartbeat CPU 0 instructions: 1430000000 cycles: 1105740959 heartbeat IPC: 1.23277 cumulative IPC: 1.27156 (Simulation time: 6 hr 30 min 23 sec) 
Heartbeat CPU 1 instructions: 1620000002 cycles: 1110689849 heartbeat IPC: 1.60201 cumulative IPC: 1.42801 (Simulation time: 6 hr 32 min 14 sec) 
*** Reached end of trace for Core: 3 Repeating trace: ./traces/ligra/ligra_PageRank.com-lj.ungraph.gcc_6.3.0_O3.drop_5000M.length_250M.champsimtrace.xz
Heartbeat CPU 3 instructions: 1250000000 cycles: 1111128099 heartbeat IPC: 1.10089 cumulative IPC: 1.09674 (Simulation time: 6 hr 32 min 24 sec) 
Heartbeat CPU 0 instructions: 1440000002 cycles: 1112643645 heartbeat IPC: 1.44871 cumulative IPC: 1.27268 (Simulation time: 6 hr 32 min 57 sec) 
Heartbeat CPU 1 instructions: 1630000002 cycles: 1116884469 heartbeat IPC: 1.6143 cumulative IPC: 1.42906 (Simulation time: 6 hr 34 min 35 sec) 
Heartbeat CPU 0 instructions: 1450000000 cycles: 1119441481 heartbeat IPC: 1.47106 cumulative IPC: 1.27391 (Simulation time: 6 hr 35 min 32 sec) 
Heartbeat CPU 3 instructions: 1260000001 cycles: 1119842126 heartbeat IPC: 1.14758 cumulative IPC: 1.09715 (Simulation time: 6 hr 35 min 39 sec) 
Heartbeat CPU 1 instructions: 1640000002 cycles: 1123181345 heartbeat IPC: 1.58809 cumulative IPC: 1.42997 (Simulation time: 6 hr 36 min 47 sec) 
Heartbeat CPU 0 instructions: 1460000003 cycles: 1125515340 heartbeat IPC: 1.6464 cumulative IPC: 1.27595 (Simulation time: 6 hr 37 min 40 sec) 
Heartbeat CPU 3 instructions: 1270000001 cycles: 1128616224 heartbeat IPC: 1.13972 cumulative IPC: 1.09748 (Simulation time: 6 hr 38 min 46 sec) 
Heartbeat CPU 1 instructions: 1650000000 cycles: 1129453027 heartbeat IPC: 1.59447 cumulative IPC: 1.4309 (Simulation time: 6 hr 39 min 6 sec) 
Heartbeat CPU 0 instructions: 1470000001 cycles: 1131403159 heartbeat IPC: 1.69842 cumulative IPC: 1.27819 (Simulation time: 6 hr 39 min 52 sec) 
Heartbeat CPU 1 instructions: 1660000002 cycles: 1135719513 heartbeat IPC: 1.59579 cumulative IPC: 1.43182 (Simulation time: 6 hr 41 min 29 sec) 
Heartbeat CPU 3 instructions: 1280000001 cycles: 1137410955 heartbeat IPC: 1.13704 cumulative IPC: 1.09779 (Simulation time: 6 hr 42 min 6 sec) 
Heartbeat CPU 0 instructions: 1480000002 cycles: 1137570118 heartbeat IPC: 1.62154 cumulative IPC: 1.28009 (Simulation time: 6 hr 42 min 9 sec) 
Heartbeat CPU 2 instructions: 130000000 cycles: 1139331388 heartbeat IPC: 0.0642621 cumulative IPC: 0.0653019 (Simulation time: 6 hr 42 min 46 sec) 
Heartbeat CPU 1 instructions: 1670000003 cycles: 1142083118 heartbeat IPC: 1.57144 cumulative IPC: 1.43262 (Simulation time: 6 hr 43 min 48 sec) 
Heartbeat CPU 0 instructions: 1490000003 cycles: 1144786644 heartbeat IPC: 1.38571 cumulative IPC: 1.28077 (Simulation time: 6 hr 44 min 48 sec) 
Heartbeat CPU 3 instructions: 1290000000 cycles: 1146273129 heartbeat IPC: 1.12839 cumulative IPC: 1.09803 (Simulation time: 6 hr 45 min 21 sec) 
Heartbeat CPU 1 instructions: 1680000000 cycles: 1148334904 heartbeat IPC: 1.59954 cumulative IPC: 1.43354 (Simulation time: 6 hr 46 min 7 sec) 
Heartbeat CPU 0 instructions: 1500000000 cycles: 1152174288 heartbeat IPC: 1.35361 cumulative IPC: 1.28124 (Simulation time: 6 hr 47 min 19 sec) 
Heartbeat CPU 1 instructions: 1690000002 cycles: 1154846486 heartbeat IPC: 1.53573 cumulative IPC: 1.43413 (Simulation time: 6 hr 48 min 13 sec) 
Heartbeat CPU 3 instructions: 1300000001 cycles: 1155288322 heartbeat IPC: 1.10924 cumulative IPC: 1.09812 (Simulation time: 6 hr 48 min 21 sec) 
Heartbeat CPU 1 instructions: 1700000001 cycles: 1161276551 heartbeat IPC: 1.55519 cumulative IPC: 1.43481 (Simulation time: 6 hr 50 min 17 sec) 
Heartbeat CPU 0 instructions: 1510000003 cycles: 1163529253 heartbeat IPC: 0.880672 cumulative IPC: 1.27726 (Simulation time: 6 hr 51 min 6 sec) 
Heartbeat CPU 3 instructions: 1310000000 cycles: 1164342699 heartbeat IPC: 1.10444 cumulative IPC: 1.09817 (Simulation time: 6 hr 51 min 22 sec) 
Heartbeat CPU 1 instructions: 1710000000 cycles: 1167814332 heartbeat IPC: 1.52957 cumulative IPC: 1.43535 (Simulation time: 6 hr 52 min 30 sec) 
Heartbeat CPU 3 instructions: 1320000000 cycles: 1173275385 heartbeat IPC: 1.11948 cumulative IPC: 1.09834 (Simulation time: 6 hr 54 min 5 sec) 
Heartbeat CPU 0 instructions: 1520000000 cycles: 1176731891 heartbeat IPC: 0.757424 cumulative IPC: 1.27133 (Simulation time: 6 hr 54 min 59 sec) 
Heartbeat CPU 1 instructions: 1720000000 cycles: 1177092746 heartbeat IPC: 1.07777 cumulative IPC: 1.43248 (Simulation time: 6 hr 55 min 5 sec) 
Heartbeat CPU 3 instructions: 1330000001 cycles: 1182123417 heartbeat IPC: 1.13019 cumulative IPC: 1.09858 (Simulation time: 6 hr 56 min 24 sec) 
Heartbeat CPU 1 instructions: 1730000000 cycles: 1187467595 heartbeat IPC: 0.963869 cumulative IPC: 1.42832 (Simulation time: 6 hr 57 min 48 sec) 
Heartbeat CPU 3 instructions: 1340000002 cycles: 1190990815 heartbeat IPC: 1.12773 cumulative IPC: 1.0988 (Simulation time: 6 hr 58 min 43 sec) 
Heartbeat CPU 0 instructions: 1530000000 cycles: 1192562596 heartbeat IPC: 0.631684 cumulative IPC: 1.26269 (Simulation time: 6 hr 59 min 6 sec) 
Heartbeat CPU 1 instructions: 1740000000 cycles: 1197838849 heartbeat IPC: 0.964204 cumulative IPC: 1.42423 (Simulation time: 7 hr 0 min 34 sec) 
Heartbeat CPU 3 instructions: 1350000001 cycles: 1199927497 heartbeat IPC: 1.11898 cumulative IPC: 1.09896 (Simulation time: 7 hr 1 min 9 sec) 
*** Reached end of trace for Core: 1 Repeating trace: ./traces/ligra/ligra_BellmanFord.com-lj.ungraph.gcc_6.3.0_O3.drop_1750M.length_250M.champsimtrace.xz
Heartbeat CPU 1 instructions: 1750000001 cycles: 1208206732 heartbeat IPC: 0.964517 cumulative IPC: 1.42022 (Simulation time: 7 hr 3 min 20 sec) 
Heartbeat CPU 0 instructions: 1540000000 cycles: 1208369554 heartbeat IPC: 0.632633 cumulative IPC: 1.2543 (Simulation time: 7 hr 3 min 23 sec) 
Heartbeat CPU 3 instructions: 1360000001 cycles: 1208867267 heartbeat IPC: 1.1186 cumulative IPC: 1.0991 (Simulation time: 7 hr 3 min 33 sec) 
Heartbeat CPU 1 instructions: 1760000000 cycles: 1214634780 heartbeat IPC: 1.55568 cumulative IPC: 1.42094 (Simulation time: 7 hr 5 min 27 sec) 
Heartbeat CPU 3 instructions: 1370000002 cycles: 1217885749 heartbeat IPC: 1.10883 cumulative IPC: 1.09918 (Simulation time: 7 hr 6 min 22 sec) 
Heartbeat CPU 1 instructions: 1770000003 cycles: 1221094967 heartbeat IPC: 1.54794 cumulative IPC: 1.42163 (Simulation time: 7 hr 7 min 19 sec) 
Heartbeat CPU 0 instructions: 1550000000 cycles: 1224227795 heartbeat IPC: 0.630587 cumulative IPC: 1.24609 (Simulation time: 7 hr 8 min 10 sec) 
Heartbeat CPU 3 instructions: 1380000000 cycles: 1226796686 heartbeat IPC: 1.12222 cumulative IPC: 1.09935 (Simulation time: 7 hr 8 min 49 sec) 
Heartbeat CPU 1 instructions: 1780000002 cycles: 1228172515 heartbeat IPC: 1.41292 cumulative IPC: 1.42158 (Simulation time: 7 hr 9 min 12 sec) 
Heartbeat CPU 1 instructions: 1790000001 cycles: 1234879910 heartbeat IPC: 1.49089 cumulative IPC: 1.42196 (Simulation time: 7 hr 11 min 23 sec) 
Heartbeat CPU 3 instructions: 1390000001 cycles: 1235677431 heartbeat IPC: 1.12603 cumulative IPC: 1.09954 (Simulation time: 7 hr 11 min 39 sec) 
Heartbeat CPU 0 instructions: 1560000003 cycles: 1240055126 heartbeat IPC: 0.631819 cumulative IPC: 1.23812 (Simulation time: 7 hr 13 min 8 sec) 
Heartbeat CPU 1 instructions: 1800000001 cycles: 1241053204 heartbeat IPC: 1.61988 cumulative IPC: 1.42296 (Simulation time: 7 hr 13 min 24 sec) 
Heartbeat CPU 2 instructions: 140000003 cycles: 1242316169 heartbeat IPC: 0.0971018 cumulative IPC: 0.0679822 (Simulation time: 7 hr 13 min 44 sec) 
Heartbeat CPU 3 instructions: 1400000001 cycles: 1244521151 heartbeat IPC: 1.13075 cumulative IPC: 1.09977 (Simulation time: 7 hr 14 min 23 sec) 
Heartbeat CPU 1 instructions: 1810000001 cycles: 1247222289 heartbeat IPC: 1.62099 cumulative IPC: 1.42396 (Simulation time: 7 hr 15 min 12 sec) 
Heartbeat CPU 1 instructions: 1820000000 cycles: 1253387558 heartbeat IPC: 1.62199 cumulative IPC: 1.42495 (Simulation time: 7 hr 17 min 12 sec) 
Heartbeat CPU 3 instructions: 1410000001 cycles: 1253537798 heartbeat IPC: 1.10906 cumulative IPC: 1.09983 (Simulation time: 7 hr 17 min 15 sec) 
Heartbeat CPU 0 instructions: 1570000003 cycles: 1255871036 heartbeat IPC: 0.632275 cumulative IPC: 1.23036 (Simulation time: 7 hr 18 min 2 sec) 
Heartbeat CPU 1 instructions: 1830000002 cycles: 1259902294 heartbeat IPC: 1.53498 cumulative IPC: 1.42552 (Simulation time: 7 hr 19 min 20 sec) 
Heartbeat CPU 3 instructions: 1420000000 cycles: 1262643711 heartbeat IPC: 1.09819 cumulative IPC: 1.09982 (Simulation time: 7 hr 20 min 15 sec) 
Heartbeat CPU 1 instructions: 1840000002 cycles: 1266116634 heartbeat IPC: 1.60918 cumulative IPC: 1.42644 (Simulation time: 7 hr 21 min 18 sec) 
Heartbeat CPU 0 instructions: 1580000000 cycles: 1271738627 heartbeat IPC: 0.630215 cumulative IPC: 1.22275 (Simulation time: 7 hr 22 min 55 sec) 
Heartbeat CPU 3 instructions: 1430000000 cycles: 1271891619 heartbeat IPC: 1.08133 cumulative IPC: 1.09969 (Simulation time: 7 hr 22 min 57 sec) 
Heartbeat CPU 1 instructions: 1850000002 cycles: 1272282380 heartbeat IPC: 1.62186 cumulative IPC: 1.4274 (Simulation time: 7 hr 23 min 4 sec) 
Heartbeat CPU 1 instructions: 1860000001 cycles: 1278514272 heartbeat IPC: 1.60465 cumulative IPC: 1.42828 (Simulation time: 7 hr 25 min 4 sec) 
Heartbeat CPU 3 instructions: 1440000000 cycles: 1281166804 heartbeat IPC: 1.07815 cumulative IPC: 1.09953 (Simulation time: 7 hr 25 min 54 sec) 
Heartbeat CPU 1 instructions: 1870000000 cycles: 1284693429 heartbeat IPC: 1.61834 cumulative IPC: 1.42921 (Simulation time: 7 hr 27 min 3 sec) 
Heartbeat CPU 0 instructions: 1590000002 cycles: 1287563648 heartbeat IPC: 0.631911 cumulative IPC: 1.21537 (Simulation time: 7 hr 27 min 59 sec) 
Heartbeat CPU 3 instructions: 1450000000 cycles: 1290091355 heartbeat IPC: 1.1205 cumulative IPC: 1.09967 (Simulation time: 7 hr 28 min 44 sec) 
Heartbeat CPU 1 instructions: 1880000001 cycles: 1290878030 heartbeat IPC: 1.61692 cumulative IPC: 1.43012 (Simulation time: 7 hr 28 min 57 sec) 
Heartbeat CPU 1 instructions: 1890000000 cycles: 1297420313 heartbeat IPC: 1.52852 cumulative IPC: 1.43063 (Simulation time: 7 hr 30 min 45 sec) 
Heartbeat CPU 3 instructions: 1460000003 cycles: 1298958864 heartbeat IPC: 1.12771 cumulative IPC: 1.09987 (Simulation time: 7 hr 31 min 13 sec) 
Heartbeat CPU 0 instructions: 1600000001 cycles: 1303382017 heartbeat IPC: 0.632176 cumulative IPC: 1.20818 (Simulation time: 7 hr 32 min 37 sec) 
Heartbeat CPU 1 instructions: 1900000001 cycles: 1304446524 heartbeat IPC: 1.42324 cumulative IPC: 1.43059 (Simulation time: 7 hr 32 min 57 sec) 
Heartbeat CPU 3 instructions: 1470000000 cycles: 1307748990 heartbeat IPC: 1.13764 cumulative IPC: 1.10013 (Simulation time: 7 hr 34 min 1 sec) 
Heartbeat CPU 1 instructions: 1910000001 cycles: 1311466985 heartbeat IPC: 1.42441 cumulative IPC: 1.43055 (Simulation time: 7 hr 35 min 7 sec) 
Heartbeat CPU 3 instructions: 1480000000 cycles: 1316754436 heartbeat IPC: 1.11044 cumulative IPC: 1.1002 (Simulation time: 7 hr 36 min 41 sec) 
Heartbeat CPU 1 instructions: 1920000000 cycles: 1317846491 heartbeat IPC: 1.56752 cumulative IPC: 1.43123 (Simulation time: 7 hr 36 min 59 sec) 
Heartbeat CPU 0 instructions: 1610000003 cycles: 1319242820 heartbeat IPC: 0.630485 cumulative IPC: 1.20113 (Simulation time: 7 hr 37 min 20 sec) 
Heartbeat CPU 1 instructions: 1930000001 cycles: 1324015594 heartbeat IPC: 1.62098 cumulative IPC: 1.43213 (Simulation time: 7 hr 38 min 45 sec) 
Heartbeat CPU 3 instructions: 1490000000 cycles: 1326017280 heartbeat IPC: 1.07958 cumulative IPC: 1.10005 (Simulation time: 7 hr 39 min 17 sec) 
Heartbeat CPU 1 instructions: 1940000000 cycles: 1330184135 heartbeat IPC: 1.62113 cumulative IPC: 1.43302 (Simulation time: 7 hr 40 min 37 sec) 
*** Reached end of trace for Core: 3 Repeating trace: ./traces/ligra/ligra_PageRank.com-lj.ungraph.gcc_6.3.0_O3.drop_5000M.length_250M.champsimtrace.xz
Heartbeat CPU 3 instructions: 1500000000 cycles: 1335012142 heartbeat IPC: 1.11175 cumulative IPC: 1.10013 (Simulation time: 7 hr 42 min 11 sec) 
Heartbeat CPU 0 instructions: 1620000001 cycles: 1335056967 heartbeat IPC: 0.632345 cumulative IPC: 1.19428 (Simulation time: 7 hr 42 min 12 sec) 
Heartbeat CPU 1 instructions: 1950000002 cycles: 1336339857 heartbeat IPC: 1.62451 cumulative IPC: 1.43391 (Simulation time: 7 hr 42 min 37 sec) 
Heartbeat CPU 2 instructions: 150000003 cycles: 1341899798 heartbeat IPC: 0.100418 cumulative IPC: 0.0704265 (Simulation time: 7 hr 44 min 25 sec) 
Heartbeat CPU 1 instructions: 1960000001 cycles: 1342538177 heartbeat IPC: 1.61334 cumulative IPC: 1.43475 (Simulation time: 7 hr 44 min 38 sec) 
[...]
LLC LOAD TRANSLATION ACCESS:    1309714  HIT:     533525  MISS:     776189  HIT %:     40.736  MISS %:     59.264   MPKI: 3.88094
LLC PREFETCH  REQUESTED:          0  ISSUED:          0  USEFUL:    1392730  USELESS:   43569241
LLC USEFUL LOAD PREFETCHES:    1392730 PREFETCH ISSUED TO LOWER LEVEL:   44969067  ACCURACY: 3.09708
LLC TIMELY PREFETCHES:    1392730 LATE PREFETCHES: 0 DROPPED PREFETCHES: 0
LLC PREFETCHES SAME FILL-ORIGIN LEVEL: 0 DIFFERENT FILL-ORIGIN LEVEL: 0
LLC AVERAGE MISS LATENCY: 1981.57 cycles
LLC RQ	ACCESS:   30825897	FORWARD:          0	MERGED:          0	TO_CACHE:   30825863
LLC WQ	ACCESS:   32283753	FORWARD:         41	MERGED:          0	TO_CACHE:   32283753
LLC PQ	ACCESS:   52514689	FORWARD:          0	MERGED:          0	TO_CACHE:   52514682

LLC Dense regions hint to LLC: 0

RAW hits: 2234068
Loads Generated: 65544196
Loads sent to L1D: 63310127
Stores Generated: 10773227
Stores sent to L1D: 10773227
Major fault: 0 Minor fault: 81564
Allocated PAGES: 149423

CPU 3 cumulative IPC: 1.08028 instructions: 200000000 cycles: 185136355
ITLB TOTAL     ACCESS:   33181147  HIT:   33181147  MISS:          0  HIT %:        100  MISS %:          0   MPKI: 0
ITLB LOAD TRANSLATION ACCESS:   33181147  HIT:   33181147  MISS:          0  HIT %:        100  MISS %:          0   MPKI: 0
ITLB PREFETCH  REQUESTED:          0  ISSUED:          0  USEFUL:          0  USELESS:          0
ITLB USEFUL LOAD PREFETCHES:          0 PREFETCH ISSUED TO LOWER LEVEL:          0  ACCURACY: -nan
ITLB TIMELY PREFETCHES:          0 LATE PREFETCHES: 0 DROPPED PREFETCHES: 0
ITLB PREFETCHES SAME FILL-ORIGIN LEVEL: 0 DIFFERENT FILL-ORIGIN LEVEL: 0
ITLB AVERAGE MISS LATENCY: -nan cycles
ITLB RQ	ACCESS:  534573033	FORWARD:          0	MERGED:     296707	TO_CACHE:  534276326

DTLB TOTAL     ACCESS:   20648711  HIT:   20629002  MISS:      19709  HIT %:    99.9046  MISS %:  0.0954491   MPKI: 0.098545
DTLB LOAD TRANSLATION ACCESS:   20648711  HIT:   20629002  MISS:      19709  HIT %:    99.9046  MISS %:  0.0954491   MPKI: 0.098545
DTLB PREFETCH  REQUESTED:          0  ISSUED:          0  USEFUL:          0  USELESS:          0
DTLB USEFUL LOAD PREFETCHES:          0 PREFETCH ISSUED TO LOWER LEVEL:          0  ACCURACY: -nan
DTLB TIMELY PREFETCHES:          0 LATE PREFETCHES: 0 DROPPED PREFETCHES: 0
DTLB PREFETCHES SAME FILL-ORIGIN LEVEL: 0 DIFFERENT FILL-ORIGIN LEVEL: 0
DTLB AVERAGE MISS LATENCY: 1615.45 cycles
DTLB RQ	ACCESS:  334607796	FORWARD:          0	MERGED:    1190766	TO_CACHE:  333417030

STLB TOTAL     ACCESS:     591582  HIT:     571873  MISS:      19709  HIT %:    96.6684  MISS %:    3.33158   MPKI: 0.098545
STLB LOAD TRANSLATION ACCESS:      19709  HIT:          0  MISS:      19709  HIT %:          0  MISS %:        100   MPKI: 0.098545
STLB TRANSLATION FROM L1D PREFETCHER ACCESS:     571873  HIT:     571873  MISS:          0  HIT %:        100  MISS %:          0   MPKI: 0
STLB PREFETCH  REQUESTED:          0  ISSUED:          0  USEFUL:          0  USELESS:          0
STLB USEFUL LOAD PREFETCHES:          0 PREFETCH ISSUED TO LOWER LEVEL:          0  ACCURACY: -nan
STLB TIMELY PREFETCHES:          0 LATE PREFETCHES: 0 DROPPED PREFETCHES: 0
STLB PREFETCHES SAME FILL-ORIGIN LEVEL: 0 DIFFERENT FILL-ORIGIN LEVEL: 0
STLB AVERAGE MISS LATENCY: 1469.54 cycles
STLB RQ	ACCESS:   35241897	FORWARD:          0	MERGED:   25803447	TO_CACHE:    9438450

STLB Hit, L1D data hit: 0
STLB Hit, L2C data hit: 0
STLB Hit, LLC data hit: 0
STLB Hit, LLC data miss: 0
STLB STLB hints to L2: 0
L1D TOTAL     ACCESS:   18611763  HIT:   17350412  MISS:    1261351  HIT %:    93.2228  MISS %:    6.77717   MPKI: 6.30675
L1D LOAD      ACCESS:   15304824  HIT:   15287228  MISS:      17596  HIT %:     99.885  MISS %:    0.11497   MPKI: 0.08798
L1D RFO       ACCESS:    1087541  HIT:     419141  MISS:     668400  HIT %:    38.5402  MISS %:    61.4598   MPKI: 3.342
L1D PREFETCH  ACCESS:    2219398  HIT:    1644043  MISS:     575355  HIT %:    74.0761  MISS %:    25.9239   MPKI: 2.87677
L1D PREFETCH  REQUESTED:   69845776  ISSUED:   69845776  USEFUL:    9265147  USELESS:       1823
L1D USEFUL LOAD PREFETCHES:    9265147 PREFETCH ISSUED TO LOWER LEVEL:    9379357  ACCURACY: 98.7823
L1D TIMELY PREFETCHES:    9265147 LATE PREFETCHES: 112387 DROPPED PREFETCHES: 0
L1D PREFETCHES SAME FILL-ORIGIN LEVEL: 9379357 DIFFERENT FILL-ORIGIN LEVEL: 0
L1D AVERAGE MISS LATENCY: 7472.69 cycles
L1D RQ	ACCESS:  608561887	FORWARD:          0	MERGED:  361235102	TO_CACHE:  247326785
L1D WQ	ACCESS:   87281011	FORWARD:          0	MERGED:          0	TO_CACHE:   87281011
L1D PQ	ACCESS:   34923314	FORWARD:          0	MERGED:        852	TO_CACHE:   34922462

L1D UNIQUE REGIONS ACCESSED: 0
L1D REGIONS CONFLICTS: 0
L1D Cross Page Prefetch Requests: 0
L1D Same Page Prefetch Requests: 35813843
L1D ROI Sum of L1D PQ occupancy: 416524259
L1D PREFETCHES PUSHED FROM L2C: 0
L1I TOTAL     ACCESS:   33199601  HIT:   33199601  MISS:          0  HIT %:        100  MISS %:          0   MPKI: 0
L1I LOAD      ACCESS:   33199601  HIT:   33199601  MISS:          0  HIT %:        100  MISS %:          0   MPKI: 0
L1I PREFETCH  REQUESTED:          0  ISSUED:          0  USEFUL:          0  USELESS:          0
L1I USEFUL LOAD PREFETCHES:          0 PREFETCH ISSUED TO LOWER LEVEL:          0  ACCURACY: -nan
L1I TIMELY PREFETCHES:          0 LATE PREFETCHES: 0 DROPPED PREFETCHES: 0
L1I PREFETCHES SAME FILL-ORIGIN LEVEL: 0 DIFFERENT FILL-ORIGIN LEVEL: 0
L1I AVERAGE MISS LATENCY: -nan cycles
L1I RQ	ACCESS: 1472915738	FORWARD:          0	MERGED:  938342705	TO_CACHE:  534573033

BTB TOTAL     ACCESS:   75607842  HIT:   75607842  MISS:          0  HIT %:        100  MISS %:          0   MPKI: 0
BTB BRANCH_DIRECT_JUMP	ACCESS:          0  HIT:          0  MISS:          0
BTB BRANCH_INDIRECT	ACCESS:          0  HIT:          0  MISS:          0
BTB BRANCH_CONDITIONAL	ACCESS:   75607842  HIT:   75607842  MISS:          0
BTB BRANCH_DIRECT_CALL	ACCESS:          0  HIT:          0  MISS:          0
BTB BRANCH_INDIRECT_CALL	ACCESS:          0  HIT:          0  MISS:          0
BTB BRANCH_RETURN	ACCESS:          0  HIT:          0  MISS:          0
BTB BRANCH_OTHER ACCESS:          0  HIT:          0  MISS:          0

L2C TOTAL     ACCESS:    1949449  HIT:     645398  MISS:    1304051  HIT %:    33.1067  MISS %:    66.8933   MPKI: 6.52025
L2C LOAD      ACCESS:       9498  HIT:         11  MISS:       9487  HIT %:   0.115814  MISS %:    99.8842   MPKI: 0.047435
L2C DATA LOAD MPKI: 0.047435
L2C INSTRUCTION LOAD MPKI: 0
L2C RFO       ACCESS:     668400  HIT:          0  MISS:     668400  HIT %:          0  MISS %:        100   MPKI: 3.342
L2C PREFETCH  ACCESS:     583453  HIT:         51  MISS:     583402  HIT %: 0.00874106  MISS %:    99.9913   MPKI: 2.91701
L2C DATA PREFETCH MPKI: 2.91701
L2C INSTRUCTION PREFETCH MPKI: 0
L2C WRITEBACK ACCESS:     668385  HIT:     628167  MISS:      40218  HIT %:    93.9828  MISS %:    6.01719   MPKI: 0.20109
L2C LOAD TRANSLATION ACCESS:      19713  HIT:      17169  MISS:       2544  HIT %:    87.0948  MISS %:    12.9052   MPKI: 0.01272
L2C PREFETCH  REQUESTED:          0  ISSUED:          0  USEFUL:        172  USELESS:    9378634
L2C USEFUL LOAD PREFETCHES:        172 PREFETCH ISSUED TO LOWER LEVEL:    9378379  ACCURACY: 0.00183401
L2C TIMELY PREFETCHES:        172 LATE PREFETCHES: 0 DROPPED PREFETCHES: 0
L2C PREFETCHES SAME FILL-ORIGIN LEVEL: 0 DIFFERENT FILL-ORIGIN LEVEL: 0
L2C AVERAGE MISS LATENCY: 7193.73 cycles
L2C RQ	ACCESS:   11384660	FORWARD:          0	MERGED:          0	TO_CACHE:   11384660
L2C WQ	ACCESS:   10910132	FORWARD:          0	MERGED:          0	TO_CACHE:   10910132
L2C PQ	ACCESS:    9379357	FORWARD:          0	MERGED:          0	TO_CACHE:    9379357

L2C Instructions Evicting Data 0
L2C Translations Evicting Data 41101
L2C Data Evicting Data 20403256
L2C Instructions Evicting Instructions 0
L2C Translations Evicting Instructions 0
L2C Data Evicting Instructions 0
L2C Instructions Evicting Translations 0
L2C Translations Evicting Translations 84
L2C Data Evicting Translations 39548
L2C Dense regions hint from L2: 0
PSCL5 TOTAL     ACCESS:      19710  HIT:      19710  MISS:          0  HIT %:        100  MISS %:          0   MPKI: 0
PSCL5 LOAD TRANSLATION ACCESS:      19710  HIT:      19710  MISS:          0  HIT %:        100  MISS %:          0   MPKI: 0
PSCL5 PREFETCH  REQUESTED:          0  ISSUED:          0  USEFUL:          0  USELESS:          0
PSCL5 USEFUL LOAD PREFETCHES:          0 PREFETCH ISSUED TO LOWER LEVEL:          0  ACCURACY: -nan
PSCL5 TIMELY PREFETCHES:          0 LATE PREFETCHES: 0 DROPPED PREFETCHES: 0
PSCL5 PREFETCHES SAME FILL-ORIGIN LEVEL: 0 DIFFERENT FILL-ORIGIN LEVEL: 0

PSCL4 TOTAL     ACCESS:      19710  HIT:      19710  MISS:          0  HIT %:        100  MISS %:          0   MPKI: 0
PSCL4 LOAD TRANSLATION ACCESS:      19710  HIT:      19710  MISS:          0  HIT %:        100  MISS %:          0   MPKI: 0
PSCL4 PREFETCH  REQUESTED:          0  ISSUED:          0  USEFUL:          0  USELESS:          0
PSCL4 USEFUL LOAD PREFETCHES:          0 PREFETCH ISSUED TO LOWER LEVEL:          0  ACCURACY: -nan
PSCL4 TIMELY PREFETCHES:          0 LATE PREFETCHES: 0 DROPPED PREFETCHES: 0
PSCL4 PREFETCHES SAME FILL-ORIGIN LEVEL: 0 DIFFERENT FILL-ORIGIN LEVEL: 0

PSCL3 TOTAL     ACCESS:      19710  HIT:      19710  MISS:          0  HIT %:        100  MISS %:          0   MPKI: 0
PSCL3 LOAD TRANSLATION ACCESS:      19710  HIT:      19710  MISS:          0  HIT %:        100  MISS %:          0   MPKI: 0
PSCL3 PREFETCH  REQUESTED:          0  ISSUED:          0  USEFUL:          0  USELESS:          0
PSCL3 USEFUL LOAD PREFETCHES:          0 PREFETCH ISSUED TO LOWER LEVEL:          0  ACCURACY: -nan
PSCL3 TIMELY PREFETCHES:          0 LATE PREFETCHES: 0 DROPPED PREFETCHES: 0
PSCL3 PREFETCHES SAME FILL-ORIGIN LEVEL: 0 DIFFERENT FILL-ORIGIN LEVEL: 0

PSCL2 TOTAL     ACCESS:      19710  HIT:      19669  MISS:         41  HIT %:     99.792  MISS %:   0.208016   MPKI: 0.000205
PSCL2 LOAD TRANSLATION ACCESS:      19710  HIT:      19669  MISS:         41  HIT %:     99.792  MISS %:   0.208016   MPKI: 0.000205
PSCL2 PREFETCH  REQUESTED:          0  ISSUED:          0  USEFUL:          0  USELESS:          0
PSCL2 USEFUL LOAD PREFETCHES:          0 PREFETCH ISSUED TO LOWER LEVEL:          0  ACCURACY: -nan
PSCL2 TIMELY PREFETCHES:          0 LATE PREFETCHES: 0 DROPPED PREFETCHES: 0
PSCL2 PREFETCHES SAME FILL-ORIGIN LEVEL: 0 DIFFERENT FILL-ORIGIN LEVEL: 0

LLC TOTAL     ACCESS:    1932096  HIT:     630910  MISS:    1301186  HIT %:    32.6542  MISS %:    67.3458   MPKI: 6.50593
LLC LOAD      ACCESS:       9487  HIT:          4  MISS:       9483  HIT %:   0.042163  MISS %:    99.9578   MPKI: 0.047415
LLC RFO       ACCESS:     668400  HIT:          0  MISS:     668400  HIT %:          0  MISS %:        100   MPKI: 3.342
LLC PREFETCH  ACCESS:     583402  HIT:         25  MISS:     583377  HIT %: 0.00428521  MISS %:    99.9957   MPKI: 2.91689
LLC WRITEBACK ACCESS:     668263  HIT:     630867  MISS:      37396  HIT %:     94.404  MISS %:      5.596   MPKI: 0.18698
LLC LOAD TRANSLATION ACCESS:       2544  HIT:         14  MISS:       2530  HIT %:   0.550314  MISS %:    99.4497   MPKI: 0.01265
LLC PREFETCH  REQUESTED:          0  ISSUED:          0  USEFUL:    1392730  USELESS:   43569241
LLC USEFUL LOAD PREFETCHES:    1392730 PREFETCH ISSUED TO LOWER LEVEL:   44969067  ACCURACY: 3.09708
LLC TIMELY PREFETCHES:    1392730 LATE PREFETCHES: 0 DROPPED PREFETCHES: 0
LLC PREFETCHES SAME FILL-ORIGIN LEVEL: 0 DIFFERENT FILL-ORIGIN LEVEL: 0
LLC AVERAGE MISS LATENCY: 26544.9 cycles
LLC RQ	ACCESS:   30825897	FORWARD:          0	MERGED:          0	TO_CACHE:   30825863
LLC WQ	ACCESS:   32283753	FORWARD:         41	MERGED:          0	TO_CACHE:   32283753
LLC PQ	ACCESS:   52514689	FORWARD:          0	MERGED:          0	TO_CACHE:   52514682

LLC Dense regions hint to LLC: 0

RAW hits: 0
Loads Generated: 37850051
Loads sent to L1D: 37850051
Stores Generated: 5347198
Stores sent to L1D: 5347198
Major fault: 0 Minor fault: 24882
Allocated PAGES: 149423

stream: 
stream:times selected: 66826753
stream:pref_filled: 25747159
stream:pref_useful: 24192111
stream:pref_late: 951823
stream:misses: 133830
stream:misses_by_poll: 0

CS: 
CS:times selected: 54477378
CS:pref_filled: 93073
CS:pref_useful: 91750
CS:pref_late: 11945
CS:misses: 5591099
CS:misses_by_poll: 542

CPLX: 
CPLX:times selected: 12348354
CPLX:pref_filled: 664262
CPLX:pref_useful: 572384
CPLX:pref_late: 4235
CPLX:misses: 558511
CPLX:misses_by_poll: 1852

NL_L1: 
NL:times selected: 94346
NL:pref_filled: 7348
NL:pref_useful: 6227
NL:pref_late: 99
NL:misses: 5113
NL:misses_by_poll: 0

total selections: 133746831
total_filled: 26139189
total_useful: 24502151
total_late: 973504
total_polluted: 2394
total_misses_after_warmup: 6556330
conflicts: 138548
Degree Incremented Times: 11212758
Degree Decremented Times: 680923

L1 IP Table Write Accesses: 1229737963
L1 IP Table Read Accesses: 1229599415
L1 RST Write Accesses: 125410565
L1 RST Read Accesses: 250821130
L1 CSPT Write Accesses: 125410565
L1 CSPT Read Accesses: 191052590
L1 RR Filter Tag Write Accesses: 330598522
L1 RR Filter Tag Read Accesses: 19830756765
L1 IP Table Tag Write Accesses: 1230021817
L1 IP Table Tag Read Accesses: 1230021817
L1 RST Tag Write Accesses: 0
L1 RST Tag Read Accesses: 1116471435
L1 RR Filter Write Accesses: 0
L1 RR Filter Read Accesses: 783113628
test: 41650915

stream: 
stream:times selected: 11319204
stream:pref_filled: 9284987
stream:pref_useful: 9284884
stream:pref_late: 218346
stream:misses: 473
stream:misses_by_poll: 0

CS: 
CS:times selected: 11319197
CS:pref_filled: 33269
CS:pref_useful: 33269
CS:pref_late: 4934
CS:misses: 2156056
CS:misses_by_poll: 131

CPLX: 
CPLX:times selected: 5
CPLX:pref_filled: 0
CPLX:pref_useful: 0
CPLX:pref_late: 0
CPLX:misses: 0
CPLX:misses_by_poll: 0

NL_L1: 
NL:times selected: 0
NL:pref_filled: 0
NL:pref_useful: 0
NL:pref_late: 0
NL:misses: 0
NL:misses_by_poll: 0

total selections: 22638406
total_filled: 9171669
total_useful: 9171572
total_late: 224303
total_polluted: 131
total_misses_after_warmup: 2152010
conflicts: 138548
Degree Incremented Times: 11212758
Degree Decremented Times: 680923

L1 IP Table Write Accesses: 1229737963
L1 IP Table Read Accesses: 1229599415
L1 RST Write Accesses: 125410565
L1 RST Read Accesses: 250821130
L1 CSPT Write Accesses: 125410565
L1 CSPT Read Accesses: 191052590
L1 RR Filter Tag Write Accesses: 330598522
L1 RR Filter Tag Read Accesses: 19830756765
L1 IP Table Tag Write Accesses: 1230021817
L1 IP Table Tag Read Accesses: 1230021817
L1 RST Tag Write Accesses: 0
L1 RST Tag Read Accesses: 1116471435
L1 RR Filter Write Accesses: 0
L1 RR Filter Read Accesses: 783113628
test: 41650915

stream: 
stream:times selected: 44674610
stream:pref_filled: 20961773
stream:pref_useful: 599822
stream:pref_late: 58430
stream:misses: 6175869
stream:misses_by_poll: 0

CS: 
CS:times selected: 5766295
CS:pref_filled: 3237111
CS:pref_useful: 87924
CS:pref_late: 942
CS:misses: 184902
CS:misses_by_poll: 5245

CPLX: 
CPLX:times selected: 44100529
CPLX:pref_filled: 2072763
CPLX:pref_useful: 30674
CPLX:pref_late: 688
CPLX:misses: 19510899
CPLX:misses_by_poll: 4051

NL_L1: 
NL:times selected: 96922
NL:pref_filled: 54652
NL:pref_useful: 1630
NL:pref_late: 233
NL:misses: 56836
NL:misses_by_poll: 0

total selections: 94638356
total_filled: 20306389
total_useful: 571676
total_late: 62841
total_polluted: 9296
total_misses_after_warmup: 20571572
conflicts: 138548
Degree Incremented Times: 11212758
Degree Decremented Times: 680923

L1 IP Table Write Accesses: 1229737963
L1 IP Table Read Accesses: 1229599415
L1 RST Write Accesses: 125410565
L1 RST Read Accesses: 250821130
L1 CSPT Write Accesses: 125410565
L1 CSPT Read Accesses: 191052590
L1 RR Filter Tag Write Accesses: 330598522
L1 RR Filter Tag Read Accesses: 19830756765
L1 IP Table Tag Write Accesses: 1230021817
L1 IP Table Tag Read Accesses: 1230021817
L1 RST Tag Write Accesses: 0
L1 RST Tag Read Accesses: 1116471435
L1 RR Filter Write Accesses: 0
L1 RR Filter Read Accesses: 783113628
test: 41650915

stream: 
stream:times selected: 12072371
stream:pref_filled: 9389702
stream:pref_useful: 9387854
stream:pref_late: 108810
stream:misses: 614
stream:misses_by_poll: 0

CS: 
CS:times selected: 12072354
CS:pref_filled: 33634
CS:pref_useful: 33632
CS:pref_late: 2918
CS:misses: 1636762
CS:misses_by_poll: 137

CPLX: 
CPLX:times selected: 16
CPLX:pref_filled: 1
CPLX:pref_useful: 1
CPLX:pref_late: 0
CPLX:misses: 2
CPLX:misses_by_poll: 0

NL_L1: 
NL:times selected: 0
NL:pref_filled: 0
NL:pref_useful: 0
NL:pref_late: 0
NL:misses: 0
NL:misses_by_poll: 0

total selections: 24144741
total_filled: 9266970
total_useful: 9265147
total_late: 112387
total_polluted: 137
total_misses_after_warmup: 1631483
conflicts: 138548
Degree Incremented Times: 11212758
Degree Decremented Times: 680923

L1 IP Table Write Accesses: 1229737963
L1 IP Table Read Accesses: 1229599415
L1 RST Write Accesses: 125410565
L1 RST Read Accesses: 250821130
L1 CSPT Write Accesses: 125410565
L1 CSPT Read Accesses: 191052590
L1 RR Filter Tag Write Accesses: 330598522
L1 RR Filter Tag Read Accesses: 19830756765
L1 IP Table Tag Write Accesses: 1230021817
L1 IP Table Tag Read Accesses: 1230021817
L1 RST Tag Write Accesses: 0
L1 RST Tag Read Accesses: 1116471435
L1 RR Filter Write Accesses: 0
L1 RR Filter Read Accesses: 783113628
test: 41650915

DRAM Statistics
 CHANNEL 0
 RQ ROW_BUFFER_HIT:    6069099  ROW_BUFFER_MISS:   64087063
 DBUS_CONGESTED:        295
 WQ ROW_BUFFER_HIT:    1985741  ROW_BUFFER_MISS:   29500574  FULL:        215

 AVG_CONGESTED_CYCLE: 5
 All warmup complete: 5
Channel 0 Bank busy for read cycles: 0
Channel 0 Bank busy for write cycles: 0
Channel 0
Rank 0
0banks busy for read cycles: 327172
0banks busy for write cycles: 686
1banks busy for read cycles: 44433955
1banks busy for write cycles: 3500481
2banks busy for read cycles: 131173677
2banks busy for write cycles: 4019725
3banks busy for read cycles: 236198178
3banks busy for write cycles: 5071086
4banks busy for read cycles: 306472005
4banks busy for write cycles: 7518332
5banks busy for read cycles: 327044982
5banks busy for write cycles: 14079732
6banks busy for read cycles: 317292192
6banks busy for write cycles: 36720939
7banks busy for read cycles: 321908780
7banks busy for write cycles: 156765042
8banks busy for read cycles: 343622517
8banks busy for write cycles: 670187742

CPU 0 Branch Prediction Accuracy: 99.9471% MPKI: 0.0284816 Average ROB Occupancy at Mispredict: 153.231
Branch types
NOT_BRANCH: 3293136195 94.6122%
BRANCH_DIRECT_JUMP: 2692191 0.077347%
BRANCH_INDIRECT: 0 0%
BRANCH_CONDITIONAL: 180023809 5.17211%
BRANCH_DIRECT_CALL: 2407196 0.069159%
BRANCH_INDIRECT_CALL: 0 0%
BRANCH_RETURN: 2407195 0.069159%
BRANCH_OTHER: 0 0%


CPU 1 Branch Prediction Accuracy: 99.0254% MPKI: 3.08744 Average ROB Occupancy at Mispredict: 21.6224
Branch types
NOT_BRANCH: 2842275852 68.2207%
BRANCH_DIRECT_JUMP: 0 0%
BRANCH_INDIRECT: 0 0%
BRANCH_CONDITIONAL: 1324016876 31.7793%
BRANCH_DIRECT_CALL: 0 0%
BRANCH_INDIRECT_CALL: 0 0%
BRANCH_RETURN: 0 0%
BRANCH_OTHER: 0 0%


CPU 2 Branch Prediction Accuracy: 95.0528% MPKI: 11.442 Average ROB Occupancy at Mispredict: 54.7409
Branch types
NOT_BRANCH: 152139493 76.0697%
BRANCH_DIRECT_JUMP: 4209002 2.1045%
BRANCH_INDIRECT: 0 0%
BRANCH_CONDITIONAL: 43142350 21.5712%
BRANCH_DIRECT_CALL: 254593 0.127296%
BRANCH_INDIRECT_CALL: 0 0%
BRANCH_RETURN: 254593 0.127296%
BRANCH_OTHER: 0 0%


CPU 3 Branch Prediction Accuracy: 99.6746% MPKI: 1.22838 Average ROB Occupancy at Mispredict: 61.1654
Branch types
NOT_BRANCH: 2002027928 62.2084%
BRANCH_DIRECT_JUMP: 0 0%
BRANCH_INDIRECT: 0 0%
BRANCH_CONDITIONAL: 1216233660 37.7916%
BRANCH_DIRECT_CALL: 0 0%
BRANCH_INDIRECT_CALL: 0 0%
BRANCH_RETURN: 0 0%
BRANCH_OTHER: 0 0%

DRAM PAGES: 1048576
Allocated PAGES: 149423
