
*** ChampSim Multicore Out-of-Order Simulator ***

Warmup Instructions: 50000000
Simulation Instructions: 200000000
Number of CPUs: 4
LLC sets: 8192
LLC ways: 16
Off-chip DRAM Size: 4096 MB Channels: 1 Width: 64-bit Data Rate: 6400 MT/s
CPU 0 runs ./traces/spec/462.libquantum-714B.champsimtrace.xz
.xz
CPU 1 runs ./traces/spec/462.libquantum-714B.champsimtrace.xz
.xz
CPU 2 runs ./traces/spec/462.libquantum-714B.champsimtrace.xz
.xz
CPU 3 runs ./traces/spec/462.libquantum-714B.champsimtrace.xz
.xz
BTB has LRU replacement policy
ITLB has LRU replacement policy
DTLB has LRU replacement policy
STLB has LRU replacement policy
L1I has LRU replacement policy
IP Table Entries: 1024
CSPT Entries: 128
RR_ENTRIES: 32
RST_ENTRIES: 8
L1D has LRU replacement policy
Initialize SRRIP state for L2C
Initialize DRRIP state for LLC
BTB has LRU replacement policy
ITLB has LRU replacement policy
DTLB has LRU replacement policy
STLB has LRU replacement policy
L1I has LRU replacement policy
IP Table Entries: 1024
CSPT Entries: 128
RR_ENTRIES: 32
RST_ENTRIES: 8
L1D has LRU replacement policy
Initialize SRRIP state for L2C
Initialize DRRIP state for LLC
BTB has LRU replacement policy
ITLB has LRU replacement policy
DTLB has LRU replacement policy
STLB has LRU replacement policy
L1I has LRU replacement policy
IP Table Entries: 1024
CSPT Entries: 128
RR_ENTRIES: 32
RST_ENTRIES: 8
L1D has LRU replacement policy
Initialize SRRIP state for L2C
Initialize DRRIP state for LLC
BTB has LRU replacement policy
ITLB has LRU replacement policy
DTLB has LRU replacement policy
STLB has LRU replacement policy
L1I has LRU replacement policy
IP Table Entries: 1024
CSPT Entries: 128
RR_ENTRIES: 32
RST_ENTRIES: 8
L1D has LRU replacement policy
Initialize SRRIP state for L2C
Initialize DRRIP state for LLC
Heartbeat CPU 0 instructions: 10000001 cycles: 3582997 heartbeat IPC: 2.79096 cumulative IPC: 2.79096 (Simulation time: 0 hr 2 min 30 sec) 
Heartbeat CPU 1 instructions: 10000001 cycles: 3583000 heartbeat IPC: 2.79096 cumulative IPC: 2.79096 (Simulation time: 0 hr 2 min 30 sec) 
Heartbeat CPU 2 instructions: 10000001 cycles: 3583004 heartbeat IPC: 2.79095 cumulative IPC: 2.79095 (Simulation time: 0 hr 2 min 30 sec) 
Heartbeat CPU 3 instructions: 10000001 cycles: 3583009 heartbeat IPC: 2.79095 cumulative IPC: 2.79095 (Simulation time: 0 hr 2 min 30 sec) 
Heartbeat CPU 0 instructions: 20000003 cycles: 6916327 heartbeat IPC: 3 cumulative IPC: 2.89171 (Simulation time: 0 hr 5 min 24 sec) 
Heartbeat CPU 1 instructions: 20000001 cycles: 6916330 heartbeat IPC: 3 cumulative IPC: 2.89171 (Simulation time: 0 hr 5 min 24 sec) 
Heartbeat CPU 2 instructions: 20000001 cycles: 6916334 heartbeat IPC: 3 cumulative IPC: 2.89171 (Simulation time: 0 hr 5 min 24 sec) 
Heartbeat CPU 3 instructions: 20000001 cycles: 6916338 heartbeat IPC: 3 cumulative IPC: 2.8917 (Simulation time: 0 hr 5 min 24 sec) 
Heartbeat CPU 0 instructions: 30000000 cycles: 10460646 heartbeat IPC: 2.82142 cumulative IPC: 2.86789 (Simulation time: 0 hr 8 min 15 sec) 
Heartbeat CPU 1 instructions: 30000000 cycles: 10460662 heartbeat IPC: 2.82141 cumulative IPC: 2.86789 (Simulation time: 0 hr 8 min 15 sec) 
Heartbeat CPU 2 instructions: 30000000 cycles: 10460672 heartbeat IPC: 2.8214 cumulative IPC: 2.86788 (Simulation time: 0 hr 8 min 15 sec) 
Heartbeat CPU 3 instructions: 30000000 cycles: 10460677 heartbeat IPC: 2.8214 cumulative IPC: 2.86788 (Simulation time: 0 hr 8 min 15 sec) 
Heartbeat CPU 0 instructions: 40000001 cycles: 14091852 heartbeat IPC: 2.75391 cumulative IPC: 2.83852 (Simulation time: 0 hr 10 min 52 sec) 
Heartbeat CPU 1 instructions: 40000000 cycles: 14091866 heartbeat IPC: 2.75391 cumulative IPC: 2.83852 (Simulation time: 0 hr 10 min 52 sec) 
Heartbeat CPU 2 instructions: 40000000 cycles: 14091876 heartbeat IPC: 2.75391 cumulative IPC: 2.83851 (Simulation time: 0 hr 10 min 52 sec) 
Heartbeat CPU 3 instructions: 40000000 cycles: 14091881 heartbeat IPC: 2.75391 cumulative IPC: 2.83851 (Simulation time: 0 hr 10 min 52 sec) 
Heartbeat CPU 0 instructions: 50000000 cycles: 17725093 heartbeat IPC: 2.75236 cumulative IPC: 2.82086 (Simulation time: 0 hr 13 min 19 sec) 
Heartbeat CPU 1 instructions: 50000002 cycles: 17725107 heartbeat IPC: 2.75236 cumulative IPC: 2.82086 (Simulation time: 0 hr 13 min 19 sec) 
Heartbeat CPU 2 instructions: 50000002 cycles: 17725117 heartbeat IPC: 2.75236 cumulative IPC: 2.82086 (Simulation time: 0 hr 13 min 19 sec) 
Heartbeat CPU 3 instructions: 50000002 cycles: 17725122 heartbeat IPC: 2.75236 cumulative IPC: 2.82086 (Simulation time: 0 hr 13 min 19 sec) 

Warmup complete CPU 0 instructions: 50000059 cycles: 17725122 (Simulation time: 0 hr 13 min 19 sec) 
Warmup complete CPU 1 instructions: 50000032 cycles: 17725122 (Simulation time: 0 hr 13 min 19 sec) 
Warmup complete CPU 2 instructions: 50000015 cycles: 17725122 (Simulation time: 0 hr 13 min 19 sec) 
Warmup complete CPU 3 instructions: 50000002 cycles: 17725122 (Simulation time: 0 hr 13 min 19 sec) 

Heartbeat CPU 0 instructions: 60000001 cycles: 28520642 heartbeat IPC: 0.926308 cumulative IPC: 0.926305 (Simulation time: 0 hr 16 min 39 sec) 
Heartbeat CPU 1 instructions: 60000001 cycles: 28522089 heartbeat IPC: 0.926185 cumulative IPC: 0.926183 (Simulation time: 0 hr 16 min 39 sec) 
Heartbeat CPU 2 instructions: 60000002 cycles: 28523077 heartbeat IPC: 0.926101 cumulative IPC: 0.9261 (Simulation time: 0 hr 16 min 39 sec) 
Heartbeat CPU 3 instructions: 60000002 cycles: 28643121 heartbeat IPC: 0.915919 cumulative IPC: 0.915919 (Simulation time: 0 hr 16 min 42 sec) 
Heartbeat CPU 0 instructions: 70000003 cycles: 41193058 heartbeat IPC: 0.789116 cumulative IPC: 0.852224 (Simulation time: 0 hr 20 min 28 sec) 
Heartbeat CPU 1 instructions: 70000003 cycles: 41199711 heartbeat IPC: 0.788792 cumulative IPC: 0.851984 (Simulation time: 0 hr 20 min 28 sec) 
Heartbeat CPU 2 instructions: 70000003 cycles: 41333083 heartbeat IPC: 0.78064 cumulative IPC: 0.847171 (Simulation time: 0 hr 20 min 30 sec) 
Heartbeat CPU 3 instructions: 70000003 cycles: 41979279 heartbeat IPC: 0.749841 cumulative IPC: 0.824601 (Simulation time: 0 hr 20 min 37 sec) 
Heartbeat CPU 0 instructions: 80000003 cycles: 101954570 heartbeat IPC: 0.164578 cumulative IPC: 0.356169 (Simulation time: 0 hr 27 min 34 sec) 
Heartbeat CPU 3 instructions: 80000003 cycles: 103977318 heartbeat IPC: 0.161295 cumulative IPC: 0.347817 (Simulation time: 0 hr 27 min 50 sec) 
Heartbeat CPU 1 instructions: 80000003 cycles: 105542863 heartbeat IPC: 0.155417 cumulative IPC: 0.341616 (Simulation time: 0 hr 28 min 0 sec) 
Heartbeat CPU 2 instructions: 80000003 cycles: 106201076 heartbeat IPC: 0.154159 cumulative IPC: 0.339075 (Simulation time: 0 hr 28 min 5 sec) 
Heartbeat CPU 0 instructions: 90000000 cycles: 143175757 heartbeat IPC: 0.242594 cumulative IPC: 0.31885 (Simulation time: 0 hr 33 min 9 sec) 
Heartbeat CPU 3 instructions: 90000000 cycles: 143856073 heartbeat IPC: 0.25076 cumulative IPC: 0.317131 (Simulation time: 0 hr 33 min 18 sec) 
Heartbeat CPU 1 instructions: 90000000 cycles: 145297804 heartbeat IPC: 0.251541 cumulative IPC: 0.313547 (Simulation time: 0 hr 33 min 36 sec) 
Heartbeat CPU 2 instructions: 90000000 cycles: 145614657 heartbeat IPC: 0.25372 cumulative IPC: 0.31277 (Simulation time: 0 hr 33 min 41 sec) 
Heartbeat CPU 0 instructions: 100000000 cycles: 163116270 heartbeat IPC: 0.501492 cumulative IPC: 0.343899 (Simulation time: 0 hr 37 min 9 sec) 
Heartbeat CPU 3 instructions: 100000000 cycles: 163829504 heartbeat IPC: 0.500665 cumulative IPC: 0.342221 (Simulation time: 0 hr 37 min 17 sec) 
Heartbeat CPU 1 instructions: 100000000 cycles: 165192440 heartbeat IPC: 0.502648 cumulative IPC: 0.339058 (Simulation time: 0 hr 37 min 30 sec) 
Heartbeat CPU 2 instructions: 100000000 cycles: 165393356 heartbeat IPC: 0.505594 cumulative IPC: 0.338597 (Simulation time: 0 hr 37 min 32 sec) 
Heartbeat CPU 0 instructions: 110000000 cycles: 183049200 heartbeat IPC: 0.501682 cumulative IPC: 0.362923 (Simulation time: 0 hr 40 min 52 sec) 
Heartbeat CPU 3 instructions: 110000000 cycles: 183787169 heartbeat IPC: 0.501061 cumulative IPC: 0.361311 (Simulation time: 0 hr 41 min 0 sec) 
Heartbeat CPU 1 instructions: 110000000 cycles: 184910635 heartbeat IPC: 0.507146 cumulative IPC: 0.358883 (Simulation time: 0 hr 41 min 12 sec) 
Heartbeat CPU 2 instructions: 110000000 cycles: 185277113 heartbeat IPC: 0.502923 cumulative IPC: 0.358098 (Simulation time: 0 hr 41 min 17 sec) 
Heartbeat CPU 0 instructions: 120000000 cycles: 203524624 heartbeat IPC: 0.48839 cumulative IPC: 0.37675 (Simulation time: 0 hr 44 min 58 sec) 
Heartbeat CPU 3 instructions: 120000000 cycles: 204260723 heartbeat IPC: 0.488435 cumulative IPC: 0.375263 (Simulation time: 0 hr 45 min 9 sec) 
Heartbeat CPU 1 instructions: 120000000 cycles: 205372536 heartbeat IPC: 0.488713 cumulative IPC: 0.37304 (Simulation time: 0 hr 45 min 21 sec) 
Heartbeat CPU 2 instructions: 120000000 cycles: 205734310 heartbeat IPC: 0.488826 cumulative IPC: 0.372322 (Simulation time: 0 hr 45 min 25 sec) 
Heartbeat CPU 0 instructions: 130000003 cycles: 224052329 heartbeat IPC: 0.487147 cumulative IPC: 0.387733 (Simulation time: 0 hr 49 min 20 sec) 
Heartbeat CPU 3 instructions: 130000003 cycles: 224808361 heartbeat IPC: 0.486674 cumulative IPC: 0.386318 (Simulation time: 0 hr 49 min 30 sec) 
Heartbeat CPU 1 instructions: 130000003 cycles: 226024982 heartbeat IPC: 0.484204 cumulative IPC: 0.384062 (Simulation time: 0 hr 49 min 46 sec) 
Heartbeat CPU 2 instructions: 130000003 cycles: 226444897 heartbeat IPC: 0.482845 cumulative IPC: 0.383289 (Simulation time: 0 hr 49 min 49 sec) 
Heartbeat CPU 0 instructions: 140000002 cycles: 280935801 heartbeat IPC: 0.175798 cumulative IPC: 0.341931 (Simulation time: 0 hr 56 min 36 sec) 
Heartbeat CPU 3 instructions: 140000002 cycles: 282778697 heartbeat IPC: 0.172502 cumulative IPC: 0.339554 (Simulation time: 0 hr 56 min 48 sec) 
Heartbeat CPU 1 instructions: 140000002 cycles: 289906321 heartbeat IPC: 0.15654 cumulative IPC: 0.330662 (Simulation time: 0 hr 57 min 40 sec) 
Heartbeat CPU 2 instructions: 140000001 cycles: 290290342 heartbeat IPC: 0.156628 cumulative IPC: 0.330196 (Simulation time: 0 hr 57 min 42 sec) 
Heartbeat CPU 0 instructions: 150000000 cycles: 327265379 heartbeat IPC: 0.215845 cumulative IPC: 0.32306 (Simulation time: 1 hr 2 min 44 sec) 
Heartbeat CPU 3 instructions: 150000003 cycles: 328038747 heartbeat IPC: 0.220945 cumulative IPC: 0.322255 (Simulation time: 1 hr 2 min 55 sec) 
Heartbeat CPU 1 instructions: 150000002 cycles: 331857794 heartbeat IPC: 0.238371 cumulative IPC: 0.318337 (Simulation time: 1 hr 3 min 43 sec) 
Heartbeat CPU 2 instructions: 150000002 cycles: 332087590 heartbeat IPC: 0.23925 cumulative IPC: 0.318104 (Simulation time: 1 hr 3 min 47 sec) 
Heartbeat CPU 0 instructions: 160000003 cycles: 347635569 heartbeat IPC: 0.490914 cumulative IPC: 0.333424 (Simulation time: 1 hr 7 min 2 sec) 
Heartbeat CPU 3 instructions: 160000003 cycles: 348404953 heartbeat IPC: 0.491009 cumulative IPC: 0.332648 (Simulation time: 1 hr 7 min 13 sec) 
Heartbeat CPU 1 instructions: 160000003 cycles: 351873900 heartbeat IPC: 0.499598 cumulative IPC: 0.329195 (Simulation time: 1 hr 7 min 57 sec) 
Heartbeat CPU 2 instructions: 160000003 cycles: 352132353 heartbeat IPC: 0.498883 cumulative IPC: 0.32894 (Simulation time: 1 hr 8 min 1 sec) 
Heartbeat CPU 0 instructions: 170000003 cycles: 367699913 heartbeat IPC: 0.498397 cumulative IPC: 0.342882 (Simulation time: 1 hr 11 min 0 sec) 
Heartbeat CPU 3 instructions: 170000000 cycles: 368449370 heartbeat IPC: 0.498892 cumulative IPC: 0.342149 (Simulation time: 1 hr 11 min 8 sec) 
Heartbeat CPU 1 instructions: 170000000 cycles: 372084328 heartbeat IPC: 0.494794 cumulative IPC: 0.338639 (Simulation time: 1 hr 11 min 48 sec) 
Heartbeat CPU 2 instructions: 170000003 cycles: 372327461 heartbeat IPC: 0.495169 cumulative IPC: 0.338407 (Simulation time: 1 hr 11 min 51 sec) 
Heartbeat CPU 0 instructions: 180000003 cycles: 388526966 heartbeat IPC: 0.480145 cumulative IPC: 0.350591 (Simulation time: 1 hr 14 min 59 sec) 
Heartbeat CPU 3 instructions: 180000003 cycles: 389316079 heartbeat IPC: 0.479232 cumulative IPC: 0.349847 (Simulation time: 1 hr 15 min 9 sec) 
Heartbeat CPU 1 instructions: 180000003 cycles: 392990095 heartbeat IPC: 0.478337 cumulative IPC: 0.346422 (Simulation time: 1 hr 15 min 52 sec) 
Heartbeat CPU 2 instructions: 180000003 cycles: 393235790 heartbeat IPC: 0.478278 cumulative IPC: 0.346195 (Simulation time: 1 hr 15 min 55 sec) 
Heartbeat CPU 0 instructions: 190000002 cycles: 409456577 heartbeat IPC: 0.477792 cumulative IPC: 0.357388 (Simulation time: 1 hr 19 min 24 sec) 
Heartbeat CPU 3 instructions: 190000003 cycles: 410289838 heartbeat IPC: 0.476786 cumulative IPC: 0.356629 (Simulation time: 1 hr 19 min 35 sec) 
Heartbeat CPU 1 instructions: 190000001 cycles: 414261064 heartbeat IPC: 0.470124 cumulative IPC: 0.353057 (Simulation time: 1 hr 20 min 24 sec) 
Heartbeat CPU 2 instructions: 190000002 cycles: 414552581 heartbeat IPC: 0.469114 cumulative IPC: 0.352798 (Simulation time: 1 hr 20 min 26 sec) 
Heartbeat CPU 0 instructions: 200000001 cycles: 460617687 heartbeat IPC: 0.195461 cumulative IPC: 0.338682 (Simulation time: 1 hr 26 min 22 sec) 
Heartbeat CPU 3 instructions: 200000001 cycles: 462501317 heartbeat IPC: 0.191529 cumulative IPC: 0.337248 (Simulation time: 1 hr 26 min 34 sec) 
Heartbeat CPU 1 instructions: 200000001 cycles: 475954015 heartbeat IPC: 0.162093 cumulative IPC: 0.327347 (Simulation time: 1 hr 28 min 7 sec) 
Heartbeat CPU 2 instructions: 200000001 cycles: 475981462 heartbeat IPC: 0.16279 cumulative IPC: 0.327328 (Simulation time: 1 hr 28 min 8 sec) 
Heartbeat CPU 0 instructions: 210000003 cycles: 512182807 heartbeat IPC: 0.19393 cumulative IPC: 0.323587 (Simulation time: 1 hr 32 min 47 sec) 
Heartbeat CPU 3 instructions: 210000001 cycles: 513172082 heartbeat IPC: 0.197352 cumulative IPC: 0.322941 (Simulation time: 1 hr 32 min 57 sec) 
Heartbeat CPU 2 instructions: 210000001 cycles: 521494129 heartbeat IPC: 0.219719 cumulative IPC: 0.317606 (Simulation time: 1 hr 34 min 26 sec) 
Heartbeat CPU 1 instructions: 210000001 cycles: 521538663 heartbeat IPC: 0.219372 cumulative IPC: 0.317578 (Simulation time: 1 hr 34 min 27 sec) 
Heartbeat CPU 0 instructions: 220000000 cycles: 536807182 heartbeat IPC: 0.406102 cumulative IPC: 0.327501 (Simulation time: 1 hr 37 min 7 sec) 
Heartbeat CPU 3 instructions: 220000000 cycles: 537747110 heartbeat IPC: 0.406917 cumulative IPC: 0.326909 (Simulation time: 1 hr 37 min 19 sec) 
Heartbeat CPU 2 instructions: 220000000 cycles: 545244119 heartbeat IPC: 0.421053 cumulative IPC: 0.322263 (Simulation time: 1 hr 38 min 49 sec) 
Heartbeat CPU 1 instructions: 220000000 cycles: 545311820 heartbeat IPC: 0.420642 cumulative IPC: 0.322222 (Simulation time: 1 hr 38 min 50 sec) 
Heartbeat CPU 0 instructions: 230000002 cycles: 561397141 heartbeat IPC: 0.40667 cumulative IPC: 0.331082 (Simulation time: 1 hr 41 min 59 sec) 
Heartbeat CPU 3 instructions: 230000002 cycles: 562321040 heartbeat IPC: 0.406935 cumulative IPC: 0.33052 (Simulation time: 1 hr 42 min 9 sec) 
Heartbeat CPU 2 instructions: 230000002 cycles: 575176980 heartbeat IPC: 0.334081 cumulative IPC: 0.322898 (Simulation time: 1 hr 43 min 57 sec) 
Heartbeat CPU 1 instructions: 230000002 cycles: 575532900 heartbeat IPC: 0.330895 cumulative IPC: 0.322692 (Simulation time: 1 hr 44 min 0 sec) 
Heartbeat CPU 0 instructions: 240000003 cycles: 619171306 heartbeat IPC: 0.173088 cumulative IPC: 0.315905 (Simulation time: 1 hr 48 min 41 sec) 
Heartbeat CPU 3 instructions: 240000003 cycles: 621385031 heartbeat IPC: 0.169308 cumulative IPC: 0.314747 (Simulation time: 1 hr 48 min 54 sec) 
Heartbeat CPU 2 instructions: 240000002 cycles: 641916068 heartbeat IPC: 0.149837 cumulative IPC: 0.304394 (Simulation time: 1 hr 51 min 2 sec) 
Heartbeat CPU 1 instructions: 240000003 cycles: 642336483 heartbeat IPC: 0.149693 cumulative IPC: 0.304189 (Simulation time: 1 hr 51 min 5 sec) 
Heartbeat CPU 0 instructions: 250000003 cycles: 664561633 heartbeat IPC: 0.220311 cumulative IPC: 0.309197 (Simulation time: 1 hr 54 min 12 sec) 
Finished CPU 0 instructions: 200000003 cycles: 646836529 cumulative IPC: 0.309197 (Simulation time: 1 hr 54 min 12 sec) 
Heartbeat CPU 3 instructions: 250000003 cycles: 665522395 heartbeat IPC: 0.226565 cumulative IPC: 0.308739 (Simulation time: 1 hr 54 min 23 sec) 
Finished CPU 3 instructions: 200000001 cycles: 647797273 cumulative IPC: 0.308739 (Simulation time: 1 hr 54 min 23 sec) 
Heartbeat CPU 2 instructions: 250000003 cycles: 674877301 heartbeat IPC: 0.303387 cumulative IPC: 0.304343 (Simulation time: 1 hr 56 min 9 sec) 
Finished CPU 2 instructions: 200000000 cycles: 657152182 cumulative IPC: 0.304343 (Simulation time: 1 hr 56 min 9 sec) 
Heartbeat CPU 1 instructions: 250000003 cycles: 675116812 heartbeat IPC: 0.305061 cumulative IPC: 0.304233 (Simulation time: 1 hr 56 min 12 sec) 
Finished CPU 1 instructions: 200000003 cycles: 657391698 cumulative IPC: 0.304233 (Simulation time: 1 hr 56 min 12 sec) 

ChampSim completed all CPUs

Total Simulation Statistics (not including warmup)

CPU 0 cumulative IPC: 0.311412 instructions: 204719817 cycles: 657391698
ITLB TOTAL     ACCESS:   42036972  HIT:   42036972  MISS:          0  HIT %:        100  MISS %:          0   MPKI: 0
ITLB LOAD      ACCESS:          0  HIT:          0  MISS:          0  HIT %:       -nan  MISS %:       -nan   MPKI: 0
ITLB RFO       ACCESS:          0  HIT:          0  MISS:          0  HIT %:       -nan  MISS %:       -nan   MPKI: 0
ITLB PREFETCH  ACCESS:          0  HIT:          0  MISS:          0  HIT %:       -nan  MISS %:       -nan   MPKI: 0
ITLB WRITEBACK ACCESS:          0  HIT:          0  MISS:          0  HIT %:       -nan  MISS %:       -nan   MPKI: 0
DTLB TOTAL     ACCESS:   21910272  HIT:   21825805  MISS:      84467  HIT %:    99.6145  MISS %:   0.385513   MPKI: 0.412598
DTLB LOAD      ACCESS:          0  HIT:          0  MISS:          0  HIT %:       -nan  MISS %:       -nan   MPKI: 0
DTLB RFO       ACCESS:          0  HIT:          0  MISS:          0  HIT %:       -nan  MISS %:       -nan   MPKI: 0
DTLB PREFETCH  ACCESS:          0  HIT:          0  MISS:          0  HIT %:       -nan  MISS %:       -nan   MPKI: 0
DTLB WRITEBACK ACCESS:          0  HIT:          0  MISS:          0  HIT %:       -nan  MISS %:       -nan   MPKI: 0
STLB TOTAL     ACCESS:    3758134  HIT:    3673667  MISS:      84467  HIT %:    97.7524  MISS %:    2.24758   MPKI: 0.412598
STLB LOAD      ACCESS:          0  HIT:          0  MISS:          0  HIT %:       -nan  MISS %:       -nan   MPKI: 0
STLB RFO       ACCESS:          0  HIT:          0  MISS:          0  HIT %:       -nan  MISS %:       -nan   MPKI: 0
STLB PREFETCH  ACCESS:          0  HIT:          0  MISS:          0  HIT %:       -nan  MISS %:       -nan   MPKI: 0
STLB WRITEBACK ACCESS:          0  HIT:          0  MISS:          0  HIT %:       -nan  MISS %:       -nan   MPKI: 0
L1D TOTAL     ACCESS:   29677162  HIT:   24272446  MISS:    5404716  HIT %:    81.7883  MISS %:    18.2117   MPKI: 26.4006
L1D LOAD      ACCESS:   16270665  HIT:   13681468  MISS:    2589197  HIT %:    84.0867  MISS %:    15.9133   MPKI: 12.6475
L1D RFO       ACCESS:    8624757  HIT:    8624717  MISS:         40  HIT %:    99.9995  MISS %: 0.000463781   MPKI: 0.000195389
L1D PREFETCH  ACCESS:    4781740  HIT:    1966261  MISS:    2815479  HIT %:    41.1202  MISS %:    58.8798   MPKI: 13.7528
L1D WRITEBACK ACCESS:          0  HIT:          0  MISS:          0  HIT %:       -nan  MISS %:       -nan   MPKI: 0
L1I TOTAL     ACCESS:   46520284  HIT:   46520283  MISS:          1  HIT %:        100  MISS %: 2.1496e-06   MPKI: 4.88472e-06
L1I LOAD      ACCESS:   46520284  HIT:   46520283  MISS:          1  HIT %:        100  MISS %: 2.1496e-06   MPKI: 4.88472e-06
L1I RFO       ACCESS:          0  HIT:          0  MISS:          0  HIT %:       -nan  MISS %:       -nan   MPKI: 0
L1I PREFETCH  ACCESS:          0  HIT:          0  MISS:          0  HIT %:       -nan  MISS %:       -nan   MPKI: 0
L1I WRITEBACK ACCESS:          0  HIT:          0  MISS:          0  HIT %:       -nan  MISS %:       -nan   MPKI: 0
L2C TOTAL     ACCESS:    7806579  HIT:    1337493  MISS:    6469086  HIT %:    17.1329  MISS %:    82.8671   MPKI: 31.5997
L2C LOAD      ACCESS:     230510  HIT:          0  MISS:     230510  HIT %:          0  MISS %:        100   MPKI: 1.12598
L2C RFO       ACCESS:         40  HIT:          0  MISS:         40  HIT %:          0  MISS %:        100   MPKI: 0.000195389
L2C PREFETCH  ACCESS:    5174167  HIT:          0  MISS:    5174167  HIT %:          0  MISS %:        100   MPKI: 25.2744
L2C WRITEBACK ACCESS:    2317395  HIT:    1263606  MISS:    1053789  HIT %:     54.527  MISS %:     45.473   MPKI: 5.14747
PSCL5 TOTAL     ACCESS:      84467  HIT:      84467  MISS:          0  HIT %:        100  MISS %:          0   MPKI: 0
PSCL5 LOAD      ACCESS:          0  HIT:          0  MISS:          0  HIT %:       -nan  MISS %:       -nan   MPKI: 0
PSCL5 RFO       ACCESS:          0  HIT:          0  MISS:          0  HIT %:       -nan  MISS %:       -nan   MPKI: 0
PSCL5 PREFETCH  ACCESS:          0  HIT:          0  MISS:          0  HIT %:       -nan  MISS %:       -nan   MPKI: 0
PSCL5 WRITEBACK ACCESS:          0  HIT:          0  MISS:          0  HIT %:       -nan  MISS %:       -nan   MPKI: 0
PSCL4 TOTAL     ACCESS:      84467  HIT:      84467  MISS:          0  HIT %:        100  MISS %:          0   MPKI: 0
PSCL4 LOAD      ACCESS:          0  HIT:          0  MISS:          0  HIT %:       -nan  MISS %:       -nan   MPKI: 0
PSCL4 RFO       ACCESS:          0  HIT:          0  MISS:          0  HIT %:       -nan  MISS %:       -nan   MPKI: 0
PSCL4 PREFETCH  ACCESS:          0  HIT:          0  MISS:          0  HIT %:       -nan  MISS %:       -nan   MPKI: 0
PSCL4 WRITEBACK ACCESS:          0  HIT:          0  MISS:          0  HIT %:       -nan  MISS %:       -nan   MPKI: 0
PSCL3 TOTAL     ACCESS:      84467  HIT:      84467  MISS:          0  HIT %:        100  MISS %:          0   MPKI: 0
PSCL3 LOAD      ACCESS:          0  HIT:          0  MISS:          0  HIT %:       -nan  MISS %:       -nan   MPKI: 0
PSCL3 RFO       ACCESS:          0  HIT:          0  MISS:          0  HIT %:       -nan  MISS %:       -nan   MPKI: 0
PSCL3 PREFETCH  ACCESS:          0  HIT:          0  MISS:          0  HIT %:       -nan  MISS %:       -nan   MPKI: 0
PSCL3 WRITEBACK ACCESS:          0  HIT:          0  MISS:          0  HIT %:       -nan  MISS %:       -nan   MPKI: 0
PSCL2 TOTAL     ACCESS:      84467  HIT:      84467  MISS:          0  HIT %:        100  MISS %:          0   MPKI: 0
PSCL2 LOAD      ACCESS:          0  HIT:          0  MISS:          0  HIT %:       -nan  MISS %:       -nan   MPKI: 0
PSCL2 RFO       ACCESS:          0  HIT:          0  MISS:          0  HIT %:       -nan  MISS %:       -nan   MPKI: 0
PSCL2 PREFETCH  ACCESS:          0  HIT:          0  MISS:          0  HIT %:       -nan  MISS %:       -nan   MPKI: 0
PSCL2 WRITEBACK ACCESS:          0  HIT:          0  MISS:          0  HIT %:       -nan  MISS %:       -nan   MPKI: 0

stream: 
stream:times selected: 9202002
stream:pref_filled: 4106563
stream:pref_useful: 4106479
stream:pref_late: 2337892
stream:misses: 14973
stream:misses_by_poll: 0

CS: 
CS:times selected: 6659990
CS:pref_filled: 9994
CS:pref_useful: 9994
CS:pref_late: 6444
CS:misses: 2936410
CS:misses_by_poll: 91

CPLX: 
CPLX:times selected: 2541917
CPLX:pref_filled: 3672
CPLX:pref_useful: 3672
CPLX:pref_late: 3993
CPLX:misses: 1672964
CPLX:misses_by_poll: 43

NL_L1: 
NL:times selected: 763
NL:pref_filled: 13
NL:pref_useful: 13
NL:pref_late: 15
NL:misses: 646
NL:misses_by_poll: 0

total selections: 18404672
total_filled: 2815479
total_useful: 2815415
total_late: 2359466
total_polluted: 134
total_misses_after_warmup: 4587099
conflicts: 9
Degree Incremented Times: 913335
Degree Decremented Times: 0

L1 IP Table Write Accesses: 72175880
L1 IP Table Read Accesses: 72175871
L1 RST Write Accesses: 31104713
L1 RST Read Accesses: 62209426
L1 CSPT Write Accesses: 31104713
L1 CSPT Read Accesses: 60622273
L1 RR Filter Tag Write Accesses: 31745960
L1 RR Filter Tag Read Accesses: 6345962903
L1 IP Table Tag Write Accesses: 72175880
L1 IP Table Tag Read Accesses: 72175880
L1 RST Tag Write Accesses: 0
L1 RST Tag Read Accesses: 280212515
L1 RR Filter Write Accesses: 0
L1 RR Filter Read Accesses: 263821004
test: 414122
LLC TOTAL     ACCESS:    7731992  HIT:    2191435  MISS:    5540557  HIT %:    28.3424  MISS %:    71.6576   MPKI: 27.0641
LLC LOAD      ACCESS:     230510  HIT:          0  MISS:     230510  HIT %:          0  MISS %:        100   MPKI: 1.12598
LLC RFO       ACCESS:         40  HIT:          0  MISS:         40  HIT %:          0  MISS %:        100   MPKI: 0.000195389
LLC PREFETCH  ACCESS:    5174167  HIT:          0  MISS:    5174167  HIT %:          0  MISS %:        100   MPKI: 25.2744
LLC WRITEBACK ACCESS:    2316695  HIT:    2191431  MISS:     125264  HIT %:     94.593  MISS %:    5.40701   MPKI: 0.61188

RAW hits: 53
Loads Generated: 64855106
Loads sent to L1D: 64855042
Stores Generated: 8624838
Stores sent to L1D: 8624838

CPU 1 cumulative IPC: 0.304233 instructions: 200000003 cycles: 657391698
ITLB TOTAL     ACCESS:   41011514  HIT:   41011514  MISS:          0  HIT %:        100  MISS %:          0   MPKI: 0
ITLB LOAD      ACCESS:          0  HIT:          0  MISS:          0  HIT %:       -nan  MISS %:       -nan   MPKI: 0
ITLB RFO       ACCESS:          0  HIT:          0  MISS:          0  HIT %:       -nan  MISS %:       -nan   MPKI: 0
ITLB PREFETCH  ACCESS:          0  HIT:          0  MISS:          0  HIT %:       -nan  MISS %:       -nan   MPKI: 0
ITLB WRITEBACK ACCESS:          0  HIT:          0  MISS:          0  HIT %:       -nan  MISS %:       -nan   MPKI: 0
DTLB TOTAL     ACCESS:   21508468  HIT:   21425665  MISS:      82803  HIT %:     99.615  MISS %:   0.384979   MPKI: 0.414015
DTLB LOAD      ACCESS:          0  HIT:          0  MISS:          0  HIT %:       -nan  MISS %:       -nan   MPKI: 0
DTLB RFO       ACCESS:          0  HIT:          0  MISS:          0  HIT %:       -nan  MISS %:       -nan   MPKI: 0
DTLB PREFETCH  ACCESS:          0  HIT:          0  MISS:          0  HIT %:       -nan  MISS %:       -nan   MPKI: 0
DTLB WRITEBACK ACCESS:          0  HIT:          0  MISS:          0  HIT %:       -nan  MISS %:       -nan   MPKI: 0
STLB TOTAL     ACCESS:    3673782  HIT:    3590979  MISS:      82803  HIT %:    97.7461  MISS %:    2.25389   MPKI: 0.414015
STLB LOAD      ACCESS:          0  HIT:          0  MISS:          0  HIT %:       -nan  MISS %:       -nan   MPKI: 0
STLB RFO       ACCESS:          0  HIT:          0  MISS:          0  HIT %:       -nan  MISS %:       -nan   MPKI: 0
STLB PREFETCH  ACCESS:          0  HIT:          0  MISS:          0  HIT %:       -nan  MISS %:       -nan   MPKI: 0
STLB WRITEBACK ACCESS:          0  HIT:          0  MISS:          0  HIT %:       -nan  MISS %:       -nan   MPKI: 0
L1D TOTAL     ACCESS:   29186309  HIT:   23888113  MISS:    5298196  HIT %:     81.847  MISS %:     18.153   MPKI: 26.491
L1D LOAD      ACCESS:   15877267  HIT:   13318599  MISS:    2558668  HIT %:    83.8847  MISS %:    16.1153   MPKI: 12.7933
L1D RFO       ACCESS:    8608117  HIT:    8608077  MISS:         40  HIT %:    99.9995  MISS %: 0.000464678   MPKI: 0.0002
L1D PREFETCH  ACCESS:    4700925  HIT:    1961437  MISS:    2739488  HIT %:    41.7245  MISS %:    58.2755   MPKI: 13.6974
L1D WRITEBACK ACCESS:          0  HIT:          0  MISS:          0  HIT %:       -nan  MISS %:       -nan   MPKI: 0
L1I TOTAL     ACCESS:   45357450  HIT:   45357449  MISS:          1  HIT %:        100  MISS %: 2.20471e-06   MPKI: 5e-06
L1I LOAD      ACCESS:   45357450  HIT:   45357449  MISS:          1  HIT %:        100  MISS %: 2.20471e-06   MPKI: 5e-06
L1I RFO       ACCESS:          0  HIT:          0  MISS:          0  HIT %:       -nan  MISS %:       -nan   MPKI: 0
L1I PREFETCH  ACCESS:          0  HIT:          0  MISS:          0  HIT %:       -nan  MISS %:       -nan   MPKI: 0
L1I WRITEBACK ACCESS:          0  HIT:          0  MISS:          0  HIT %:       -nan  MISS %:       -nan   MPKI: 0
L2C TOTAL     ACCESS:    7688408  HIT:    1320483  MISS:    6367925  HIT %:     17.175  MISS %:     82.825   MPKI: 31.8396
L2C LOAD      ACCESS:     226159  HIT:          0  MISS:     226159  HIT %:          0  MISS %:        100   MPKI: 1.13079
L2C RFO       ACCESS:         40  HIT:          0  MISS:         40  HIT %:          0  MISS %:        100   MPKI: 0.0002
L2C PREFETCH  ACCESS:    5071998  HIT:          0  MISS:    5071998  HIT %:          0  MISS %:        100   MPKI: 25.36
L2C WRITEBACK ACCESS:    2307408  HIT:    1248051  MISS:    1059357  HIT %:    54.0889  MISS %:    45.9111   MPKI: 5.29678
PSCL5 TOTAL     ACCESS:      82803  HIT:      82803  MISS:          0  HIT %:        100  MISS %:          0   MPKI: 0
PSCL5 LOAD      ACCESS:          0  HIT:          0  MISS:          0  HIT %:       -nan  MISS %:       -nan   MPKI: 0
PSCL5 RFO       ACCESS:          0  HIT:          0  MISS:          0  HIT %:       -nan  MISS %:       -nan   MPKI: 0
PSCL5 PREFETCH  ACCESS:          0  HIT:          0  MISS:          0  HIT %:       -nan  MISS %:       -nan   MPKI: 0
PSCL5 WRITEBACK ACCESS:          0  HIT:          0  MISS:          0  HIT %:       -nan  MISS %:       -nan   MPKI: 0
PSCL4 TOTAL     ACCESS:      82803  HIT:      82803  MISS:          0  HIT %:        100  MISS %:          0   MPKI: 0
PSCL4 LOAD      ACCESS:          0  HIT:          0  MISS:          0  HIT %:       -nan  MISS %:       -nan   MPKI: 0
PSCL4 RFO       ACCESS:          0  HIT:          0  MISS:          0  HIT %:       -nan  MISS %:       -nan   MPKI: 0
PSCL4 PREFETCH  ACCESS:          0  HIT:          0  MISS:          0  HIT %:       -nan  MISS %:       -nan   MPKI: 0
PSCL4 WRITEBACK ACCESS:          0  HIT:          0  MISS:          0  HIT %:       -nan  MISS %:       -nan   MPKI: 0
PSCL3 TOTAL     ACCESS:      82803  HIT:      82803  MISS:          0  HIT %:        100  MISS %:          0   MPKI: 0
PSCL3 LOAD      ACCESS:          0  HIT:          0  MISS:          0  HIT %:       -nan  MISS %:       -nan   MPKI: 0
PSCL3 RFO       ACCESS:          0  HIT:          0  MISS:          0  HIT %:       -nan  MISS %:       -nan   MPKI: 0
PSCL3 PREFETCH  ACCESS:          0  HIT:          0  MISS:          0  HIT %:       -nan  MISS %:       -nan   MPKI: 0
PSCL3 WRITEBACK ACCESS:          0  HIT:          0  MISS:          0  HIT %:       -nan  MISS %:       -nan   MPKI: 0
PSCL2 TOTAL     ACCESS:      82803  HIT:      82803  MISS:          0  HIT %:        100  MISS %:          0   MPKI: 0
PSCL2 LOAD      ACCESS:          0  HIT:          0  MISS:          0  HIT %:       -nan  MISS %:       -nan   MPKI: 0
PSCL2 RFO       ACCESS:          0  HIT:          0  MISS:          0  HIT %:       -nan  MISS %:       -nan   MPKI: 0
PSCL2 PREFETCH  ACCESS:          0  HIT:          0  MISS:          0  HIT %:       -nan  MISS %:       -nan   MPKI: 0
PSCL2 WRITEBACK ACCESS:          0  HIT:          0  MISS:          0  HIT %:       -nan  MISS %:       -nan   MPKI: 0

stream: 
stream:times selected: 9018918
stream:pref_filled: 2730590
stream:pref_useful: 2730544
stream:pref_late: 2310990
stream:misses: 14705
stream:misses_by_poll: 0

CS: 
CS:times selected: 6554412
CS:pref_filled: 5226
CS:pref_useful: 5217
CS:pref_late: 6245
CS:misses: 4447176
CS:misses_by_poll: 78

CPLX: 
CPLX:times selected: 2464407
CPLX:pref_filled: 3653
CPLX:pref_useful: 3653
CPLX:pref_late: 3949
CPLX:misses: 1632154
CPLX:misses_by_poll: 42

NL_L1: 
NL:times selected: 781
NL:pref_filled: 20
NL:pref_useful: 20
NL:pref_late: 17
NL:misses: 663
NL:misses_by_poll: 0

total selections: 18038518
total_filled: 2739488
total_useful: 2739433
total_late: 2332510
total_polluted: 120
total_misses_after_warmup: 4522337
conflicts: 9
Degree Incremented Times: 913335
Degree Decremented Times: 0

L1 IP Table Write Accesses: 72175880
L1 IP Table Read Accesses: 72175871
L1 RST Write Accesses: 31104713
L1 RST Read Accesses: 62209426
L1 CSPT Write Accesses: 31104713
L1 CSPT Read Accesses: 60622273
L1 RR Filter Tag Write Accesses: 31745960
L1 RR Filter Tag Read Accesses: 6345962903
L1 IP Table Tag Write Accesses: 72175880
L1 IP Table Tag Read Accesses: 72175880
L1 RST Tag Write Accesses: 0
L1 RST Tag Read Accesses: 280212515
L1 RR Filter Write Accesses: 0
L1 RR Filter Read Accesses: 263821004
test: 414122
LLC TOTAL     ACCESS:    7615268  HIT:     301748  MISS:    7313520  HIT %:    3.96241  MISS %:    96.0376   MPKI: 36.5676
LLC LOAD      ACCESS:     226159  HIT:          0  MISS:     226159  HIT %:          0  MISS %:        100   MPKI: 1.13079
LLC RFO       ACCESS:         40  HIT:          0  MISS:         40  HIT %:          0  MISS %:        100   MPKI: 0.0002
LLC PREFETCH  ACCESS:    5071998  HIT:          0  MISS:    5071998  HIT %:          0  MISS %:        100   MPKI: 25.36
LLC WRITEBACK ACCESS:    2306700  HIT:     301745  MISS:    2004955  HIT %:    13.0812  MISS %:    86.9188   MPKI: 10.0248

RAW hits: 53
Loads Generated: 63576970
Loads sent to L1D: 63576913
Stores Generated: 8608198
Stores sent to L1D: 8608198

CPU 2 cumulative IPC: 0.304406 instructions: 200113905 cycles: 657391698
ITLB TOTAL     ACCESS:   41042810  HIT:   41042810  MISS:          0  HIT %:        100  MISS %:          0   MPKI: 0
ITLB LOAD      ACCESS:          0  HIT:          0  MISS:          0  HIT %:       -nan  MISS %:       -nan   MPKI: 0
ITLB RFO       ACCESS:          0  HIT:          0  MISS:          0  HIT %:       -nan  MISS %:       -nan   MPKI: 0
ITLB PREFETCH  ACCESS:          0  HIT:          0  MISS:          0  HIT %:       -nan  MISS %:       -nan   MPKI: 0
ITLB WRITEBACK ACCESS:          0  HIT:          0  MISS:          0  HIT %:       -nan  MISS %:       -nan   MPKI: 0
DTLB TOTAL     ACCESS:   21512880  HIT:   21430037  MISS:      82843  HIT %:    99.6149  MISS %:   0.385086   MPKI: 0.413979
DTLB LOAD      ACCESS:          0  HIT:          0  MISS:          0  HIT %:       -nan  MISS %:       -nan   MPKI: 0
DTLB RFO       ACCESS:          0  HIT:          0  MISS:          0  HIT %:       -nan  MISS %:       -nan   MPKI: 0
DTLB PREFETCH  ACCESS:          0  HIT:          0  MISS:          0  HIT %:       -nan  MISS %:       -nan   MPKI: 0
DTLB WRITEBACK ACCESS:          0  HIT:          0  MISS:          0  HIT %:       -nan  MISS %:       -nan   MPKI: 0
STLB TOTAL     ACCESS:    3671164  HIT:    3588321  MISS:      82843  HIT %:    97.7434  MISS %:    2.25659   MPKI: 0.413979
STLB LOAD      ACCESS:          0  HIT:          0  MISS:          0  HIT %:       -nan  MISS %:       -nan   MPKI: 0
STLB RFO       ACCESS:          0  HIT:          0  MISS:          0  HIT %:       -nan  MISS %:       -nan   MPKI: 0
STLB PREFETCH  ACCESS:          0  HIT:          0  MISS:          0  HIT %:       -nan  MISS %:       -nan   MPKI: 0
STLB WRITEBACK ACCESS:          0  HIT:          0  MISS:          0  HIT %:       -nan  MISS %:       -nan   MPKI: 0
L1D TOTAL     ACCESS:   29172740  HIT:   23871973  MISS:    5300767  HIT %:    81.8297  MISS %:    18.1703   MPKI: 26.4887
L1D LOAD      ACCESS:   15878765  HIT:   13310370  MISS:    2568395  HIT %:     83.825  MISS %:     16.175   MPKI: 12.8347
L1D RFO       ACCESS:    8608518  HIT:    8608478  MISS:         40  HIT %:    99.9995  MISS %: 0.000464656   MPKI: 0.000199886
L1D PREFETCH  ACCESS:    4685457  HIT:    1953125  MISS:    2732332  HIT %:    41.6848  MISS %:    58.3152   MPKI: 13.6539
L1D WRITEBACK ACCESS:          0  HIT:          0  MISS:          0  HIT %:       -nan  MISS %:       -nan   MPKI: 0
L1I TOTAL     ACCESS:   45393104  HIT:   45393103  MISS:          1  HIT %:        100  MISS %: 2.20298e-06   MPKI: 4.99715e-06
L1I LOAD      ACCESS:   45393104  HIT:   45393103  MISS:          1  HIT %:        100  MISS %: 2.20298e-06   MPKI: 4.99715e-06
L1I RFO       ACCESS:          0  HIT:          0  MISS:          0  HIT %:       -nan  MISS %:       -nan   MPKI: 0
L1I PREFETCH  ACCESS:          0  HIT:          0  MISS:          0  HIT %:       -nan  MISS %:       -nan   MPKI: 0
L1I WRITEBACK ACCESS:          0  HIT:          0  MISS:          0  HIT %:       -nan  MISS %:       -nan   MPKI: 0
L2C TOTAL     ACCESS:    7691259  HIT:    1318680  MISS:    6372579  HIT %:    17.1452  MISS %:    82.8548   MPKI: 31.8448
L2C LOAD      ACCESS:     227612  HIT:          0  MISS:     227612  HIT %:          0  MISS %:        100   MPKI: 1.13741
L2C RFO       ACCESS:         40  HIT:          0  MISS:         40  HIT %:          0  MISS %:        100   MPKI: 0.000199886
L2C PREFETCH  ACCESS:    5073116  HIT:          0  MISS:    5073116  HIT %:          0  MISS %:        100   MPKI: 25.3511
L2C WRITEBACK ACCESS:    2307648  HIT:    1246215  MISS:    1061433  HIT %:    54.0037  MISS %:    45.9963   MPKI: 5.30414
PSCL5 TOTAL     ACCESS:      82843  HIT:      82843  MISS:          0  HIT %:        100  MISS %:          0   MPKI: 0
PSCL5 LOAD      ACCESS:          0  HIT:          0  MISS:          0  HIT %:       -nan  MISS %:       -nan   MPKI: 0
PSCL5 RFO       ACCESS:          0  HIT:          0  MISS:          0  HIT %:       -nan  MISS %:       -nan   MPKI: 0
PSCL5 PREFETCH  ACCESS:          0  HIT:          0  MISS:          0  HIT %:       -nan  MISS %:       -nan   MPKI: 0
PSCL5 WRITEBACK ACCESS:          0  HIT:          0  MISS:          0  HIT %:       -nan  MISS %:       -nan   MPKI: 0
PSCL4 TOTAL     ACCESS:      82843  HIT:      82843  MISS:          0  HIT %:        100  MISS %:          0   MPKI: 0
PSCL4 LOAD      ACCESS:          0  HIT:          0  MISS:          0  HIT %:       -nan  MISS %:       -nan   MPKI: 0
PSCL4 RFO       ACCESS:          0  HIT:          0  MISS:          0  HIT %:       -nan  MISS %:       -nan   MPKI: 0
PSCL4 PREFETCH  ACCESS:          0  HIT:          0  MISS:          0  HIT %:       -nan  MISS %:       -nan   MPKI: 0
PSCL4 WRITEBACK ACCESS:          0  HIT:          0  MISS:          0  HIT %:       -nan  MISS %:       -nan   MPKI: 0
PSCL3 TOTAL     ACCESS:      82843  HIT:      82843  MISS:          0  HIT %:        100  MISS %:          0   MPKI: 0
PSCL3 LOAD      ACCESS:          0  HIT:          0  MISS:          0  HIT %:       -nan  MISS %:       -nan   MPKI: 0
PSCL3 RFO       ACCESS:          0  HIT:          0  MISS:          0  HIT %:       -nan  MISS %:       -nan   MPKI: 0
PSCL3 PREFETCH  ACCESS:          0  HIT:          0  MISS:          0  HIT %:       -nan  MISS %:       -nan   MPKI: 0
PSCL3 WRITEBACK ACCESS:          0  HIT:          0  MISS:          0  HIT %:       -nan  MISS %:       -nan   MPKI: 0
PSCL2 TOTAL     ACCESS:      82843  HIT:      82843  MISS:          0  HIT %:        100  MISS %:          0   MPKI: 0
PSCL2 LOAD      ACCESS:          0  HIT:          0  MISS:          0  HIT %:       -nan  MISS %:       -nan   MPKI: 0
PSCL2 RFO       ACCESS:          0  HIT:          0  MISS:          0  HIT %:       -nan  MISS %:       -nan   MPKI: 0
PSCL2 PREFETCH  ACCESS:          0  HIT:          0  MISS:          0  HIT %:       -nan  MISS %:       -nan   MPKI: 0
PSCL2 WRITEBACK ACCESS:          0  HIT:          0  MISS:          0  HIT %:       -nan  MISS %:       -nan   MPKI: 0

stream: 
stream:times selected: 9016589
stream:pref_filled: 2723628
stream:pref_useful: 2723572
stream:pref_late: 2319360
stream:misses: 14797
stream:misses_by_poll: 0

CS: 
CS:times selected: 6539216
CS:pref_filled: 5194
CS:pref_useful: 5194
CS:pref_late: 6253
CS:misses: 4455733
CS:misses_by_poll: 101

CPLX: 
CPLX:times selected: 2477272
CPLX:pref_filled: 3495
CPLX:pref_useful: 3495
CPLX:pref_late: 3882
CPLX:misses: 1645081
CPLX:misses_by_poll: 39

NL_L1: 
NL:times selected: 807
NL:pref_filled: 15
NL:pref_useful: 15
NL:pref_late: 21
NL:misses: 705
NL:misses_by_poll: 0

total selections: 18033884
total_filled: 2732332
total_useful: 2732276
total_late: 2340784
total_polluted: 140
total_misses_after_warmup: 4533573
conflicts: 9
Degree Incremented Times: 913335
Degree Decremented Times: 0

L1 IP Table Write Accesses: 72175880
L1 IP Table Read Accesses: 72175871
L1 RST Write Accesses: 31104713
L1 RST Read Accesses: 62209426
L1 CSPT Write Accesses: 31104713
L1 CSPT Read Accesses: 60622273
L1 RR Filter Tag Write Accesses: 31745960
L1 RR Filter Tag Read Accesses: 6345962903
L1 IP Table Tag Write Accesses: 72175880
L1 IP Table Tag Read Accesses: 72175880
L1 RST Tag Write Accesses: 0
L1 RST Tag Read Accesses: 280212515
L1 RR Filter Write Accesses: 0
L1 RR Filter Read Accesses: 263821004
test: 414122
LLC TOTAL     ACCESS:    7618085  HIT:     297355  MISS:    7320730  HIT %:    3.90328  MISS %:    96.0967   MPKI: 36.5828
LLC LOAD      ACCESS:     227612  HIT:          0  MISS:     227612  HIT %:          0  MISS %:        100   MPKI: 1.13741
LLC RFO       ACCESS:         40  HIT:          0  MISS:         40  HIT %:          0  MISS %:        100   MPKI: 0.000199886
LLC PREFETCH  ACCESS:    5073116  HIT:          0  MISS:    5073116  HIT %:          0  MISS %:        100   MPKI: 25.3511
LLC WRITEBACK ACCESS:    2306939  HIT:     297354  MISS:    2009585  HIT %:    12.8895  MISS %:    87.1105   MPKI: 10.0422

RAW hits: 46
Loads Generated: 63607805
Loads sent to L1D: 63607759
Stores Generated: 8608598
Stores sent to L1D: 8608598

CPU 3 cumulative IPC: 0.310733 instructions: 204273440 cycles: 657391698
ITLB TOTAL     ACCESS:   41953576  HIT:   41953576  MISS:          0  HIT %:        100  MISS %:          0   MPKI: 0
ITLB LOAD      ACCESS:          0  HIT:          0  MISS:          0  HIT %:       -nan  MISS %:       -nan   MPKI: 0
ITLB RFO       ACCESS:          0  HIT:          0  MISS:          0  HIT %:       -nan  MISS %:       -nan   MPKI: 0
ITLB PREFETCH  ACCESS:          0  HIT:          0  MISS:          0  HIT %:       -nan  MISS %:       -nan   MPKI: 0
ITLB WRITEBACK ACCESS:          0  HIT:          0  MISS:          0  HIT %:       -nan  MISS %:       -nan   MPKI: 0
DTLB TOTAL     ACCESS:   21875528  HIT:   21791219  MISS:      84309  HIT %:    99.6146  MISS %:   0.385403   MPKI: 0.412726
DTLB LOAD      ACCESS:          0  HIT:          0  MISS:          0  HIT %:       -nan  MISS %:       -nan   MPKI: 0
DTLB RFO       ACCESS:          0  HIT:          0  MISS:          0  HIT %:       -nan  MISS %:       -nan   MPKI: 0
DTLB PREFETCH  ACCESS:          0  HIT:          0  MISS:          0  HIT %:       -nan  MISS %:       -nan   MPKI: 0
DTLB WRITEBACK ACCESS:          0  HIT:          0  MISS:          0  HIT %:       -nan  MISS %:       -nan   MPKI: 0
STLB TOTAL     ACCESS:    3758919  HIT:    3674610  MISS:      84309  HIT %:    97.7571  MISS %:    2.24291   MPKI: 0.412726
STLB LOAD      ACCESS:          0  HIT:          0  MISS:          0  HIT %:       -nan  MISS %:       -nan   MPKI: 0
STLB RFO       ACCESS:          0  HIT:          0  MISS:          0  HIT %:       -nan  MISS %:       -nan   MPKI: 0
STLB PREFETCH  ACCESS:          0  HIT:          0  MISS:          0  HIT %:       -nan  MISS %:       -nan   MPKI: 0
STLB WRITEBACK ACCESS:          0  HIT:          0  MISS:          0  HIT %:       -nan  MISS %:       -nan   MPKI: 0
L1D TOTAL     ACCESS:   29623673  HIT:   24229033  MISS:    5394640  HIT %:    81.7894  MISS %:    18.2106   MPKI: 26.4089
L1D LOAD      ACCESS:   16232786  HIT:   13631607  MISS:    2601179  HIT %:    83.9758  MISS %:    16.0242   MPKI: 12.7338
L1D RFO       ACCESS:    8623186  HIT:    8623146  MISS:         40  HIT %:    99.9995  MISS %: 0.000463866   MPKI: 0.000195816
L1D PREFETCH  ACCESS:    4767701  HIT:    1974280  MISS:    2793421  HIT %:    41.4095  MISS %:    58.5905   MPKI: 13.6749
L1D WRITEBACK ACCESS:          0  HIT:          0  MISS:          0  HIT %:       -nan  MISS %:       -nan   MPKI: 0
L1I TOTAL     ACCESS:   46426400  HIT:   46426399  MISS:          1  HIT %:        100  MISS %: 2.15395e-06   MPKI: 4.8954e-06
L1I LOAD      ACCESS:   46426400  HIT:   46426399  MISS:          1  HIT %:        100  MISS %: 2.15395e-06   MPKI: 4.8954e-06
L1I RFO       ACCESS:          0  HIT:          0  MISS:          0  HIT %:       -nan  MISS %:       -nan   MPKI: 0
L1I PREFETCH  ACCESS:          0  HIT:          0  MISS:          0  HIT %:       -nan  MISS %:       -nan   MPKI: 0
L1I WRITEBACK ACCESS:          0  HIT:          0  MISS:          0  HIT %:       -nan  MISS %:       -nan   MPKI: 0
L2C TOTAL     ACCESS:    7795400  HIT:    1322076  MISS:    6473324  HIT %:    16.9597  MISS %:    83.0403   MPKI: 31.6895
L2C LOAD      ACCESS:     226868  HIT:          0  MISS:     226868  HIT %:          0  MISS %:        100   MPKI: 1.11061
L2C RFO       ACCESS:         40  HIT:          0  MISS:         40  HIT %:          0  MISS %:        100   MPKI: 0.000195816
L2C PREFETCH  ACCESS:    5167733  HIT:          0  MISS:    5167733  HIT %:          0  MISS %:        100   MPKI: 25.2981
L2C WRITEBACK ACCESS:    2316450  HIT:    1248325  MISS:    1068125  HIT %:    53.8896  MISS %:    46.1104   MPKI: 5.2289
PSCL5 TOTAL     ACCESS:      84309  HIT:      84309  MISS:          0  HIT %:        100  MISS %:          0   MPKI: 0
PSCL5 LOAD      ACCESS:          0  HIT:          0  MISS:          0  HIT %:       -nan  MISS %:       -nan   MPKI: 0
PSCL5 RFO       ACCESS:          0  HIT:          0  MISS:          0  HIT %:       -nan  MISS %:       -nan   MPKI: 0
PSCL5 PREFETCH  ACCESS:          0  HIT:          0  MISS:          0  HIT %:       -nan  MISS %:       -nan   MPKI: 0
PSCL5 WRITEBACK ACCESS:          0  HIT:          0  MISS:          0  HIT %:       -nan  MISS %:       -nan   MPKI: 0
PSCL4 TOTAL     ACCESS:      84309  HIT:      84309  MISS:          0  HIT %:        100  MISS %:          0   MPKI: 0
PSCL4 LOAD      ACCESS:          0  HIT:          0  MISS:          0  HIT %:       -nan  MISS %:       -nan   MPKI: 0
PSCL4 RFO       ACCESS:          0  HIT:          0  MISS:          0  HIT %:       -nan  MISS %:       -nan   MPKI: 0
PSCL4 PREFETCH  ACCESS:          0  HIT:          0  MISS:          0  HIT %:       -nan  MISS %:       -nan   MPKI: 0
PSCL4 WRITEBACK ACCESS:          0  HIT:          0  MISS:          0  HIT %:       -nan  MISS %:       -nan   MPKI: 0
PSCL3 TOTAL     ACCESS:      84309  HIT:      84309  MISS:          0  HIT %:        100  MISS %:          0   MPKI: 0
PSCL3 LOAD      ACCESS:          0  HIT:          0  MISS:          0  HIT %:       -nan  MISS %:       -nan   MPKI: 0
PSCL3 RFO       ACCESS:          0  HIT:          0  MISS:          0  HIT %:       -nan  MISS %:       -nan   MPKI: 0
PSCL3 PREFETCH  ACCESS:          0  HIT:          0  MISS:          0  HIT %:       -nan  MISS %:       -nan   MPKI: 0
PSCL3 WRITEBACK ACCESS:          0  HIT:          0  MISS:          0  HIT %:       -nan  MISS %:       -nan   MPKI: 0
PSCL2 TOTAL     ACCESS:      84309  HIT:      84309  MISS:          0  HIT %:        100  MISS %:          0   MPKI: 0
PSCL2 LOAD      ACCESS:          0  HIT:          0  MISS:          0  HIT %:       -nan  MISS %:       -nan   MPKI: 0
PSCL2 RFO       ACCESS:          0  HIT:          0  MISS:          0  HIT %:       -nan  MISS %:       -nan   MPKI: 0
PSCL2 PREFETCH  ACCESS:          0  HIT:          0  MISS:          0  HIT %:       -nan  MISS %:       -nan   MPKI: 0
PSCL2 WRITEBACK ACCESS:          0  HIT:          0  MISS:          0  HIT %:       -nan  MISS %:       -nan   MPKI: 0

stream: 
stream:times selected: 9172250
stream:pref_filled: 2784154
stream:pref_useful: 2784093
stream:pref_late: 2353660
stream:misses: 15039
stream:misses_by_poll: 0

CS: 
CS:times selected: 6689807
CS:pref_filled: 5392
CS:pref_useful: 5392
CS:pref_late: 5820
CS:misses: 4534938
CS:misses_by_poll: 89

CPLX: 
CPLX:times selected: 2482344
CPLX:pref_filled: 3857
CPLX:pref_useful: 3857
CPLX:pref_late: 3786
CPLX:misses: 1628583
CPLX:misses_by_poll: 46

NL_L1: 
NL:times selected: 781
NL:pref_filled: 18
NL:pref_useful: 18
NL:pref_late: 14
NL:misses: 660
NL:misses_by_poll: 0

total selections: 18345182
total_filled: 2793421
total_useful: 2793360
total_late: 2374312
total_polluted: 135
total_misses_after_warmup: 4590770
conflicts: 9
Degree Incremented Times: 913335
Degree Decremented Times: 0

L1 IP Table Write Accesses: 72175880
L1 IP Table Read Accesses: 72175871
L1 RST Write Accesses: 31104713
L1 RST Read Accesses: 62209426
L1 CSPT Write Accesses: 31104713
L1 CSPT Read Accesses: 60622273
L1 RR Filter Tag Write Accesses: 31745960
L1 RR Filter Tag Read Accesses: 6345962903
L1 IP Table Tag Write Accesses: 72175880
L1 IP Table Tag Read Accesses: 72175880
L1 RST Tag Write Accesses: 0
L1 RST Tag Read Accesses: 280212515
L1 RR Filter Write Accesses: 0
L1 RR Filter Read Accesses: 263821004
test: 414122
LLC TOTAL     ACCESS:    7720951  HIT:    2184903  MISS:    5536048  HIT %:    28.2984  MISS %:    71.7016   MPKI: 27.1012
LLC LOAD      ACCESS:     226868  HIT:          0  MISS:     226868  HIT %:          0  MISS %:        100   MPKI: 1.11061
LLC RFO       ACCESS:         40  HIT:          0  MISS:         40  HIT %:          0  MISS %:        100   MPKI: 0.000195816
LLC PREFETCH  ACCESS:    5167733  HIT:          0  MISS:    5167733  HIT %:          0  MISS %:        100   MPKI: 25.2981
LLC WRITEBACK ACCESS:    2315752  HIT:    2184901  MISS:     130851  HIT %:    94.3495  MISS %:    5.65048   MPKI: 0.640568

RAW hits: 53
Loads Generated: 64734222
Loads sent to L1D: 64734165
Stores Generated: 8623268
Stores sent to L1D: 8623268

Region of Interest Statistics

CPU 0 cumulative IPC: 0.309197 instructions: 200000003 cycles: 646836529
ITLB TOTAL     ACCESS:   41005007  HIT:   41005007  MISS:          0  HIT %:        100  MISS %:          0   MPKI: 0
ITLB LOAD TRANSLATION ACCESS:   41005007  HIT:   41005007  MISS:          0  HIT %:        100  MISS %:          0   MPKI: 0
ITLB PREFETCH  REQUESTED:          0  ISSUED:          0  USEFUL:          0  USELESS:          0
ITLB USEFUL LOAD PREFETCHES:          0 PREFETCH ISSUED TO LOWER LEVEL:          0  ACCURACY: -nan
ITLB TIMELY PREFETCHES:          0 LATE PREFETCHES: 0 DROPPED PREFETCHES: 0
ITLB PREFETCHES SAME FILL-ORIGIN LEVEL: 0 DIFFERENT FILL-ORIGIN LEVEL: 0
ITLB AVERAGE MISS LATENCY: -nan cycles
ITLB RQ	ACCESS:   46520283	FORWARD:          0	MERGED:    4483312	TO_CACHE:   42036971

DTLB TOTAL     ACCESS:   21519738  HIT:   21436935  MISS:      82803  HIT %:    99.6152  MISS %:   0.384777   MPKI: 0.414015
DTLB LOAD TRANSLATION ACCESS:   21519738  HIT:   21436935  MISS:      82803  HIT %:    99.6152  MISS %:   0.384777   MPKI: 0.414015
DTLB PREFETCH  REQUESTED:          0  ISSUED:          0  USEFUL:          0  USELESS:          0
DTLB USEFUL LOAD PREFETCHES:          0 PREFETCH ISSUED TO LOWER LEVEL:          0  ACCURACY: -nan
DTLB TIMELY PREFETCHES:          0 LATE PREFETCHES: 0 DROPPED PREFETCHES: 0
DTLB PREFETCHES SAME FILL-ORIGIN LEVEL: 0 DIFFERENT FILL-ORIGIN LEVEL: 0
DTLB AVERAGE MISS LATENCY: 131.307 cycles
DTLB RQ	ACCESS:   26893405	FORWARD:          0	MERGED:    4878183	TO_CACHE:   22015222

STLB TOTAL     ACCESS:    3672539  HIT:    3589736  MISS:      82803  HIT %:    97.7453  MISS %:    2.25465   MPKI: 0.414015
STLB LOAD TRANSLATION ACCESS:      82803  HIT:          0  MISS:      82803  HIT %:          0  MISS %:        100   MPKI: 0.414015
STLB TRANSLATION FROM L1D PREFETCHER ACCESS:    3589736  HIT:    3589736  MISS:          0  HIT %:        100  MISS %:          0   MPKI: 0
STLB PREFETCH  REQUESTED:          0  ISSUED:          0  USEFUL:          0  USELESS:          0
STLB USEFUL LOAD PREFETCHES:          0 PREFETCH ISSUED TO LOWER LEVEL:          0  ACCURACY: -nan
STLB TIMELY PREFETCHES:          0 LATE PREFETCHES: 0 DROPPED PREFETCHES: 0
STLB PREFETCHES SAME FILL-ORIGIN LEVEL: 0 DIFFERENT FILL-ORIGIN LEVEL: 0
STLB AVERAGE MISS LATENCY: 122.126 cycles
STLB RQ	ACCESS:    8065876	FORWARD:          0	MERGED:    4307742	TO_CACHE:    3758134

STLB Hit, L1D data hit: 0
STLB Hit, L2C data hit: 0
STLB Hit, LLC data hit: 0
STLB Hit, LLC data miss: 0
STLB STLB hints to L2: 0
L1D TOTAL     ACCESS:   29189027  HIT:   23890824  MISS:    5298203  HIT %:    81.8486  MISS %:    18.1514   MPKI: 26.491
L1D LOAD      ACCESS:   15900290  HIT:   13360666  MISS:    2539624  HIT %:    84.0278  MISS %:    15.9722   MPKI: 12.6981
L1D RFO       ACCESS:    8608117  HIT:    8608077  MISS:         40  HIT %:    99.9995  MISS %: 0.000464678   MPKI: 0.0002
L1D PREFETCH  ACCESS:    4680620  HIT:    1922081  MISS:    2758539  HIT %:    41.0647  MISS %:    58.9353   MPKI: 13.7927
L1D PREFETCH  REQUESTED:   15962855  ISSUED:   15962855  USEFUL:    2815415  USELESS:         60
L1D USEFUL LOAD PREFETCHES:    2815415 PREFETCH ISSUED TO LOWER LEVEL:    5174167  ACCURACY: 54.4129
L1D TIMELY PREFETCHES:    2815415 LATE PREFETCHES: 2358688 DROPPED PREFETCHES: 0
L1D PREFETCHES SAME FILL-ORIGIN LEVEL: 5174167 DIFFERENT FILL-ORIGIN LEVEL: 0
L1D AVERAGE MISS LATENCY: 374.475 cycles
L1D RQ	ACCESS:   64855042	FORWARD:          0	MERGED:   46586464	TO_CACHE:   18268567
L1D WQ	ACCESS:    8624838	FORWARD:         11	MERGED:          0	TO_CACHE:    8624838
L1D PQ	ACCESS:    7981446	FORWARD:          0	MERGED:         37	TO_CACHE:    7981409

L1D UNIQUE REGIONS ACCESSED: 0
L1D REGIONS CONFLICTS: 0
L1D Cross Page Prefetch Requests: 0
L1D Same Page Prefetch Requests: 9287611
L1D ROI Sum of L1D PQ occupancy: 87462211
L1D PREFETCHES PUSHED FROM L2C: 0
L1I TOTAL     ACCESS:   45346995  HIT:   45346994  MISS:          1  HIT %:        100  MISS %: 2.20522e-06   MPKI: 5e-06
L1I LOAD      ACCESS:   45346995  HIT:   45346994  MISS:          1  HIT %:        100  MISS %: 2.20522e-06   MPKI: 5e-06
L1I PREFETCH  REQUESTED:          0  ISSUED:          0  USEFUL:          0  USELESS:          0
L1I USEFUL LOAD PREFETCHES:          0 PREFETCH ISSUED TO LOWER LEVEL:          0  ACCURACY: -nan
L1I TIMELY PREFETCHES:          0 LATE PREFETCHES: 0 DROPPED PREFETCHES: 0
L1I PREFETCHES SAME FILL-ORIGIN LEVEL: 0 DIFFERENT FILL-ORIGIN LEVEL: 0
L1I AVERAGE MISS LATENCY: 250 cycles
L1I RQ	ACCESS:   74748364	FORWARD:          0	MERGED:   28228081	TO_CACHE:   46520283

BTB TOTAL     ACCESS:   33996053  HIT:   33996002  MISS:         51  HIT %:    99.9998  MISS %: 0.000150017   MPKI: 0.000255
BTB BRANCH_DIRECT_JUMP	ACCESS:          0  HIT:          0  MISS:          0
BTB BRANCH_INDIRECT	ACCESS:         10  HIT:          9  MISS:          1
BTB BRANCH_CONDITIONAL	ACCESS:   33995943  HIT:   33995939  MISS:          4
BTB BRANCH_DIRECT_CALL	ACCESS:         50  HIT:         38  MISS:         12
BTB BRANCH_INDIRECT_CALL	ACCESS:          0  HIT:          0  MISS:          0
BTB BRANCH_RETURN	ACCESS:         50  HIT:         16  MISS:         34
BTB BRANCH_OTHER ACCESS:          0  HIT:          0  MISS:          0

L2C TOTAL     ACCESS:    7688415  HIT:    1330812  MISS:    6357603  HIT %:    17.3093  MISS %:    82.6907   MPKI: 31.788
L2C LOAD      ACCESS:     227007  HIT:          0  MISS:     227007  HIT %:          0  MISS %:        100   MPKI: 1.13503
L2C DATA LOAD MPKI: 1.13503
L2C INSTRUCTION LOAD MPKI: 5e-06
L2C RFO       ACCESS:         40  HIT:          0  MISS:         40  HIT %:          0  MISS %:        100   MPKI: 0.0002
L2C PREFETCH  ACCESS:    5071157  HIT:          0  MISS:    5071157  HIT %:          0  MISS %:        100   MPKI: 25.3558
L2C DATA PREFETCH MPKI: 25.3558
L2C INSTRUCTION PREFETCH MPKI: 0
L2C WRITEBACK ACCESS:    2307408  HIT:    1258381  MISS:    1049027  HIT %:    54.5366  MISS %:    45.4634   MPKI: 5.24513
L2C LOAD TRANSLATION ACCESS:      82803  HIT:      72431  MISS:      10372  HIT %:    87.4739  MISS %:    12.5261   MPKI: 0.05186
L2C PREFETCH  REQUESTED:          0  ISSUED:          0  USEFUL:          0  USELESS:    5174534
L2C USEFUL LOAD PREFETCHES:          0 PREFETCH ISSUED TO LOWER LEVEL:    5174167  ACCURACY: 0
L2C TIMELY PREFETCHES:          0 LATE PREFETCHES: 0 DROPPED PREFETCHES: 0
L2C PREFETCHES SAME FILL-ORIGIN LEVEL: 0 DIFFERENT FILL-ORIGIN LEVEL: 0
L2C AVERAGE MISS LATENCY: 626.849 cycles
L2C RQ	ACCESS:     315017	FORWARD:          0	MERGED:          0	TO_CACHE:     315017
L2C WQ	ACCESS:    2317395	FORWARD:          0	MERGED:          0	TO_CACHE:    2317395
L2C PQ	ACCESS:    5174167	FORWARD:          0	MERGED:          0	TO_CACHE:    5174167

L2C Instructions Evicting Data 1
L2C Translations Evicting Data 10576
L2C Data Evicting Data 5395082
L2C Instructions Evicting Instructions 0
L2C Translations Evicting Instructions 0
L2C Data Evicting Instructions 1
L2C Instructions Evicting Translations 0
L2C Translations Evicting Translations 4
L2C Data Evicting Translations 9633
L2C Dense regions hint from L2: 0
PSCL5 TOTAL     ACCESS:      82803  HIT:      82803  MISS:          0  HIT %:        100  MISS %:          0   MPKI: 0
PSCL5 LOAD TRANSLATION ACCESS:      82803  HIT:      82803  MISS:          0  HIT %:        100  MISS %:          0   MPKI: 0
PSCL5 PREFETCH  REQUESTED:          0  ISSUED:          0  USEFUL:          0  USELESS:          0
PSCL5 USEFUL LOAD PREFETCHES:          0 PREFETCH ISSUED TO LOWER LEVEL:          0  ACCURACY: -nan
PSCL5 TIMELY PREFETCHES:          0 LATE PREFETCHES: 0 DROPPED PREFETCHES: 0
PSCL5 PREFETCHES SAME FILL-ORIGIN LEVEL: 0 DIFFERENT FILL-ORIGIN LEVEL: 0

PSCL4 TOTAL     ACCESS:      82803  HIT:      82803  MISS:          0  HIT %:        100  MISS %:          0   MPKI: 0
PSCL4 LOAD TRANSLATION ACCESS:      82803  HIT:      82803  MISS:          0  HIT %:        100  MISS %:          0   MPKI: 0
PSCL4 PREFETCH  REQUESTED:          0  ISSUED:          0  USEFUL:          0  USELESS:          0
PSCL4 USEFUL LOAD PREFETCHES:          0 PREFETCH ISSUED TO LOWER LEVEL:          0  ACCURACY: -nan
PSCL4 TIMELY PREFETCHES:          0 LATE PREFETCHES: 0 DROPPED PREFETCHES: 0
PSCL4 PREFETCHES SAME FILL-ORIGIN LEVEL: 0 DIFFERENT FILL-ORIGIN LEVEL: 0

PSCL3 TOTAL     ACCESS:      82803  HIT:      82803  MISS:          0  HIT %:        100  MISS %:          0   MPKI: 0
PSCL3 LOAD TRANSLATION ACCESS:      82803  HIT:      82803  MISS:          0  HIT %:        100  MISS %:          0   MPKI: 0
PSCL3 PREFETCH  REQUESTED:          0  ISSUED:          0  USEFUL:          0  USELESS:          0
PSCL3 USEFUL LOAD PREFETCHES:          0 PREFETCH ISSUED TO LOWER LEVEL:          0  ACCURACY: -nan
PSCL3 TIMELY PREFETCHES:          0 LATE PREFETCHES: 0 DROPPED PREFETCHES: 0
PSCL3 PREFETCHES SAME FILL-ORIGIN LEVEL: 0 DIFFERENT FILL-ORIGIN LEVEL: 0

PSCL2 TOTAL     ACCESS:      82803  HIT:      82803  MISS:          0  HIT %:        100  MISS %:          0   MPKI: 0
PSCL2 LOAD TRANSLATION ACCESS:      82803  HIT:      82803  MISS:          0  HIT %:        100  MISS %:          0   MPKI: 0
PSCL2 PREFETCH  REQUESTED:          0  ISSUED:          0  USEFUL:          0  USELESS:          0
PSCL2 USEFUL LOAD PREFETCHES:          0 PREFETCH ISSUED TO LOWER LEVEL:          0  ACCURACY: -nan
PSCL2 TIMELY PREFETCHES:          0 LATE PREFETCHES: 0 DROPPED PREFETCHES: 0
PSCL2 PREFETCHES SAME FILL-ORIGIN LEVEL: 0 DIFFERENT FILL-ORIGIN LEVEL: 0

LLC TOTAL     ACCESS:    7615280  HIT:    2182091  MISS:    5433189  HIT %:    28.6541  MISS %:    71.3459   MPKI: 27.1659
LLC LOAD      ACCESS:     227007  HIT:          0  MISS:     227007  HIT %:          0  MISS %:        100   MPKI: 1.13503
LLC RFO       ACCESS:         40  HIT:          0  MISS:         40  HIT %:          0  MISS %:        100   MPKI: 0.0002
LLC PREFETCH  ACCESS:    5071157  HIT:          0  MISS:    5071157  HIT %:          0  MISS %:        100   MPKI: 25.3558
LLC WRITEBACK ACCESS:    2306704  HIT:    2182087  MISS:     124617  HIT %:    94.5976  MISS %:    5.40238   MPKI: 0.623085
LLC LOAD TRANSLATION ACCESS:      10372  HIT:          4  MISS:      10368  HIT %:  0.0385654  MISS %:    99.9614   MPKI: 0.05184
LLC PREFETCH  REQUESTED:          0  ISSUED:          0  USEFUL:          0  USELESS:   20402890
LLC USEFUL LOAD PREFETCHES:          0 PREFETCH ISSUED TO LOWER LEVEL:   20487018  ACCURACY: 0
LLC TIMELY PREFETCHES:          0 LATE PREFETCHES: 0 DROPPED PREFETCHES: 0
LLC PREFETCHES SAME FILL-ORIGIN LEVEL: 0 DIFFERENT FILL-ORIGIN LEVEL: 0
LLC AVERAGE MISS LATENCY: 2810.96 cycles
LLC RQ	ACCESS:     953195	FORWARD:          0	MERGED:          0	TO_CACHE:     953195
LLC WQ	ACCESS:    9246086	FORWARD:          0	MERGED:          0	TO_CACHE:    9246086
LLC PQ	ACCESS:   20487020	FORWARD:          0	MERGED:          0	TO_CACHE:   20487020

LLC Dense regions hint to LLC: 0

RAW hits: 53
Loads Generated: 63576973
Loads sent to L1D: 63576914
Stores Generated: 8608198
Stores sent to L1D: 8608198
Major fault: 0 Minor fault: 8227
Allocated PAGES: 32908

CPU 1 cumulative IPC: 0.304233 instructions: 200000003 cycles: 657391698
ITLB TOTAL     ACCESS:   41011514  HIT:   41011514  MISS:          0  HIT %:        100  MISS %:          0   MPKI: 0
ITLB LOAD TRANSLATION ACCESS:   41011514  HIT:   41011514  MISS:          0  HIT %:        100  MISS %:          0   MPKI: 0
ITLB PREFETCH  REQUESTED:          0  ISSUED:          0  USEFUL:          0  USELESS:          0
ITLB USEFUL LOAD PREFETCHES:          0 PREFETCH ISSUED TO LOWER LEVEL:          0  ACCURACY: -nan
ITLB TIMELY PREFETCHES:          0 LATE PREFETCHES: 0 DROPPED PREFETCHES: 0
ITLB PREFETCHES SAME FILL-ORIGIN LEVEL: 0 DIFFERENT FILL-ORIGIN LEVEL: 0
ITLB AVERAGE MISS LATENCY: -nan cycles
ITLB RQ	ACCESS:   45357451	FORWARD:          0	MERGED:    4345938	TO_CACHE:   41011513

DTLB TOTAL     ACCESS:   21508468  HIT:   21425665  MISS:      82803  HIT %:     99.615  MISS %:   0.384979   MPKI: 0.414015
DTLB LOAD TRANSLATION ACCESS:   21508468  HIT:   21425665  MISS:      82803  HIT %:     99.615  MISS %:   0.384979   MPKI: 0.414015
DTLB PREFETCH  REQUESTED:          0  ISSUED:          0  USEFUL:          0  USELESS:          0
DTLB USEFUL LOAD PREFETCHES:          0 PREFETCH ISSUED TO LOWER LEVEL:          0  ACCURACY: -nan
DTLB TIMELY PREFETCHES:          0 LATE PREFETCHES: 0 DROPPED PREFETCHES: 0
DTLB PREFETCHES SAME FILL-ORIGIN LEVEL: 0 DIFFERENT FILL-ORIGIN LEVEL: 0
DTLB AVERAGE MISS LATENCY: 126.039 cycles
DTLB RQ	ACCESS:   26449134	FORWARD:          0	MERGED:    4836172	TO_CACHE:   21612962

STLB TOTAL     ACCESS:    3673782  HIT:    3590979  MISS:      82803  HIT %:    97.7461  MISS %:    2.25389   MPKI: 0.414015
STLB LOAD TRANSLATION ACCESS:      82803  HIT:          0  MISS:      82803  HIT %:          0  MISS %:        100   MPKI: 0.414015
STLB TRANSLATION FROM L1D PREFETCHER ACCESS:    3590979  HIT:    3590979  MISS:          0  HIT %:        100  MISS %:          0   MPKI: 0
STLB PREFETCH  REQUESTED:          0  ISSUED:          0  USEFUL:          0  USELESS:          0
STLB USEFUL LOAD PREFETCHES:          0 PREFETCH ISSUED TO LOWER LEVEL:          0  ACCURACY: -nan
STLB TIMELY PREFETCHES:          0 LATE PREFETCHES: 0 DROPPED PREFETCHES: 0
STLB PREFETCHES SAME FILL-ORIGIN LEVEL: 0 DIFFERENT FILL-ORIGIN LEVEL: 0
STLB AVERAGE MISS LATENCY: 117.039 cycles
STLB RQ	ACCESS:    7961030	FORWARD:          0	MERGED:    4287248	TO_CACHE:    3673782

STLB Hit, L1D data hit: 0
STLB Hit, L2C data hit: 0
STLB Hit, LLC data hit: 0
STLB Hit, LLC data miss: 0
STLB STLB hints to L2: 0
L1D TOTAL     ACCESS:   29186309  HIT:   23888113  MISS:    5298196  HIT %:     81.847  MISS %:     18.153   MPKI: 26.491
L1D LOAD      ACCESS:   15877267  HIT:   13318599  MISS:    2558668  HIT %:    83.8847  MISS %:    16.1153   MPKI: 12.7933
L1D RFO       ACCESS:    8608117  HIT:    8608077  MISS:         40  HIT %:    99.9995  MISS %: 0.000464678   MPKI: 0.0002
L1D PREFETCH  ACCESS:    4700925  HIT:    1961437  MISS:    2739488  HIT %:    41.7245  MISS %:    58.2755   MPKI: 13.6974
L1D PREFETCH  REQUESTED:   15756509  ISSUED:   15756497  USEFUL:    2739433  USELESS:         51
L1D USEFUL LOAD PREFETCHES:    2739433 PREFETCH ISSUED TO LOWER LEVEL:    5072000  ACCURACY: 54.0109
L1D TIMELY PREFETCHES:    2739433 LATE PREFETCHES: 2332510 DROPPED PREFETCHES: 0
L1D PREFETCHES SAME FILL-ORIGIN LEVEL: 5072000 DIFFERENT FILL-ORIGIN LEVEL: 0
L1D AVERAGE MISS LATENCY: 366.413 cycles
L1D RQ	ACCESS:   63576913	FORWARD:          0	MERGED:   45735966	TO_CACHE:   17840936
L1D WQ	ACCESS:    8608198	FORWARD:         11	MERGED:          0	TO_CACHE:    8608198
L1D PQ	ACCESS:    7878270	FORWARD:          0	MERGED:         43	TO_CACHE:    7878227

L1D UNIQUE REGIONS ACCESSED: 0
L1D REGIONS CONFLICTS: 0
L1D Cross Page Prefetch Requests: 0
L1D Same Page Prefetch Requests: 7878271
L1D ROI Sum of L1D PQ occupancy: 86415737
L1D PREFETCHES PUSHED FROM L2C: 0
L1I TOTAL     ACCESS:   45357450  HIT:   45357449  MISS:          1  HIT %:        100  MISS %: 2.20471e-06   MPKI: 5e-06
L1I LOAD      ACCESS:   45357450  HIT:   45357449  MISS:          1  HIT %:        100  MISS %: 2.20471e-06   MPKI: 5e-06
L1I PREFETCH  REQUESTED:          0  ISSUED:          0  USEFUL:          0  USELESS:          0
L1I USEFUL LOAD PREFETCHES:          0 PREFETCH ISSUED TO LOWER LEVEL:          0  ACCURACY: -nan
L1I TIMELY PREFETCHES:          0 LATE PREFETCHES: 0 DROPPED PREFETCHES: 0
L1I PREFETCHES SAME FILL-ORIGIN LEVEL: 0 DIFFERENT FILL-ORIGIN LEVEL: 0
L1I AVERAGE MISS LATENCY: 445 cycles
L1I RQ	ACCESS:   72910528	FORWARD:          0	MERGED:   27553077	TO_CACHE:   45357451

BTB TOTAL     ACCESS:   33996057  HIT:   33996006  MISS:         51  HIT %:    99.9998  MISS %: 0.000150017   MPKI: 0.000255
BTB BRANCH_DIRECT_JUMP	ACCESS:          0  HIT:          0  MISS:          0
BTB BRANCH_INDIRECT	ACCESS:         10  HIT:          9  MISS:          1
BTB BRANCH_CONDITIONAL	ACCESS:   33995947  HIT:   33995943  MISS:          4
BTB BRANCH_DIRECT_CALL	ACCESS:         50  HIT:         38  MISS:         12
BTB BRANCH_INDIRECT_CALL	ACCESS:          0  HIT:          0  MISS:          0
BTB BRANCH_RETURN	ACCESS:         50  HIT:         16  MISS:         34
BTB BRANCH_OTHER ACCESS:          0  HIT:          0  MISS:          0

L2C TOTAL     ACCESS:    7688408  HIT:    1320483  MISS:    6367925  HIT %:     17.175  MISS %:     82.825   MPKI: 31.8396
L2C LOAD      ACCESS:     226159  HIT:          0  MISS:     226159  HIT %:          0  MISS %:        100   MPKI: 1.13079
L2C DATA LOAD MPKI: 1.13079
L2C INSTRUCTION LOAD MPKI: 5e-06
L2C RFO       ACCESS:         40  HIT:          0  MISS:         40  HIT %:          0  MISS %:        100   MPKI: 0.0002
L2C PREFETCH  ACCESS:    5071998  HIT:          0  MISS:    5071998  HIT %:          0  MISS %:        100   MPKI: 25.36
L2C DATA PREFETCH MPKI: 25.36
L2C INSTRUCTION PREFETCH MPKI: 0
L2C WRITEBACK ACCESS:    2307408  HIT:    1248051  MISS:    1059357  HIT %:    54.0889  MISS %:    45.9111   MPKI: 5.29678
L2C LOAD TRANSLATION ACCESS:      82803  HIT:      72432  MISS:      10371  HIT %:    87.4751  MISS %:    12.5249   MPKI: 0.051855
L2C PREFETCH  REQUESTED:          0  ISSUED:          0  USEFUL:          0  USELESS:    5064341
L2C USEFUL LOAD PREFETCHES:          0 PREFETCH ISSUED TO LOWER LEVEL:    5072000  ACCURACY: 0
L2C TIMELY PREFETCHES:          0 LATE PREFETCHES: 0 DROPPED PREFETCHES: 0
L2C PREFETCHES SAME FILL-ORIGIN LEVEL: 0 DIFFERENT FILL-ORIGIN LEVEL: 0
L2C AVERAGE MISS LATENCY: 622.216 cycles
L2C RQ	ACCESS:     309002	FORWARD:          0	MERGED:          0	TO_CACHE:     309002
L2C WQ	ACCESS:    2307408	FORWARD:          0	MERGED:          0	TO_CACHE:    2307408
L2C PQ	ACCESS:    5072000	FORWARD:          0	MERGED:          0	TO_CACHE:    5072000

L2C Instructions Evicting Data 1
L2C Translations Evicting Data 10366
L2C Data Evicting Data 5288852
L2C Instructions Evicting Instructions 0
L2C Translations Evicting Instructions 0
L2C Data Evicting Instructions 1
L2C Instructions Evicting Translations 0
L2C Translations Evicting Translations 5
L2C Data Evicting Translations 9343
L2C Dense regions hint from L2: 0
PSCL5 TOTAL     ACCESS:      82803  HIT:      82803  MISS:          0  HIT %:        100  MISS %:          0   MPKI: 0
PSCL5 LOAD TRANSLATION ACCESS:      82803  HIT:      82803  MISS:          0  HIT %:        100  MISS %:          0   MPKI: 0
PSCL5 PREFETCH  REQUESTED:          0  ISSUED:          0  USEFUL:          0  USELESS:          0
PSCL5 USEFUL LOAD PREFETCHES:          0 PREFETCH ISSUED TO LOWER LEVEL:          0  ACCURACY: -nan
PSCL5 TIMELY PREFETCHES:          0 LATE PREFETCHES: 0 DROPPED PREFETCHES: 0
PSCL5 PREFETCHES SAME FILL-ORIGIN LEVEL: 0 DIFFERENT FILL-ORIGIN LEVEL: 0

PSCL4 TOTAL     ACCESS:      82803  HIT:      82803  MISS:          0  HIT %:        100  MISS %:          0   MPKI: 0
PSCL4 LOAD TRANSLATION ACCESS:      82803  HIT:      82803  MISS:          0  HIT %:        100  MISS %:          0   MPKI: 0
PSCL4 PREFETCH  REQUESTED:          0  ISSUED:          0  USEFUL:          0  USELESS:          0
PSCL4 USEFUL LOAD PREFETCHES:          0 PREFETCH ISSUED TO LOWER LEVEL:          0  ACCURACY: -nan
PSCL4 TIMELY PREFETCHES:          0 LATE PREFETCHES: 0 DROPPED PREFETCHES: 0
PSCL4 PREFETCHES SAME FILL-ORIGIN LEVEL: 0 DIFFERENT FILL-ORIGIN LEVEL: 0

PSCL3 TOTAL     ACCESS:      82803  HIT:      82803  MISS:          0  HIT %:        100  MISS %:          0   MPKI: 0
PSCL3 LOAD TRANSLATION ACCESS:      82803  HIT:      82803  MISS:          0  HIT %:        100  MISS %:          0   MPKI: 0
PSCL3 PREFETCH  REQUESTED:          0  ISSUED:          0  USEFUL:          0  USELESS:          0
PSCL3 USEFUL LOAD PREFETCHES:          0 PREFETCH ISSUED TO LOWER LEVEL:          0  ACCURACY: -nan
PSCL3 TIMELY PREFETCHES:          0 LATE PREFETCHES: 0 DROPPED PREFETCHES: 0
PSCL3 PREFETCHES SAME FILL-ORIGIN LEVEL: 0 DIFFERENT FILL-ORIGIN LEVEL: 0

PSCL2 TOTAL     ACCESS:      82803  HIT:      82803  MISS:          0  HIT %:        100  MISS %:          0   MPKI: 0
PSCL2 LOAD TRANSLATION ACCESS:      82803  HIT:      82803  MISS:          0  HIT %:        100  MISS %:          0   MPKI: 0
PSCL2 PREFETCH  REQUESTED:          0  ISSUED:          0  USEFUL:          0  USELESS:          0
PSCL2 USEFUL LOAD PREFETCHES:          0 PREFETCH ISSUED TO LOWER LEVEL:          0  ACCURACY: -nan
PSCL2 TIMELY PREFETCHES:          0 LATE PREFETCHES: 0 DROPPED PREFETCHES: 0
PSCL2 PREFETCHES SAME FILL-ORIGIN LEVEL: 0 DIFFERENT FILL-ORIGIN LEVEL: 0

LLC TOTAL     ACCESS:    7615268  HIT:     301748  MISS:    7313520  HIT %:    3.96241  MISS %:    96.0376   MPKI: 36.5676
LLC LOAD      ACCESS:     226159  HIT:          0  MISS:     226159  HIT %:          0  MISS %:        100   MPKI: 1.13079
LLC RFO       ACCESS:         40  HIT:          0  MISS:         40  HIT %:          0  MISS %:        100   MPKI: 0.0002
LLC PREFETCH  ACCESS:    5071998  HIT:          0  MISS:    5071998  HIT %:          0  MISS %:        100   MPKI: 25.36
LLC WRITEBACK ACCESS:    2306700  HIT:     301745  MISS:    2004955  HIT %:    13.0812  MISS %:    86.9188   MPKI: 10.0248
LLC LOAD TRANSLATION ACCESS:      10371  HIT:          3  MISS:      10368  HIT %:  0.0289268  MISS %:    99.9711   MPKI: 0.05184
LLC PREFETCH  REQUESTED:          0  ISSUED:          0  USEFUL:          0  USELESS:   20402890
LLC USEFUL LOAD PREFETCHES:          0 PREFETCH ISSUED TO LOWER LEVEL:   20487018  ACCURACY: 0
LLC TIMELY PREFETCHES:          0 LATE PREFETCHES: 0 DROPPED PREFETCHES: 0
LLC PREFETCHES SAME FILL-ORIGIN LEVEL: 0 DIFFERENT FILL-ORIGIN LEVEL: 0
LLC AVERAGE MISS LATENCY: 2088.25 cycles
LLC RQ	ACCESS:     953195	FORWARD:          0	MERGED:          0	TO_CACHE:     953195
LLC WQ	ACCESS:    9246086	FORWARD:          0	MERGED:          0	TO_CACHE:    9246086
LLC PQ	ACCESS:   20487020	FORWARD:          0	MERGED:          0	TO_CACHE:   20487020

LLC Dense regions hint to LLC: 0

RAW hits: 53
Loads Generated: 63576970
Loads sent to L1D: 63576913
Stores Generated: 8608198
Stores sent to L1D: 8608198
Major fault: 0 Minor fault: 8227
Allocated PAGES: 32908

CPU 2 cumulative IPC: 0.304343 instructions: 200000000 cycles: 657152182
ITLB TOTAL     ACCESS:   41017972  HIT:   41017972  MISS:          0  HIT %:        100  MISS %:          0   MPKI: 0
ITLB LOAD TRANSLATION ACCESS:   41017972  HIT:   41017972  MISS:          0  HIT %:        100  MISS %:          0   MPKI: 0
ITLB PREFETCH  REQUESTED:          0  ISSUED:          0  USEFUL:          0  USELESS:          0
ITLB USEFUL LOAD PREFETCHES:          0 PREFETCH ISSUED TO LOWER LEVEL:          0  ACCURACY: -nan
ITLB TIMELY PREFETCHES:          0 LATE PREFETCHES: 0 DROPPED PREFETCHES: 0
ITLB PREFETCHES SAME FILL-ORIGIN LEVEL: 0 DIFFERENT FILL-ORIGIN LEVEL: 0
ITLB AVERAGE MISS LATENCY: -nan cycles
ITLB RQ	ACCESS:   45393105	FORWARD:          0	MERGED:    4350295	TO_CACHE:   41042810

DTLB TOTAL     ACCESS:   21503357  HIT:   21420554  MISS:      82803  HIT %:    99.6149  MISS %:    0.38507   MPKI: 0.414015
DTLB LOAD TRANSLATION ACCESS:   21503357  HIT:   21420554  MISS:      82803  HIT %:    99.6149  MISS %:    0.38507   MPKI: 0.414015
DTLB PREFETCH  REQUESTED:          0  ISSUED:          0  USEFUL:          0  USELESS:          0
DTLB USEFUL LOAD PREFETCHES:          0 PREFETCH ISSUED TO LOWER LEVEL:          0  ACCURACY: -nan
DTLB TIMELY PREFETCHES:          0 LATE PREFETCHES: 0 DROPPED PREFETCHES: 0
DTLB PREFETCHES SAME FILL-ORIGIN LEVEL: 0 DIFFERENT FILL-ORIGIN LEVEL: 0
DTLB AVERAGE MISS LATENCY: 125.022 cycles
DTLB RQ	ACCESS:   26452540	FORWARD:          0	MERGED:    4834738	TO_CACHE:   21617802

STLB TOTAL     ACCESS:    3669076  HIT:    3586273  MISS:      82803  HIT %:    97.7432  MISS %:    2.25678   MPKI: 0.414015
STLB LOAD TRANSLATION ACCESS:      82803  HIT:          0  MISS:      82803  HIT %:          0  MISS %:        100   MPKI: 0.414015
STLB TRANSLATION FROM L1D PREFETCHER ACCESS:    3586273  HIT:    3586273  MISS:          0  HIT %:        100  MISS %:          0   MPKI: 0
STLB PREFETCH  REQUESTED:          0  ISSUED:          0  USEFUL:          0  USELESS:          0
STLB USEFUL LOAD PREFETCHES:          0 PREFETCH ISSUED TO LOWER LEVEL:          0  ACCURACY: -nan
STLB TIMELY PREFETCHES:          0 LATE PREFETCHES: 0 DROPPED PREFETCHES: 0
STLB PREFETCHES SAME FILL-ORIGIN LEVEL: 0 DIFFERENT FILL-ORIGIN LEVEL: 0
STLB AVERAGE MISS LATENCY: 116.017 cycles
STLB RQ	ACCESS:    7961604	FORWARD:          0	MERGED:    4290440	TO_CACHE:    3671164

STLB Hit, L1D data hit: 0
STLB Hit, L2C data hit: 0
STLB Hit, LLC data hit: 0
STLB Hit, LLC data miss: 0
STLB STLB hints to L2: 0
L1D TOTAL     ACCESS:   29160827  HIT:   23862630  MISS:    5298197  HIT %:    81.8311  MISS %:    18.1689   MPKI: 26.491
L1D LOAD      ACCESS:   15869756  HIT:   13302555  MISS:    2567201  HIT %:    83.8233  MISS %:    16.1767   MPKI: 12.836
L1D RFO       ACCESS:    8608118  HIT:    8608078  MISS:         40  HIT %:    99.9995  MISS %: 0.000464678   MPKI: 0.0002
L1D PREFETCH  ACCESS:    4682953  HIT:    1951997  MISS:    2730956  HIT %:     41.683  MISS %:     58.317   MPKI: 13.6548
L1D PREFETCH  REQUESTED:   15757570  ISSUED:   15757561  USEFUL:    2732276  USELESS:         54
L1D USEFUL LOAD PREFETCHES:    2732276 PREFETCH ISSUED TO LOWER LEVEL:    5073121  ACCURACY: 53.8579
L1D TIMELY PREFETCHES:    2732276 LATE PREFETCHES: 2340785 DROPPED PREFETCHES: 0
L1D PREFETCHES SAME FILL-ORIGIN LEVEL: 5073121 DIFFERENT FILL-ORIGIN LEVEL: 0
L1D AVERAGE MISS LATENCY: 366.238 cycles
L1D RQ	ACCESS:   63607759	FORWARD:          0	MERGED:   45763805	TO_CACHE:   17843942
L1D WQ	ACCESS:    8608598	FORWARD:         12	MERGED:          0	TO_CACHE:    8608598
L1D PQ	ACCESS:    7878800	FORWARD:          0	MERGED:         39	TO_CACHE:    7878761

L1D UNIQUE REGIONS ACCESSED: 0
L1D REGIONS CONFLICTS: 0
L1D Cross Page Prefetch Requests: 0
L1D Same Page Prefetch Requests: 7878800
L1D ROI Sum of L1D PQ occupancy: 86439768
L1D PREFETCHES PUSHED FROM L2C: 0
L1I TOTAL     ACCESS:   45364865  HIT:   45364864  MISS:          1  HIT %:        100  MISS %: 2.20435e-06   MPKI: 5e-06
L1I LOAD      ACCESS:   45364865  HIT:   45364864  MISS:          1  HIT %:        100  MISS %: 2.20435e-06   MPKI: 5e-06
L1I PREFETCH  REQUESTED:          0  ISSUED:          0  USEFUL:          0  USELESS:          0
L1I USEFUL LOAD PREFETCHES:          0 PREFETCH ISSUED TO LOWER LEVEL:          0  ACCURACY: -nan
L1I TIMELY PREFETCHES:          0 LATE PREFETCHES: 0 DROPPED PREFETCHES: 0
L1I PREFETCHES SAME FILL-ORIGIN LEVEL: 0 DIFFERENT FILL-ORIGIN LEVEL: 0
L1I AVERAGE MISS LATENCY: 925 cycles
L1I RQ	ACCESS:   72956150	FORWARD:          0	MERGED:   27563045	TO_CACHE:   45393105

BTB TOTAL     ACCESS:   33996059  HIT:   33996007  MISS:         52  HIT %:    99.9998  MISS %: 0.000152959   MPKI: 0.00026
BTB BRANCH_DIRECT_JUMP	ACCESS:          0  HIT:          0  MISS:          0
BTB BRANCH_INDIRECT	ACCESS:         10  HIT:          9  MISS:          1
BTB BRANCH_CONDITIONAL	ACCESS:   33995949  HIT:   33995944  MISS:          5
BTB BRANCH_DIRECT_CALL	ACCESS:         50  HIT:         38  MISS:         12
BTB BRANCH_INDIRECT_CALL	ACCESS:          0  HIT:          0  MISS:          0
BTB BRANCH_RETURN	ACCESS:         50  HIT:         16  MISS:         34
BTB BRANCH_OTHER ACCESS:          0  HIT:          0  MISS:          0

L2C TOTAL     ACCESS:    7688409  HIT:    1318535  MISS:    6369874  HIT %:    17.1496  MISS %:    82.8504   MPKI: 31.8494
L2C LOAD      ACCESS:     227530  HIT:          0  MISS:     227530  HIT %:          0  MISS %:        100   MPKI: 1.13765
L2C DATA LOAD MPKI: 1.13765
L2C INSTRUCTION LOAD MPKI: 5e-06
L2C RFO       ACCESS:         40  HIT:          0  MISS:         40  HIT %:          0  MISS %:        100   MPKI: 0.0002
L2C PREFETCH  ACCESS:    5070628  HIT:          0  MISS:    5070628  HIT %:          0  MISS %:        100   MPKI: 25.3531
L2C DATA PREFETCH MPKI: 25.3531
L2C INSTRUCTION PREFETCH MPKI: 0
L2C WRITEBACK ACCESS:    2307408  HIT:    1246105  MISS:    1061303  HIT %:    54.0045  MISS %:    45.9955   MPKI: 5.30652
L2C LOAD TRANSLATION ACCESS:      82803  HIT:      72430  MISS:      10373  HIT %:    87.4727  MISS %:    12.5273   MPKI: 0.051865
L2C PREFETCH  REQUESTED:          0  ISSUED:          0  USEFUL:          0  USELESS:    5065455
L2C USEFUL LOAD PREFETCHES:          0 PREFETCH ISSUED TO LOWER LEVEL:    5073120  ACCURACY: 0
L2C TIMELY PREFETCHES:          0 LATE PREFETCHES: 0 DROPPED PREFETCHES: 0
L2C PREFETCHES SAME FILL-ORIGIN LEVEL: 0 DIFFERENT FILL-ORIGIN LEVEL: 0
L2C AVERAGE MISS LATENCY: 622.671 cycles
L2C RQ	ACCESS:     310494	FORWARD:          0	MERGED:          0	TO_CACHE:     310494
L2C WQ	ACCESS:    2307648	FORWARD:          0	MERGED:          0	TO_CACHE:    2307648
L2C PQ	ACCESS:    5073121	FORWARD:          0	MERGED:          0	TO_CACHE:    5073121

L2C Instructions Evicting Data 1
L2C Translations Evicting Data 10363
L2C Data Evicting Data 5291359
L2C Instructions Evicting Instructions 0
L2C Translations Evicting Instructions 0
L2C Data Evicting Instructions 0
L2C Instructions Evicting Translations 0
L2C Translations Evicting Translations 15
L2C Data Evicting Translations 9408
L2C Dense regions hint from L2: 0
PSCL5 TOTAL     ACCESS:      82803  HIT:      82803  MISS:          0  HIT %:        100  MISS %:          0   MPKI: 0
PSCL5 LOAD TRANSLATION ACCESS:      82803  HIT:      82803  MISS:          0  HIT %:        100  MISS %:          0   MPKI: 0
PSCL5 PREFETCH  REQUESTED:          0  ISSUED:          0  USEFUL:          0  USELESS:          0
PSCL5 USEFUL LOAD PREFETCHES:          0 PREFETCH ISSUED TO LOWER LEVEL:          0  ACCURACY: -nan
PSCL5 TIMELY PREFETCHES:          0 LATE PREFETCHES: 0 DROPPED PREFETCHES: 0
PSCL5 PREFETCHES SAME FILL-ORIGIN LEVEL: 0 DIFFERENT FILL-ORIGIN LEVEL: 0

PSCL4 TOTAL     ACCESS:      82803  HIT:      82803  MISS:          0  HIT %:        100  MISS %:          0   MPKI: 0
PSCL4 LOAD TRANSLATION ACCESS:      82803  HIT:      82803  MISS:          0  HIT %:        100  MISS %:          0   MPKI: 0
PSCL4 PREFETCH  REQUESTED:          0  ISSUED:          0  USEFUL:          0  USELESS:          0
[...]
LLC WRITEBACK ACCESS:    2306703  HIT:     297334  MISS:    2009369  HIT %:      12.89  MISS %:      87.11   MPKI: 10.0468
LLC LOAD TRANSLATION ACCESS:      10373  HIT:          1  MISS:      10372  HIT %: 0.00964041  MISS %:    99.9904   MPKI: 0.05186
LLC PREFETCH  REQUESTED:          0  ISSUED:          0  USEFUL:          0  USELESS:   20402890
LLC USEFUL LOAD PREFETCHES:          0 PREFETCH ISSUED TO LOWER LEVEL:   20487018  ACCURACY: 0
LLC TIMELY PREFETCHES:          0 LATE PREFETCHES: 0 DROPPED PREFETCHES: 0
LLC PREFETCHES SAME FILL-ORIGIN LEVEL: 0 DIFFERENT FILL-ORIGIN LEVEL: 0
LLC AVERAGE MISS LATENCY: 2086.99 cycles
LLC RQ	ACCESS:     953195	FORWARD:          0	MERGED:          0	TO_CACHE:     953195
LLC WQ	ACCESS:    9246086	FORWARD:          0	MERGED:          0	TO_CACHE:    9246086
LLC PQ	ACCESS:   20487020	FORWARD:          0	MERGED:          0	TO_CACHE:   20487020

LLC Dense regions hint to LLC: 0

RAW hits: 46
Loads Generated: 63576969
Loads sent to L1D: 63576921
Stores Generated: 8608198
Stores sent to L1D: 8608198
Major fault: 0 Minor fault: 8227
Allocated PAGES: 32908

CPU 3 cumulative IPC: 0.308739 instructions: 200000001 cycles: 647797273
ITLB TOTAL     ACCESS:   41018711  HIT:   41018711  MISS:          0  HIT %:        100  MISS %:          0   MPKI: 0
ITLB LOAD TRANSLATION ACCESS:   41018711  HIT:   41018711  MISS:          0  HIT %:        100  MISS %:          0   MPKI: 0
ITLB PREFETCH  REQUESTED:          0  ISSUED:          0  USEFUL:          0  USELESS:          0
ITLB USEFUL LOAD PREFETCHES:          0 PREFETCH ISSUED TO LOWER LEVEL:          0  ACCURACY: -nan
ITLB TIMELY PREFETCHES:          0 LATE PREFETCHES: 0 DROPPED PREFETCHES: 0
ITLB PREFETCHES SAME FILL-ORIGIN LEVEL: 0 DIFFERENT FILL-ORIGIN LEVEL: 0
ITLB AVERAGE MISS LATENCY: -nan cycles
ITLB RQ	ACCESS:   46426401	FORWARD:          0	MERGED:    4472826	TO_CACHE:   41953575

DTLB TOTAL     ACCESS:   21521736  HIT:   21438933  MISS:      82803  HIT %:    99.6153  MISS %:   0.384741   MPKI: 0.414015
DTLB LOAD TRANSLATION ACCESS:   21521736  HIT:   21438933  MISS:      82803  HIT %:    99.6153  MISS %:   0.384741   MPKI: 0.414015
DTLB PREFETCH  REQUESTED:          0  ISSUED:          0  USEFUL:          0  USELESS:          0
DTLB USEFUL LOAD PREFETCHES:          0 PREFETCH ISSUED TO LOWER LEVEL:          0  ACCURACY: -nan
DTLB TIMELY PREFETCHES:          0 LATE PREFETCHES: 0 DROPPED PREFETCHES: 0
DTLB PREFETCHES SAME FILL-ORIGIN LEVEL: 0 DIFFERENT FILL-ORIGIN LEVEL: 0
DTLB AVERAGE MISS LATENCY: 129.92 cycles
DTLB RQ	ACCESS:   26845646	FORWARD:          0	MERGED:    4864980	TO_CACHE:   21980666

STLB TOTAL     ACCESS:    3681778  HIT:    3598975  MISS:      82803  HIT %:     97.751  MISS %:    2.24899   MPKI: 0.414015
STLB LOAD TRANSLATION ACCESS:      82803  HIT:          0  MISS:      82803  HIT %:          0  MISS %:        100   MPKI: 0.414015
STLB TRANSLATION FROM L1D PREFETCHER ACCESS:    3598975  HIT:    3598975  MISS:          0  HIT %:        100  MISS %:          0   MPKI: 0
STLB PREFETCH  REQUESTED:          0  ISSUED:          0  USEFUL:          0  USELESS:          0
STLB USEFUL LOAD PREFETCHES:          0 PREFETCH ISSUED TO LOWER LEVEL:          0  ACCURACY: -nan
STLB TIMELY PREFETCHES:          0 LATE PREFETCHES: 0 DROPPED PREFETCHES: 0
STLB PREFETCHES SAME FILL-ORIGIN LEVEL: 0 DIFFERENT FILL-ORIGIN LEVEL: 0
STLB AVERAGE MISS LATENCY: 120.756 cycles
STLB RQ	ACCESS:    8091693	FORWARD:          0	MERGED:    4332774	TO_CACHE:    3758919

STLB Hit, L1D data hit: 0
STLB Hit, L2C data hit: 0
STLB Hit, LLC data hit: 0
STLB Hit, LLC data miss: 0
STLB STLB hints to L2: 0
L1D TOTAL     ACCESS:   29181235  HIT:   23883033  MISS:    5298202  HIT %:    81.8438  MISS %:    18.1562   MPKI: 26.491
L1D LOAD      ACCESS:   15897316  HIT:   13341178  MISS:    2556138  HIT %:    83.9209  MISS %:    16.0791   MPKI: 12.7807
L1D RFO       ACCESS:    8608116  HIT:    8608076  MISS:         40  HIT %:    99.9995  MISS %: 0.000464678   MPKI: 0.0002
L1D PREFETCH  ACCESS:    4675803  HIT:    1933779  MISS:    2742024  HIT %:    41.3572  MISS %:    58.6428   MPKI: 13.7101
L1D PREFETCH  REQUESTED:   16014807  ISSUED:   16014807  USEFUL:    2793360  USELESS:         60
L1D USEFUL LOAD PREFETCHES:    2793360 PREFETCH ISSUED TO LOWER LEVEL:    5167733  ACCURACY: 54.0539
L1D TIMELY PREFETCHES:    2793360 LATE PREFETCHES: 2374312 DROPPED PREFETCHES: 0
L1D PREFETCHES SAME FILL-ORIGIN LEVEL: 5167733 DIFFERENT FILL-ORIGIN LEVEL: 0
L1D AVERAGE MISS LATENCY: 374.812 cycles
L1D RQ	ACCESS:   64734165	FORWARD:          0	MERGED:   46511776	TO_CACHE:   18222378
L1D WQ	ACCESS:    8623268	FORWARD:         11	MERGED:          0	TO_CACHE:    8623268
L1D PQ	ACCESS:    8007423	FORWARD:          0	MERGED:         39	TO_CACHE:    8007384

L1D UNIQUE REGIONS ACCESSED: 0
L1D REGIONS CONFLICTS: 0
L1D Cross Page Prefetch Requests: 0
L1D Same Page Prefetch Requests: 8007423
L1D ROI Sum of L1D PQ occupancy: 87836905
L1D PREFETCHES PUSHED FROM L2C: 0
L1I TOTAL     ACCESS:   45363375  HIT:   45363374  MISS:          1  HIT %:        100  MISS %: 2.20442e-06   MPKI: 5e-06
L1I LOAD      ACCESS:   45363375  HIT:   45363374  MISS:          1  HIT %:        100  MISS %: 2.20442e-06   MPKI: 5e-06
L1I PREFETCH  REQUESTED:          0  ISSUED:          0  USEFUL:          0  USELESS:          0
L1I USEFUL LOAD PREFETCHES:          0 PREFETCH ISSUED TO LOWER LEVEL:          0  ACCURACY: -nan
L1I TIMELY PREFETCHES:          0 LATE PREFETCHES: 0 DROPPED PREFETCHES: 0
L1I PREFETCHES SAME FILL-ORIGIN LEVEL: 0 DIFFERENT FILL-ORIGIN LEVEL: 0
L1I AVERAGE MISS LATENCY: 295 cycles
L1I RQ	ACCESS:   74575048	FORWARD:          0	MERGED:   28148647	TO_CACHE:   46426401

BTB TOTAL     ACCESS:   33996065  HIT:   33996012  MISS:         53  HIT %:    99.9998  MISS %:  0.0001559   MPKI: 0.000265
BTB BRANCH_DIRECT_JUMP	ACCESS:          0  HIT:          0  MISS:          0
BTB BRANCH_INDIRECT	ACCESS:         10  HIT:          9  MISS:          1
BTB BRANCH_CONDITIONAL	ACCESS:   33995955  HIT:   33995949  MISS:          6
BTB BRANCH_DIRECT_CALL	ACCESS:         50  HIT:         38  MISS:         12
BTB BRANCH_INDIRECT_CALL	ACCESS:          0  HIT:          0  MISS:          0
BTB BRANCH_RETURN	ACCESS:         50  HIT:         16  MISS:         34
BTB BRANCH_OTHER ACCESS:          0  HIT:          0  MISS:          0

L2C TOTAL     ACCESS:    7688414  HIT:    1316115  MISS:    6372299  HIT %:    17.1182  MISS %:    82.8818   MPKI: 31.8615
L2C LOAD      ACCESS:     223533  HIT:          0  MISS:     223533  HIT %:          0  MISS %:        100   MPKI: 1.11766
L2C DATA LOAD MPKI: 1.11766
L2C INSTRUCTION LOAD MPKI: 5e-06
L2C RFO       ACCESS:         40  HIT:          0  MISS:         40  HIT %:          0  MISS %:        100   MPKI: 0.0002
L2C PREFETCH  ACCESS:    5074630  HIT:          0  MISS:    5074630  HIT %:          0  MISS %:        100   MPKI: 25.3731
L2C DATA PREFETCH MPKI: 25.3731
L2C INSTRUCTION PREFETCH MPKI: 0
L2C WRITEBACK ACCESS:    2307408  HIT:    1243682  MISS:    1063726  HIT %:    53.8995  MISS %:    46.1005   MPKI: 5.31863
L2C LOAD TRANSLATION ACCESS:      82803  HIT:      72433  MISS:      10370  HIT %:    87.4763  MISS %:    12.5237   MPKI: 0.05185
L2C PREFETCH  REQUESTED:          0  ISSUED:          0  USEFUL:          0  USELESS:    5160057
L2C USEFUL LOAD PREFETCHES:          0 PREFETCH ISSUED TO LOWER LEVEL:    5167733  ACCURACY: 0
L2C TIMELY PREFETCHES:          0 LATE PREFETCHES: 0 DROPPED PREFETCHES: 0
L2C PREFETCHES SAME FILL-ORIGIN LEVEL: 0 DIFFERENT FILL-ORIGIN LEVEL: 0
L2C AVERAGE MISS LATENCY: 628.01 cycles
L2C RQ	ACCESS:     311217	FORWARD:          0	MERGED:          0	TO_CACHE:     311217
L2C WQ	ACCESS:    2316450	FORWARD:          0	MERGED:          0	TO_CACHE:    2316450
L2C PQ	ACCESS:    5167733	FORWARD:          0	MERGED:          0	TO_CACHE:    5167733

L2C Instructions Evicting Data 1
L2C Translations Evicting Data 10508
L2C Data Evicting Data 5385098
L2C Instructions Evicting Instructions 0
L2C Translations Evicting Instructions 0
L2C Data Evicting Instructions 1
L2C Instructions Evicting Translations 0
L2C Translations Evicting Translations 50
L2C Data Evicting Translations 9541
L2C Dense regions hint from L2: 0
PSCL5 TOTAL     ACCESS:      82803  HIT:      82803  MISS:          0  HIT %:        100  MISS %:          0   MPKI: 0
PSCL5 LOAD TRANSLATION ACCESS:      82803  HIT:      82803  MISS:          0  HIT %:        100  MISS %:          0   MPKI: 0
PSCL5 PREFETCH  REQUESTED:          0  ISSUED:          0  USEFUL:          0  USELESS:          0
PSCL5 USEFUL LOAD PREFETCHES:          0 PREFETCH ISSUED TO LOWER LEVEL:          0  ACCURACY: -nan
PSCL5 TIMELY PREFETCHES:          0 LATE PREFETCHES: 0 DROPPED PREFETCHES: 0
PSCL5 PREFETCHES SAME FILL-ORIGIN LEVEL: 0 DIFFERENT FILL-ORIGIN LEVEL: 0

PSCL4 TOTAL     ACCESS:      82803  HIT:      82803  MISS:          0  HIT %:        100  MISS %:          0   MPKI: 0
PSCL4 LOAD TRANSLATION ACCESS:      82803  HIT:      82803  MISS:          0  HIT %:        100  MISS %:          0   MPKI: 0
PSCL4 PREFETCH  REQUESTED:          0  ISSUED:          0  USEFUL:          0  USELESS:          0
PSCL4 USEFUL LOAD PREFETCHES:          0 PREFETCH ISSUED TO LOWER LEVEL:          0  ACCURACY: -nan
PSCL4 TIMELY PREFETCHES:          0 LATE PREFETCHES: 0 DROPPED PREFETCHES: 0
PSCL4 PREFETCHES SAME FILL-ORIGIN LEVEL: 0 DIFFERENT FILL-ORIGIN LEVEL: 0

PSCL3 TOTAL     ACCESS:      82803  HIT:      82803  MISS:          0  HIT %:        100  MISS %:          0   MPKI: 0
PSCL3 LOAD TRANSLATION ACCESS:      82803  HIT:      82803  MISS:          0  HIT %:        100  MISS %:          0   MPKI: 0
PSCL3 PREFETCH  REQUESTED:          0  ISSUED:          0  USEFUL:          0  USELESS:          0
PSCL3 USEFUL LOAD PREFETCHES:          0 PREFETCH ISSUED TO LOWER LEVEL:          0  ACCURACY: -nan
PSCL3 TIMELY PREFETCHES:          0 LATE PREFETCHES: 0 DROPPED PREFETCHES: 0
PSCL3 PREFETCHES SAME FILL-ORIGIN LEVEL: 0 DIFFERENT FILL-ORIGIN LEVEL: 0

PSCL2 TOTAL     ACCESS:      82803  HIT:      82803  MISS:          0  HIT %:        100  MISS %:          0   MPKI: 0
PSCL2 LOAD TRANSLATION ACCESS:      82803  HIT:      82803  MISS:          0  HIT %:        100  MISS %:          0   MPKI: 0
PSCL2 PREFETCH  REQUESTED:          0  ISSUED:          0  USEFUL:          0  USELESS:          0
PSCL2 USEFUL LOAD PREFETCHES:          0 PREFETCH ISSUED TO LOWER LEVEL:          0  ACCURACY: -nan
PSCL2 TIMELY PREFETCHES:          0 LATE PREFETCHES: 0 DROPPED PREFETCHES: 0
PSCL2 PREFETCHES SAME FILL-ORIGIN LEVEL: 0 DIFFERENT FILL-ORIGIN LEVEL: 0

LLC TOTAL     ACCESS:    7615264  HIT:    2176342  MISS:    5438922  HIT %:    28.5787  MISS %:    71.4213   MPKI: 27.1946
LLC LOAD      ACCESS:     223533  HIT:          0  MISS:     223533  HIT %:          0  MISS %:        100   MPKI: 1.11766
LLC RFO       ACCESS:         40  HIT:          0  MISS:         40  HIT %:          0  MISS %:        100   MPKI: 0.0002
LLC PREFETCH  ACCESS:    5074630  HIT:          0  MISS:    5074630  HIT %:          0  MISS %:        100   MPKI: 25.3731
LLC WRITEBACK ACCESS:    2306691  HIT:    2176340  MISS:     130351  HIT %:     94.349  MISS %:      5.651   MPKI: 0.651755
LLC LOAD TRANSLATION ACCESS:      10370  HIT:          2  MISS:      10368  HIT %:  0.0192864  MISS %:    99.9807   MPKI: 0.05184
LLC PREFETCH  REQUESTED:          0  ISSUED:          0  USEFUL:          0  USELESS:   20402890
LLC USEFUL LOAD PREFETCHES:          0 PREFETCH ISSUED TO LOWER LEVEL:   20487018  ACCURACY: 0
LLC TIMELY PREFETCHES:          0 LATE PREFETCHES: 0 DROPPED PREFETCHES: 0
LLC PREFETCHES SAME FILL-ORIGIN LEVEL: 0 DIFFERENT FILL-ORIGIN LEVEL: 0
LLC AVERAGE MISS LATENCY: 2808 cycles
LLC RQ	ACCESS:     953195	FORWARD:          0	MERGED:          0	TO_CACHE:     953195
LLC WQ	ACCESS:    9246086	FORWARD:          0	MERGED:          0	TO_CACHE:    9246086
LLC PQ	ACCESS:   20487020	FORWARD:          0	MERGED:          0	TO_CACHE:   20487020

LLC Dense regions hint to LLC: 0

RAW hits: 53
Loads Generated: 63576982
Loads sent to L1D: 63576929
Stores Generated: 8608198
Stores sent to L1D: 8608198
Major fault: 0 Minor fault: 8227
Allocated PAGES: 32908

stream: 
stream:times selected: 9202002
stream:pref_filled: 4106563
stream:pref_useful: 4106479
stream:pref_late: 2337892
stream:misses: 14973
stream:misses_by_poll: 0

CS: 
CS:times selected: 6659990
CS:pref_filled: 9994
CS:pref_useful: 9994
CS:pref_late: 6444
CS:misses: 2936410
CS:misses_by_poll: 91

CPLX: 
CPLX:times selected: 2541917
CPLX:pref_filled: 3672
CPLX:pref_useful: 3672
CPLX:pref_late: 3993
CPLX:misses: 1672964
CPLX:misses_by_poll: 43

NL_L1: 
NL:times selected: 763
NL:pref_filled: 13
NL:pref_useful: 13
NL:pref_late: 15
NL:misses: 646
NL:misses_by_poll: 0

total selections: 18404672
total_filled: 2815479
total_useful: 2815415
total_late: 2359466
total_polluted: 134
total_misses_after_warmup: 4587099
conflicts: 9
Degree Incremented Times: 913335
Degree Decremented Times: 0

L1 IP Table Write Accesses: 72175880
L1 IP Table Read Accesses: 72175871
L1 RST Write Accesses: 31104713
L1 RST Read Accesses: 62209426
L1 CSPT Write Accesses: 31104713
L1 CSPT Read Accesses: 60622273
L1 RR Filter Tag Write Accesses: 31745960
L1 RR Filter Tag Read Accesses: 6345962903
L1 IP Table Tag Write Accesses: 72175880
L1 IP Table Tag Read Accesses: 72175880
L1 RST Tag Write Accesses: 0
L1 RST Tag Read Accesses: 280212515
L1 RR Filter Write Accesses: 0
L1 RR Filter Read Accesses: 263821004
test: 414122

stream: 
stream:times selected: 9018918
stream:pref_filled: 2730590
stream:pref_useful: 2730544
stream:pref_late: 2310990
stream:misses: 14705
stream:misses_by_poll: 0

CS: 
CS:times selected: 6554412
CS:pref_filled: 5226
CS:pref_useful: 5217
CS:pref_late: 6245
CS:misses: 4447176
CS:misses_by_poll: 78

CPLX: 
CPLX:times selected: 2464407
CPLX:pref_filled: 3653
CPLX:pref_useful: 3653
CPLX:pref_late: 3949
CPLX:misses: 1632154
CPLX:misses_by_poll: 42

NL_L1: 
NL:times selected: 781
NL:pref_filled: 20
NL:pref_useful: 20
NL:pref_late: 17
NL:misses: 663
NL:misses_by_poll: 0

total selections: 18038518
total_filled: 2739488
total_useful: 2739433
total_late: 2332510
total_polluted: 120
total_misses_after_warmup: 4522337
conflicts: 9
Degree Incremented Times: 913335
Degree Decremented Times: 0

L1 IP Table Write Accesses: 72175880
L1 IP Table Read Accesses: 72175871
L1 RST Write Accesses: 31104713
L1 RST Read Accesses: 62209426
L1 CSPT Write Accesses: 31104713
L1 CSPT Read Accesses: 60622273
L1 RR Filter Tag Write Accesses: 31745960
L1 RR Filter Tag Read Accesses: 6345962903
L1 IP Table Tag Write Accesses: 72175880
L1 IP Table Tag Read Accesses: 72175880
L1 RST Tag Write Accesses: 0
L1 RST Tag Read Accesses: 280212515
L1 RR Filter Write Accesses: 0
L1 RR Filter Read Accesses: 263821004
test: 414122

stream: 
stream:times selected: 9016589
stream:pref_filled: 2723628
stream:pref_useful: 2723572
stream:pref_late: 2319360
stream:misses: 14797
stream:misses_by_poll: 0

CS: 
CS:times selected: 6539216
CS:pref_filled: 5194
CS:pref_useful: 5194
CS:pref_late: 6253
CS:misses: 4455733
CS:misses_by_poll: 101

CPLX: 
CPLX:times selected: 2477272
CPLX:pref_filled: 3495
CPLX:pref_useful: 3495
CPLX:pref_late: 3882
CPLX:misses: 1645081
CPLX:misses_by_poll: 39

NL_L1: 
NL:times selected: 807
NL:pref_filled: 15
NL:pref_useful: 15
NL:pref_late: 21
NL:misses: 705
NL:misses_by_poll: 0

total selections: 18033884
total_filled: 2732332
total_useful: 2732276
total_late: 2340784
total_polluted: 140
total_misses_after_warmup: 4533573
conflicts: 9
Degree Incremented Times: 913335
Degree Decremented Times: 0

L1 IP Table Write Accesses: 72175880
L1 IP Table Read Accesses: 72175871
L1 RST Write Accesses: 31104713
L1 RST Read Accesses: 62209426
L1 CSPT Write Accesses: 31104713
L1 CSPT Read Accesses: 60622273
L1 RR Filter Tag Write Accesses: 31745960
L1 RR Filter Tag Read Accesses: 6345962903
L1 IP Table Tag Write Accesses: 72175880
L1 IP Table Tag Read Accesses: 72175880
L1 RST Tag Write Accesses: 0
L1 RST Tag Read Accesses: 280212515
L1 RR Filter Write Accesses: 0
L1 RR Filter Read Accesses: 263821004
test: 414122

stream: 
stream:times selected: 9172250
stream:pref_filled: 2784154
stream:pref_useful: 2784093
stream:pref_late: 2353660
stream:misses: 15039
stream:misses_by_poll: 0

CS: 
CS:times selected: 6689807
CS:pref_filled: 5392
CS:pref_useful: 5392
CS:pref_late: 5820
CS:misses: 4534938
CS:misses_by_poll: 89

CPLX: 
CPLX:times selected: 2482344
CPLX:pref_filled: 3857
CPLX:pref_useful: 3857
CPLX:pref_late: 3786
CPLX:misses: 1628583
CPLX:misses_by_poll: 46

NL_L1: 
NL:times selected: 781
NL:pref_filled: 18
NL:pref_useful: 18
NL:pref_late: 14
NL:misses: 660
NL:misses_by_poll: 0

total selections: 18345182
total_filled: 2793421
total_useful: 2793360
total_late: 2374312
total_polluted: 135
total_misses_after_warmup: 4590770
conflicts: 9
Degree Incremented Times: 913335
Degree Decremented Times: 0

L1 IP Table Write Accesses: 72175880
L1 IP Table Read Accesses: 72175871
L1 RST Write Accesses: 31104713
L1 RST Read Accesses: 62209426
L1 CSPT Write Accesses: 31104713
L1 CSPT Read Accesses: 60622273
L1 RR Filter Tag Write Accesses: 31745960
L1 RR Filter Tag Read Accesses: 6345962903
L1 IP Table Tag Write Accesses: 72175880
L1 IP Table Tag Read Accesses: 72175880
L1 RST Tag Write Accesses: 0
L1 RST Tag Read Accesses: 280212515
L1 RR Filter Write Accesses: 0
L1 RR Filter Read Accesses: 263821004
test: 414122

DRAM Statistics
 CHANNEL 0
 RQ ROW_BUFFER_HIT:    3906061  ROW_BUFFER_MISS:   17534094
 DBUS_CONGESTED:        156
 WQ ROW_BUFFER_HIT:    1147448  ROW_BUFFER_MISS:    8087886  FULL:     767751

 AVG_CONGESTED_CYCLE: 1
 All warmup complete: 5
Channel 0 Bank busy for read cycles: 0
Channel 0 Bank busy for write cycles: 0
Channel 0
Rank 0
0banks busy for read cycles: 1408
0banks busy for write cycles: 128118
1banks busy for read cycles: 984061
1banks busy for write cycles: 15302703
2banks busy for read cycles: 1334069
2banks busy for write cycles: 11888339
3banks busy for read cycles: 2052585
3banks busy for write cycles: 14964645
4banks busy for read cycles: 3247877
4banks busy for write cycles: 7238952
5banks busy for read cycles: 5726737
5banks busy for write cycles: 2172824
6banks busy for read cycles: 10868976
6banks busy for write cycles: 2600887
7banks busy for read cycles: 41627164
7banks busy for write cycles: 12707836
8banks busy for read cycles: 338982653
8banks busy for write cycles: 185561865

CPU 0 Branch Prediction Accuracy: 99.789% MPKI: 0.35914 Average ROB Occupancy at Mispredict: 314.101
Branch types
NOT_BRANCH: 169871681 82.9776%
BRANCH_DIRECT_JUMP: 0 0%
BRANCH_INDIRECT: 10 4.88472e-06%
BRANCH_CONDITIONAL: 34848067 17.0223%
BRANCH_DIRECT_CALL: 50 2.44236e-05%
BRANCH_INDIRECT_CALL: 0 0%
BRANCH_RETURN: 50 2.44236e-05%
BRANCH_OTHER: 0 0%


CPU 1 Branch Prediction Accuracy: 99.7935% MPKI: 0.35097 Average ROB Occupancy at Mispredict: 315.098
Branch types
NOT_BRANCH: 166004187 83.0021%
BRANCH_DIRECT_JUMP: 0 0%
BRANCH_INDIRECT: 10 5e-06%
BRANCH_CONDITIONAL: 33996019 16.998%
BRANCH_DIRECT_CALL: 50 2.5e-05%
BRANCH_INDIRECT_CALL: 0 0%
BRANCH_RETURN: 50 2.5e-05%
BRANCH_OTHER: 0 0%


CPU 2 Branch Prediction Accuracy: 99.7934% MPKI: 0.35117 Average ROB Occupancy at Mispredict: 315.024
Branch types
NOT_BRANCH: 166097472 83.0015%
BRANCH_DIRECT_JUMP: 0 0%
BRANCH_INDIRECT: 10 4.99715e-06%
BRANCH_CONDITIONAL: 34016572 16.9986%
BRANCH_DIRECT_CALL: 50 2.49858e-05%
BRANCH_INDIRECT_CALL: 0 0%
BRANCH_RETURN: 50 2.49858e-05%
BRANCH_OTHER: 0 0%


CPU 3 Branch Prediction Accuracy: 99.7894% MPKI: 0.358382 Average ROB Occupancy at Mispredict: 314.14
Branch types
NOT_BRANCH: 169505895 82.9799%
BRANCH_DIRECT_JUMP: 0 0%
BRANCH_INDIRECT: 10 4.8954e-06%
BRANCH_CONDITIONAL: 34767479 17.0201%
BRANCH_DIRECT_CALL: 50 2.4477e-05%
BRANCH_INDIRECT_CALL: 0 0%
BRANCH_RETURN: 50 2.4477e-05%
BRANCH_OTHER: 0 0%

DRAM PAGES: 1048576
Allocated PAGES: 32908
