
*** ChampSim Multicore Out-of-Order Simulator ***

Warmup Instructions: 50000000
Simulation Instructions: 200000000
Number of CPUs: 4
LLC sets: 8192
LLC ways: 16
Off-chip DRAM Size: 4096 MB Channels: 1 Width: 64-bit Data Rate: 6400 MT/s
CPU 0 runs ./traces/gap/bc-12.trace.gz
.gz
CPU 1 runs ./traces/gap/bc-12.trace.gz
.gz
CPU 2 runs ./traces/gap/bc-12.trace.gz
.gz
CPU 3 runs ./traces/gap/bc-12.trace.gz
.gz
BTB has LRU replacement policy
ITLB has LRU replacement policy
DTLB has LRU replacement policy
STLB has LRU replacement policy
L1I has LRU replacement policy
IP Table Entries: 1024
CSPT Entries: 128
RR_ENTRIES: 32
RST_ENTRIES: 8
L1D has LRU replacement policy
Initialize SRRIP state for L2C
Initialize DRRIP state for LLC
BTB has LRU replacement policy
ITLB has LRU replacement policy
DTLB has LRU replacement policy
STLB has LRU replacement policy
L1I has LRU replacement policy
IP Table Entries: 1024
CSPT Entries: 128
RR_ENTRIES: 32
RST_ENTRIES: 8
L1D has LRU replacement policy
Initialize SRRIP state for L2C
Initialize DRRIP state for LLC
BTB has LRU replacement policy
ITLB has LRU replacement policy
DTLB has LRU replacement policy
STLB has LRU replacement policy
L1I has LRU replacement policy
IP Table Entries: 1024
CSPT Entries: 128
RR_ENTRIES: 32
RST_ENTRIES: 8
L1D has LRU replacement policy
Initialize SRRIP state for L2C
Initialize DRRIP state for LLC
BTB has LRU replacement policy
ITLB has LRU replacement policy
DTLB has LRU replacement policy
STLB has LRU replacement policy
L1I has LRU replacement policy
IP Table Entries: 1024
CSPT Entries: 128
RR_ENTRIES: 32
RST_ENTRIES: 8
L1D has LRU replacement policy
Initialize SRRIP state for L2C
Initialize DRRIP state for LLC
Heartbeat CPU 0 instructions: 10000001 cycles: 3984539 heartbeat IPC: 2.5097 cumulative IPC: 2.5097 (Simulation time: 0 hr 5 min 24 sec) 
Heartbeat CPU 1 instructions: 10000000 cycles: 3990358 heartbeat IPC: 2.50604 cumulative IPC: 2.50604 (Simulation time: 0 hr 5 min 25 sec) 
Heartbeat CPU 2 instructions: 10000000 cycles: 4010067 heartbeat IPC: 2.49372 cumulative IPC: 2.49372 (Simulation time: 0 hr 5 min 27 sec) 
Heartbeat CPU 3 instructions: 10000001 cycles: 4201864 heartbeat IPC: 2.3799 cumulative IPC: 2.3799 (Simulation time: 0 hr 5 min 44 sec) 
Heartbeat CPU 0 instructions: 20000000 cycles: 7802504 heartbeat IPC: 2.6192 cumulative IPC: 2.56328 (Simulation time: 0 hr 10 min 40 sec) 
Heartbeat CPU 1 instructions: 20000000 cycles: 7811864 heartbeat IPC: 2.61677 cumulative IPC: 2.56021 (Simulation time: 0 hr 10 min 40 sec) 
Heartbeat CPU 2 instructions: 20000000 cycles: 7835858 heartbeat IPC: 2.61384 cumulative IPC: 2.55237 (Simulation time: 0 hr 10 min 42 sec) 
Heartbeat CPU 3 instructions: 20000000 cycles: 8027443 heartbeat IPC: 2.61398 cumulative IPC: 2.49145 (Simulation time: 0 hr 10 min 58 sec) 
Heartbeat CPU 0 instructions: 30000002 cycles: 11669670 heartbeat IPC: 2.58587 cumulative IPC: 2.57077 (Simulation time: 0 hr 16 min 4 sec) 
Heartbeat CPU 1 instructions: 30000001 cycles: 11683396 heartbeat IPC: 2.58296 cumulative IPC: 2.56775 (Simulation time: 0 hr 16 min 5 sec) 
Heartbeat CPU 2 instructions: 30000002 cycles: 11714064 heartbeat IPC: 2.57851 cumulative IPC: 2.56102 (Simulation time: 0 hr 16 min 8 sec) 
Heartbeat CPU 3 instructions: 30000002 cycles: 11914690 heartbeat IPC: 2.57252 cumulative IPC: 2.5179 (Simulation time: 0 hr 16 min 26 sec) 
Heartbeat CPU 0 instructions: 40000001 cycles: 15650399 heartbeat IPC: 2.5121 cumulative IPC: 2.55585 (Simulation time: 0 hr 21 min 27 sec) 
Heartbeat CPU 1 instructions: 40000001 cycles: 15670455 heartbeat IPC: 2.50811 cumulative IPC: 2.55257 (Simulation time: 0 hr 21 min 29 sec) 
Heartbeat CPU 2 instructions: 40000001 cycles: 15712237 heartbeat IPC: 2.50114 cumulative IPC: 2.54579 (Simulation time: 0 hr 21 min 31 sec) 
Heartbeat CPU 3 instructions: 40000001 cycles: 15947843 heartbeat IPC: 2.47945 cumulative IPC: 2.50818 (Simulation time: 0 hr 21 min 49 sec) 
Heartbeat CPU 0 instructions: 50000001 cycles: 19769111 heartbeat IPC: 2.42794 cumulative IPC: 2.5292 (Simulation time: 0 hr 26 min 44 sec) 
Heartbeat CPU 1 instructions: 50000001 cycles: 19792164 heartbeat IPC: 2.42618 cumulative IPC: 2.52625 (Simulation time: 0 hr 26 min 45 sec) 
Heartbeat CPU 2 instructions: 50000001 cycles: 19827802 heartbeat IPC: 2.4298 cumulative IPC: 2.52171 (Simulation time: 0 hr 26 min 47 sec) 
Heartbeat CPU 3 instructions: 50000001 cycles: 19986682 heartbeat IPC: 2.47596 cumulative IPC: 2.50167 (Simulation time: 0 hr 26 min 53 sec) 

Warmup complete CPU 0 instructions: 50301759 cycles: 19986682 (Simulation time: 0 hr 26 min 53 sec) 
Warmup complete CPU 1 instructions: 50278378 cycles: 19986682 (Simulation time: 0 hr 26 min 53 sec) 
Warmup complete CPU 2 instructions: 50232058 cycles: 19986682 (Simulation time: 0 hr 26 min 53 sec) 
Warmup complete CPU 3 instructions: 50000001 cycles: 19986682 (Simulation time: 0 hr 26 min 53 sec) 

Heartbeat CPU 0 instructions: 60000001 cycles: 151745413 heartbeat IPC: 0.0757712 cumulative IPC: 0.0736061 (Simulation time: 0 hr 34 min 25 sec) 
Heartbeat CPU 1 instructions: 60000000 cycles: 152114266 heartbeat IPC: 0.0755732 cumulative IPC: 0.0735775 (Simulation time: 0 hr 34 min 26 sec) 
Heartbeat CPU 2 instructions: 60000000 cycles: 153388936 heartbeat IPC: 0.0748721 cumulative IPC: 0.0732217 (Simulation time: 0 hr 34 min 30 sec) 
Heartbeat CPU 3 instructions: 60000001 cycles: 154796297 heartbeat IPC: 0.0741787 cumulative IPC: 0.0741787 (Simulation time: 0 hr 34 min 34 sec) 
Heartbeat CPU 0 instructions: 70000000 cycles: 285978232 heartbeat IPC: 0.0744974 cumulative IPC: 0.0740559 (Simulation time: 0 hr 41 min 6 sec) 
Heartbeat CPU 1 instructions: 70000000 cycles: 287192215 heartbeat IPC: 0.0740313 cumulative IPC: 0.0738069 (Simulation time: 0 hr 41 min 10 sec) 
Heartbeat CPU 2 instructions: 70000000 cycles: 289269374 heartbeat IPC: 0.0735941 cumulative IPC: 0.0734096 (Simulation time: 0 hr 41 min 16 sec) 
Heartbeat CPU 3 instructions: 70000000 cycles: 289888680 heartbeat IPC: 0.0740234 cumulative IPC: 0.074101 (Simulation time: 0 hr 41 min 18 sec) 
Heartbeat CPU 0 instructions: 80000002 cycles: 419650299 heartbeat IPC: 0.07481 cumulative IPC: 0.0743081 (Simulation time: 0 hr 48 min 31 sec) 
Heartbeat CPU 1 instructions: 80000002 cycles: 421013043 heartbeat IPC: 0.0747268 cumulative IPC: 0.0741139 (Simulation time: 0 hr 48 min 36 sec) 
Heartbeat CPU 2 instructions: 80000002 cycles: 423384795 heartbeat IPC: 0.0745627 cumulative IPC: 0.073793 (Simulation time: 0 hr 48 min 46 sec) 
Heartbeat CPU 3 instructions: 80000002 cycles: 423543847 heartbeat IPC: 0.0748194 cumulative IPC: 0.0743389 (Simulation time: 0 hr 48 min 46 sec) 
Heartbeat CPU 0 instructions: 90000002 cycles: 553888571 heartbeat IPC: 0.0744944 cumulative IPC: 0.0743549 (Simulation time: 0 hr 56 min 49 sec) 
Heartbeat CPU 1 instructions: 90000002 cycles: 555634006 heartbeat IPC: 0.0742826 cumulative IPC: 0.0741563 (Simulation time: 0 hr 56 min 55 sec) 
Heartbeat CPU 3 instructions: 90000002 cycles: 558323772 heartbeat IPC: 0.074195 cumulative IPC: 0.0743029 (Simulation time: 0 hr 57 min 2 sec) 
Heartbeat CPU 2 instructions: 90000002 cycles: 558892983 heartbeat IPC: 0.0737963 cumulative IPC: 0.0737938 (Simulation time: 0 hr 57 min 4 sec) 
Heartbeat CPU 0 instructions: 100000001 cycles: 688264505 heartbeat IPC: 0.0744181 cumulative IPC: 0.0743676 (Simulation time: 1 hr 4 min 39 sec) 
Heartbeat CPU 1 instructions: 100000001 cycles: 690615493 heartbeat IPC: 0.0740842 cumulative IPC: 0.0741418 (Simulation time: 1 hr 4 min 49 sec) 
Heartbeat CPU 3 instructions: 100000001 cycles: 693053159 heartbeat IPC: 0.0742228 cumulative IPC: 0.0742869 (Simulation time: 1 hr 4 min 58 sec) 
Heartbeat CPU 2 instructions: 100000001 cycles: 694054319 heartbeat IPC: 0.0739857 cumulative IPC: 0.0738323 (Simulation time: 1 hr 5 min 2 sec) 
Heartbeat CPU 0 instructions: 110000000 cycles: 822264556 heartbeat IPC: 0.0746268 cumulative IPC: 0.0744109 (Simulation time: 1 hr 11 min 38 sec) 
Heartbeat CPU 1 instructions: 110000000 cycles: 824826059 heartbeat IPC: 0.0745098 cumulative IPC: 0.0742032 (Simulation time: 1 hr 11 min 46 sec) 
Heartbeat CPU 3 instructions: 110000000 cycles: 827580666 heartbeat IPC: 0.0743342 cumulative IPC: 0.0742948 (Simulation time: 1 hr 11 min 55 sec) 
Heartbeat CPU 2 instructions: 110000000 cycles: 829237524 heartbeat IPC: 0.0739737 cumulative IPC: 0.0738559 (Simulation time: 1 hr 12 min 0 sec) 
Heartbeat CPU 0 instructions: 120000001 cycles: 955507368 heartbeat IPC: 0.075051 cumulative IPC: 0.0745021 (Simulation time: 1 hr 19 min 32 sec) 
Heartbeat CPU 1 instructions: 120000001 cycles: 958834035 heartbeat IPC: 0.0746224 cumulative IPC: 0.074263 (Simulation time: 1 hr 19 min 45 sec) 
Heartbeat CPU 3 instructions: 120000001 cycles: 961957197 heartbeat IPC: 0.0744178 cumulative IPC: 0.0743123 (Simulation time: 1 hr 19 min 58 sec) 
Heartbeat CPU 2 instructions: 120000001 cycles: 964608371 heartbeat IPC: 0.0738712 cumulative IPC: 0.0738581 (Simulation time: 1 hr 20 min 8 sec) 
Heartbeat CPU 0 instructions: 130000003 cycles: 1089864423 heartbeat IPC: 0.0744286 cumulative IPC: 0.0744928 (Simulation time: 1 hr 28 min 2 sec) 
Heartbeat CPU 1 instructions: 130000003 cycles: 1093358438 heartbeat IPC: 0.074336 cumulative IPC: 0.0742721 (Simulation time: 1 hr 28 min 16 sec) 
Heartbeat CPU 3 instructions: 130000003 cycles: 1095843121 heartbeat IPC: 0.0746905 cumulative IPC: 0.0743594 (Simulation time: 1 hr 28 min 24 sec) 
Heartbeat CPU 2 instructions: 130000000 cycles: 1099812691 heartbeat IPC: 0.0739621 cumulative IPC: 0.0738711 (Simulation time: 1 hr 28 min 40 sec) 
Heartbeat CPU 0 instructions: 140000001 cycles: 1223795980 heartbeat IPC: 0.074665 cumulative IPC: 0.074512 (Simulation time: 1 hr 36 min 19 sec) 
Heartbeat CPU 1 instructions: 140000000 cycles: 1228312758 heartbeat IPC: 0.0740991 cumulative IPC: 0.0742528 (Simulation time: 1 hr 36 min 35 sec) 
Heartbeat CPU 3 instructions: 140000000 cycles: 1230508210 heartbeat IPC: 0.0742583 cumulative IPC: 0.0743481 (Simulation time: 1 hr 36 min 43 sec) 
Heartbeat CPU 2 instructions: 140000001 cycles: 1234963720 heartbeat IPC: 0.0739913 cumulative IPC: 0.0738845 (Simulation time: 1 hr 36 min 55 sec) 
Heartbeat CPU 0 instructions: 150000000 cycles: 1357266308 heartbeat IPC: 0.074923 cumulative IPC: 0.074553 (Simulation time: 1 hr 44 min 27 sec) 
Heartbeat CPU 1 instructions: 150000000 cycles: 1362710218 heartbeat IPC: 0.0744062 cumulative IPC: 0.0742682 (Simulation time: 1 hr 44 min 46 sec) 
Heartbeat CPU 3 instructions: 150000000 cycles: 1364725113 heartbeat IPC: 0.0745063 cumulative IPC: 0.0743639 (Simulation time: 1 hr 44 min 52 sec) 
Heartbeat CPU 2 instructions: 150000000 cycles: 1370131076 heartbeat IPC: 0.0739824 cumulative IPC: 0.0738943 (Simulation time: 1 hr 45 min 9 sec) 
Heartbeat CPU 0 instructions: 160000001 cycles: 1491981076 heartbeat IPC: 0.0742309 cumulative IPC: 0.0745235 (Simulation time: 1 hr 52 min 17 sec) 
Heartbeat CPU 1 instructions: 160000001 cycles: 1498158457 heartbeat IPC: 0.073829 cumulative IPC: 0.0742279 (Simulation time: 1 hr 52 min 41 sec) 
Heartbeat CPU 3 instructions: 160000003 cycles: 1499795363 heartbeat IPC: 0.0740356 cumulative IPC: 0.0743339 (Simulation time: 1 hr 52 min 47 sec) 
Heartbeat CPU 2 instructions: 160000001 cycles: 1505643562 heartbeat IPC: 0.0737939 cumulative IPC: 0.0738851 (Simulation time: 1 hr 53 min 8 sec) 
Heartbeat CPU 0 instructions: 170000000 cycles: 1627725429 heartbeat IPC: 0.0736679 cumulative IPC: 0.0744513 (Simulation time: 2 hr 0 min 0 sec) 
Heartbeat CPU 1 instructions: 170000003 cycles: 1634029817 heartbeat IPC: 0.073599 cumulative IPC: 0.074175 (Simulation time: 2 hr 0 min 24 sec) 
Heartbeat CPU 3 instructions: 170000003 cycles: 1635627831 heartbeat IPC: 0.0736201 cumulative IPC: 0.0742739 (Simulation time: 2 hr 0 min 30 sec) 
Heartbeat CPU 2 instructions: 170000003 cycles: 1642414263 heartbeat IPC: 0.0731151 cumulative IPC: 0.0738202 (Simulation time: 2 hr 0 min 56 sec) 
Heartbeat CPU 0 instructions: 180000001 cycles: 1761845987 heartbeat IPC: 0.0745598 cumulative IPC: 0.0744597 (Simulation time: 2 hr 7 min 58 sec) 
Heartbeat CPU 1 instructions: 180000001 cycles: 1768567597 heartbeat IPC: 0.0743285 cumulative IPC: 0.0741868 (Simulation time: 2 hr 8 min 23 sec) 
Heartbeat CPU 3 instructions: 180000001 cycles: 1770364401 heartbeat IPC: 0.0742189 cumulative IPC: 0.0742697 (Simulation time: 2 hr 8 min 30 sec) 
Heartbeat CPU 2 instructions: 180000001 cycles: 1777482512 heartbeat IPC: 0.0740366 cumulative IPC: 0.0738368 (Simulation time: 2 hr 8 min 52 sec) 
Heartbeat CPU 0 instructions: 190000003 cycles: 1892423109 heartbeat IPC: 0.0765831 cumulative IPC: 0.0746077 (Simulation time: 2 hr 15 min 48 sec) 
Heartbeat CPU 1 instructions: 190000003 cycles: 1899807313 heartbeat IPC: 0.0761965 cumulative IPC: 0.0743271 (Simulation time: 2 hr 16 min 17 sec) 
Heartbeat CPU 3 instructions: 190000003 cycles: 1901124908 heartbeat IPC: 0.0764757 cumulative IPC: 0.074423 (Simulation time: 2 hr 16 min 21 sec) 
Heartbeat CPU 2 instructions: 190000003 cycles: 1908585505 heartbeat IPC: 0.0762759 cumulative IPC: 0.0740062 (Simulation time: 2 hr 16 min 40 sec) 
Heartbeat CPU 0 instructions: 200000000 cycles: 2023413273 heartbeat IPC: 0.0763416 cumulative IPC: 0.0747211 (Simulation time: 2 hr 23 min 17 sec) 
Heartbeat CPU 1 instructions: 200000000 cycles: 2031112468 heartbeat IPC: 0.0761584 cumulative IPC: 0.0744467 (Simulation time: 2 hr 23 min 45 sec) 
Heartbeat CPU 3 instructions: 200000000 cycles: 2032235585 heartbeat IPC: 0.0762714 cumulative IPC: 0.0745435 (Simulation time: 2 hr 23 min 49 sec) 
Heartbeat CPU 2 instructions: 200000000 cycles: 2040547158 heartbeat IPC: 0.0757796 cumulative IPC: 0.074122 (Simulation time: 2 hr 24 min 22 sec) 
Heartbeat CPU 0 instructions: 210000002 cycles: 2154179968 heartbeat IPC: 0.0764721 cumulative IPC: 0.0748284 (Simulation time: 2 hr 31 min 7 sec) 
Heartbeat CPU 1 instructions: 210000002 cycles: 2162464808 heartbeat IPC: 0.0761311 cumulative IPC: 0.0745499 (Simulation time: 2 hr 31 min 40 sec) 
Heartbeat CPU 3 instructions: 210000002 cycles: 2163257534 heartbeat IPC: 0.0763231 cumulative IPC: 0.0746523 (Simulation time: 2 hr 31 min 43 sec) 
Heartbeat CPU 2 instructions: 210000002 cycles: 2172652899 heartbeat IPC: 0.075697 cumulative IPC: 0.0742186 (Simulation time: 2 hr 32 min 16 sec) 
Heartbeat CPU 0 instructions: 220000000 cycles: 2285067619 heartbeat IPC: 0.0764014 cumulative IPC: 0.0749193 (Simulation time: 2 hr 39 min 30 sec) 
Heartbeat CPU 1 instructions: 220000000 cycles: 2293835859 heartbeat IPC: 0.0761203 cumulative IPC: 0.0746407 (Simulation time: 2 hr 40 min 1 sec) 
Heartbeat CPU 3 instructions: 220000000 cycles: 2294014541 heartbeat IPC: 0.0764777 cumulative IPC: 0.0747572 (Simulation time: 2 hr 40 min 2 sec) 
Heartbeat CPU 2 instructions: 220000000 cycles: 2304561164 heartbeat IPC: 0.0758102 cumulative IPC: 0.0743105 (Simulation time: 2 hr 40 min 41 sec) 
Heartbeat CPU 0 instructions: 230000001 cycles: 2415611430 heartbeat IPC: 0.0766026 cumulative IPC: 0.075011 (Simulation time: 2 hr 47 min 17 sec) 
Heartbeat CPU 3 instructions: 230000000 cycles: 2424390456 heartbeat IPC: 0.0767013 cumulative IPC: 0.0748626 (Simulation time: 2 hr 47 min 44 sec) 
Heartbeat CPU 1 instructions: 230000001 cycles: 2424675145 heartbeat IPC: 0.0764297 cumulative IPC: 0.074738 (Simulation time: 2 hr 47 min 45 sec) 
Heartbeat CPU 2 instructions: 230000001 cycles: 2435868015 heartbeat IPC: 0.0761575 cumulative IPC: 0.0744109 (Simulation time: 2 hr 48 min 19 sec) 
Heartbeat CPU 0 instructions: 240000001 cycles: 2546568792 heartbeat IPC: 0.0763607 cumulative IPC: 0.075081 (Simulation time: 2 hr 53 min 59 sec) 
Heartbeat CPU 3 instructions: 240000001 cycles: 2555345010 heartbeat IPC: 0.0763624 cumulative IPC: 0.0749401 (Simulation time: 2 hr 54 min 26 sec) 
Heartbeat CPU 1 instructions: 240000001 cycles: 2555978629 heartbeat IPC: 0.0761594 cumulative IPC: 0.0748116 (Simulation time: 2 hr 54 min 28 sec) 
Heartbeat CPU 2 instructions: 240000002 cycles: 2567893870 heartbeat IPC: 0.0757427 cumulative IPC: 0.0744799 (Simulation time: 2 hr 55 min 4 sec) 
Heartbeat CPU 0 instructions: 250000000 cycles: 2676902933 heartbeat IPC: 0.0767259 cumulative IPC: 0.0751617 (Simulation time: 3 hr 0 min 28 sec) 
Finished CPU 0 instructions: 200000001 cycles: 2660819253 cumulative IPC: 0.0751648 (Simulation time: 3 hr 0 min 39 sec) 
Heartbeat CPU 3 instructions: 250000003 cycles: 2685448828 heartbeat IPC: 0.0768617 cumulative IPC: 0.0750339 (Simulation time: 3 hr 0 min 53 sec) 
Finished CPU 3 instructions: 200000002 cycles: 2665462146 cumulative IPC: 0.0750339 (Simulation time: 3 hr 0 min 53 sec) 
Heartbeat CPU 1 instructions: 250000003 cycles: 2686284701 heartbeat IPC: 0.0767424 cumulative IPC: 0.074906 (Simulation time: 3 hr 0 min 56 sec) 
Finished CPU 1 instructions: 200000000 cycles: 2669893039 cumulative IPC: 0.0749094 (Simulation time: 3 hr 1 min 6 sec) 
Heartbeat CPU 2 instructions: 250000003 cycles: 2698776299 heartbeat IPC: 0.0764045 cumulative IPC: 0.074574 (Simulation time: 3 hr 1 min 33 sec) 
Finished CPU 2 instructions: 200000002 cycles: 2681817426 cumulative IPC: 0.0745763 (Simulation time: 3 hr 1 min 44 sec) 

ChampSim completed all CPUs

Total Simulation Statistics (not including warmup)

CPU 0 cumulative IPC: 0.0751787 instructions: 201615588 cycles: 2681817426
ITLB TOTAL     ACCESS:   36971847  HIT:   36971847  MISS:          0  HIT %:        100  MISS %:          0   MPKI: 0
ITLB LOAD      ACCESS:          0  HIT:          0  MISS:          0  HIT %:       -nan  MISS %:       -nan   MPKI: 0
ITLB RFO       ACCESS:          0  HIT:          0  MISS:          0  HIT %:       -nan  MISS %:       -nan   MPKI: 0
ITLB PREFETCH  ACCESS:          0  HIT:          0  MISS:          0  HIT %:       -nan  MISS %:       -nan   MPKI: 0
ITLB WRITEBACK ACCESS:          0  HIT:          0  MISS:          0  HIT %:       -nan  MISS %:       -nan   MPKI: 0
DTLB TOTAL     ACCESS:   56346356  HIT:   47733568  MISS:    8612788  HIT %:    84.7146  MISS %:    15.2854   MPKI: 42.7189
DTLB LOAD      ACCESS:          0  HIT:          0  MISS:          0  HIT %:       -nan  MISS %:       -nan   MPKI: 0
DTLB RFO       ACCESS:          0  HIT:          0  MISS:          0  HIT %:       -nan  MISS %:       -nan   MPKI: 0
DTLB PREFETCH  ACCESS:          0  HIT:          0  MISS:          0  HIT %:       -nan  MISS %:       -nan   MPKI: 0
DTLB WRITEBACK ACCESS:          0  HIT:          0  MISS:          0  HIT %:       -nan  MISS %:       -nan   MPKI: 0
STLB TOTAL     ACCESS:   23365647  HIT:   19984828  MISS:    3380819  HIT %:    85.5308  MISS %:    14.4692   MPKI: 16.7686
STLB LOAD      ACCESS:          0  HIT:          0  MISS:          0  HIT %:       -nan  MISS %:       -nan   MPKI: 0
STLB RFO       ACCESS:          0  HIT:          0  MISS:          0  HIT %:       -nan  MISS %:       -nan   MPKI: 0
STLB PREFETCH  ACCESS:          0  HIT:          0  MISS:          0  HIT %:       -nan  MISS %:       -nan   MPKI: 0
STLB WRITEBACK ACCESS:          0  HIT:          0  MISS:          0  HIT %:       -nan  MISS %:       -nan   MPKI: 0
L1D TOTAL     ACCESS:   81497269  HIT:   48494594  MISS:   33002675  HIT %:    59.5046  MISS %:    40.4954   MPKI: 163.691
L1D LOAD      ACCESS:   52120828  HIT:   35678676  MISS:   16442152  HIT %:    68.4538  MISS %:    31.5462   MPKI: 81.552
L1D RFO       ACCESS:   10947801  HIT:   10914061  MISS:      33740  HIT %:    99.6918  MISS %:    0.30819   MPKI: 0.167348
L1D PREFETCH  ACCESS:   18428640  HIT:    1901857  MISS:   16526783  HIT %:    10.3201  MISS %:    89.6799   MPKI: 81.9718
L1D WRITEBACK ACCESS:          0  HIT:          0  MISS:          0  HIT %:       -nan  MISS %:       -nan   MPKI: 0
L1I TOTAL     ACCESS:   37279037  HIT:   37279037  MISS:          0  HIT %:        100  MISS %:          0   MPKI: 0
L1I LOAD      ACCESS:   37279037  HIT:   37279037  MISS:          0  HIT %:        100  MISS %:          0   MPKI: 0
L1I RFO       ACCESS:          0  HIT:          0  MISS:          0  HIT %:       -nan  MISS %:       -nan   MPKI: 0
L1I PREFETCH  ACCESS:          0  HIT:          0  MISS:          0  HIT %:       -nan  MISS %:       -nan   MPKI: 0
L1I WRITEBACK ACCESS:          0  HIT:          0  MISS:          0  HIT %:       -nan  MISS %:       -nan   MPKI: 0
L2C TOTAL     ACCESS:   41976452  HIT:   11079866  MISS:   30896586  HIT %:    26.3954  MISS %:    73.6046   MPKI: 153.245
L2C LOAD      ACCESS:   16206880  HIT:    1499047  MISS:   14707833  HIT %:    9.24945  MISS %:    90.7506   MPKI: 72.9499
L2C RFO       ACCESS:      33740  HIT:       4603  MISS:      29137  HIT %:    13.6426  MISS %:    86.3574   MPKI: 0.144518
L2C PREFETCH  ACCESS:   16762054  HIT:    1298133  MISS:   15463921  HIT %:    7.74447  MISS %:    92.2555   MPKI: 76.7
L2C WRITEBACK ACCESS:    5592388  HIT:    5342157  MISS:     250231  HIT %:    95.5255  MISS %:    4.47449   MPKI: 1.24113
PSCL5 TOTAL     ACCESS:    3380819  HIT:    3380819  MISS:          0  HIT %:        100  MISS %:          0   MPKI: 0
PSCL5 LOAD      ACCESS:          0  HIT:          0  MISS:          0  HIT %:       -nan  MISS %:       -nan   MPKI: 0
PSCL5 RFO       ACCESS:          0  HIT:          0  MISS:          0  HIT %:       -nan  MISS %:       -nan   MPKI: 0
PSCL5 PREFETCH  ACCESS:          0  HIT:          0  MISS:          0  HIT %:       -nan  MISS %:       -nan   MPKI: 0
PSCL5 WRITEBACK ACCESS:          0  HIT:          0  MISS:          0  HIT %:       -nan  MISS %:       -nan   MPKI: 0
PSCL4 TOTAL     ACCESS:    3380819  HIT:    3380819  MISS:          0  HIT %:        100  MISS %:          0   MPKI: 0
PSCL4 LOAD      ACCESS:          0  HIT:          0  MISS:          0  HIT %:       -nan  MISS %:       -nan   MPKI: 0
PSCL4 RFO       ACCESS:          0  HIT:          0  MISS:          0  HIT %:       -nan  MISS %:       -nan   MPKI: 0
PSCL4 PREFETCH  ACCESS:          0  HIT:          0  MISS:          0  HIT %:       -nan  MISS %:       -nan   MPKI: 0
PSCL4 WRITEBACK ACCESS:          0  HIT:          0  MISS:          0  HIT %:       -nan  MISS %:       -nan   MPKI: 0
PSCL3 TOTAL     ACCESS:    3380819  HIT:    3380819  MISS:          0  HIT %:        100  MISS %:          0   MPKI: 0
PSCL3 LOAD      ACCESS:          0  HIT:          0  MISS:          0  HIT %:       -nan  MISS %:       -nan   MPKI: 0
PSCL3 RFO       ACCESS:          0  HIT:          0  MISS:          0  HIT %:       -nan  MISS %:       -nan   MPKI: 0
PSCL3 PREFETCH  ACCESS:          0  HIT:          0  MISS:          0  HIT %:       -nan  MISS %:       -nan   MPKI: 0
PSCL3 WRITEBACK ACCESS:          0  HIT:          0  MISS:          0  HIT %:       -nan  MISS %:       -nan   MPKI: 0
PSCL2 TOTAL     ACCESS:    3380819  HIT:    3380211  MISS:        608  HIT %:     99.982  MISS %:  0.0179838   MPKI: 0.00301564
PSCL2 LOAD      ACCESS:          0  HIT:          0  MISS:          0  HIT %:       -nan  MISS %:       -nan   MPKI: 0
PSCL2 RFO       ACCESS:          0  HIT:          0  MISS:          0  HIT %:       -nan  MISS %:       -nan   MPKI: 0
PSCL2 PREFETCH  ACCESS:          0  HIT:          0  MISS:          0  HIT %:       -nan  MISS %:       -nan   MPKI: 0
PSCL2 WRITEBACK ACCESS:          0  HIT:          0  MISS:          0  HIT %:       -nan  MISS %:       -nan   MPKI: 0

stream: 
stream:times selected: 21806479
stream:pref_filled: 18677980
stream:pref_useful: 294500
stream:pref_late: 280547
stream:misses: 4409729
stream:misses_by_poll: 0

CS: 
CS:times selected: 1192750
CS:pref_filled: 1102872
CS:pref_useful: 888037
CS:pref_late: 36834
CS:misses: 183455
CS:misses_by_poll: 718

CPLX: 
CPLX:times selected: 20465813
CPLX:pref_filled: 412216
CPLX:pref_useful: 16160
CPLX:pref_late: 12133
CPLX:misses: 15681341
CPLX:misses_by_poll: 136

NL_L1: 
NL:times selected: 23949
NL:pref_filled: 22133
NL:pref_useful: 213
NL:pref_late: 239
NL:misses: 23303
NL:misses_by_poll: 0

total selections: 43488991
total_filled: 16526783
total_useful: 984819
total_late: 331395
total_polluted: 854
total_misses_after_warmup: 16611907
conflicts: 3
Degree Incremented Times: 969586
Degree Decremented Times: 2094192

L1 IP Table Write Accesses: 208838973
L1 IP Table Read Accesses: 208838970
L1 RST Write Accesses: 70907436
L1 RST Read Accesses: 141814872
L1 CSPT Write Accesses: 70907436
L1 CSPT Read Accesses: 137689604
L1 RR Filter Tag Write Accesses: 75734232
L1 RR Filter Tag Read Accesses: 2575776917
L1 IP Table Tag Write Accesses: 208839029
L1 IP Table Tag Read Accesses: 208839029
L1 RST Tag Write Accesses: 0
L1 RST Tag Read Accesses: 636562745
L1 RR Filter Write Accesses: 0
L1 RR Filter Read Accesses: 81606726
test: 37264789
LLC TOTAL     ACCESS:   36071630  HIT:   15900430  MISS:   20171200  HIT %:    44.0802  MISS %:    55.9198   MPKI: 100.048
LLC LOAD      ACCESS:   14707830  HIT:    5417103  MISS:    9290727  HIT %:    36.8314  MISS %:    63.1686   MPKI: 46.0814
LLC RFO       ACCESS:      29137  HIT:        160  MISS:      28977  HIT %:    0.54913  MISS %:    99.4509   MPKI: 0.143724
LLC PREFETCH  ACCESS:   15463919  HIT:    4979530  MISS:   10484389  HIT %:     32.201  MISS %:     67.799   MPKI: 52.0019
LLC WRITEBACK ACCESS:    5425280  HIT:    5077363  MISS:     347917  HIT %:    93.5871  MISS %:    6.41289   MPKI: 1.72565

RAW hits: 1200781
Loads Generated: 56782048
Loads sent to L1D: 55581266
Stores Generated: 11328132
Stores sent to L1D: 11328131

CPU 1 cumulative IPC: 0.0749172 instructions: 200914137 cycles: 2681817426
ITLB TOTAL     ACCESS:   36831732  HIT:   36831732  MISS:          0  HIT %:        100  MISS %:          0   MPKI: 0
ITLB LOAD      ACCESS:          0  HIT:          0  MISS:          0  HIT %:       -nan  MISS %:       -nan   MPKI: 0
ITLB RFO       ACCESS:          0  HIT:          0  MISS:          0  HIT %:       -nan  MISS %:       -nan   MPKI: 0
ITLB PREFETCH  ACCESS:          0  HIT:          0  MISS:          0  HIT %:       -nan  MISS %:       -nan   MPKI: 0
ITLB WRITEBACK ACCESS:          0  HIT:          0  MISS:          0  HIT %:       -nan  MISS %:       -nan   MPKI: 0
DTLB TOTAL     ACCESS:   56160344  HIT:   47592383  MISS:    8567961  HIT %:    84.7438  MISS %:    15.2562   MPKI: 42.6449
DTLB LOAD      ACCESS:          0  HIT:          0  MISS:          0  HIT %:       -nan  MISS %:       -nan   MPKI: 0
DTLB RFO       ACCESS:          0  HIT:          0  MISS:          0  HIT %:       -nan  MISS %:       -nan   MPKI: 0
DTLB PREFETCH  ACCESS:          0  HIT:          0  MISS:          0  HIT %:       -nan  MISS %:       -nan   MPKI: 0
DTLB WRITEBACK ACCESS:          0  HIT:          0  MISS:          0  HIT %:       -nan  MISS %:       -nan   MPKI: 0
STLB TOTAL     ACCESS:   23265965  HIT:   19897113  MISS:    3368852  HIT %:    85.5203  MISS %:    14.4797   MPKI: 16.7676
STLB LOAD      ACCESS:          0  HIT:          0  MISS:          0  HIT %:       -nan  MISS %:       -nan   MPKI: 0
STLB RFO       ACCESS:          0  HIT:          0  MISS:          0  HIT %:       -nan  MISS %:       -nan   MPKI: 0
STLB PREFETCH  ACCESS:          0  HIT:          0  MISS:          0  HIT %:       -nan  MISS %:       -nan   MPKI: 0
STLB WRITEBACK ACCESS:          0  HIT:          0  MISS:          0  HIT %:       -nan  MISS %:       -nan   MPKI: 0
L1D TOTAL     ACCESS:   81221373  HIT:   48339037  MISS:   32882336  HIT %:    59.5152  MISS %:    40.4848   MPKI: 163.664
L1D LOAD      ACCESS:   51947366  HIT:   35564181  MISS:   16383185  HIT %:     68.462  MISS %:     31.538   MPKI: 81.5432
L1D RFO       ACCESS:   10913473  HIT:   10879762  MISS:      33711  HIT %:    99.6911  MISS %:   0.308893   MPKI: 0.167788
L1D PREFETCH  ACCESS:   18360534  HIT:    1895094  MISS:   16465440  HIT %:    10.3216  MISS %:    89.6784   MPKI: 81.9526
L1D WRITEBACK ACCESS:          0  HIT:          0  MISS:          0  HIT %:       -nan  MISS %:       -nan   MPKI: 0
L1I TOTAL     ACCESS:   37138348  HIT:   37138348  MISS:          0  HIT %:        100  MISS %:          0   MPKI: 0
L1I LOAD      ACCESS:   37138348  HIT:   37138348  MISS:          0  HIT %:        100  MISS %:          0   MPKI: 0
L1I RFO       ACCESS:          0  HIT:          0  MISS:          0  HIT %:       -nan  MISS %:       -nan   MPKI: 0
L1I PREFETCH  ACCESS:          0  HIT:          0  MISS:          0  HIT %:       -nan  MISS %:       -nan   MPKI: 0
L1I WRITEBACK ACCESS:          0  HIT:          0  MISS:          0  HIT %:       -nan  MISS %:       -nan   MPKI: 0
L2C TOTAL     ACCESS:   41825779  HIT:   11031033  MISS:   30794746  HIT %:    26.3738  MISS %:    73.6262   MPKI: 153.273
L2C LOAD      ACCESS:   16147148  HIT:    1485011  MISS:   14662137  HIT %:    9.19674  MISS %:    90.8033   MPKI: 72.9771
L2C RFO       ACCESS:      33707  HIT:       4578  MISS:      29129  HIT %:    13.5817  MISS %:    86.4183   MPKI: 0.144982
L2C PREFETCH  ACCESS:   16701476  HIT:    1287363  MISS:   15414113  HIT %:    7.70808  MISS %:    92.2919   MPKI: 76.7199
L2C WRITEBACK ACCESS:    5574028  HIT:    5325916  MISS:     248112  HIT %:    95.5488  MISS %:    4.45122   MPKI: 1.23492
PSCL5 TOTAL     ACCESS:    3368852  HIT:    3368852  MISS:          0  HIT %:        100  MISS %:          0   MPKI: 0
PSCL5 LOAD      ACCESS:          0  HIT:          0  MISS:          0  HIT %:       -nan  MISS %:       -nan   MPKI: 0
PSCL5 RFO       ACCESS:          0  HIT:          0  MISS:          0  HIT %:       -nan  MISS %:       -nan   MPKI: 0
PSCL5 PREFETCH  ACCESS:          0  HIT:          0  MISS:          0  HIT %:       -nan  MISS %:       -nan   MPKI: 0
PSCL5 WRITEBACK ACCESS:          0  HIT:          0  MISS:          0  HIT %:       -nan  MISS %:       -nan   MPKI: 0
PSCL4 TOTAL     ACCESS:    3368852  HIT:    3368852  MISS:          0  HIT %:        100  MISS %:          0   MPKI: 0
PSCL4 LOAD      ACCESS:          0  HIT:          0  MISS:          0  HIT %:       -nan  MISS %:       -nan   MPKI: 0
PSCL4 RFO       ACCESS:          0  HIT:          0  MISS:          0  HIT %:       -nan  MISS %:       -nan   MPKI: 0
PSCL4 PREFETCH  ACCESS:          0  HIT:          0  MISS:          0  HIT %:       -nan  MISS %:       -nan   MPKI: 0
PSCL4 WRITEBACK ACCESS:          0  HIT:          0  MISS:          0  HIT %:       -nan  MISS %:       -nan   MPKI: 0
PSCL3 TOTAL     ACCESS:    3368852  HIT:    3368852  MISS:          0  HIT %:        100  MISS %:          0   MPKI: 0
PSCL3 LOAD      ACCESS:          0  HIT:          0  MISS:          0  HIT %:       -nan  MISS %:       -nan   MPKI: 0
PSCL3 RFO       ACCESS:          0  HIT:          0  MISS:          0  HIT %:       -nan  MISS %:       -nan   MPKI: 0
PSCL3 PREFETCH  ACCESS:          0  HIT:          0  MISS:          0  HIT %:       -nan  MISS %:       -nan   MPKI: 0
PSCL3 WRITEBACK ACCESS:          0  HIT:          0  MISS:          0  HIT %:       -nan  MISS %:       -nan   MPKI: 0
PSCL2 TOTAL     ACCESS:    3368852  HIT:    3368247  MISS:        605  HIT %:     99.982  MISS %:  0.0179586   MPKI: 0.00301124
PSCL2 LOAD      ACCESS:          0  HIT:          0  MISS:          0  HIT %:       -nan  MISS %:       -nan   MPKI: 0
PSCL2 RFO       ACCESS:          0  HIT:          0  MISS:          0  HIT %:       -nan  MISS %:       -nan   MPKI: 0
PSCL2 PREFETCH  ACCESS:          0  HIT:          0  MISS:          0  HIT %:       -nan  MISS %:       -nan   MPKI: 0
PSCL2 WRITEBACK ACCESS:          0  HIT:          0  MISS:          0  HIT %:       -nan  MISS %:       -nan   MPKI: 0

stream: 
stream:times selected: 21740657
stream:pref_filled: 18619443
stream:pref_useful: 293275
stream:pref_late: 281577
stream:misses: 4393175
stream:misses_by_poll: 0

CS: 
CS:times selected: 1188521
CS:pref_filled: 1099204
CS:pref_useful: 885076
CS:pref_late: 36667
CS:misses: 182141
CS:misses_by_poll: 681

CPLX: 
CPLX:times selected: 20404929
CPLX:pref_filled: 410624
CPLX:pref_useful: 16141
CPLX:pref_late: 12210
CPLX:misses: 15637492
CPLX:misses_by_poll: 117

NL_L1: 
NL:times selected: 24134
NL:pref_filled: 22314
NL:pref_useful: 225
NL:pref_late: 262
NL:misses: 23489
NL:misses_by_poll: 0

total selections: 43358241
total_filled: 16465440
total_useful: 981114
total_late: 332258
total_polluted: 798
total_misses_after_warmup: 16550711
conflicts: 3
Degree Incremented Times: 969586
Degree Decremented Times: 2094192

L1 IP Table Write Accesses: 208838973
L1 IP Table Read Accesses: 208838970
L1 RST Write Accesses: 70907436
L1 RST Read Accesses: 141814872
L1 CSPT Write Accesses: 70907436
L1 CSPT Read Accesses: 137689604
L1 RR Filter Tag Write Accesses: 75734232
L1 RR Filter Tag Read Accesses: 2575776917
L1 IP Table Tag Write Accesses: 208839029
L1 IP Table Tag Read Accesses: 208839029
L1 RST Tag Write Accesses: 0
L1 RST Tag Read Accesses: 636562745
L1 RR Filter Write Accesses: 0
L1 RR Filter Read Accesses: 81606726
test: 37264789
LLC TOTAL     ACCESS:   35953399  HIT:   15742829  MISS:   20210570  HIT %:    43.7868  MISS %:    56.2132   MPKI: 100.593
LLC LOAD      ACCESS:   14662135  HIT:    5355964  MISS:    9306171  HIT %:    36.5292  MISS %:    63.4708   MPKI: 46.3191
LLC RFO       ACCESS:      29129  HIT:        167  MISS:      28962  HIT %:   0.573312  MISS %:    99.4267   MPKI: 0.144151
LLC PREFETCH  ACCESS:   15414111  HIT:    4915400  MISS:   10498711  HIT %:     31.889  MISS %:     68.111   MPKI: 52.2547
LLC WRITEBACK ACCESS:    5406769  HIT:    5049611  MISS:     357158  HIT %:    93.3942  MISS %:    6.60576   MPKI: 1.77766

RAW hits: 1191610
Loads Generated: 56588245
Loads sent to L1D: 55396633
Stores Generated: 11291508
Stores sent to L1D: 11291506

CPU 2 cumulative IPC: 0.0745763 instructions: 200000002 cycles: 2681817426
ITLB TOTAL     ACCESS:   36649045  HIT:   36649045  MISS:          0  HIT %:        100  MISS %:          0   MPKI: 0
ITLB LOAD      ACCESS:          0  HIT:          0  MISS:          0  HIT %:       -nan  MISS %:       -nan   MPKI: 0
ITLB RFO       ACCESS:          0  HIT:          0  MISS:          0  HIT %:       -nan  MISS %:       -nan   MPKI: 0
ITLB PREFETCH  ACCESS:          0  HIT:          0  MISS:          0  HIT %:       -nan  MISS %:       -nan   MPKI: 0
ITLB WRITEBACK ACCESS:          0  HIT:          0  MISS:          0  HIT %:       -nan  MISS %:       -nan   MPKI: 0
DTLB TOTAL     ACCESS:   55919127  HIT:   47405806  MISS:    8513321  HIT %:    84.7757  MISS %:    15.2243   MPKI: 42.5666
DTLB LOAD      ACCESS:          0  HIT:          0  MISS:          0  HIT %:       -nan  MISS %:       -nan   MPKI: 0
DTLB RFO       ACCESS:          0  HIT:          0  MISS:          0  HIT %:       -nan  MISS %:       -nan   MPKI: 0
DTLB PREFETCH  ACCESS:          0  HIT:          0  MISS:          0  HIT %:       -nan  MISS %:       -nan   MPKI: 0
DTLB WRITEBACK ACCESS:          0  HIT:          0  MISS:          0  HIT %:       -nan  MISS %:       -nan   MPKI: 0
STLB TOTAL     ACCESS:   23139257  HIT:   19786296  MISS:    3352961  HIT %:    85.5096  MISS %:    14.4904   MPKI: 16.7648
STLB LOAD      ACCESS:          0  HIT:          0  MISS:          0  HIT %:       -nan  MISS %:       -nan   MPKI: 0
STLB RFO       ACCESS:          0  HIT:          0  MISS:          0  HIT %:       -nan  MISS %:       -nan   MPKI: 0
STLB PREFETCH  ACCESS:          0  HIT:          0  MISS:          0  HIT %:       -nan  MISS %:       -nan   MPKI: 0
STLB WRITEBACK ACCESS:          0  HIT:          0  MISS:          0  HIT %:       -nan  MISS %:       -nan   MPKI: 0
L1D TOTAL     ACCESS:   80864826  HIT:   48138006  MISS:   32726820  HIT %:     59.529  MISS %:     40.471   MPKI: 163.634
L1D LOAD      ACCESS:   51722463  HIT:   35416288  MISS:   16306175  HIT %:    68.4737  MISS %:    31.5263   MPKI: 81.5309
L1D RFO       ACCESS:   10869482  HIT:   10835872  MISS:      33610  HIT %:    99.6908  MISS %:   0.309214   MPKI: 0.16805
L1D PREFETCH  ACCESS:   18272881  HIT:    1885846  MISS:   16387035  HIT %:    10.3205  MISS %:    89.6795   MPKI: 81.9352
L1D WRITEBACK ACCESS:          0  HIT:          0  MISS:          0  HIT %:       -nan  MISS %:       -nan   MPKI: 0
L1I TOTAL     ACCESS:   36955114  HIT:   36955114  MISS:          0  HIT %:        100  MISS %:          0   MPKI: 0
L1I LOAD      ACCESS:   36955114  HIT:   36955114  MISS:          0  HIT %:        100  MISS %:          0   MPKI: 0
L1I RFO       ACCESS:          0  HIT:          0  MISS:          0  HIT %:       -nan  MISS %:       -nan   MPKI: 0
L1I PREFETCH  ACCESS:          0  HIT:          0  MISS:          0  HIT %:       -nan  MISS %:       -nan   MPKI: 0
L1I WRITEBACK ACCESS:          0  HIT:          0  MISS:          0  HIT %:       -nan  MISS %:       -nan   MPKI: 0
L2C TOTAL     ACCESS:   41630311  HIT:   10994550  MISS:   30635761  HIT %:      26.41  MISS %:      73.59   MPKI: 153.179
L2C LOAD      ACCESS:   16069951  HIT:    1464027  MISS:   14605924  HIT %:    9.11034  MISS %:    90.8897   MPKI: 73.0296
L2C RFO       ACCESS:      33609  HIT:       4518  MISS:      29091  HIT %:    13.4428  MISS %:    86.5572   MPKI: 0.145455
L2C PREFETCH  ACCESS:   16623259  HIT:    1270681  MISS:   15352578  HIT %:    7.64399  MISS %:     92.356   MPKI: 76.7629
L2C WRITEBACK ACCESS:    5549964  HIT:    5315973  MISS:     233991  HIT %:    95.7839  MISS %:    4.21608   MPKI: 1.16995
PSCL5 TOTAL     ACCESS:    3352961  HIT:    3352961  MISS:          0  HIT %:        100  MISS %:          0   MPKI: 0
PSCL5 LOAD      ACCESS:          0  HIT:          0  MISS:          0  HIT %:       -nan  MISS %:       -nan   MPKI: 0
PSCL5 RFO       ACCESS:          0  HIT:          0  MISS:          0  HIT %:       -nan  MISS %:       -nan   MPKI: 0
PSCL5 PREFETCH  ACCESS:          0  HIT:          0  MISS:          0  HIT %:       -nan  MISS %:       -nan   MPKI: 0
PSCL5 WRITEBACK ACCESS:          0  HIT:          0  MISS:          0  HIT %:       -nan  MISS %:       -nan   MPKI: 0
PSCL4 TOTAL     ACCESS:    3352961  HIT:    3352961  MISS:          0  HIT %:        100  MISS %:          0   MPKI: 0
PSCL4 LOAD      ACCESS:          0  HIT:          0  MISS:          0  HIT %:       -nan  MISS %:       -nan   MPKI: 0
PSCL4 RFO       ACCESS:          0  HIT:          0  MISS:          0  HIT %:       -nan  MISS %:       -nan   MPKI: 0
PSCL4 PREFETCH  ACCESS:          0  HIT:          0  MISS:          0  HIT %:       -nan  MISS %:       -nan   MPKI: 0
PSCL4 WRITEBACK ACCESS:          0  HIT:          0  MISS:          0  HIT %:       -nan  MISS %:       -nan   MPKI: 0
PSCL3 TOTAL     ACCESS:    3352961  HIT:    3352961  MISS:          0  HIT %:        100  MISS %:          0   MPKI: 0
PSCL3 LOAD      ACCESS:          0  HIT:          0  MISS:          0  HIT %:       -nan  MISS %:       -nan   MPKI: 0
PSCL3 RFO       ACCESS:          0  HIT:          0  MISS:          0  HIT %:       -nan  MISS %:       -nan   MPKI: 0
PSCL3 PREFETCH  ACCESS:          0  HIT:          0  MISS:          0  HIT %:       -nan  MISS %:       -nan   MPKI: 0
PSCL3 WRITEBACK ACCESS:          0  HIT:          0  MISS:          0  HIT %:       -nan  MISS %:       -nan   MPKI: 0
PSCL2 TOTAL     ACCESS:    3352961  HIT:    3352357  MISS:        604  HIT %:     99.982  MISS %:  0.0180139   MPKI: 0.00302
PSCL2 LOAD      ACCESS:          0  HIT:          0  MISS:          0  HIT %:       -nan  MISS %:       -nan   MPKI: 0
PSCL2 RFO       ACCESS:          0  HIT:          0  MISS:          0  HIT %:       -nan  MISS %:       -nan   MPKI: 0
PSCL2 PREFETCH  ACCESS:          0  HIT:          0  MISS:          0  HIT %:       -nan  MISS %:       -nan   MPKI: 0
PSCL2 WRITEBACK ACCESS:          0  HIT:          0  MISS:          0  HIT %:       -nan  MISS %:       -nan   MPKI: 0

stream: 
stream:times selected: 21656492
stream:pref_filled: 18543363
stream:pref_useful: 291832
stream:pref_late: 282210
stream:misses: 4372477
stream:misses_by_poll: 0

CS: 
CS:times selected: 1186145
CS:pref_filled: 1095442
CS:pref_useful: 882049
CS:pref_late: 36662
CS:misses: 182545
CS:misses_by_poll: 689

CPLX: 
CPLX:times selected: 20323907
CPLX:pref_filled: 408953
CPLX:pref_useful: 15887
CPLX:pref_late: 12208
CPLX:misses: 15579000
CPLX:misses_by_poll: 184

NL_L1: 
NL:times selected: 23723
NL:pref_filled: 21898
NL:pref_useful: 202
NL:pref_late: 249
NL:misses: 23095
NL:misses_by_poll: 0

total selections: 43190267
total_filled: 16387035
total_useful: 976733
total_late: 332910
total_polluted: 873
total_misses_after_warmup: 16469607
conflicts: 3
Degree Incremented Times: 969586
Degree Decremented Times: 2094192

L1 IP Table Write Accesses: 208838973
L1 IP Table Read Accesses: 208838970
L1 RST Write Accesses: 70907436
L1 RST Read Accesses: 141814872
L1 CSPT Write Accesses: 70907436
L1 CSPT Read Accesses: 137689604
L1 RR Filter Tag Write Accesses: 75734232
L1 RR Filter Tag Read Accesses: 2575776917
L1 IP Table Tag Write Accesses: 208839029
L1 IP Table Tag Read Accesses: 208839029
L1 RST Tag Write Accesses: 0
L1 RST Tag Read Accesses: 636562745
L1 RR Filter Write Accesses: 0
L1 RR Filter Read Accesses: 81606726
test: 37264789
LLC TOTAL     ACCESS:   35780789  HIT:   15522548  MISS:   20258241  HIT %:    43.3824  MISS %:    56.6176   MPKI: 101.291
LLC LOAD      ACCESS:   14605922  HIT:    5282858  MISS:    9323064  HIT %:    36.1693  MISS %:    63.8307   MPKI: 46.6153
LLC RFO       ACCESS:      29091  HIT:        175  MISS:      28916  HIT %:   0.601561  MISS %:    99.3984   MPKI: 0.14458
LLC PREFETCH  ACCESS:   15352576  HIT:    4835416  MISS:   10517160  HIT %:    31.4958  MISS %:    68.5042   MPKI: 52.5858
LLC WRITEBACK ACCESS:    5379023  HIT:    5011987  MISS:     367036  HIT %:    93.1765  MISS %:    6.82347   MPKI: 1.83518

RAW hits: 1175962
Loads Generated: 56335316
Loads sent to L1D: 55159354
Stores Generated: 11243609
Stores sent to L1D: 11243610

CPU 3 cumulative IPC: 0.0750439 instructions: 201253992 cycles: 2681817426
ITLB TOTAL     ACCESS:   36896596  HIT:   36896596  MISS:          0  HIT %:        100  MISS %:          0   MPKI: 0
ITLB LOAD      ACCESS:          0  HIT:          0  MISS:          0  HIT %:       -nan  MISS %:       -nan   MPKI: 0
ITLB RFO       ACCESS:          0  HIT:          0  MISS:          0  HIT %:       -nan  MISS %:       -nan   MPKI: 0
ITLB PREFETCH  ACCESS:          0  HIT:          0  MISS:          0  HIT %:       -nan  MISS %:       -nan   MPKI: 0
ITLB WRITEBACK ACCESS:          0  HIT:          0  MISS:          0  HIT %:       -nan  MISS %:       -nan   MPKI: 0
DTLB TOTAL     ACCESS:   56252665  HIT:   47671232  MISS:    8581433  HIT %:    84.7448  MISS %:    15.2552   MPKI: 42.6398
DTLB LOAD      ACCESS:          0  HIT:          0  MISS:          0  HIT %:       -nan  MISS %:       -nan   MPKI: 0
DTLB RFO       ACCESS:          0  HIT:          0  MISS:          0  HIT %:       -nan  MISS %:       -nan   MPKI: 0
DTLB PREFETCH  ACCESS:          0  HIT:          0  MISS:          0  HIT %:       -nan  MISS %:       -nan   MPKI: 0
DTLB WRITEBACK ACCESS:          0  HIT:          0  MISS:          0  HIT %:       -nan  MISS %:       -nan   MPKI: 0
STLB TOTAL     ACCESS:   23302319  HIT:   19926966  MISS:    3375353  HIT %:    85.5149  MISS %:    14.4851   MPKI: 16.7716
STLB LOAD      ACCESS:          0  HIT:          0  MISS:          0  HIT %:       -nan  MISS %:       -nan   MPKI: 0
STLB RFO       ACCESS:          0  HIT:          0  MISS:          0  HIT %:       -nan  MISS %:       -nan   MPKI: 0
STLB PREFETCH  ACCESS:          0  HIT:          0  MISS:          0  HIT %:       -nan  MISS %:       -nan   MPKI: 0
STLB WRITEBACK ACCESS:          0  HIT:          0  MISS:          0  HIT %:       -nan  MISS %:       -nan   MPKI: 0
L1D TOTAL     ACCESS:   81355404  HIT:   48417713  MISS:   32937691  HIT %:    59.5138  MISS %:    40.4862   MPKI: 163.662
L1D LOAD      ACCESS:   52032933  HIT:   35621427  MISS:   16411506  HIT %:    68.4594  MISS %:    31.5406   MPKI: 81.5462
L1D RFO       ACCESS:   10932693  HIT:   10898974  MISS:      33719  HIT %:    99.6916  MISS %:   0.308424   MPKI: 0.167545
L1D PREFETCH  ACCESS:   18389778  HIT:    1897312  MISS:   16492466  HIT %:    10.3172  MISS %:    89.6828   MPKI: 81.9485
L1D WRITEBACK ACCESS:          0  HIT:          0  MISS:          0  HIT %:       -nan  MISS %:       -nan   MPKI: 0
L1I TOTAL     ACCESS:   37204050  HIT:   37204050  MISS:          0  HIT %:        100  MISS %:          0   MPKI: 0
L1I LOAD      ACCESS:   37204050  HIT:   37204050  MISS:          0  HIT %:        100  MISS %:          0   MPKI: 0
L1I RFO       ACCESS:          0  HIT:          0  MISS:          0  HIT %:       -nan  MISS %:       -nan   MPKI: 0
L1I PREFETCH  ACCESS:          0  HIT:          0  MISS:          0  HIT %:       -nan  MISS %:       -nan   MPKI: 0
L1I WRITEBACK ACCESS:          0  HIT:          0  MISS:          0  HIT %:       -nan  MISS %:       -nan   MPKI: 0
L2C TOTAL     ACCESS:   41897245  HIT:   11045634  MISS:   30851611  HIT %:    26.3636  MISS %:    73.6364   MPKI: 153.297
L2C LOAD      ACCESS:   16175120  HIT:    1504328  MISS:   14670792  HIT %:    9.30026  MISS %:    90.6997   MPKI: 72.8969
L2C RFO       ACCESS:      33719  HIT:       4546  MISS:      29173  HIT %:     13.482  MISS %:     86.518   MPKI: 0.144956
L2C PREFETCH  ACCESS:   16728850  HIT:    1300950  MISS:   15427900  HIT %:    7.77669  MISS %:    92.2233   MPKI: 76.6589
L2C WRITEBACK ACCESS:    5583634  HIT:    5328687  MISS:     254947  HIT %:     95.434  MISS %:    4.56597   MPKI: 1.26679
PSCL5 TOTAL     ACCESS:    3375353  HIT:    3375353  MISS:          0  HIT %:        100  MISS %:          0   MPKI: 0
PSCL5 LOAD      ACCESS:          0  HIT:          0  MISS:          0  HIT %:       -nan  MISS %:       -nan   MPKI: 0
PSCL5 RFO       ACCESS:          0  HIT:          0  MISS:          0  HIT %:       -nan  MISS %:       -nan   MPKI: 0
PSCL5 PREFETCH  ACCESS:          0  HIT:          0  MISS:          0  HIT %:       -nan  MISS %:       -nan   MPKI: 0
PSCL5 WRITEBACK ACCESS:          0  HIT:          0  MISS:          0  HIT %:       -nan  MISS %:       -nan   MPKI: 0
PSCL4 TOTAL     ACCESS:    3375353  HIT:    3375353  MISS:          0  HIT %:        100  MISS %:          0   MPKI: 0
PSCL4 LOAD      ACCESS:          0  HIT:          0  MISS:          0  HIT %:       -nan  MISS %:       -nan   MPKI: 0
PSCL4 RFO       ACCESS:          0  HIT:          0  MISS:          0  HIT %:       -nan  MISS %:       -nan   MPKI: 0
PSCL4 PREFETCH  ACCESS:          0  HIT:          0  MISS:          0  HIT %:       -nan  MISS %:       -nan   MPKI: 0
PSCL4 WRITEBACK ACCESS:          0  HIT:          0  MISS:          0  HIT %:       -nan  MISS %:       -nan   MPKI: 0
PSCL3 TOTAL     ACCESS:    3375353  HIT:    3375353  MISS:          0  HIT %:        100  MISS %:          0   MPKI: 0
PSCL3 LOAD      ACCESS:          0  HIT:          0  MISS:          0  HIT %:       -nan  MISS %:       -nan   MPKI: 0
PSCL3 RFO       ACCESS:          0  HIT:          0  MISS:          0  HIT %:       -nan  MISS %:       -nan   MPKI: 0
PSCL3 PREFETCH  ACCESS:          0  HIT:          0  MISS:          0  HIT %:       -nan  MISS %:       -nan   MPKI: 0
PSCL3 WRITEBACK ACCESS:          0  HIT:          0  MISS:          0  HIT %:       -nan  MISS %:       -nan   MPKI: 0
PSCL2 TOTAL     ACCESS:    3375353  HIT:    3374747  MISS:        606  HIT %:     99.982  MISS %:  0.0179537   MPKI: 0.00301112
PSCL2 LOAD      ACCESS:          0  HIT:          0  MISS:          0  HIT %:       -nan  MISS %:       -nan   MPKI: 0
PSCL2 RFO       ACCESS:          0  HIT:          0  MISS:          0  HIT %:       -nan  MISS %:       -nan   MPKI: 0
PSCL2 PREFETCH  ACCESS:          0  HIT:          0  MISS:          0  HIT %:       -nan  MISS %:       -nan   MPKI: 0
PSCL2 WRITEBACK ACCESS:          0  HIT:          0  MISS:          0  HIT %:       -nan  MISS %:       -nan   MPKI: 0

stream: 
stream:times selected: 21746223
stream:pref_filled: 18624098
stream:pref_useful: 292932
stream:pref_late: 281846
stream:misses: 4395381
stream:misses_by_poll: 0

CS: 
CS:times selected: 1190631
CS:pref_filled: 1099737
CS:pref_useful: 885624
CS:pref_late: 36787
CS:misses: 182675
CS:misses_by_poll: 697

CPLX: 
CPLX:times selected: 20408223
CPLX:pref_filled: 411037
CPLX:pref_useful: 16097
CPLX:pref_late: 12069
CPLX:misses: 15640592
CPLX:misses_by_poll: 122

NL_L1: 
NL:times selected: 23829
NL:pref_filled: 22057
NL:pref_useful: 218
NL:pref_late: 239
NL:misses: 23215
NL:misses_by_poll: 0

total selections: 43368906
total_filled: 16492466
total_useful: 982081
total_late: 332532
total_polluted: 819
total_misses_after_warmup: 16556407
conflicts: 3
Degree Incremented Times: 969586
Degree Decremented Times: 2094192

L1 IP Table Write Accesses: 208838973
L1 IP Table Read Accesses: 208838970
L1 RST Write Accesses: 70907436
L1 RST Read Accesses: 141814872
L1 CSPT Write Accesses: 70907436
L1 CSPT Read Accesses: 137689604
L1 RR Filter Tag Write Accesses: 75734232
L1 RR Filter Tag Read Accesses: 2575776917
L1 IP Table Tag Write Accesses: 208839029
L1 IP Table Tag Read Accesses: 208839029
L1 RST Tag Write Accesses: 0
L1 RST Tag Read Accesses: 636562745
L1 RR Filter Write Accesses: 0
L1 RR Filter Read Accesses: 81606726
test: 37264789
LLC TOTAL     ACCESS:   36016563  HIT:   15759024  MISS:   20257539  HIT %:    43.7549  MISS %:    56.2451   MPKI: 100.657
LLC LOAD      ACCESS:   14670786  HIT:    5327068  MISS:    9343718  HIT %:    36.3107  MISS %:    63.6893   MPKI: 46.4275
LLC RFO       ACCESS:      29173  HIT:        177  MISS:      28996  HIT %:   0.606725  MISS %:    99.3933   MPKI: 0.144077
LLC PREFETCH  ACCESS:   15427900  HIT:    4889806  MISS:   10538094  HIT %:    31.6946  MISS %:    68.3054   MPKI: 52.3622
LLC WRITEBACK ACCESS:    5419905  HIT:    5091092  MISS:     328813  HIT %:    93.9332  MISS %:    6.06677   MPKI: 1.63382

RAW hits: 1195677
Loads Generated: 56683691
Loads sent to L1D: 55488014
Stores Generated: 11310771
Stores sent to L1D: 11310775

Region of Interest Statistics

CPU 0 cumulative IPC: 0.0751648 instructions: 200000001 cycles: 2660819253
ITLB TOTAL     ACCESS:   36649615  HIT:   36649615  MISS:          0  HIT %:        100  MISS %:          0   MPKI: 0
ITLB LOAD TRANSLATION ACCESS:   36649615  HIT:   36649615  MISS:          0  HIT %:        100  MISS %:          0   MPKI: 0
ITLB PREFETCH  REQUESTED:          0  ISSUED:          0  USEFUL:          0  USELESS:          0
ITLB USEFUL LOAD PREFETCHES:          0 PREFETCH ISSUED TO LOWER LEVEL:          0  ACCURACY: -nan
ITLB TIMELY PREFETCHES:          0 LATE PREFETCHES: 0 DROPPED PREFETCHES: 0
ITLB PREFETCHES SAME FILL-ORIGIN LEVEL: 0 DIFFERENT FILL-ORIGIN LEVEL: 0
ITLB AVERAGE MISS LATENCY: -nan cycles
ITLB RQ	ACCESS:   37279037	FORWARD:          0	MERGED:     307190	TO_CACHE:   36971847

DTLB TOTAL     ACCESS:   55895647  HIT:   47380580  MISS:    8515067  HIT %:    84.7661  MISS %:    15.2339   MPKI: 42.5753
DTLB LOAD TRANSLATION ACCESS:   55895647  HIT:   47380580  MISS:    8515067  HIT %:    84.7661  MISS %:    15.2339   MPKI: 42.5753
DTLB PREFETCH  REQUESTED:          0  ISSUED:          0  USEFUL:          0  USELESS:          0
DTLB USEFUL LOAD PREFETCHES:          0 PREFETCH ISSUED TO LOWER LEVEL:          0  ACCURACY: -nan
DTLB TIMELY PREFETCHES:          0 LATE PREFETCHES: 0 DROPPED PREFETCHES: 0
DTLB PREFETCHES SAME FILL-ORIGIN LEVEL: 0 DIFFERENT FILL-ORIGIN LEVEL: 0
DTLB AVERAGE MISS LATENCY: 20.8707 cycles
DTLB RQ	ACCESS:   63256433	FORWARD:          0	MERGED:    6257280	TO_CACHE:   56999153

STLB TOTAL     ACCESS:   23141514  HIT:   19788879  MISS:    3352635  HIT %:    85.5125  MISS %:    14.4875   MPKI: 16.7632
STLB LOAD TRANSLATION ACCESS:    8515067  HIT:    5162929  MISS:    3352138  HIT %:    60.6329  MISS %:    39.3671   MPKI: 16.7607
STLB TRANSLATION FROM L1D PREFETCHER ACCESS:   14626447  HIT:   14625950  MISS:        497  HIT %:    99.9966  MISS %: 0.00339795   MPKI: 0.002485
STLB PREFETCH  REQUESTED:          0  ISSUED:          0  USEFUL:        454  USELESS:         44
STLB USEFUL LOAD PREFETCHES:        454 PREFETCH ISSUED TO LOWER LEVEL:          0  ACCURACY: inf
STLB TIMELY PREFETCHES:        454 LATE PREFETCHES: 0 DROPPED PREFETCHES: 0
STLB PREFETCHES SAME FILL-ORIGIN LEVEL: 0 DIFFERENT FILL-ORIGIN LEVEL: 0
STLB AVERAGE MISS LATENCY: 29.4759 cycles
STLB RQ	ACCESS:   27570314	FORWARD:          0	MERGED:    4204656	TO_CACHE:   23365658

STLB Hit, L1D data hit: 0
STLB Hit, L2C data hit: 0
STLB Hit, LLC data hit: 0
STLB Hit, LLC data miss: 0
STLB STLB hints to L2: 0
L1D TOTAL     ACCESS:   80841833  HIT:   48114637  MISS:   32727196  HIT %:     59.517  MISS %:     40.483   MPKI: 163.636
L1D LOAD      ACCESS:   51702371  HIT:   35397491  MISS:   16304880  HIT %:     68.464  MISS %:     31.536   MPKI: 81.5244
L1D RFO       ACCESS:   10864686  HIT:   10831094  MISS:      33592  HIT %:    99.6908  MISS %:   0.309185   MPKI: 0.16796
L1D PREFETCH  ACCESS:   18274776  HIT:    1886052  MISS:   16388724  HIT %:    10.3205  MISS %:    89.6795   MPKI: 81.9436
L1D PREFETCH  REQUESTED:   37915078  ISSUED:   37915078  USEFUL:     984819  USELESS:   15541975
L1D USEFUL LOAD PREFETCHES:     984819 PREFETCH ISSUED TO LOWER LEVEL:   16762054  ACCURACY: 5.87529
L1D TIMELY PREFETCHES:     984819 LATE PREFETCHES: 235271 DROPPED PREFETCHES: 0
L1D PREFETCHES SAME FILL-ORIGIN LEVEL: 16762054 DIFFERENT FILL-ORIGIN LEVEL: 0
L1D AVERAGE MISS LATENCY: 322.7 cycles
L1D RQ	ACCESS:   55581266	FORWARD:          0	MERGED:    3312534	TO_CACHE:   52266097
L1D WQ	ACCESS:   11328131	FORWARD:       2661	MERGED:     337795	TO_CACHE:   10990336
L1D PQ	ACCESS:   18957552	FORWARD:          0	MERGED:          0	TO_CACHE:   18957526

L1D UNIQUE REGIONS ACCESSED: 0
L1D REGIONS CONFLICTS: 0
L1D Cross Page Prefetch Requests: 0
L1D Same Page Prefetch Requests: 23324316
L1D ROI Sum of L1D PQ occupancy: 224685298
L1D PREFETCHES PUSHED FROM L2C: 0
L1I TOTAL     ACCESS:   36955581  HIT:   36955581  MISS:          0  HIT %:        100  MISS %:          0   MPKI: 0
L1I LOAD      ACCESS:   36955581  HIT:   36955581  MISS:          0  HIT %:        100  MISS %:          0   MPKI: 0
L1I PREFETCH  REQUESTED:          0  ISSUED:          0  USEFUL:          0  USELESS:          0
L1I USEFUL LOAD PREFETCHES:          0 PREFETCH ISSUED TO LOWER LEVEL:          0  ACCURACY: -nan
L1I TIMELY PREFETCHES:          0 LATE PREFETCHES: 0 DROPPED PREFETCHES: 0
L1I PREFETCHES SAME FILL-ORIGIN LEVEL: 0 DIFFERENT FILL-ORIGIN LEVEL: 0
L1I AVERAGE MISS LATENCY: -nan cycles
L1I RQ	ACCESS:   48645929	FORWARD:          0	MERGED:   11366892	TO_CACHE:   37279037

BTB TOTAL     ACCESS:   35192497  HIT:   35192489  MISS:          8  HIT %:        100  MISS %: 2.27321e-05   MPKI: 4e-05
BTB BRANCH_DIRECT_JUMP	ACCESS:     253404  HIT:     253402  MISS:          2
BTB BRANCH_INDIRECT	ACCESS:          0  HIT:          0  MISS:          0
BTB BRANCH_CONDITIONAL	ACCESS:   34939065  HIT:   34939061  MISS:          4
BTB BRANCH_DIRECT_CALL	ACCESS:         14  HIT:         13  MISS:          1
BTB BRANCH_INDIRECT_CALL	ACCESS:          0  HIT:          0  MISS:          0
BTB BRANCH_RETURN	ACCESS:         14  HIT:         13  MISS:          1
BTB BRANCH_OTHER ACCESS:          0  HIT:          0  MISS:          0

L2C TOTAL     ACCESS:   41630174  HIT:   10982178  MISS:   30647996  HIT %:    26.3803  MISS %:    73.6197   MPKI: 153.24
L2C LOAD      ACCESS:   16069923  HIT:    1481982  MISS:   14587941  HIT %:    9.22209  MISS %:    90.7779   MPKI: 72.9397
L2C DATA LOAD MPKI: 72.9397
L2C INSTRUCTION LOAD MPKI: 0
L2C RFO       ACCESS:      33592  HIT:       4512  MISS:      29080  HIT %:    13.4318  MISS %:    86.5682   MPKI: 0.1454
L2C PREFETCH  ACCESS:   16623680  HIT:    1282884  MISS:   15340796  HIT %:    7.71721  MISS %:    92.2828   MPKI: 76.704
L2C DATA PREFETCH MPKI: 76.704
L2C INSTRUCTION PREFETCH MPKI: 0
L2C WRITEBACK ACCESS:    5549778  HIT:    5301345  MISS:     248433  HIT %:    95.5236  MISS %:    4.47645   MPKI: 1.24216
L2C LOAD TRANSLATION ACCESS:    3352704  HIT:    2911045  MISS:     441659  HIT %:    86.8268  MISS %:    13.1732   MPKI: 2.20829
L2C TRANSLATION FROM L1D PREFETCHER ACCESS:        497  HIT:        410  MISS:         87  HIT %:     82.495  MISS %:     17.505   MPKI: 0.000435
L2C PREFETCH  REQUESTED:          0  ISSUED:          0  USEFUL:     269070  USELESS:   15194965
L2C USEFUL LOAD PREFETCHES:     269070 PREFETCH ISSUED TO LOWER LEVEL:   15463921  ACCURACY: 1.73999
L2C TIMELY PREFETCHES:     269070 LATE PREFETCHES: 0 DROPPED PREFETCHES: 0
L2C PREFETCHES SAME FILL-ORIGIN LEVEL: 0 DIFFERENT FILL-ORIGIN LEVEL: 0
L2C AVERAGE MISS LATENCY: 334.879 cycles
L2C RQ	ACCESS:   19622012	FORWARD:          0	MERGED:          0	TO_CACHE:   19622011
L2C WQ	ACCESS:    5592388	FORWARD:          1	MERGED:          0	TO_CACHE:    5592388
L2C PQ	ACCESS:   16762054	FORWARD:          0	MERGED:          0	TO_CACHE:   16762054

L2C Instructions Evicting Data 0
L2C Translations Evicting Data 444886
L2C Data Evicting Data 29760628
L2C Instructions Evicting Instructions 0
L2C Translations Evicting Instructions 0
L2C Data Evicting Instructions 0
L2C Instructions Evicting Translations 0
L2C Translations Evicting Translations 578
L2C Data Evicting Translations 440263
L2C Dense regions hint from L2: 0
PSCL5 TOTAL     ACCESS:    3352635  HIT:    3352635  MISS:          0  HIT %:        100  MISS %:          0   MPKI: 0
PSCL5 LOAD TRANSLATION ACCESS:    3352138  HIT:    3352138  MISS:          0  HIT %:        100  MISS %:          0   MPKI: 0
PSCL5 TRANSLATION FROM L1D PREFETCHER ACCESS:        497  HIT:        497  MISS:          0  HIT %:        100  MISS %:          0   MPKI: 0
PSCL5 PREFETCH  REQUESTED:          0  ISSUED:          0  USEFUL:          0  USELESS:          0
PSCL5 USEFUL LOAD PREFETCHES:          0 PREFETCH ISSUED TO LOWER LEVEL:          0  ACCURACY: -nan
PSCL5 TIMELY PREFETCHES:          0 LATE PREFETCHES: 0 DROPPED PREFETCHES: 0
PSCL5 PREFETCHES SAME FILL-ORIGIN LEVEL: 0 DIFFERENT FILL-ORIGIN LEVEL: 0

PSCL4 TOTAL     ACCESS:    3352635  HIT:    3352635  MISS:          0  HIT %:        100  MISS %:          0   MPKI: 0
PSCL4 LOAD TRANSLATION ACCESS:    3352138  HIT:    3352138  MISS:          0  HIT %:        100  MISS %:          0   MPKI: 0
PSCL4 TRANSLATION FROM L1D PREFETCHER ACCESS:        497  HIT:        497  MISS:          0  HIT %:        100  MISS %:          0   MPKI: 0
PSCL4 PREFETCH  REQUESTED:          0  ISSUED:          0  USEFUL:          0  USELESS:          0
PSCL4 USEFUL LOAD PREFETCHES:          0 PREFETCH ISSUED TO LOWER LEVEL:          0  ACCURACY: -nan
PSCL4 TIMELY PREFETCHES:          0 LATE PREFETCHES: 0 DROPPED PREFETCHES: 0
PSCL4 PREFETCHES SAME FILL-ORIGIN LEVEL: 0 DIFFERENT FILL-ORIGIN LEVEL: 0

PSCL3 TOTAL     ACCESS:    3352635  HIT:    3352635  MISS:          0  HIT %:        100  MISS %:          0   MPKI: 0
PSCL3 LOAD TRANSLATION ACCESS:    3352138  HIT:    3352138  MISS:          0  HIT %:        100  MISS %:          0   MPKI: 0
PSCL3 TRANSLATION FROM L1D PREFETCHER ACCESS:        497  HIT:        497  MISS:          0  HIT %:        100  MISS %:          0   MPKI: 0
PSCL3 PREFETCH  REQUESTED:          0  ISSUED:          0  USEFUL:          0  USELESS:          0
PSCL3 USEFUL LOAD PREFETCHES:          0 PREFETCH ISSUED TO LOWER LEVEL:          0  ACCURACY: -nan
PSCL3 TIMELY PREFETCHES:          0 LATE PREFETCHES: 0 DROPPED PREFETCHES: 0
PSCL3 PREFETCHES SAME FILL-ORIGIN LEVEL: 0 DIFFERENT FILL-ORIGIN LEVEL: 0

PSCL2 TOTAL     ACCESS:    3352635  HIT:    3352032  MISS:        603  HIT %:     99.982  MISS %:  0.0179859   MPKI: 0.003015
PSCL2 LOAD TRANSLATION ACCESS:    3352138  HIT:    3351535  MISS:        603  HIT %:     99.982  MISS %:  0.0179885   MPKI: 0.003015
PSCL2 TRANSLATION FROM L1D PREFETCHER ACCESS:        497  HIT:        497  MISS:          0  HIT %:        100  MISS %:          0   MPKI: 0
PSCL2 PREFETCH  REQUESTED:          0  ISSUED:          0  USEFUL:          0  USELESS:          0
PSCL2 USEFUL LOAD PREFETCHES:          0 PREFETCH ISSUED TO LOWER LEVEL:          0  ACCURACY: -nan
PSCL2 TIMELY PREFETCHES:          0 LATE PREFETCHES: 0 DROPPED PREFETCHES: 0
PSCL2 PREFETCHES SAME FILL-ORIGIN LEVEL: 0 DIFFERENT FILL-ORIGIN LEVEL: 0

LLC TOTAL     ACCESS:   35783893  HIT:   15766311  MISS:   20017582  HIT %:    44.0598  MISS %:    55.9402   MPKI: 100.088
LLC LOAD      ACCESS:   14587938  HIT:    5369357  MISS:    9218581  HIT %:    36.8068  MISS %:    63.1932   MPKI: 46.0929
LLC RFO       ACCESS:      29080  HIT:        160  MISS:      28920  HIT %:   0.550206  MISS %:    99.4498   MPKI: 0.1446
LLC PREFETCH  ACCESS:   15340794  HIT:    4934978  MISS:   10405816  HIT %:     32.169  MISS %:     67.831   MPKI: 52.0291
LLC WRITEBACK ACCESS:    5384335  HIT:    5039026  MISS:     345309  HIT %:    93.5868  MISS %:    6.41322   MPKI: 1.72654
LLC LOAD TRANSLATION ACCESS:     441659  HIT:     422705  MISS:      18954  HIT %:    95.7085  MISS %:    4.29155   MPKI: 0.09477
LLC TRANSLATION FROM L1D PREFETCHER ACCESS:         87  HIT:         85  MISS:          2  HIT %:    97.7011  MISS %:    2.29885   MPKI: 1e-05
LLC PREFETCH  REQUESTED:          0  ISSUED:          0  USEFUL:    2751236  USELESS:   39289150
LLC USEFUL LOAD PREFETCHES:    2751236 PREFETCH ISSUED TO LOWER LEVEL:   42038354  ACCURACY: 6.54459
LLC TIMELY PREFETCHES:    2751236 LATE PREFETCHES: 0 DROPPED PREFETCHES: 0
LLC PREFETCHES SAME FILL-ORIGIN LEVEL: 0 DIFFERENT FILL-ORIGIN LEVEL: 0
LLC AVERAGE MISS LATENCY: 1870.72 cycles
LLC RQ	ACCESS:   60532913	FORWARD:          0	MERGED:          0	TO_CACHE:   60532900
LLC WQ	ACCESS:   21630977	FORWARD:         19	MERGED:          0	TO_CACHE:   21630977
LLC PQ	ACCESS:   61658509	FORWARD:          0	MERGED:          0	TO_CACHE:   61658503

LLC Dense regions hint to LLC: 0

RAW hits: 1194844
Loads Generated: 56334947
Loads sent to L1D: 55140103
Stores Generated: 11243267
Stores sent to L1D: 11243267
Major fault: 0 Minor fault: 31163
Allocated PAGES: 124388

CPU 1 cumulative IPC: 0.0749094 instructions: 200000000 cycles: 2669893039
ITLB TOTAL     ACCESS:   36649525  HIT:   36649525  MISS:          0  HIT %:        100  MISS %:          0   MPKI: 0
ITLB LOAD TRANSLATION ACCESS:   36649525  HIT:   36649525  MISS:          0  HIT %:        100  MISS %:          0   MPKI: 0
ITLB PREFETCH  REQUESTED:          0  ISSUED:          0  USEFUL:          0  USELESS:          0
ITLB USEFUL LOAD PREFETCHES:          0 PREFETCH ISSUED TO LOWER LEVEL:          0  ACCURACY: -nan
ITLB TIMELY PREFETCHES:          0 LATE PREFETCHES: 0 DROPPED PREFETCHES: 0
ITLB PREFETCHES SAME FILL-ORIGIN LEVEL: 0 DIFFERENT FILL-ORIGIN LEVEL: 0
ITLB AVERAGE MISS LATENCY: -nan cycles
ITLB RQ	ACCESS:   37138348	FORWARD:          0	MERGED:     306617	TO_CACHE:   36831731

DTLB TOTAL     ACCESS:   55905277  HIT:   47390158  MISS:    8515119  HIT %:    84.7687  MISS %:    15.2313   MPKI: 42.5756
DTLB LOAD TRANSLATION ACCESS:   55905277  HIT:   47390158  MISS:    8515119  HIT %:    84.7687  MISS %:    15.2313   MPKI: 42.5756
DTLB PREFETCH  REQUESTED:          0  ISSUED:          0  USEFUL:          0  USELESS:          0
DTLB USEFUL LOAD PREFETCHES:          0 PREFETCH ISSUED TO LOWER LEVEL:          0  ACCURACY: -nan
DTLB TIMELY PREFETCHES:          0 LATE PREFETCHES: 0 DROPPED PREFETCHES: 0
DTLB PREFETCHES SAME FILL-ORIGIN LEVEL: 0 DIFFERENT FILL-ORIGIN LEVEL: 0
DTLB AVERAGE MISS LATENCY: 20.7936 cycles
DTLB RQ	ACCESS:   63048444	FORWARD:          0	MERGED:    6236770	TO_CACHE:   56811674

STLB TOTAL     ACCESS:   23142140  HIT:   19789400  MISS:    3352740  HIT %:    85.5124  MISS %:    14.4876   MPKI: 16.7637
STLB LOAD TRANSLATION ACCESS:    8515119  HIT:    5162872  MISS:    3352247  HIT %:    60.6318  MISS %:    39.3682   MPKI: 16.7612
STLB TRANSLATION FROM L1D PREFETCHER ACCESS:   14627021  HIT:   14626528  MISS:        493  HIT %:    99.9966  MISS %: 0.00337047   MPKI: 0.002465
STLB PREFETCH  REQUESTED:          0  ISSUED:          0  USEFUL:        450  USELESS:         43
STLB USEFUL LOAD PREFETCHES:        450 PREFETCH ISSUED TO LOWER LEVEL:          0  ACCURACY: inf
STLB TIMELY PREFETCHES:        450 LATE PREFETCHES: 0 DROPPED PREFETCHES: 0
STLB PREFETCHES SAME FILL-ORIGIN LEVEL: 0 DIFFERENT FILL-ORIGIN LEVEL: 0
STLB AVERAGE MISS LATENCY: 29.4017 cycles
STLB RQ	ACCESS:   27457671	FORWARD:          0	MERGED:    4191694	TO_CACHE:   23265977

STLB Hit, L1D data hit: 0
STLB Hit, L2C data hit: 0
STLB Hit, LLC data hit: 0
STLB Hit, LLC data miss: 0
STLB STLB hints to L2: 0
L1D TOTAL     ACCESS:   80850456  HIT:   48123460  MISS:   32726996  HIT %:    59.5216  MISS %:    40.4784   MPKI: 163.635
L1D LOAD      ACCESS:   51710287  HIT:   35404499  MISS:   16305788  HIT %:     68.467  MISS %:     31.533   MPKI: 81.5289
L1D RFO       ACCESS:   10866290  HIT:   10832657  MISS:      33633  HIT %:    99.6905  MISS %:   0.309517   MPKI: 0.168165
L1D PREFETCH  ACCESS:   18273879  HIT:    1886304  MISS:   16387575  HIT %:    10.3224  MISS %:    89.6776   MPKI: 81.9379
L1D PREFETCH  REQUESTED:   37779451  ISSUED:   37779449  USEFUL:     981114  USELESS:   15484322
L1D USEFUL LOAD PREFETCHES:     981114 PREFETCH ISSUED TO LOWER LEVEL:   16701476  ACCURACY: 5.87441
L1D TIMELY PREFETCHES:     981114 LATE PREFETCHES: 236036 DROPPED PREFETCHES: 0
L1D PREFETCHES SAME FILL-ORIGIN LEVEL: 16701476 DIFFERENT FILL-ORIGIN LEVEL: 0
L1D AVERAGE MISS LATENCY: 323.074 cycles
L1D RQ	ACCESS:   55396633	FORWARD:          0	MERGED:    3301695	TO_CACHE:   52092372
L1D WQ	ACCESS:   11291506	FORWARD:       2597	MERGED:     335434	TO_CACHE:   10956072
L1D PQ	ACCESS:   18889740	FORWARD:          0	MERGED:          0	TO_CACHE:   18889709

L1D UNIQUE REGIONS ACCESSED: 0
L1D REGIONS CONFLICTS: 0
L1D Cross Page Prefetch Requests: 0
L1D Same Page Prefetch Requests: 23256112
L1D ROI Sum of L1D PQ occupancy: 224464440
L1D PREFETCHES PUSHED FROM L2C: 0
L1I TOTAL     ACCESS:   36955452  HIT:   36955452  MISS:          0  HIT %:        100  MISS %:          0   MPKI: 0
L1I LOAD      ACCESS:   36955452  HIT:   36955452  MISS:          0  HIT %:        100  MISS %:          0   MPKI: 0
L1I PREFETCH  REQUESTED:          0  ISSUED:          0  USEFUL:          0  USELESS:          0
L1I USEFUL LOAD PREFETCHES:          0 PREFETCH ISSUED TO LOWER LEVEL:          0  ACCURACY: -nan
L1I TIMELY PREFETCHES:          0 LATE PREFETCHES: 0 DROPPED PREFETCHES: 0
L1I PREFETCHES SAME FILL-ORIGIN LEVEL: 0 DIFFERENT FILL-ORIGIN LEVEL: 0
L1I AVERAGE MISS LATENCY: -nan cycles
L1I RQ	ACCESS:   48470738	FORWARD:          0	MERGED:   11332390	TO_CACHE:   37138348

BTB TOTAL     ACCESS:   35192414  HIT:   35192406  MISS:          8  HIT %:        100  MISS %: 2.27322e-05   MPKI: 4e-05
BTB BRANCH_DIRECT_JUMP	ACCESS:     253437  HIT:     253435  MISS:          2
BTB BRANCH_INDIRECT	ACCESS:          0  HIT:          0  MISS:          0
BTB BRANCH_CONDITIONAL	ACCESS:   34938949  HIT:   34938945  MISS:          4
BTB BRANCH_DIRECT_CALL	ACCESS:         14  HIT:         13  MISS:          1
BTB BRANCH_INDIRECT_CALL	ACCESS:          0  HIT:          0  MISS:          0
BTB BRANCH_RETURN	ACCESS:         14  HIT:         13  MISS:          1
BTB BRANCH_OTHER ACCESS:          0  HIT:          0  MISS:          0

L2C TOTAL     ACCESS:   41630152  HIT:   10976715  MISS:   30653437  HIT %:    26.3672  MISS %:    73.6328   MPKI: 153.267
L2C LOAD      ACCESS:   16069985  HIT:    1475873  MISS:   14594112  HIT %:    9.18403  MISS %:     90.816   MPKI: 72.9706
L2C DATA LOAD MPKI: 72.9706
L2C INSTRUCTION LOAD MPKI: 0
L2C RFO       ACCESS:      33629  HIT:       4532  MISS:      29097  HIT %:    13.4765  MISS %:    86.5235   MPKI: 0.145485
L2C PREFETCH  ACCESS:   16623377  HIT:    1279376  MISS:   15344001  HIT %:    7.69625  MISS %:    92.3038   MPKI: 76.72
L2C DATA PREFETCH MPKI: 76.72
L2C INSTRUCTION PREFETCH MPKI: 0
L2C WRITEBACK ACCESS:    5549855  HIT:    5302772  MISS:     247083  HIT %:    95.5479  MISS %:    4.45206   MPKI: 1.23541
L2C LOAD TRANSLATION ACCESS:    3352813  HIT:    2913757  MISS:     439056  HIT %:    86.9048  MISS %:    13.0952   MPKI: 2.19528
L2C TRANSLATION FROM L1D PREFETCHER ACCESS:        493  HIT:        405  MISS:         88  HIT %:    82.1501  MISS %:    17.8499   MPKI: 0.00044
L2C PREFETCH  REQUESTED:          0  ISSUED:          0  USEFUL:     266513  USELESS:   15147799
L2C USEFUL LOAD PREFETCHES:     266513 PREFETCH ISSUED TO LOWER LEVEL:   15414113  ACCURACY: 1.72902
L2C TIMELY PREFETCHES:     266513 LATE PREFETCHES: 0 DROPPED PREFETCHES: 0
L2C PREFETCHES SAME FILL-ORIGIN LEVEL: 0 DIFFERENT FILL-ORIGIN LEVEL: 0
L2C AVERAGE MISS LATENCY: 335.371 cycles
L2C RQ	ACCESS:   19550279	FORWARD:          0	MERGED:          0	TO_CACHE:   19550275
L2C WQ	ACCESS:    5574028	FORWARD:          4	MERGED:          0	TO_CACHE:    5574028
L2C PQ	ACCESS:   16701476	FORWARD:          0	MERGED:          0	TO_CACHE:   16701476

L2C Instructions Evicting Data 0
L2C Translations Evicting Data 440887
L2C Data Evicting Data 29669229
L2C Instructions Evicting Instructions 0
L2C Translations Evicting Instructions 0
L2C Data Evicting Instructions 0
L2C Instructions Evicting Translations 0
L2C Translations Evicting Translations 368
L2C Data Evicting Translations 436150
L2C Dense regions hint from L2: 0
PSCL5 TOTAL     ACCESS:    3352740  HIT:    3352740  MISS:          0  HIT %:        100  MISS %:          0   MPKI: 0
PSCL5 LOAD TRANSLATION ACCESS:    3352247  HIT:    3352247  MISS:          0  HIT %:        100  MISS %:          0   MPKI: 0
PSCL5 TRANSLATION FROM L1D PREFETCHER ACCESS:        493  HIT:        493  MISS:          0  HIT %:        100  MISS %:          0   MPKI: 0
PSCL5 PREFETCH  REQUESTED:          0  ISSUED:          0  USEFUL:          0  USELESS:          0
PSCL5 USEFUL LOAD PREFETCHES:          0 PREFETCH ISSUED TO LOWER LEVEL:          0  ACCURACY: -nan
PSCL5 TIMELY PREFETCHES:          0 LATE PREFETCHES: 0 DROPPED PREFETCHES: 0
PSCL5 PREFETCHES SAME FILL-ORIGIN LEVEL: 0 DIFFERENT FILL-ORIGIN LEVEL: 0

PSCL4 TOTAL     ACCESS:    3352740  HIT:    3352740  MISS:          0  HIT %:        100  MISS %:          0   MPKI: 0
PSCL4 LOAD TRANSLATION ACCESS:    3352247  HIT:    3352247  MISS:          0  HIT %:        100  MISS %:          0   MPKI: 0
PSCL4 TRANSLATION FROM L1D PREFETCHER ACCESS:        493  HIT:        493  MISS:          0  HIT %:        100  MISS %:          0   MPKI: 0
PSCL4 PREFETCH  REQUESTED:          0  ISSUED:          0  USEFUL:          0  USELESS:          0
PSCL4 USEFUL LOAD PREFETCHES:          0 PREFETCH ISSUED TO LOWER LEVEL:          0  ACCURACY: -nan
PSCL4 TIMELY PREFETCHES:          0 LATE PREFETCHES: 0 DROPPED PREFETCHES: 0
PSCL4 PREFETCHES SAME FILL-ORIGIN LEVEL: 0 DIFFERENT FILL-ORIGIN LEVEL: 0

PSCL3 TOTAL     ACCESS:    3352740  HIT:    3352740  MISS:          0  HIT %:        100  MISS %:          0   MPKI: 0
PSCL3 LOAD TRANSLATION ACCESS:    3352247  HIT:    3352247  MISS:          0  HIT %:        100  MISS %:          0   MPKI: 0
PSCL3 TRANSLATION FROM L1D PREFETCHER ACCESS:        493  HIT:        493  MISS:          0  HIT %:        100  MISS %:          0   MPKI: 0
PSCL3 PREFETCH  REQUESTED:          0  ISSUED:          0  USEFUL:          0  USELESS:          0
PSCL3 USEFUL LOAD PREFETCHES:          0 PREFETCH ISSUED TO LOWER LEVEL:          0  ACCURACY: -nan
PSCL3 TIMELY PREFETCHES:          0 LATE PREFETCHES: 0 DROPPED PREFETCHES: 0
PSCL3 PREFETCHES SAME FILL-ORIGIN LEVEL: 0 DIFFERENT FILL-ORIGIN LEVEL: 0

PSCL2 TOTAL     ACCESS:    3352740  HIT:    3352137  MISS:        603  HIT %:     99.982  MISS %:  0.0179853   MPKI: 0.003015
PSCL2 LOAD TRANSLATION ACCESS:    3352247  HIT:    3351644  MISS:        603  HIT %:     99.982  MISS %:  0.0179879   MPKI: 0.003015
PSCL2 TRANSLATION FROM L1D PREFETCHER ACCESS:        493  HIT:        493  MISS:          0  HIT %:        100  MISS %:          0   MPKI: 0
PSCL2 PREFETCH  REQUESTED:          0  ISSUED:          0  USEFUL:          0  USELESS:          0
PSCL2 USEFUL LOAD PREFETCHES:          0 PREFETCH ISSUED TO LOWER LEVEL:          0  ACCURACY: -nan
PSCL2 TIMELY PREFETCHES:          0 LATE PREFETCHES: 0 DROPPED PREFETCHES: 0
PSCL2 PREFETCHES SAME FILL-ORIGIN LEVEL: 0 DIFFERENT FILL-ORIGIN LEVEL: 0

LLC TOTAL     ACCESS:   35789914  HIT:   15667241  MISS:   20122673  HIT %:    43.7756  MISS %:    56.2244   MPKI: 100.613
LLC LOAD      ACCESS:   14594110  HIT:    5329085  MISS:    9265025  HIT %:    36.5153  MISS %:    63.4847   MPKI: 46.3251
LLC RFO       ACCESS:      29097  HIT:        167  MISS:      28930  HIT %:   0.573942  MISS %:    99.4261   MPKI: 0.14465
LLC PREFETCH  ACCESS:   15344000  HIT:    4890354  MISS:   10453646  HIT %:    31.8714  MISS %:    68.1286   MPKI: 52.2682
LLC WRITEBACK ACCESS:    5383563  HIT:    5027934  MISS:     355629  HIT %:    93.3942  MISS %:    6.60583   MPKI: 1.77815
LLC LOAD TRANSLATION ACCESS:     439056  HIT:     419614  MISS:      19442  HIT %:    95.5719  MISS %:    4.42814   MPKI: 0.09721
LLC TRANSLATION FROM L1D PREFETCHER ACCESS:         88  HIT:         87  MISS:          1  HIT %:    98.8636  MISS %:    1.13636   MPKI: 5e-06
LLC PREFETCH  REQUESTED:          0  ISSUED:          0  USEFUL:    2751236  USELESS:   39289150
LLC USEFUL LOAD PREFETCHES:    2751236 PREFETCH ISSUED TO LOWER LEVEL:   42038354  ACCURACY: 6.54459
LLC TIMELY PREFETCHES:    2751236 LATE PREFETCHES: 0 DROPPED PREFETCHES: 0
LLC PREFETCHES SAME FILL-ORIGIN LEVEL: 0 DIFFERENT FILL-ORIGIN LEVEL: 0
LLC AVERAGE MISS LATENCY: 1860.95 cycles
LLC RQ	ACCESS:   60532913	FORWARD:          0	MERGED:          0	TO_CACHE:   60532900
LLC WQ	ACCESS:   21630977	FORWARD:         19	MERGED:          0	TO_CACHE:   21630977
LLC PQ	ACCESS:   61658509	FORWARD:          0	MERGED:          0	TO_CACHE:   61658503

LLC Dense regions hint to LLC: 0

RAW hits: 1188183
Loads Generated: 56334955
Loads sent to L1D: 55146772
Stores Generated: 11243310
Stores sent to L1D: 11243311
Major fault: 0 Minor fault: 31100
Allocated PAGES: 124388

CPU 2 cumulative IPC: 0.0745763 instructions: 200000002 cycles: 2681817426
ITLB TOTAL     ACCESS:   36649045  HIT:   36649045  MISS:          0  HIT %:        100  MISS %:          0   MPKI: 0
ITLB LOAD TRANSLATION ACCESS:   36649045  HIT:   36649045  MISS:          0  HIT %:        100  MISS %:          0   MPKI: 0
ITLB PREFETCH  REQUESTED:          0  ISSUED:          0  USEFUL:          0  USELESS:          0
ITLB USEFUL LOAD PREFETCHES:          0 PREFETCH ISSUED TO LOWER LEVEL:          0  ACCURACY: -nan
ITLB TIMELY PREFETCHES:          0 LATE PREFETCHES: 0 DROPPED PREFETCHES: 0
ITLB PREFETCHES SAME FILL-ORIGIN LEVEL: 0 DIFFERENT FILL-ORIGIN LEVEL: 0
ITLB AVERAGE MISS LATENCY: -nan cycles
ITLB RQ	ACCESS:   36955114	FORWARD:          0	MERGED:     306069	TO_CACHE:   36649045

DTLB TOTAL     ACCESS:   55919127  HIT:   47405806  MISS:    8513321  HIT %:    84.7757  MISS %:    15.2243   MPKI: 42.5666
DTLB LOAD TRANSLATION ACCESS:   55919127  HIT:   47405806  MISS:    8513321  HIT %:    84.7757  MISS %:    15.2243   MPKI: 42.5666
DTLB PREFETCH  REQUESTED:          0  ISSUED:          0  USEFUL:          0  USELESS:          0
DTLB USEFUL LOAD PREFETCHES:          0 PREFETCH ISSUED TO LOWER LEVEL:          0  ACCURACY: -nan
DTLB TIMELY PREFETCHES:          0 LATE PREFETCHES: 0 DROPPED PREFETCHES: 0
DTLB PREFETCHES SAME FILL-ORIGIN LEVEL: 0 DIFFERENT FILL-ORIGIN LEVEL: 0
DTLB AVERAGE MISS LATENCY: 20.7709 cycles
DTLB RQ	ACCESS:   62779136	FORWARD:          0	MERGED:    6210195	TO_CACHE:   56568941

STLB TOTAL     ACCESS:   23139257  HIT:   19786296  MISS:    3352961  HIT %:    85.5096  MISS %:    14.4904   MPKI: 16.7648
STLB LOAD TRANSLATION ACCESS:    8513321  HIT:    5160853  MISS:    3352468  HIT %:    60.6209  MISS %:    39.3791   MPKI: 16.7623
STLB TRANSLATION FROM L1D PREFETCHER ACCESS:   14625936  HIT:   14625443  MISS:        493  HIT %:    99.9966  MISS %: 0.00337072   MPKI: 0.002465
STLB PREFETCH  REQUESTED:          0  ISSUED:          0  USEFUL:        448  USELESS:         45
STLB USEFUL LOAD PREFETCHES:        448 PREFETCH ISSUED TO LOWER LEVEL:          0  ACCURACY: inf
STLB TIMELY PREFETCHES:        448 LATE PREFETCHES: 0 DROPPED PREFETCHES: 0
STLB PREFETCHES SAME FILL-ORIGIN LEVEL: 0 DIFFERENT FILL-ORIGIN LEVEL: 0
STLB AVERAGE MISS LATENCY: 29.481 cycles
STLB RQ	ACCESS:   27315118	FORWARD:          0	MERGED:    4175849	TO_CACHE:   23139269

STLB Hit, L1D data hit: 0
STLB Hit, L2C data hit: 0
STLB Hit, LLC data hit: 0
STLB Hit, LLC data miss: 0
STLB STLB hints to L2: 0
L1D TOTAL     ACCESS:   80864826  HIT:   48138006  MISS:   32726820  HIT %:     59.529  MISS %:     40.471   MPKI: 163.634
L1D LOAD      ACCESS:   51722463  HIT:   35416288  MISS:   16306175  HIT %:    68.4737  MISS %:    31.5263   MPKI: 81.5309
L1D RFO       ACCESS:   10869482  HIT:   10835872  MISS:      33610  HIT %:    99.6908  MISS %:   0.309214   MPKI: 0.16805
L1D PREFETCH  ACCESS:   18272881  HIT:    1885846  MISS:   16387035  HIT %:    10.3205  MISS %:    89.6795   MPKI: 81.9352
L1D PREFETCH  REQUESTED:   37603617  ISSUED:   37603617  USEFUL:     976733  USELESS:   15410311
L1D USEFUL LOAD PREFETCHES:     976733 PREFETCH ISSUED TO LOWER LEVEL:   16623257  ACCURACY: 5.8757
L1D TIMELY PREFETCHES:     976733 LATE PREFETCHES: 236224 DROPPED PREFETCHES: 0
L1D PREFETCHES SAME FILL-ORIGIN LEVEL: 16623257 DIFFERENT FILL-ORIGIN LEVEL: 0
L1D AVERAGE MISS LATENCY: 323.077 cycles
L1D RQ	ACCESS:   55159354	FORWARD:          0	MERGED:    3289725	TO_CACHE:   51867099
L1D WQ	ACCESS:   11243610	FORWARD:       2553	MERGED:     331573	TO_CACHE:   10912037
L1D PQ	ACCESS:   18801820	FORWARD:          0	MERGED:          0	TO_CACHE:   18801797

L1D UNIQUE REGIONS ACCESSED: 0
L1D REGIONS CONFLICTS: 0
L1D Cross Page Prefetch Requests: 0
L1D Same Page Prefetch Requests: 23163525
L1D ROI Sum of L1D PQ occupancy: 223291822
L1D PREFETCHES PUSHED FROM L2C: 0
L1I TOTAL     ACCESS:   36955114  HIT:   36955114  MISS:          0  HIT %:        100  MISS %:          0   MPKI: 0
L1I LOAD      ACCESS:   36955114  HIT:   36955114  MISS:          0  HIT %:        100  MISS %:          0   MPKI: 0
L1I PREFETCH  REQUESTED:          0  ISSUED:          0  USEFUL:          0  USELESS:          0
L1I USEFUL LOAD PREFETCHES:          0 PREFETCH ISSUED TO LOWER LEVEL:          0  ACCURACY: -nan
L1I TIMELY PREFETCHES:          0 LATE PREFETCHES: 0 DROPPED PREFETCHES: 0
L1I PREFETCHES SAME FILL-ORIGIN LEVEL: 0 DIFFERENT FILL-ORIGIN LEVEL: 0
L1I AVERAGE MISS LATENCY: -nan cycles
L1I RQ	ACCESS:   48242809	FORWARD:          0	MERGED:   11287695	TO_CACHE:   36955114

BTB TOTAL     ACCESS:   35191983  HIT:   35191975  MISS:          8  HIT %:        100  MISS %: 2.27325e-05   MPKI: 4e-05
BTB BRANCH_DIRECT_JUMP	ACCESS:     253523  HIT:     253521  MISS:          2
BTB BRANCH_INDIRECT	ACCESS:          0  HIT:          0  MISS:          0
BTB BRANCH_CONDITIONAL	ACCESS:   34938432  HIT:   34938428  MISS:          4
BTB BRANCH_DIRECT_CALL	ACCESS:         14  HIT:         13  MISS:          1
BTB BRANCH_INDIRECT_CALL	ACCESS:          0  HIT:          0  MISS:          0
BTB BRANCH_RETURN	ACCESS:         14  HIT:         13  MISS:          1
BTB BRANCH_OTHER ACCESS:          0  HIT:          0  MISS:          0

L2C TOTAL     ACCESS:   41630311  HIT:   10994550  MISS:   30635761  HIT %:      26.41  MISS %:      73.59   MPKI: 153.179
L2C LOAD      ACCESS:   16069951  HIT:    1464027  MISS:   14605924  HIT %:    9.11034  MISS %:    90.8897   MPKI: 73.0296
L2C DATA LOAD MPKI: 73.0296
L2C INSTRUCTION LOAD MPKI: 0
L2C RFO       ACCESS:      33609  HIT:       4518  MISS:      29091  HIT %:    13.4428  MISS %:    86.5572   MPKI: 0.145455
L2C PREFETCH  ACCESS:   16623259  HIT:    1270681  MISS:   15352578  HIT %:    7.64399  MISS %:     92.356   MPKI: 76.7629
L2C DATA PREFETCH MPKI: 76.7629
L2C INSTRUCTION PREFETCH MPKI: 0
L2C WRITEBACK ACCESS:    5549964  HIT:    5315973  MISS:     233991  HIT %:    95.7839  MISS %:    4.21608   MPKI: 1.16995
[...]
Stores Generated: 11243609
Stores sent to L1D: 11243610
Major fault: 0 Minor fault: 31021
Allocated PAGES: 124388

CPU 3 cumulative IPC: 0.0750339 instructions: 200000002 cycles: 2665462146
ITLB TOTAL     ACCESS:   36646439  HIT:   36646439  MISS:          0  HIT %:        100  MISS %:          0   MPKI: 0
ITLB LOAD TRANSLATION ACCESS:   36646439  HIT:   36646439  MISS:          0  HIT %:        100  MISS %:          0   MPKI: 0
ITLB PREFETCH  REQUESTED:          0  ISSUED:          0  USEFUL:          0  USELESS:          0
ITLB USEFUL LOAD PREFETCHES:          0 PREFETCH ISSUED TO LOWER LEVEL:          0  ACCURACY: -nan
ITLB TIMELY PREFETCHES:          0 LATE PREFETCHES: 0 DROPPED PREFETCHES: 0
ITLB PREFETCHES SAME FILL-ORIGIN LEVEL: 0 DIFFERENT FILL-ORIGIN LEVEL: 0
ITLB AVERAGE MISS LATENCY: -nan cycles
ITLB RQ	ACCESS:   37204050	FORWARD:          0	MERGED:     307454	TO_CACHE:   36896596

DTLB TOTAL     ACCESS:   55903358  HIT:   47396425  MISS:    8506933  HIT %:    84.7828  MISS %:    15.2172   MPKI: 42.5347
DTLB LOAD TRANSLATION ACCESS:   55903358  HIT:   47396425  MISS:    8506933  HIT %:    84.7828  MISS %:    15.2172   MPKI: 42.5347
DTLB PREFETCH  REQUESTED:          0  ISSUED:          0  USEFUL:          0  USELESS:          0
DTLB USEFUL LOAD PREFETCHES:          0 PREFETCH ISSUED TO LOWER LEVEL:          0  ACCURACY: -nan
DTLB TIMELY PREFETCHES:          0 LATE PREFETCHES: 0 DROPPED PREFETCHES: 0
DTLB PREFETCHES SAME FILL-ORIGIN LEVEL: 0 DIFFERENT FILL-ORIGIN LEVEL: 0
DTLB AVERAGE MISS LATENCY: 20.8141 cycles
DTLB RQ	ACCESS:   63153035	FORWARD:          0	MERGED:    6247648	TO_CACHE:   56905387

STLB TOTAL     ACCESS:   23130239  HIT:   19776992  MISS:    3353247  HIT %:    85.5028  MISS %:    14.4972   MPKI: 16.7662
STLB LOAD TRANSLATION ACCESS:    8506933  HIT:    5154183  MISS:    3352750  HIT %:     60.588  MISS %:     39.412   MPKI: 16.7637
STLB TRANSLATION FROM L1D PREFETCHER ACCESS:   14623306  HIT:   14622809  MISS:        497  HIT %:    99.9966  MISS %: 0.00339868   MPKI: 0.002485
STLB PREFETCH  REQUESTED:          0  ISSUED:          0  USEFUL:        455  USELESS:         43
STLB USEFUL LOAD PREFETCHES:        455 PREFETCH ISSUED TO LOWER LEVEL:          0  ACCURACY: inf
STLB TIMELY PREFETCHES:        455 LATE PREFETCHES: 0 DROPPED PREFETCHES: 0
STLB PREFETCHES SAME FILL-ORIGIN LEVEL: 0 DIFFERENT FILL-ORIGIN LEVEL: 0
STLB AVERAGE MISS LATENCY: 29.3627 cycles
STLB RQ	ACCESS:   27501490	FORWARD:          0	MERGED:    4199159	TO_CACHE:   23302331

STLB Hit, L1D data hit: 0
STLB Hit, L2C data hit: 0
STLB Hit, LLC data hit: 0
STLB Hit, LLC data miss: 0
STLB STLB hints to L2: 0
L1D TOTAL     ACCESS:   80846939  HIT:   48122849  MISS:   32724090  HIT %:    59.5234  MISS %:    40.4766   MPKI: 163.62
L1D LOAD      ACCESS:   51708277  HIT:   35403193  MISS:   16305084  HIT %:    68.4672  MISS %:    31.5328   MPKI: 81.5254
L1D RFO       ACCESS:   10868221  HIT:   10834609  MISS:      33612  HIT %:    99.6907  MISS %:   0.309269   MPKI: 0.16806
L1D PREFETCH  ACCESS:   18270441  HIT:    1885047  MISS:   16385394  HIT %:    10.3175  MISS %:    89.6825   MPKI: 81.927
L1D PREFETCH  REQUESTED:   37840137  ISSUED:   37840137  USEFUL:     982081  USELESS:   15510376
L1D USEFUL LOAD PREFETCHES:     982081 PREFETCH ISSUED TO LOWER LEVEL:   16728849  ACCURACY: 5.87058
L1D TIMELY PREFETCHES:     982081 LATE PREFETCHES: 236384 DROPPED PREFETCHES: 0
L1D PREFETCHES SAME FILL-ORIGIN LEVEL: 16728849 DIFFERENT FILL-ORIGIN LEVEL: 0
L1D AVERAGE MISS LATENCY: 323.38 cycles
L1D RQ	ACCESS:   55488014	FORWARD:          0	MERGED:    3307622	TO_CACHE:   52177833
L1D WQ	ACCESS:   11310775	FORWARD:       2582	MERGED:     335573	TO_CACHE:   10975202
L1D PQ	ACCESS:   18920080	FORWARD:          0	MERGED:          0	TO_CACHE:   18920057

L1D UNIQUE REGIONS ACCESSED: 0
L1D REGIONS CONFLICTS: 0
L1D Cross Page Prefetch Requests: 0
L1D Same Page Prefetch Requests: 23263212
L1D ROI Sum of L1D PQ occupancy: 224755290
L1D PREFETCHES PUSHED FROM L2C: 0
L1I TOTAL     ACCESS:   36952962  HIT:   36952962  MISS:          0  HIT %:        100  MISS %:          0   MPKI: 0
L1I LOAD      ACCESS:   36952962  HIT:   36952962  MISS:          0  HIT %:        100  MISS %:          0   MPKI: 0
L1I PREFETCH  REQUESTED:          0  ISSUED:          0  USEFUL:          0  USELESS:          0
L1I USEFUL LOAD PREFETCHES:          0 PREFETCH ISSUED TO LOWER LEVEL:          0  ACCURACY: -nan
L1I TIMELY PREFETCHES:          0 LATE PREFETCHES: 0 DROPPED PREFETCHES: 0
L1I PREFETCHES SAME FILL-ORIGIN LEVEL: 0 DIFFERENT FILL-ORIGIN LEVEL: 0
L1I AVERAGE MISS LATENCY: -nan cycles
L1I RQ	ACCESS:   48554031	FORWARD:          0	MERGED:   11349981	TO_CACHE:   37204050

BTB TOTAL     ACCESS:   35189020  HIT:   35189006  MISS:         14  HIT %:        100  MISS %: 3.97851e-05   MPKI: 7e-05
BTB BRANCH_DIRECT_JUMP	ACCESS:     253973  HIT:     253969  MISS:          4
BTB BRANCH_INDIRECT	ACCESS:          0  HIT:          0  MISS:          0
BTB BRANCH_CONDITIONAL	ACCESS:   34935019  HIT:   34935011  MISS:          8
BTB BRANCH_DIRECT_CALL	ACCESS:         14  HIT:         13  MISS:          1
BTB BRANCH_INDIRECT_CALL	ACCESS:          0  HIT:          0  MISS:          0
BTB BRANCH_RETURN	ACCESS:         14  HIT:         13  MISS:          1
BTB BRANCH_OTHER ACCESS:          0  HIT:          0  MISS:          0

L2C TOTAL     ACCESS:   41628464  HIT:   10970087  MISS:   30658377  HIT %:    26.3524  MISS %:    73.6476   MPKI: 153.292
L2C LOAD      ACCESS:   16068971  HIT:    1491103  MISS:   14577868  HIT %:    9.27939  MISS %:    90.7206   MPKI: 72.8893
L2C DATA LOAD MPKI: 72.8893
L2C INSTRUCTION LOAD MPKI: 0
L2C RFO       ACCESS:      33612  HIT:       4484  MISS:      29128  HIT %:    13.3405  MISS %:    86.6595   MPKI: 0.14564
L2C PREFETCH  ACCESS:   16621505  HIT:    1289350  MISS:   15332155  HIT %:    7.75712  MISS %:    92.2429   MPKI: 76.6608
L2C DATA PREFETCH MPKI: 76.6608
L2C INSTRUCTION PREFETCH MPKI: 0
L2C WRITEBACK ACCESS:    5550562  HIT:    5297113  MISS:     253449  HIT %:    95.4338  MISS %:    4.56619   MPKI: 1.26724
L2C LOAD TRANSLATION ACCESS:    3353317  HIT:    2887621  MISS:     465696  HIT %:    86.1124  MISS %:    13.8876   MPKI: 2.32848
L2C TRANSLATION FROM L1D PREFETCHER ACCESS:        497  HIT:        416  MISS:         81  HIT %:    83.7022  MISS %:    16.2978   MPKI: 0.000405
L2C PREFETCH  REQUESTED:          0  ISSUED:          0  USEFUL:     269435  USELESS:   15158452
L2C USEFUL LOAD PREFETCHES:     269435 PREFETCH ISSUED TO LOWER LEVEL:   15427899  ACCURACY: 1.74641
L2C TIMELY PREFETCHES:     269435 LATE PREFETCHES: 0 DROPPED PREFETCHES: 0
L2C PREFETCHES SAME FILL-ORIGIN LEVEL: 0 DIFFERENT FILL-ORIGIN LEVEL: 0
L2C AVERAGE MISS LATENCY: 335.615 cycles
L2C RQ	ACCESS:   19584765	FORWARD:          0	MERGED:          0	TO_CACHE:   19584763
L2C WQ	ACCESS:    5583634	FORWARD:          2	MERGED:          0	TO_CACHE:    5583634
L2C PQ	ACCESS:   16728849	FORWARD:          0	MERGED:          0	TO_CACHE:   16728849

L2C Instructions Evicting Data 0
L2C Translations Evicting Data 468260
L2C Data Evicting Data 29664267
L2C Instructions Evicting Instructions 0
L2C Translations Evicting Instructions 0
L2C Data Evicting Instructions 0
L2C Instructions Evicting Translations 0
L2C Translations Evicting Translations 539
L2C Data Evicting Translations 463598
L2C Dense regions hint from L2: 0
PSCL5 TOTAL     ACCESS:    3353247  HIT:    3353247  MISS:          0  HIT %:        100  MISS %:          0   MPKI: 0
PSCL5 LOAD TRANSLATION ACCESS:    3352750  HIT:    3352750  MISS:          0  HIT %:        100  MISS %:          0   MPKI: 0
PSCL5 TRANSLATION FROM L1D PREFETCHER ACCESS:        497  HIT:        497  MISS:          0  HIT %:        100  MISS %:          0   MPKI: 0
PSCL5 PREFETCH  REQUESTED:          0  ISSUED:          0  USEFUL:          0  USELESS:          0
PSCL5 USEFUL LOAD PREFETCHES:          0 PREFETCH ISSUED TO LOWER LEVEL:          0  ACCURACY: -nan
PSCL5 TIMELY PREFETCHES:          0 LATE PREFETCHES: 0 DROPPED PREFETCHES: 0
PSCL5 PREFETCHES SAME FILL-ORIGIN LEVEL: 0 DIFFERENT FILL-ORIGIN LEVEL: 0

PSCL4 TOTAL     ACCESS:    3353247  HIT:    3353247  MISS:          0  HIT %:        100  MISS %:          0   MPKI: 0
PSCL4 LOAD TRANSLATION ACCESS:    3352750  HIT:    3352750  MISS:          0  HIT %:        100  MISS %:          0   MPKI: 0
PSCL4 TRANSLATION FROM L1D PREFETCHER ACCESS:        497  HIT:        497  MISS:          0  HIT %:        100  MISS %:          0   MPKI: 0
PSCL4 PREFETCH  REQUESTED:          0  ISSUED:          0  USEFUL:          0  USELESS:          0
PSCL4 USEFUL LOAD PREFETCHES:          0 PREFETCH ISSUED TO LOWER LEVEL:          0  ACCURACY: -nan
PSCL4 TIMELY PREFETCHES:          0 LATE PREFETCHES: 0 DROPPED PREFETCHES: 0
PSCL4 PREFETCHES SAME FILL-ORIGIN LEVEL: 0 DIFFERENT FILL-ORIGIN LEVEL: 0

PSCL3 TOTAL     ACCESS:    3353247  HIT:    3353247  MISS:          0  HIT %:        100  MISS %:          0   MPKI: 0
PSCL3 LOAD TRANSLATION ACCESS:    3352750  HIT:    3352750  MISS:          0  HIT %:        100  MISS %:          0   MPKI: 0
PSCL3 TRANSLATION FROM L1D PREFETCHER ACCESS:        497  HIT:        497  MISS:          0  HIT %:        100  MISS %:          0   MPKI: 0
PSCL3 PREFETCH  REQUESTED:          0  ISSUED:          0  USEFUL:          0  USELESS:          0
PSCL3 USEFUL LOAD PREFETCHES:          0 PREFETCH ISSUED TO LOWER LEVEL:          0  ACCURACY: -nan
PSCL3 TIMELY PREFETCHES:          0 LATE PREFETCHES: 0 DROPPED PREFETCHES: 0
PSCL3 PREFETCHES SAME FILL-ORIGIN LEVEL: 0 DIFFERENT FILL-ORIGIN LEVEL: 0

PSCL2 TOTAL     ACCESS:    3353247  HIT:    3352643  MISS:        604  HIT %:     99.982  MISS %:  0.0180124   MPKI: 0.00302
PSCL2 LOAD TRANSLATION ACCESS:    3352750  HIT:    3352146  MISS:        604  HIT %:     99.982  MISS %:  0.0180151   MPKI: 0.00302
PSCL2 TRANSLATION FROM L1D PREFETCHER ACCESS:        497  HIT:        497  MISS:          0  HIT %:        100  MISS %:          0   MPKI: 0
PSCL2 PREFETCH  REQUESTED:          0  ISSUED:          0  USEFUL:          0  USELESS:          0
PSCL2 USEFUL LOAD PREFETCHES:          0 PREFETCH ISSUED TO LOWER LEVEL:          0  ACCURACY: -nan
PSCL2 TIMELY PREFETCHES:          0 LATE PREFETCHES: 0 DROPPED PREFETCHES: 0
PSCL2 PREFETCHES SAME FILL-ORIGIN LEVEL: 0 DIFFERENT FILL-ORIGIN LEVEL: 0

LLC TOTAL     ACCESS:   35793115  HIT:   15655229  MISS:   20137886  HIT %:    43.7381  MISS %:    56.2619   MPKI: 100.689
LLC LOAD      ACCESS:   14577863  HIT:    5290497  MISS:    9287366  HIT %:    36.2913  MISS %:    63.7087   MPKI: 46.4368
LLC RFO       ACCESS:      29128  HIT:        177  MISS:      28951  HIT %:   0.607663  MISS %:    99.3923   MPKI: 0.144755
LLC PREFETCH  ACCESS:   15332155  HIT:    4855336  MISS:   10476819  HIT %:    31.6677  MISS %:    68.3323   MPKI: 52.3841
LLC WRITEBACK ACCESS:    5388192  HIT:    5061207  MISS:     326985  HIT %:    93.9315  MISS %:    6.06855   MPKI: 1.63492
LLC LOAD TRANSLATION ACCESS:     465696  HIT:     447931  MISS:      17765  HIT %:    96.1853  MISS %:    3.81472   MPKI: 0.088825
LLC TRANSLATION FROM L1D PREFETCHER ACCESS:         81  HIT:         81  MISS:          0  HIT %:        100  MISS %:          0   MPKI: 0
LLC PREFETCH  REQUESTED:          0  ISSUED:          0  USEFUL:    2751236  USELESS:   39289150
LLC USEFUL LOAD PREFETCHES:    2751236 PREFETCH ISSUED TO LOWER LEVEL:   42038354  ACCURACY: 6.54459
LLC TIMELY PREFETCHES:    2751236 LATE PREFETCHES: 0 DROPPED PREFETCHES: 0
LLC PREFETCHES SAME FILL-ORIGIN LEVEL: 0 DIFFERENT FILL-ORIGIN LEVEL: 0
LLC AVERAGE MISS LATENCY: 1859.54 cycles
LLC RQ	ACCESS:   60532913	FORWARD:          0	MERGED:          0	TO_CACHE:   60532900
LLC WQ	ACCESS:   21630977	FORWARD:         19	MERGED:          0	TO_CACHE:   21630977
LLC PQ	ACCESS:   61658509	FORWARD:          0	MERGED:          0	TO_CACHE:   61658503

LLC Dense regions hint to LLC: 0

RAW hits: 1191050
Loads Generated: 56336781
Loads sent to L1D: 55145731
Stores Generated: 11244935
Stores sent to L1D: 11244938
Major fault: 0 Minor fault: 31104
Allocated PAGES: 124388

stream: 
stream:times selected: 21806479
stream:pref_filled: 18677980
stream:pref_useful: 294500
stream:pref_late: 280547
stream:misses: 4409729
stream:misses_by_poll: 0

CS: 
CS:times selected: 1192750
CS:pref_filled: 1102872
CS:pref_useful: 888037
CS:pref_late: 36834
CS:misses: 183455
CS:misses_by_poll: 718

CPLX: 
CPLX:times selected: 20465813
CPLX:pref_filled: 412216
CPLX:pref_useful: 16160
CPLX:pref_late: 12133
CPLX:misses: 15681341
CPLX:misses_by_poll: 136

NL_L1: 
NL:times selected: 23949
NL:pref_filled: 22133
NL:pref_useful: 213
NL:pref_late: 239
NL:misses: 23303
NL:misses_by_poll: 0

total selections: 43488991
total_filled: 16526783
total_useful: 984819
total_late: 331395
total_polluted: 854
total_misses_after_warmup: 16611907
conflicts: 3
Degree Incremented Times: 969586
Degree Decremented Times: 2094192

L1 IP Table Write Accesses: 208838973
L1 IP Table Read Accesses: 208838970
L1 RST Write Accesses: 70907436
L1 RST Read Accesses: 141814872
L1 CSPT Write Accesses: 70907436
L1 CSPT Read Accesses: 137689604
L1 RR Filter Tag Write Accesses: 75734232
L1 RR Filter Tag Read Accesses: 2575776917
L1 IP Table Tag Write Accesses: 208839029
L1 IP Table Tag Read Accesses: 208839029
L1 RST Tag Write Accesses: 0
L1 RST Tag Read Accesses: 636562745
L1 RR Filter Write Accesses: 0
L1 RR Filter Read Accesses: 81606726
test: 37264789

stream: 
stream:times selected: 21740657
stream:pref_filled: 18619443
stream:pref_useful: 293275
stream:pref_late: 281577
stream:misses: 4393175
stream:misses_by_poll: 0

CS: 
CS:times selected: 1188521
CS:pref_filled: 1099204
CS:pref_useful: 885076
CS:pref_late: 36667
CS:misses: 182141
CS:misses_by_poll: 681

CPLX: 
CPLX:times selected: 20404929
CPLX:pref_filled: 410624
CPLX:pref_useful: 16141
CPLX:pref_late: 12210
CPLX:misses: 15637492
CPLX:misses_by_poll: 117

NL_L1: 
NL:times selected: 24134
NL:pref_filled: 22314
NL:pref_useful: 225
NL:pref_late: 262
NL:misses: 23489
NL:misses_by_poll: 0

total selections: 43358241
total_filled: 16465440
total_useful: 981114
total_late: 332258
total_polluted: 798
total_misses_after_warmup: 16550711
conflicts: 3
Degree Incremented Times: 969586
Degree Decremented Times: 2094192

L1 IP Table Write Accesses: 208838973
L1 IP Table Read Accesses: 208838970
L1 RST Write Accesses: 70907436
L1 RST Read Accesses: 141814872
L1 CSPT Write Accesses: 70907436
L1 CSPT Read Accesses: 137689604
L1 RR Filter Tag Write Accesses: 75734232
L1 RR Filter Tag Read Accesses: 2575776917
L1 IP Table Tag Write Accesses: 208839029
L1 IP Table Tag Read Accesses: 208839029
L1 RST Tag Write Accesses: 0
L1 RST Tag Read Accesses: 636562745
L1 RR Filter Write Accesses: 0
L1 RR Filter Read Accesses: 81606726
test: 37264789

stream: 
stream:times selected: 21656492
stream:pref_filled: 18543363
stream:pref_useful: 291832
stream:pref_late: 282210
stream:misses: 4372477
stream:misses_by_poll: 0

CS: 
CS:times selected: 1186145
CS:pref_filled: 1095442
CS:pref_useful: 882049
CS:pref_late: 36662
CS:misses: 182545
CS:misses_by_poll: 689

CPLX: 
CPLX:times selected: 20323907
CPLX:pref_filled: 408953
CPLX:pref_useful: 15887
CPLX:pref_late: 12208
CPLX:misses: 15579000
CPLX:misses_by_poll: 184

NL_L1: 
NL:times selected: 23723
NL:pref_filled: 21898
NL:pref_useful: 202
NL:pref_late: 249
NL:misses: 23095
NL:misses_by_poll: 0

total selections: 43190267
total_filled: 16387035
total_useful: 976733
total_late: 332910
total_polluted: 873
total_misses_after_warmup: 16469607
conflicts: 3
Degree Incremented Times: 969586
Degree Decremented Times: 2094192

L1 IP Table Write Accesses: 208838973
L1 IP Table Read Accesses: 208838970
L1 RST Write Accesses: 70907436
L1 RST Read Accesses: 141814872
L1 CSPT Write Accesses: 70907436
L1 CSPT Read Accesses: 137689604
L1 RR Filter Tag Write Accesses: 75734232
L1 RR Filter Tag Read Accesses: 2575776917
L1 IP Table Tag Write Accesses: 208839029
L1 IP Table Tag Read Accesses: 208839029
L1 RST Tag Write Accesses: 0
L1 RST Tag Read Accesses: 636562745
L1 RR Filter Write Accesses: 0
L1 RR Filter Read Accesses: 81606726
test: 37264789

stream: 
stream:times selected: 21746223
stream:pref_filled: 18624098
stream:pref_useful: 292932
stream:pref_late: 281846
stream:misses: 4395381
stream:misses_by_poll: 0

CS: 
CS:times selected: 1190631
CS:pref_filled: 1099737
CS:pref_useful: 885624
CS:pref_late: 36787
CS:misses: 182675
CS:misses_by_poll: 697

CPLX: 
CPLX:times selected: 20408223
CPLX:pref_filled: 411037
CPLX:pref_useful: 16097
CPLX:pref_late: 12069
CPLX:misses: 15640592
CPLX:misses_by_poll: 122

NL_L1: 
NL:times selected: 23829
NL:pref_filled: 22057
NL:pref_useful: 218
NL:pref_late: 239
NL:misses: 23215
NL:misses_by_poll: 0

total selections: 43368906
total_filled: 16492466
total_useful: 982081
total_late: 332532
total_polluted: 819
total_misses_after_warmup: 16556407
conflicts: 3
Degree Incremented Times: 969586
Degree Decremented Times: 2094192

L1 IP Table Write Accesses: 208838973
L1 IP Table Read Accesses: 208838970
L1 RST Write Accesses: 70907436
L1 RST Read Accesses: 141814872
L1 CSPT Write Accesses: 70907436
L1 CSPT Read Accesses: 137689604
L1 RR Filter Tag Write Accesses: 75734232
L1 RR Filter Tag Read Accesses: 2575776917
L1 IP Table Tag Write Accesses: 208839029
L1 IP Table Tag Read Accesses: 208839029
L1 RST Tag Write Accesses: 0
L1 RST Tag Read Accesses: 636562745
L1 RR Filter Write Accesses: 0
L1 RR Filter Read Accesses: 81606726
test: 37264789

DRAM Statistics
 CHANNEL 0
 RQ ROW_BUFFER_HIT:    6587052  ROW_BUFFER_MISS:   72899643
 DBUS_CONGESTED:          0
 WQ ROW_BUFFER_HIT:     439151  ROW_BUFFER_MISS:   18601972  FULL:          0

 AVG_CONGESTED_CYCLE: -
 All warmup complete: 5
Channel 0 Bank busy for read cycles: 0
Channel 0 Bank busy for write cycles: 0
Channel 0
Rank 0
0banks busy for read cycles: 25698
0banks busy for write cycles: 0
1banks busy for read cycles: 9258364
1banks busy for write cycles: 2063118
2banks busy for read cycles: 47901271
2banks busy for write cycles: 2063112
3banks busy for read cycles: 134124497
3banks busy for write cycles: 2063123
4banks busy for read cycles: 269013192
4banks busy for write cycles: 2067011
5banks busy for read cycles: 407267375
5banks busy for write cycles: 2401632
6banks busy for read cycles: 481380895
6banks busy for write cycles: 12993477
7banks busy for read cycles: 442419545
7banks busy for write cycles: 125337480
8banks busy for read cycles: 297525674
8banks busy for write cycles: 443911963

CPU 0 Branch Prediction Accuracy: 85.1912% MPKI: 26.0476 Average ROB Occupancy at Mispredict: 33.9679
Branch types
NOT_BRANCH: 166100012 82.3845%
BRANCH_DIRECT_JUMP: 254628 0.126294%
BRANCH_INDIRECT: 0 0%
BRANCH_CONDITIONAL: 35260969 17.4892%
BRANCH_DIRECT_CALL: 14 6.94391e-06%
BRANCH_INDIRECT_CALL: 0 0%
BRANCH_RETURN: 14 6.94391e-06%
BRANCH_OTHER: 0 0%


CPU 1 Branch Prediction Accuracy: 85.1888% MPKI: 26.0518 Average ROB Occupancy at Mispredict: 33.8586
Branch types
NOT_BRANCH: 165525801 82.3863%
BRANCH_DIRECT_JUMP: 254127 0.126485%
BRANCH_INDIRECT: 0 0%
BRANCH_CONDITIONAL: 35134221 17.4872%
BRANCH_DIRECT_CALL: 14 6.96815e-06%
BRANCH_INDIRECT_CALL: 0 0%
BRANCH_RETURN: 14 6.96815e-06%
BRANCH_OTHER: 0 0%


CPU 2 Branch Prediction Accuracy: 85.1863% MPKI: 26.0588 Average ROB Occupancy at Mispredict: 33.6227
Branch types
NOT_BRANCH: 164777065 82.3885%
BRANCH_DIRECT_JUMP: 253523 0.126761%
BRANCH_INDIRECT: 0 0%
BRANCH_CONDITIONAL: 34969368 17.4847%
BRANCH_DIRECT_CALL: 14 7e-06%
BRANCH_INDIRECT_CALL: 0 0%
BRANCH_RETURN: 14 7e-06%
BRANCH_OTHER: 0 0%


CPU 3 Branch Prediction Accuracy: 85.189% MPKI: 26.0879 Average ROB Occupancy at Mispredict: 33.9281
Branch types
NOT_BRANCH: 165805053 82.386%
BRANCH_DIRECT_JUMP: 254904 0.126658%
BRANCH_INDIRECT: 0 0%
BRANCH_CONDITIONAL: 35193637 17.4872%
BRANCH_DIRECT_CALL: 14 6.95638e-06%
BRANCH_INDIRECT_CALL: 0 0%
BRANCH_RETURN: 14 6.95638e-06%
BRANCH_OTHER: 0 0%

DRAM PAGES: 1048576
Allocated PAGES: 124388
