
*** ChampSim Multicore Out-of-Order Simulator ***

Warmup Instructions: 50000000
Simulation Instructions: 200000000
Number of CPUs: 4
LLC sets: 8192
LLC ways: 16
Off-chip DRAM Size: 4096 MB Channels: 1 Width: 64-bit Data Rate: 6400 MT/s
CPU 0 runs ./traces/gap/sssp-14.trace.gz
.gz
CPU 1 runs ./traces/gap/sssp-14.trace.gz
.gz
CPU 2 runs ./traces/gap/sssp-14.trace.gz
.gz
CPU 3 runs ./traces/gap/sssp-14.trace.gz
.gz
BTB has LRU replacement policy
ITLB has LRU replacement policy
DTLB has LRU replacement policy
STLB has LRU replacement policy
L1I has LRU replacement policy
IP Table Entries: 1024
CSPT Entries: 128
RR_ENTRIES: 32
RST_ENTRIES: 8
L1D has LRU replacement policy
Initialize SRRIP state for L2C
Initialize DRRIP state for LLC
BTB has LRU replacement policy
ITLB has LRU replacement policy
DTLB has LRU replacement policy
STLB has LRU replacement policy
L1I has LRU replacement policy
IP Table Entries: 1024
CSPT Entries: 128
RR_ENTRIES: 32
RST_ENTRIES: 8
L1D has LRU replacement policy
Initialize SRRIP state for L2C
Initialize DRRIP state for LLC
BTB has LRU replacement policy
ITLB has LRU replacement policy
DTLB has LRU replacement policy
STLB has LRU replacement policy
L1I has LRU replacement policy
IP Table Entries: 1024
CSPT Entries: 128
RR_ENTRIES: 32
RST_ENTRIES: 8
L1D has LRU replacement policy
Initialize SRRIP state for L2C
Initialize DRRIP state for LLC
BTB has LRU replacement policy
ITLB has LRU replacement policy
DTLB has LRU replacement policy
STLB has LRU replacement policy
L1I has LRU replacement policy
IP Table Entries: 1024
CSPT Entries: 128
RR_ENTRIES: 32
RST_ENTRIES: 8
L1D has LRU replacement policy
Initialize SRRIP state for L2C
Initialize DRRIP state for LLC
Heartbeat CPU 0 instructions: 10000000 cycles: 3085518 heartbeat IPC: 3.24095 cumulative IPC: 3.24095 (Simulation time: 0 hr 3 min 28 sec) 
Heartbeat CPU 3 instructions: 10000000 cycles: 3085708 heartbeat IPC: 3.24075 cumulative IPC: 3.24075 (Simulation time: 0 hr 3 min 28 sec) 
Heartbeat CPU 1 instructions: 10000000 cycles: 3085876 heartbeat IPC: 3.24057 cumulative IPC: 3.24057 (Simulation time: 0 hr 3 min 29 sec) 
Heartbeat CPU 2 instructions: 10000000 cycles: 3086003 heartbeat IPC: 3.24044 cumulative IPC: 3.24044 (Simulation time: 0 hr 3 min 29 sec) 
Heartbeat CPU 0 instructions: 20000003 cycles: 6140830 heartbeat IPC: 3.27299 cumulative IPC: 3.25689 (Simulation time: 0 hr 7 min 46 sec) 
Heartbeat CPU 3 instructions: 20000003 cycles: 6141295 heartbeat IPC: 3.27269 cumulative IPC: 3.25664 (Simulation time: 0 hr 7 min 46 sec) 
Heartbeat CPU 1 instructions: 20000003 cycles: 6141558 heartbeat IPC: 3.27259 cumulative IPC: 3.2565 (Simulation time: 0 hr 7 min 46 sec) 
Heartbeat CPU 2 instructions: 20000003 cycles: 6141987 heartbeat IPC: 3.27227 cumulative IPC: 3.25628 (Simulation time: 0 hr 7 min 46 sec) 
Heartbeat CPU 0 instructions: 30000001 cycles: 9225072 heartbeat IPC: 3.24229 cumulative IPC: 3.25201 (Simulation time: 0 hr 11 min 58 sec) 
Heartbeat CPU 3 instructions: 30000001 cycles: 9225904 heartbeat IPC: 3.2419 cumulative IPC: 3.25171 (Simulation time: 0 hr 11 min 58 sec) 
Heartbeat CPU 1 instructions: 30000001 cycles: 9225982 heartbeat IPC: 3.2421 cumulative IPC: 3.25169 (Simulation time: 0 hr 11 min 58 sec) 
Heartbeat CPU 2 instructions: 30000001 cycles: 9226917 heartbeat IPC: 3.24156 cumulative IPC: 3.25136 (Simulation time: 0 hr 11 min 58 sec) 
Heartbeat CPU 0 instructions: 40000003 cycles: 12318441 heartbeat IPC: 3.23272 cumulative IPC: 3.24716 (Simulation time: 0 hr 16 min 15 sec) 
Heartbeat CPU 3 instructions: 40000003 cycles: 12318735 heartbeat IPC: 3.23328 cumulative IPC: 3.24709 (Simulation time: 0 hr 16 min 15 sec) 
Heartbeat CPU 1 instructions: 40000003 cycles: 12319123 heartbeat IPC: 3.23296 cumulative IPC: 3.24698 (Simulation time: 0 hr 16 min 15 sec) 
Heartbeat CPU 2 instructions: 40000003 cycles: 12321677 heartbeat IPC: 3.23127 cumulative IPC: 3.24631 (Simulation time: 0 hr 16 min 15 sec) 
Heartbeat CPU 0 instructions: 50000000 cycles: 15420190 heartbeat IPC: 3.22399 cumulative IPC: 3.2425 (Simulation time: 0 hr 20 min 40 sec) 
Heartbeat CPU 3 instructions: 50000000 cycles: 15421051 heartbeat IPC: 3.2234 cumulative IPC: 3.24232 (Simulation time: 0 hr 20 min 40 sec) 
Heartbeat CPU 1 instructions: 50000000 cycles: 15422303 heartbeat IPC: 3.2225 cumulative IPC: 3.24206 (Simulation time: 0 hr 20 min 41 sec) 
Heartbeat CPU 2 instructions: 50000000 cycles: 15425407 heartbeat IPC: 3.22193 cumulative IPC: 3.24141 (Simulation time: 0 hr 20 min 41 sec) 

Warmup complete CPU 0 instructions: 50014792 cycles: 15425408 (Simulation time: 0 hr 20 min 41 sec) 
Warmup complete CPU 1 instructions: 50008711 cycles: 15425408 (Simulation time: 0 hr 20 min 41 sec) 
Warmup complete CPU 2 instructions: 50000004 cycles: 15425408 (Simulation time: 0 hr 20 min 41 sec) 
Warmup complete CPU 3 instructions: 50012386 cycles: 15425407 (Simulation time: 0 hr 20 min 41 sec) 

Heartbeat CPU 2 instructions: 60000002 cycles: 62177934 heartbeat IPC: 0.213892 cumulative IPC: 0.213892 (Simulation time: 0 hr 25 min 39 sec) 
Heartbeat CPU 0 instructions: 60000002 cycles: 62180064 heartbeat IPC: 0.213859 cumulative IPC: 0.213566 (Simulation time: 0 hr 25 min 39 sec) 
Heartbeat CPU 3 instructions: 60000002 cycles: 62536565 heartbeat IPC: 0.212244 cumulative IPC: 0.212001 (Simulation time: 0 hr 25 min 42 sec) 
Heartbeat CPU 1 instructions: 60000002 cycles: 62660602 heartbeat IPC: 0.211693 cumulative IPC: 0.211522 (Simulation time: 0 hr 25 min 43 sec) 
Heartbeat CPU 0 instructions: 70000001 cycles: 107763003 heartbeat IPC: 0.21938 cumulative IPC: 0.216436 (Simulation time: 0 hr 30 min 48 sec) 
Heartbeat CPU 2 instructions: 70000001 cycles: 107865608 heartbeat IPC: 0.218877 cumulative IPC: 0.216356 (Simulation time: 0 hr 30 min 49 sec) 
Heartbeat CPU 3 instructions: 70000001 cycles: 108256574 heartbeat IPC: 0.218723 cumulative IPC: 0.215311 (Simulation time: 0 hr 30 min 52 sec) 
Heartbeat CPU 1 instructions: 70000001 cycles: 108394136 heartbeat IPC: 0.218658 cumulative IPC: 0.215032 (Simulation time: 0 hr 30 min 53 sec) 
Heartbeat CPU 0 instructions: 80000003 cycles: 151565942 heartbeat IPC: 0.228295 cumulative IPC: 0.220252 (Simulation time: 0 hr 35 min 52 sec) 
Heartbeat CPU 2 instructions: 80000003 cycles: 151827502 heartbeat IPC: 0.22747 cumulative IPC: 0.219938 (Simulation time: 0 hr 35 min 53 sec) 
Heartbeat CPU 3 instructions: 80000003 cycles: 152153371 heartbeat IPC: 0.227807 cumulative IPC: 0.219323 (Simulation time: 0 hr 35 min 54 sec) 
Heartbeat CPU 1 instructions: 80000003 cycles: 152272169 heartbeat IPC: 0.227905 cumulative IPC: 0.21916 (Simulation time: 0 hr 35 min 55 sec) 
Heartbeat CPU 0 instructions: 90000003 cycles: 194477128 heartbeat IPC: 0.233039 cumulative IPC: 0.223317 (Simulation time: 0 hr 41 min 8 sec) 
Heartbeat CPU 2 instructions: 90000003 cycles: 194906188 heartbeat IPC: 0.232133 cumulative IPC: 0.222865 (Simulation time: 0 hr 41 min 11 sec) 
Heartbeat CPU 3 instructions: 90000003 cycles: 195272783 heartbeat IPC: 0.231914 cumulative IPC: 0.222342 (Simulation time: 0 hr 41 min 14 sec) 
Heartbeat CPU 1 instructions: 90000003 cycles: 195332355 heartbeat IPC: 0.232233 cumulative IPC: 0.222289 (Simulation time: 0 hr 41 min 14 sec) 
Heartbeat CPU 0 instructions: 100000002 cycles: 236605083 heartbeat IPC: 0.237372 cumulative IPC: 0.225994 (Simulation time: 0 hr 46 min 23 sec) 
Heartbeat CPU 2 instructions: 100000002 cycles: 237145304 heartbeat IPC: 0.236747 cumulative IPC: 0.22551 (Simulation time: 0 hr 46 min 28 sec) 
Heartbeat CPU 3 instructions: 100000002 cycles: 237368616 heartbeat IPC: 0.237553 cumulative IPC: 0.225227 (Simulation time: 0 hr 46 min 29 sec) 
Heartbeat CPU 1 instructions: 100000002 cycles: 237417330 heartbeat IPC: 0.237614 cumulative IPC: 0.225194 (Simulation time: 0 hr 46 min 30 sec) 
Heartbeat CPU 0 instructions: 110000000 cycles: 278734110 heartbeat IPC: 0.237366 cumulative IPC: 0.227813 (Simulation time: 0 hr 51 min 30 sec) 
Heartbeat CPU 2 instructions: 110000000 cycles: 279302008 heartbeat IPC: 0.23721 cumulative IPC: 0.227379 (Simulation time: 0 hr 51 min 34 sec) 
Heartbeat CPU 3 instructions: 110000000 cycles: 279385808 heartbeat IPC: 0.237998 cumulative IPC: 0.22726 (Simulation time: 0 hr 51 min 35 sec) 
Heartbeat CPU 1 instructions: 110000000 cycles: 279392087 heartbeat IPC: 0.238238 cumulative IPC: 0.227268 (Simulation time: 0 hr 51 min 35 sec) 
Heartbeat CPU 0 instructions: 120000001 cycles: 320289378 heartbeat IPC: 0.240643 cumulative IPC: 0.229562 (Simulation time: 0 hr 56 min 44 sec) 
Heartbeat CPU 2 instructions: 120000001 cycles: 320759076 heartbeat IPC: 0.241213 cumulative IPC: 0.229257 (Simulation time: 0 hr 56 min 46 sec) 
Heartbeat CPU 1 instructions: 120000001 cycles: 320809496 heartbeat IPC: 0.241444 cumulative IPC: 0.229191 (Simulation time: 0 hr 56 min 47 sec) 
Heartbeat CPU 3 instructions: 120000001 cycles: 321022826 heartbeat IPC: 0.240171 cumulative IPC: 0.229019 (Simulation time: 0 hr 56 min 48 sec) 
Heartbeat CPU 0 instructions: 130000003 cycles: 360632379 heartbeat IPC: 0.247875 cumulative IPC: 0.231702 (Simulation time: 1 hr 2 min 12 sec) 
Heartbeat CPU 2 instructions: 130000003 cycles: 361135720 heartbeat IPC: 0.247668 cumulative IPC: 0.231408 (Simulation time: 1 hr 2 min 16 sec) 
Heartbeat CPU 1 instructions: 130000003 cycles: 361170480 heartbeat IPC: 0.247764 cumulative IPC: 0.231359 (Simulation time: 1 hr 2 min 17 sec) 
Heartbeat CPU 3 instructions: 130000003 cycles: 361362807 heartbeat IPC: 0.247893 cumulative IPC: 0.23122 (Simulation time: 1 hr 2 min 18 sec) 
Heartbeat CPU 0 instructions: 140000003 cycles: 401658796 heartbeat IPC: 0.243745 cumulative IPC: 0.232981 (Simulation time: 1 hr 7 min 45 sec) 
Heartbeat CPU 1 instructions: 140000003 cycles: 401971071 heartbeat IPC: 0.245094 cumulative IPC: 0.232809 (Simulation time: 1 hr 7 min 48 sec) 
Heartbeat CPU 2 instructions: 140000003 cycles: 402154990 heartbeat IPC: 0.243788 cumulative IPC: 0.232721 (Simulation time: 1 hr 7 min 50 sec) 
Heartbeat CPU 3 instructions: 140000003 cycles: 402302407 heartbeat IPC: 0.244262 cumulative IPC: 0.2326 (Simulation time: 1 hr 7 min 51 sec) 
Heartbeat CPU 0 instructions: 150000000 cycles: 442239848 heartbeat IPC: 0.24642 cumulative IPC: 0.234259 (Simulation time: 1 hr 13 min 23 sec) 
Heartbeat CPU 1 instructions: 150000001 cycles: 442303184 heartbeat IPC: 0.247941 cumulative IPC: 0.234239 (Simulation time: 1 hr 13 min 24 sec) 
Heartbeat CPU 2 instructions: 150000000 cycles: 442502087 heartbeat IPC: 0.247849 cumulative IPC: 0.23415 (Simulation time: 1 hr 13 min 25 sec) 
Heartbeat CPU 3 instructions: 150000001 cycles: 442773201 heartbeat IPC: 0.247092 cumulative IPC: 0.233972 (Simulation time: 1 hr 13 min 27 sec) 
Heartbeat CPU 0 instructions: 160000002 cycles: 482164537 heartbeat IPC: 0.250472 cumulative IPC: 0.235646 (Simulation time: 1 hr 18 min 52 sec) 
Heartbeat CPU 1 instructions: 160000002 cycles: 482314952 heartbeat IPC: 0.249926 cumulative IPC: 0.235583 (Simulation time: 1 hr 18 min 54 sec) 
Heartbeat CPU 2 instructions: 160000002 cycles: 482497612 heartbeat IPC: 0.250028 cumulative IPC: 0.23551 (Simulation time: 1 hr 18 min 55 sec) 
Heartbeat CPU 3 instructions: 160000002 cycles: 482728464 heartbeat IPC: 0.25028 cumulative IPC: 0.235367 (Simulation time: 1 hr 18 min 57 sec) 
Heartbeat CPU 0 instructions: 170000002 cycles: 521762229 heartbeat IPC: 0.25254 cumulative IPC: 0.236967 (Simulation time: 1 hr 24 min 55 sec) 
Heartbeat CPU 1 instructions: 170000003 cycles: 521970214 heartbeat IPC: 0.252173 cumulative IPC: 0.236882 (Simulation time: 1 hr 24 min 57 sec) 
Heartbeat CPU 2 instructions: 170000003 cycles: 522188856 heartbeat IPC: 0.251945 cumulative IPC: 0.236797 (Simulation time: 1 hr 25 min 0 sec) 
Heartbeat CPU 3 instructions: 170000003 cycles: 522408381 heartbeat IPC: 0.252017 cumulative IPC: 0.23667 (Simulation time: 1 hr 25 min 2 sec) 
Heartbeat CPU 0 instructions: 180000003 cycles: 560996270 heartbeat IPC: 0.254881 cumulative IPC: 0.238255 (Simulation time: 1 hr 30 min 13 sec) 
Heartbeat CPU 1 instructions: 180000003 cycles: 561230373 heartbeat IPC: 0.254711 cumulative IPC: 0.238164 (Simulation time: 1 hr 30 min 15 sec) 
Heartbeat CPU 3 instructions: 180000003 cycles: 561529445 heartbeat IPC: 0.255617 cumulative IPC: 0.238027 (Simulation time: 1 hr 30 min 17 sec) 
Heartbeat CPU 2 instructions: 180000003 cycles: 561555205 heartbeat IPC: 0.254024 cumulative IPC: 0.238039 (Simulation time: 1 hr 30 min 18 sec) 
Heartbeat CPU 0 instructions: 190000001 cycles: 600277543 heartbeat IPC: 0.254574 cumulative IPC: 0.239351 (Simulation time: 1 hr 35 min 5 sec) 
Heartbeat CPU 1 instructions: 190000001 cycles: 600614897 heartbeat IPC: 0.253907 cumulative IPC: 0.239224 (Simulation time: 1 hr 35 min 7 sec) 
Heartbeat CPU 3 instructions: 190000001 cycles: 600691932 heartbeat IPC: 0.255346 cumulative IPC: 0.239186 (Simulation time: 1 hr 35 min 8 sec) 
Heartbeat CPU 2 instructions: 190000001 cycles: 601027780 heartbeat IPC: 0.25334 cumulative IPC: 0.23907 (Simulation time: 1 hr 35 min 10 sec) 
Heartbeat CPU 0 instructions: 200000001 cycles: 639511663 heartbeat IPC: 0.25488 cumulative IPC: 0.240328 (Simulation time: 1 hr 39 min 44 sec) 
Heartbeat CPU 1 instructions: 200000001 cycles: 639771105 heartbeat IPC: 0.255387 cumulative IPC: 0.240238 (Simulation time: 1 hr 39 min 46 sec) 
Heartbeat CPU 3 instructions: 200000001 cycles: 639975619 heartbeat IPC: 0.254559 cumulative IPC: 0.240153 (Simulation time: 1 hr 39 min 47 sec) 
Heartbeat CPU 2 instructions: 200000001 cycles: 640198806 heartbeat IPC: 0.255291 cumulative IPC: 0.240087 (Simulation time: 1 hr 39 min 49 sec) 
Heartbeat CPU 0 instructions: 210000002 cycles: 678571689 heartbeat IPC: 0.256016 cumulative IPC: 0.241252 (Simulation time: 1 hr 44 min 47 sec) 
Heartbeat CPU 1 instructions: 210000001 cycles: 679123076 heartbeat IPC: 0.254117 cumulative IPC: 0.24106 (Simulation time: 1 hr 44 min 51 sec) 
Heartbeat CPU 3 instructions: 210000002 cycles: 679172091 heartbeat IPC: 0.255125 cumulative IPC: 0.241037 (Simulation time: 1 hr 44 min 51 sec) 
Heartbeat CPU 2 instructions: 210000002 cycles: 679321994 heartbeat IPC: 0.255603 cumulative IPC: 0.241001 (Simulation time: 1 hr 44 min 52 sec) 
Heartbeat CPU 0 instructions: 220000000 cycles: 717284001 heartbeat IPC: 0.258316 cumulative IPC: 0.242193 (Simulation time: 1 hr 50 min 42 sec) 
Heartbeat CPU 3 instructions: 220000000 cycles: 717743019 heartbeat IPC: 0.259263 cumulative IPC: 0.242038 (Simulation time: 1 hr 50 min 47 sec) 
Heartbeat CPU 1 instructions: 220000000 cycles: 717838989 heartbeat IPC: 0.258292 cumulative IPC: 0.24201 (Simulation time: 1 hr 50 min 48 sec) 
Heartbeat CPU 2 instructions: 220000000 cycles: 718001526 heartbeat IPC: 0.258535 cumulative IPC: 0.241967 (Simulation time: 1 hr 50 min 49 sec) 
Heartbeat CPU 0 instructions: 230000001 cycles: 755234543 heartbeat IPC: 0.263501 cumulative IPC: 0.243286 (Simulation time: 1 hr 56 min 4 sec) 
Heartbeat CPU 1 instructions: 230000001 cycles: 755844535 heartbeat IPC: 0.26312 cumulative IPC: 0.243094 (Simulation time: 1 hr 56 min 8 sec) 
Heartbeat CPU 3 instructions: 230000001 cycles: 755847817 heartbeat IPC: 0.262434 cumulative IPC: 0.243088 (Simulation time: 1 hr 56 min 8 sec) 
Heartbeat CPU 2 instructions: 230000001 cycles: 755898701 heartbeat IPC: 0.263872 cumulative IPC: 0.243088 (Simulation time: 1 hr 56 min 9 sec) 
Heartbeat CPU 0 instructions: 240000003 cycles: 794040991 heartbeat IPC: 0.257689 cumulative IPC: 0.244004 (Simulation time: 2 hr 1 min 47 sec) 
Heartbeat CPU 1 instructions: 240000003 cycles: 794595596 heartbeat IPC: 0.258058 cumulative IPC: 0.243838 (Simulation time: 2 hr 1 min 52 sec) 
Heartbeat CPU 2 instructions: 240000003 cycles: 794758635 heartbeat IPC: 0.257335 cumulative IPC: 0.243798 (Simulation time: 2 hr 1 min 54 sec) 
Heartbeat CPU 3 instructions: 240000003 cycles: 794774029 heartbeat IPC: 0.256896 cumulative IPC: 0.243777 (Simulation time: 2 hr 1 min 54 sec) 
Heartbeat CPU 0 instructions: 250000001 cycles: 832225998 heartbeat IPC: 0.261883 cumulative IPC: 0.24484 (Simulation time: 2 hr 7 min 22 sec) 
Finished CPU 0 instructions: 200000003 cycles: 816853339 cumulative IPC: 0.244842 (Simulation time: 2 hr 7 min 23 sec) 
Heartbeat CPU 1 instructions: 250000001 cycles: 832928332 heartbeat IPC: 0.260874 cumulative IPC: 0.244637 (Simulation time: 2 hr 7 min 29 sec) 
Finished CPU 1 instructions: 200000000 cycles: 817534520 cumulative IPC: 0.244638 (Simulation time: 2 hr 7 min 29 sec) 
Heartbeat CPU 3 instructions: 250000001 cycles: 833072242 heartbeat IPC: 0.261109 cumulative IPC: 0.244589 (Simulation time: 2 hr 7 min 30 sec) 
Heartbeat CPU 2 instructions: 250000001 cycles: 833079596 heartbeat IPC: 0.260954 cumulative IPC: 0.244602 (Simulation time: 2 hr 7 min 30 sec) 
Finished CPU 2 instructions: 200000001 cycles: 817654189 cumulative IPC: 0.244602 (Simulation time: 2 hr 7 min 30 sec) 
Finished CPU 3 instructions: 200000000 cycles: 817694936 cumulative IPC: 0.24459 (Simulation time: 2 hr 7 min 31 sec) 

ChampSim completed all CPUs

Total Simulation Statistics (not including warmup)

CPU 0 cumulative IPC: 0.244867 instructions: 200226588 cycles: 817694935
ITLB TOTAL     ACCESS:   24731792  HIT:   24731792  MISS:          0  HIT %:        100  MISS %:          0   MPKI: 0
ITLB LOAD      ACCESS:          0  HIT:          0  MISS:          0  HIT %:       -nan  MISS %:       -nan   MPKI: 0
ITLB RFO       ACCESS:          0  HIT:          0  MISS:          0  HIT %:       -nan  MISS %:       -nan   MPKI: 0
ITLB PREFETCH  ACCESS:          0  HIT:          0  MISS:          0  HIT %:       -nan  MISS %:       -nan   MPKI: 0
ITLB WRITEBACK ACCESS:          0  HIT:          0  MISS:          0  HIT %:       -nan  MISS %:       -nan   MPKI: 0
DTLB TOTAL     ACCESS:   41368618  HIT:   36812343  MISS:    4556275  HIT %:    88.9862  MISS %:    11.0138   MPKI: 22.7556
DTLB LOAD      ACCESS:          0  HIT:          0  MISS:          0  HIT %:       -nan  MISS %:       -nan   MPKI: 0
DTLB RFO       ACCESS:          0  HIT:          0  MISS:          0  HIT %:       -nan  MISS %:       -nan   MPKI: 0
DTLB PREFETCH  ACCESS:          0  HIT:          0  MISS:          0  HIT %:       -nan  MISS %:       -nan   MPKI: 0
DTLB WRITEBACK ACCESS:          0  HIT:          0  MISS:          0  HIT %:       -nan  MISS %:       -nan   MPKI: 0
STLB TOTAL     ACCESS:   13101779  HIT:   13041695  MISS:      60084  HIT %:    99.5414  MISS %:   0.458594   MPKI: 0.30008
STLB LOAD      ACCESS:          0  HIT:          0  MISS:          0  HIT %:       -nan  MISS %:       -nan   MPKI: 0
STLB RFO       ACCESS:          0  HIT:          0  MISS:          0  HIT %:       -nan  MISS %:       -nan   MPKI: 0
STLB PREFETCH  ACCESS:          0  HIT:          0  MISS:          0  HIT %:       -nan  MISS %:       -nan   MPKI: 0
STLB WRITEBACK ACCESS:          0  HIT:          0  MISS:          0  HIT %:       -nan  MISS %:       -nan   MPKI: 0
L1D TOTAL     ACCESS:   58036682  HIT:   38424920  MISS:   19611762  HIT %:     66.208  MISS %:     33.792   MPKI: 97.9478
L1D LOAD      ACCESS:   43371638  HIT:   34194184  MISS:    9177454  HIT %:      78.84  MISS %:      21.16   MPKI: 45.8353
L1D RFO       ACCESS:    2052894  HIT:    1507355  MISS:     545539  HIT %:    73.4259  MISS %:    26.5741   MPKI: 2.72461
L1D PREFETCH  ACCESS:   12612150  HIT:    2723381  MISS:    9888769  HIT %:    21.5933  MISS %:    78.4067   MPKI: 49.3879
L1D WRITEBACK ACCESS:          0  HIT:          0  MISS:          0  HIT %:       -nan  MISS %:       -nan   MPKI: 0
L1I TOTAL     ACCESS:   25400211  HIT:   25400211  MISS:          0  HIT %:        100  MISS %:          0   MPKI: 0
L1I LOAD      ACCESS:   25400211  HIT:   25400211  MISS:          0  HIT %:        100  MISS %:          0   MPKI: 0
L1I RFO       ACCESS:          0  HIT:          0  MISS:          0  HIT %:       -nan  MISS %:       -nan   MPKI: 0
L1I PREFETCH  ACCESS:          0  HIT:          0  MISS:          0  HIT %:       -nan  MISS %:       -nan   MPKI: 0
L1I WRITEBACK ACCESS:          0  HIT:          0  MISS:          0  HIT %:       -nan  MISS %:       -nan   MPKI: 0
L2C TOTAL     ACCESS:   21160665  HIT:    4908388  MISS:   16252277  HIT %:    23.1958  MISS %:    76.8042   MPKI: 81.1694
L2C LOAD      ACCESS:    9012865  HIT:    1656522  MISS:    7356343  HIT %:    18.3795  MISS %:    81.6205   MPKI: 36.7401
L2C RFO       ACCESS:     545484  HIT:     338744  MISS:     206740  HIT %:    62.0997  MISS %:    37.9003   MPKI: 1.03253
L2C PREFETCH  ACCESS:   10053346  HIT:    1455126  MISS:    8598220  HIT %:     14.474  MISS %:     85.526   MPKI: 42.9424
L2C WRITEBACK ACCESS:    1476813  HIT:    1433592  MISS:      43221  HIT %:    97.0734  MISS %:    2.92664   MPKI: 0.21586
PSCL5 TOTAL     ACCESS:      60084  HIT:      60084  MISS:          0  HIT %:        100  MISS %:          0   MPKI: 0
PSCL5 LOAD      ACCESS:          0  HIT:          0  MISS:          0  HIT %:       -nan  MISS %:       -nan   MPKI: 0
PSCL5 RFO       ACCESS:          0  HIT:          0  MISS:          0  HIT %:       -nan  MISS %:       -nan   MPKI: 0
PSCL5 PREFETCH  ACCESS:          0  HIT:          0  MISS:          0  HIT %:       -nan  MISS %:       -nan   MPKI: 0
PSCL5 WRITEBACK ACCESS:          0  HIT:          0  MISS:          0  HIT %:       -nan  MISS %:       -nan   MPKI: 0
PSCL4 TOTAL     ACCESS:      60084  HIT:      60084  MISS:          0  HIT %:        100  MISS %:          0   MPKI: 0
PSCL4 LOAD      ACCESS:          0  HIT:          0  MISS:          0  HIT %:       -nan  MISS %:       -nan   MPKI: 0
PSCL4 RFO       ACCESS:          0  HIT:          0  MISS:          0  HIT %:       -nan  MISS %:       -nan   MPKI: 0
PSCL4 PREFETCH  ACCESS:          0  HIT:          0  MISS:          0  HIT %:       -nan  MISS %:       -nan   MPKI: 0
PSCL4 WRITEBACK ACCESS:          0  HIT:          0  MISS:          0  HIT %:       -nan  MISS %:       -nan   MPKI: 0
PSCL3 TOTAL     ACCESS:      60084  HIT:      60084  MISS:          0  HIT %:        100  MISS %:          0   MPKI: 0
PSCL3 LOAD      ACCESS:          0  HIT:          0  MISS:          0  HIT %:       -nan  MISS %:       -nan   MPKI: 0
PSCL3 RFO       ACCESS:          0  HIT:          0  MISS:          0  HIT %:       -nan  MISS %:       -nan   MPKI: 0
PSCL3 PREFETCH  ACCESS:          0  HIT:          0  MISS:          0  HIT %:       -nan  MISS %:       -nan   MPKI: 0
PSCL3 WRITEBACK ACCESS:          0  HIT:          0  MISS:          0  HIT %:       -nan  MISS %:       -nan   MPKI: 0
PSCL2 TOTAL     ACCESS:      60084  HIT:      48009  MISS:      12075  HIT %:    79.9031  MISS %:    20.0969   MPKI: 0.0603067
PSCL2 LOAD      ACCESS:          0  HIT:          0  MISS:          0  HIT %:       -nan  MISS %:       -nan   MPKI: 0
PSCL2 RFO       ACCESS:          0  HIT:          0  MISS:          0  HIT %:       -nan  MISS %:       -nan   MPKI: 0
PSCL2 PREFETCH  ACCESS:          0  HIT:          0  MISS:          0  HIT %:       -nan  MISS %:       -nan   MPKI: 0
PSCL2 WRITEBACK ACCESS:          0  HIT:          0  MISS:          0  HIT %:       -nan  MISS %:       -nan   MPKI: 0

stream: 
stream:times selected: 16657719
stream:pref_filled: 9989024
stream:pref_useful: 290184
stream:pref_late: 144411
stream:misses: 2297916
stream:misses_by_poll: 0

CS: 
CS:times selected: 3707015
CS:pref_filled: 1488587
CS:pref_useful: 1395822
CS:pref_late: 41244
CS:misses: 218080
CS:misses_by_poll: 1359

CPLX: 
CPLX:times selected: 12873296
CPLX:pref_filled: 460019
CPLX:pref_useful: 20044
CPLX:pref_late: 6063
CPLX:misses: 8533835
CPLX:misses_by_poll: 183

NL_L1: 
NL:times selected: 14116
NL:pref_filled: 9659
NL:pref_useful: 675
NL:pref_late: 78
NL:misses: 9970
NL:misses_by_poll: 0

total selections: 33252146
total_filled: 9888769
total_useful: 1319825
total_late: 196877
total_polluted: 1542
total_misses_after_warmup: 9358888
conflicts: 329
Degree Incremented Times: 854834
Degree Decremented Times: 1894477

L1 IP Table Write Accesses: 174087038
L1 IP Table Read Accesses: 174086709
L1 RST Write Accesses: 53692498
L1 RST Read Accesses: 107384996
L1 CSPT Write Accesses: 53692498
L1 CSPT Read Accesses: 94508375
L1 RR Filter Tag Write Accesses: 52727258
L1 RR Filter Tag Read Accesses: 2599486163
L1 IP Table Tag Write Accesses: 174090757
L1 IP Table Tag Read Accesses: 174090757
L1 RST Tag Write Accesses: 0
L1 RST Tag Read Accesses: 485403710
L1 RR Filter Write Accesses: 0
L1 RR Filter Read Accesses: 91598223
test: 19776773
LLC TOTAL     ACCESS:   17096120  HIT:    9425708  MISS:    7670412  HIT %:    55.1336  MISS %:    44.8664   MPKI: 38.3087
LLC LOAD      ACCESS:    7356337  HIT:    4384982  MISS:    2971355  HIT %:    59.6082  MISS %:    40.3918   MPKI: 14.84
LLC RFO       ACCESS:     206738  HIT:      86648  MISS:     120090  HIT %:     41.912  MISS %:     58.088   MPKI: 0.59977
LLC PREFETCH  ACCESS:    8598217  HIT:    4120780  MISS:    4477437  HIT %:     47.926  MISS %:     52.074   MPKI: 22.3619
LLC WRITEBACK ACCESS:     887075  HIT:     823300  MISS:      63775  HIT %:    92.8106  MISS %:    7.18936   MPKI: 0.318514

RAW hits: 80193
Loads Generated: 76869111
Loads sent to L1D: 76788918
Stores Generated: 2231606
Stores sent to L1D: 2231606

CPU 1 cumulative IPC: 0.244644 instructions: 200044384 cycles: 817694935
ITLB TOTAL     ACCESS:   24709354  HIT:   24709354  MISS:          0  HIT %:        100  MISS %:          0   MPKI: 0
ITLB LOAD      ACCESS:          0  HIT:          0  MISS:          0  HIT %:       -nan  MISS %:       -nan   MPKI: 0
ITLB RFO       ACCESS:          0  HIT:          0  MISS:          0  HIT %:       -nan  MISS %:       -nan   MPKI: 0
ITLB PREFETCH  ACCESS:          0  HIT:          0  MISS:          0  HIT %:       -nan  MISS %:       -nan   MPKI: 0
ITLB WRITEBACK ACCESS:          0  HIT:          0  MISS:          0  HIT %:       -nan  MISS %:       -nan   MPKI: 0
DTLB TOTAL     ACCESS:   41333010  HIT:   36783235  MISS:    4549775  HIT %:    88.9924  MISS %:    11.0076   MPKI: 22.7438
DTLB LOAD      ACCESS:          0  HIT:          0  MISS:          0  HIT %:       -nan  MISS %:       -nan   MPKI: 0
DTLB RFO       ACCESS:          0  HIT:          0  MISS:          0  HIT %:       -nan  MISS %:       -nan   MPKI: 0
DTLB PREFETCH  ACCESS:          0  HIT:          0  MISS:          0  HIT %:       -nan  MISS %:       -nan   MPKI: 0
DTLB WRITEBACK ACCESS:          0  HIT:          0  MISS:          0  HIT %:       -nan  MISS %:       -nan   MPKI: 0
STLB TOTAL     ACCESS:   13081503  HIT:   13021490  MISS:      60013  HIT %:    99.5412  MISS %:   0.458762   MPKI: 0.299998
STLB LOAD      ACCESS:          0  HIT:          0  MISS:          0  HIT %:       -nan  MISS %:       -nan   MPKI: 0
STLB RFO       ACCESS:          0  HIT:          0  MISS:          0  HIT %:       -nan  MISS %:       -nan   MPKI: 0
STLB PREFETCH  ACCESS:          0  HIT:          0  MISS:          0  HIT %:       -nan  MISS %:       -nan   MPKI: 0
STLB WRITEBACK ACCESS:          0  HIT:          0  MISS:          0  HIT %:       -nan  MISS %:       -nan   MPKI: 0
L1D TOTAL     ACCESS:   57978437  HIT:   38388618  MISS:   19589819  HIT %:    66.2119  MISS %:    33.7881   MPKI: 97.9274
L1D LOAD      ACCESS:   43332135  HIT:   34163324  MISS:    9168811  HIT %:    78.8406  MISS %:    21.1594   MPKI: 45.8339
L1D RFO       ACCESS:    2052049  HIT:    1506616  MISS:     545433  HIT %:    73.4201  MISS %:    26.5799   MPKI: 2.72656
L1D PREFETCH  ACCESS:   12594253  HIT:    2718678  MISS:    9875575  HIT %:    21.5867  MISS %:    78.4133   MPKI: 49.3669
L1D WRITEBACK ACCESS:          0  HIT:          0  MISS:          0  HIT %:       -nan  MISS %:       -nan   MPKI: 0
L1I TOTAL     ACCESS:   25377431  HIT:   25377431  MISS:          0  HIT %:        100  MISS %:          0   MPKI: 0
L1I LOAD      ACCESS:   25377431  HIT:   25377431  MISS:          0  HIT %:        100  MISS %:          0   MPKI: 0
L1I RFO       ACCESS:          0  HIT:          0  MISS:          0  HIT %:       -nan  MISS %:       -nan   MPKI: 0
L1I PREFETCH  ACCESS:          0  HIT:          0  MISS:          0  HIT %:       -nan  MISS %:       -nan   MPKI: 0
L1I WRITEBACK ACCESS:          0  HIT:          0  MISS:          0  HIT %:       -nan  MISS %:       -nan   MPKI: 0
L2C TOTAL     ACCESS:   21138058  HIT:    4896878  MISS:   16241180  HIT %:    23.1662  MISS %:    76.8338   MPKI: 81.1879
L2C LOAD      ACCESS:    9003827  HIT:    1649008  MISS:    7354819  HIT %:    18.3145  MISS %:    81.6855   MPKI: 36.7659
L2C RFO       ACCESS:     545386  HIT:     339520  MISS:     205866  HIT %:    62.2532  MISS %:    37.7468   MPKI: 1.0291
L2C PREFETCH  ACCESS:   10040543  HIT:    1448045  MISS:    8592498  HIT %:     14.422  MISS %:     85.578   MPKI: 42.953
L2C WRITEBACK ACCESS:    1476240  HIT:    1435780  MISS:      40460  HIT %:    97.2593  MISS %:    2.74075   MPKI: 0.202255
PSCL5 TOTAL     ACCESS:      60013  HIT:      60013  MISS:          0  HIT %:        100  MISS %:          0   MPKI: 0
PSCL5 LOAD      ACCESS:          0  HIT:          0  MISS:          0  HIT %:       -nan  MISS %:       -nan   MPKI: 0
PSCL5 RFO       ACCESS:          0  HIT:          0  MISS:          0  HIT %:       -nan  MISS %:       -nan   MPKI: 0
PSCL5 PREFETCH  ACCESS:          0  HIT:          0  MISS:          0  HIT %:       -nan  MISS %:       -nan   MPKI: 0
PSCL5 WRITEBACK ACCESS:          0  HIT:          0  MISS:          0  HIT %:       -nan  MISS %:       -nan   MPKI: 0
PSCL4 TOTAL     ACCESS:      60013  HIT:      60013  MISS:          0  HIT %:        100  MISS %:          0   MPKI: 0
PSCL4 LOAD      ACCESS:          0  HIT:          0  MISS:          0  HIT %:       -nan  MISS %:       -nan   MPKI: 0
PSCL4 RFO       ACCESS:          0  HIT:          0  MISS:          0  HIT %:       -nan  MISS %:       -nan   MPKI: 0
PSCL4 PREFETCH  ACCESS:          0  HIT:          0  MISS:          0  HIT %:       -nan  MISS %:       -nan   MPKI: 0
PSCL4 WRITEBACK ACCESS:          0  HIT:          0  MISS:          0  HIT %:       -nan  MISS %:       -nan   MPKI: 0
PSCL3 TOTAL     ACCESS:      60013  HIT:      60013  MISS:          0  HIT %:        100  MISS %:          0   MPKI: 0
PSCL3 LOAD      ACCESS:          0  HIT:          0  MISS:          0  HIT %:       -nan  MISS %:       -nan   MPKI: 0
PSCL3 RFO       ACCESS:          0  HIT:          0  MISS:          0  HIT %:       -nan  MISS %:       -nan   MPKI: 0
PSCL3 PREFETCH  ACCESS:          0  HIT:          0  MISS:          0  HIT %:       -nan  MISS %:       -nan   MPKI: 0
PSCL3 WRITEBACK ACCESS:          0  HIT:          0  MISS:          0  HIT %:       -nan  MISS %:       -nan   MPKI: 0
PSCL2 TOTAL     ACCESS:      60013  HIT:      47962  MISS:      12051  HIT %:    79.9194  MISS %:    20.0806   MPKI: 0.0602416
PSCL2 LOAD      ACCESS:          0  HIT:          0  MISS:          0  HIT %:       -nan  MISS %:       -nan   MPKI: 0
PSCL2 RFO       ACCESS:          0  HIT:          0  MISS:          0  HIT %:       -nan  MISS %:       -nan   MPKI: 0
PSCL2 PREFETCH  ACCESS:          0  HIT:          0  MISS:          0  HIT %:       -nan  MISS %:       -nan   MPKI: 0
PSCL2 WRITEBACK ACCESS:          0  HIT:          0  MISS:          0  HIT %:       -nan  MISS %:       -nan   MPKI: 0

stream: 
stream:times selected: 16647809
stream:pref_filled: 9896224
stream:pref_useful: 295070
stream:pref_late: 144611
stream:misses: 2296412
stream:misses_by_poll: 0

CS: 
CS:times selected: 3704833
CS:pref_filled: 1458094
CS:pref_useful: 1366556
CS:pref_late: 46920
CS:misses: 240849
CS:misses_by_poll: 1383

CPLX: 
CPLX:times selected: 12865668
CPLX:pref_filled: 452854
CPLX:pref_useful: 19603
CPLX:pref_late: 5924
CPLX:misses: 8533662
CPLX:misses_by_poll: 224

NL_L1: 
NL:times selected: 14459
NL:pref_filled: 9082
NL:pref_useful: 631
NL:pref_late: 77
NL:misses: 10201
NL:misses_by_poll: 0

total selections: 33232769
total_filled: 9875575
total_useful: 1318382
total_late: 202516
total_polluted: 1607
total_misses_after_warmup: 9351077
conflicts: 329
Degree Incremented Times: 854834
Degree Decremented Times: 1894477

L1 IP Table Write Accesses: 174087038
L1 IP Table Read Accesses: 174086709
L1 RST Write Accesses: 53692498
L1 RST Read Accesses: 107384996
L1 CSPT Write Accesses: 53692498
L1 CSPT Read Accesses: 94508375
L1 RR Filter Tag Write Accesses: 52727258
L1 RR Filter Tag Read Accesses: 2599486163
L1 IP Table Tag Write Accesses: 174090757
L1 IP Table Tag Read Accesses: 174090757
L1 RST Tag Write Accesses: 0
L1 RST Tag Read Accesses: 485403710
L1 RR Filter Write Accesses: 0
L1 RR Filter Read Accesses: 91598223
test: 19776773
LLC TOTAL     ACCESS:   17087571  HIT:    9432655  MISS:    7654916  HIT %:    55.2018  MISS %:    44.7982   MPKI: 38.2661
LLC LOAD      ACCESS:    7354816  HIT:    4387731  MISS:    2967085  HIT %:    59.6579  MISS %:    40.3421   MPKI: 14.8321
LLC RFO       ACCESS:     205865  HIT:      86302  MISS:     119563  HIT %:    41.9216  MISS %:    58.0784   MPKI: 0.597682
LLC PREFETCH  ACCESS:    8592495  HIT:    4123815  MISS:    4468680  HIT %:    47.9932  MISS %:    52.0068   MPKI: 22.3384
LLC WRITEBACK ACCESS:     886858  HIT:     824551  MISS:      62307  HIT %:    92.9744  MISS %:    7.02559   MPKI: 0.311466

RAW hits: 79923
Loads Generated: 76797579
Loads sent to L1D: 76717655
Stores Generated: 2230682
Stores sent to L1D: 2230681

CPU 2 cumulative IPC: 0.244604 instructions: 200011332 cycles: 817694935
ITLB TOTAL     ACCESS:   24704771  HIT:   24704771  MISS:          0  HIT %:        100  MISS %:          0   MPKI: 0
ITLB LOAD      ACCESS:          0  HIT:          0  MISS:          0  HIT %:       -nan  MISS %:       -nan   MPKI: 0
ITLB RFO       ACCESS:          0  HIT:          0  MISS:          0  HIT %:       -nan  MISS %:       -nan   MPKI: 0
ITLB PREFETCH  ACCESS:          0  HIT:          0  MISS:          0  HIT %:       -nan  MISS %:       -nan   MPKI: 0
ITLB WRITEBACK ACCESS:          0  HIT:          0  MISS:          0  HIT %:       -nan  MISS %:       -nan   MPKI: 0
DTLB TOTAL     ACCESS:   41322468  HIT:   36773890  MISS:    4548578  HIT %:    88.9925  MISS %:    11.0075   MPKI: 22.7416
DTLB LOAD      ACCESS:          0  HIT:          0  MISS:          0  HIT %:       -nan  MISS %:       -nan   MPKI: 0
DTLB RFO       ACCESS:          0  HIT:          0  MISS:          0  HIT %:       -nan  MISS %:       -nan   MPKI: 0
DTLB PREFETCH  ACCESS:          0  HIT:          0  MISS:          0  HIT %:       -nan  MISS %:       -nan   MPKI: 0
DTLB WRITEBACK ACCESS:          0  HIT:          0  MISS:          0  HIT %:       -nan  MISS %:       -nan   MPKI: 0
STLB TOTAL     ACCESS:   13074520  HIT:   13014515  MISS:      60005  HIT %:    99.5411  MISS %:   0.458946   MPKI: 0.300008
STLB LOAD      ACCESS:          0  HIT:          0  MISS:          0  HIT %:       -nan  MISS %:       -nan   MPKI: 0
STLB RFO       ACCESS:          0  HIT:          0  MISS:          0  HIT %:       -nan  MISS %:       -nan   MPKI: 0
STLB PREFETCH  ACCESS:          0  HIT:          0  MISS:          0  HIT %:       -nan  MISS %:       -nan   MPKI: 0
STLB WRITEBACK ACCESS:          0  HIT:          0  MISS:          0  HIT %:       -nan  MISS %:       -nan   MPKI: 0
L1D TOTAL     ACCESS:   57957981  HIT:   38377226  MISS:   19580755  HIT %:    66.2156  MISS %:    33.7844   MPKI: 97.8982
L1D LOAD      ACCESS:   43321637  HIT:   34153522  MISS:    9168115  HIT %:    78.8371  MISS %:    21.1629   MPKI: 45.838
L1D RFO       ACCESS:    2052068  HIT:    1506970  MISS:     545098  HIT %:    73.4367  MISS %:    26.5633   MPKI: 2.72534
L1D PREFETCH  ACCESS:   12584276  HIT:    2716734  MISS:    9867542  HIT %:    21.5883  MISS %:    78.4117   MPKI: 49.3349
L1D WRITEBACK ACCESS:          0  HIT:          0  MISS:          0  HIT %:       -nan  MISS %:       -nan   MPKI: 0
L1I TOTAL     ACCESS:   25372800  HIT:   25372800  MISS:          0  HIT %:        100  MISS %:          0   MPKI: 0
L1I LOAD      ACCESS:   25372800  HIT:   25372800  MISS:          0  HIT %:        100  MISS %:          0   MPKI: 0
L1I RFO       ACCESS:          0  HIT:          0  MISS:          0  HIT %:       -nan  MISS %:       -nan   MPKI: 0
L1I PREFETCH  ACCESS:          0  HIT:          0  MISS:          0  HIT %:       -nan  MISS %:       -nan   MPKI: 0
L1I WRITEBACK ACCESS:          0  HIT:          0  MISS:          0  HIT %:       -nan  MISS %:       -nan   MPKI: 0
L2C TOTAL     ACCESS:   21128646  HIT:    4894894  MISS:   16233752  HIT %:    23.1671  MISS %:    76.8329   MPKI: 81.1642
L2C LOAD      ACCESS:    9003538  HIT:    1648194  MISS:    7355344  HIT %:    18.3061  MISS %:    81.6939   MPKI: 36.7746
L2C RFO       ACCESS:     545044  HIT:     338925  MISS:     206119  HIT %:    62.1831  MISS %:    37.8169   MPKI: 1.03054
L2C PREFETCH  ACCESS:   10032099  HIT:    1445421  MISS:    8586678  HIT %:     14.408  MISS %:     85.592   MPKI: 42.931
L2C WRITEBACK ACCESS:    1475917  HIT:    1437606  MISS:      38311  HIT %:    97.4043  MISS %:    2.59574   MPKI: 0.191544
PSCL5 TOTAL     ACCESS:      60005  HIT:      60005  MISS:          0  HIT %:        100  MISS %:          0   MPKI: 0
PSCL5 LOAD      ACCESS:          0  HIT:          0  MISS:          0  HIT %:       -nan  MISS %:       -nan   MPKI: 0
PSCL5 RFO       ACCESS:          0  HIT:          0  MISS:          0  HIT %:       -nan  MISS %:       -nan   MPKI: 0
PSCL5 PREFETCH  ACCESS:          0  HIT:          0  MISS:          0  HIT %:       -nan  MISS %:       -nan   MPKI: 0
PSCL5 WRITEBACK ACCESS:          0  HIT:          0  MISS:          0  HIT %:       -nan  MISS %:       -nan   MPKI: 0
PSCL4 TOTAL     ACCESS:      60005  HIT:      60005  MISS:          0  HIT %:        100  MISS %:          0   MPKI: 0
PSCL4 LOAD      ACCESS:          0  HIT:          0  MISS:          0  HIT %:       -nan  MISS %:       -nan   MPKI: 0
PSCL4 RFO       ACCESS:          0  HIT:          0  MISS:          0  HIT %:       -nan  MISS %:       -nan   MPKI: 0
PSCL4 PREFETCH  ACCESS:          0  HIT:          0  MISS:          0  HIT %:       -nan  MISS %:       -nan   MPKI: 0
PSCL4 WRITEBACK ACCESS:          0  HIT:          0  MISS:          0  HIT %:       -nan  MISS %:       -nan   MPKI: 0
PSCL3 TOTAL     ACCESS:      60005  HIT:      60005  MISS:          0  HIT %:        100  MISS %:          0   MPKI: 0
PSCL3 LOAD      ACCESS:          0  HIT:          0  MISS:          0  HIT %:       -nan  MISS %:       -nan   MPKI: 0
PSCL3 RFO       ACCESS:          0  HIT:          0  MISS:          0  HIT %:       -nan  MISS %:       -nan   MPKI: 0
PSCL3 PREFETCH  ACCESS:          0  HIT:          0  MISS:          0  HIT %:       -nan  MISS %:       -nan   MPKI: 0
PSCL3 WRITEBACK ACCESS:          0  HIT:          0  MISS:          0  HIT %:       -nan  MISS %:       -nan   MPKI: 0
PSCL2 TOTAL     ACCESS:      60005  HIT:      47960  MISS:      12045  HIT %:    79.9267  MISS %:    20.0733   MPKI: 0.0602216
PSCL2 LOAD      ACCESS:          0  HIT:          0  MISS:          0  HIT %:       -nan  MISS %:       -nan   MPKI: 0
PSCL2 RFO       ACCESS:          0  HIT:          0  MISS:          0  HIT %:       -nan  MISS %:       -nan   MPKI: 0
PSCL2 PREFETCH  ACCESS:          0  HIT:          0  MISS:          0  HIT %:       -nan  MISS %:       -nan   MPKI: 0
PSCL2 WRITEBACK ACCESS:          0  HIT:          0  MISS:          0  HIT %:       -nan  MISS %:       -nan   MPKI: 0

stream: 
stream:times selected: 16646039
stream:pref_filled: 9958326
stream:pref_useful: 296083
stream:pref_late: 144930
stream:misses: 2295328
stream:misses_by_poll: 0

CS: 
CS:times selected: 3706167
CS:pref_filled: 1472637
CS:pref_useful: 1380417
CS:pref_late: 43105
CS:misses: 226410
CS:misses_by_poll: 1400

CPLX: 
CPLX:times selected: 12862579
CPLX:pref_filled: 457490
CPLX:pref_useful: 19891
CPLX:pref_late: 5968
CPLX:misses: 8528674
CPLX:misses_by_poll: 210

NL_L1: 
NL:times selected: 14103
NL:pref_filled: 9437
NL:pref_useful: 620
NL:pref_late: 81
NL:misses: 10009
NL:misses_by_poll: 0

total selections: 33228888
total_filled: 9867542
total_useful: 1317312
total_late: 199081
total_polluted: 1610
total_misses_after_warmup: 9351190
conflicts: 329
Degree Incremented Times: 854834
Degree Decremented Times: 1894477

L1 IP Table Write Accesses: 174087038
L1 IP Table Read Accesses: 174086709
L1 RST Write Accesses: 53692498
L1 RST Read Accesses: 107384996
L1 CSPT Write Accesses: 53692498
L1 CSPT Read Accesses: 94508375
L1 RR Filter Tag Write Accesses: 52727258
L1 RR Filter Tag Read Accesses: 2599486163
L1 IP Table Tag Write Accesses: 174090757
L1 IP Table Tag Read Accesses: 174090757
L1 RST Tag Write Accesses: 0
L1 RST Tag Read Accesses: 485403710
L1 RR Filter Write Accesses: 0
L1 RR Filter Read Accesses: 91598223
test: 19776773
LLC TOTAL     ACCESS:   17082407  HIT:    9420035  MISS:    7662372  HIT %:    55.1447  MISS %:    44.8553   MPKI: 38.3097
LLC LOAD      ACCESS:    7355340  HIT:    4386679  MISS:    2968661  HIT %:    59.6394  MISS %:    40.3606   MPKI: 14.8425
LLC RFO       ACCESS:     206117  HIT:      86460  MISS:     119657  HIT %:     41.947  MISS %:     58.053   MPKI: 0.598251
LLC PREFETCH  ACCESS:    8586675  HIT:    4115406  MISS:    4471269  HIT %:    47.9278  MISS %:    52.0722   MPKI: 22.3551
LLC WRITEBACK ACCESS:     886975  HIT:     822053  MISS:      64922  HIT %:    92.6805  MISS %:    7.31948   MPKI: 0.324592

RAW hits: 80113
Loads Generated: 76784439
Loads sent to L1D: 76704326
Stores Generated: 2230646
Stores sent to L1D: 2230652

CPU 3 cumulative IPC: 0.24459 instructions: 200000000 cycles: 817694936
ITLB TOTAL     ACCESS:   24703503  HIT:   24703503  MISS:          0  HIT %:        100  MISS %:          0   MPKI: 0
ITLB LOAD      ACCESS:          0  HIT:          0  MISS:          0  HIT %:       -nan  MISS %:       -nan   MPKI: 0
ITLB RFO       ACCESS:          0  HIT:          0  MISS:          0  HIT %:       -nan  MISS %:       -nan   MPKI: 0
ITLB PREFETCH  ACCESS:          0  HIT:          0  MISS:          0  HIT %:       -nan  MISS %:       -nan   MPKI: 0
ITLB WRITEBACK ACCESS:          0  HIT:          0  MISS:          0  HIT %:       -nan  MISS %:       -nan   MPKI: 0
DTLB TOTAL     ACCESS:   41321979  HIT:   36773473  MISS:    4548506  HIT %:    88.9925  MISS %:    11.0075   MPKI: 22.7425
DTLB LOAD      ACCESS:          0  HIT:          0  MISS:          0  HIT %:       -nan  MISS %:       -nan   MPKI: 0
DTLB RFO       ACCESS:          0  HIT:          0  MISS:          0  HIT %:       -nan  MISS %:       -nan   MPKI: 0
DTLB PREFETCH  ACCESS:          0  HIT:          0  MISS:          0  HIT %:       -nan  MISS %:       -nan   MPKI: 0
DTLB WRITEBACK ACCESS:          0  HIT:          0  MISS:          0  HIT %:       -nan  MISS %:       -nan   MPKI: 0
STLB TOTAL     ACCESS:   13076915  HIT:   13016908  MISS:      60007  HIT %:    99.5411  MISS %:   0.458877   MPKI: 0.300035
STLB LOAD      ACCESS:          0  HIT:          0  MISS:          0  HIT %:       -nan  MISS %:       -nan   MPKI: 0
STLB RFO       ACCESS:          0  HIT:          0  MISS:          0  HIT %:       -nan  MISS %:       -nan   MPKI: 0
STLB PREFETCH  ACCESS:          0  HIT:          0  MISS:          0  HIT %:       -nan  MISS %:       -nan   MPKI: 0
STLB WRITEBACK ACCESS:          0  HIT:          0  MISS:          0  HIT %:       -nan  MISS %:       -nan   MPKI: 0
L1D TOTAL     ACCESS:   57962105  HIT:   38379003  MISS:   19583102  HIT %:     66.214  MISS %:     33.786   MPKI: 97.9155
L1D LOAD      ACCESS:   43321771  HIT:   34154537  MISS:    9167234  HIT %:    78.8392  MISS %:    21.1608   MPKI: 45.8362
L1D RFO       ACCESS:    2051629  HIT:    1506390  MISS:     545239  HIT %:    73.4241  MISS %:    26.5759   MPKI: 2.7262
L1D PREFETCH  ACCESS:   12588705  HIT:    2718076  MISS:    9870629  HIT %:    21.5914  MISS %:    78.4086   MPKI: 49.3531
L1D WRITEBACK ACCESS:          0  HIT:          0  MISS:          0  HIT %:       -nan  MISS %:       -nan   MPKI: 0
L1I TOTAL     ACCESS:   25371441  HIT:   25371441  MISS:          0  HIT %:        100  MISS %:          0   MPKI: 0
L1I LOAD      ACCESS:   25371441  HIT:   25371441  MISS:          0  HIT %:        100  MISS %:          0   MPKI: 0
L1I RFO       ACCESS:          0  HIT:          0  MISS:          0  HIT %:       -nan  MISS %:       -nan   MPKI: 0
L1I PREFETCH  ACCESS:          0  HIT:          0  MISS:          0  HIT %:       -nan  MISS %:       -nan   MPKI: 0
L1I WRITEBACK ACCESS:          0  HIT:          0  MISS:          0  HIT %:       -nan  MISS %:       -nan   MPKI: 0
L2C TOTAL     ACCESS:   21130968  HIT:    4887236  MISS:   16243732  HIT %:    23.1283  MISS %:    76.8717   MPKI: 81.2187
L2C LOAD      ACCESS:    9002622  HIT:    1645806  MISS:    7356816  HIT %:    18.2814  MISS %:    81.7186   MPKI: 36.7841
L2C RFO       ACCESS:     545202  HIT:     338182  MISS:     207020  HIT %:    62.0288  MISS %:    37.9712   MPKI: 1.0351
L2C PREFETCH  ACCESS:   10035224  HIT:    1443935  MISS:    8591289  HIT %:    14.3887  MISS %:    85.6113   MPKI: 42.9564
L2C WRITEBACK ACCESS:    1475859  HIT:    1434585  MISS:      41274  HIT %:    97.2034  MISS %:    2.79661   MPKI: 0.20637
PSCL5 TOTAL     ACCESS:      60007  HIT:      60007  MISS:          0  HIT %:        100  MISS %:          0   MPKI: 0
PSCL5 LOAD      ACCESS:          0  HIT:          0  MISS:          0  HIT %:       -nan  MISS %:       -nan   MPKI: 0
PSCL5 RFO       ACCESS:          0  HIT:          0  MISS:          0  HIT %:       -nan  MISS %:       -nan   MPKI: 0
PSCL5 PREFETCH  ACCESS:          0  HIT:          0  MISS:          0  HIT %:       -nan  MISS %:       -nan   MPKI: 0
PSCL5 WRITEBACK ACCESS:          0  HIT:          0  MISS:          0  HIT %:       -nan  MISS %:       -nan   MPKI: 0
PSCL4 TOTAL     ACCESS:      60007  HIT:      60007  MISS:          0  HIT %:        100  MISS %:          0   MPKI: 0
PSCL4 LOAD      ACCESS:          0  HIT:          0  MISS:          0  HIT %:       -nan  MISS %:       -nan   MPKI: 0
PSCL4 RFO       ACCESS:          0  HIT:          0  MISS:          0  HIT %:       -nan  MISS %:       -nan   MPKI: 0
PSCL4 PREFETCH  ACCESS:          0  HIT:          0  MISS:          0  HIT %:       -nan  MISS %:       -nan   MPKI: 0
PSCL4 WRITEBACK ACCESS:          0  HIT:          0  MISS:          0  HIT %:       -nan  MISS %:       -nan   MPKI: 0
PSCL3 TOTAL     ACCESS:      60007  HIT:      60007  MISS:          0  HIT %:        100  MISS %:          0   MPKI: 0
PSCL3 LOAD      ACCESS:          0  HIT:          0  MISS:          0  HIT %:       -nan  MISS %:       -nan   MPKI: 0
PSCL3 RFO       ACCESS:          0  HIT:          0  MISS:          0  HIT %:       -nan  MISS %:       -nan   MPKI: 0
PSCL3 PREFETCH  ACCESS:          0  HIT:          0  MISS:          0  HIT %:       -nan  MISS %:       -nan   MPKI: 0
PSCL3 WRITEBACK ACCESS:          0  HIT:          0  MISS:          0  HIT %:       -nan  MISS %:       -nan   MPKI: 0
PSCL2 TOTAL     ACCESS:      60007  HIT:      47951  MISS:      12056  HIT %:     79.909  MISS %:     20.091   MPKI: 0.06028
PSCL2 LOAD      ACCESS:          0  HIT:          0  MISS:          0  HIT %:       -nan  MISS %:       -nan   MPKI: 0
PSCL2 RFO       ACCESS:          0  HIT:          0  MISS:          0  HIT %:       -nan  MISS %:       -nan   MPKI: 0
PSCL2 PREFETCH  ACCESS:          0  HIT:          0  MISS:          0  HIT %:       -nan  MISS %:       -nan   MPKI: 0
PSCL2 WRITEBACK ACCESS:          0  HIT:          0  MISS:          0  HIT %:       -nan  MISS %:       -nan   MPKI: 0

stream: 
stream:times selected: 16643878
stream:pref_filled: 9917291
stream:pref_useful: 288649
stream:pref_late: 144839
stream:misses: 2295605
stream:misses_by_poll: 0

CS: 
CS:times selected: 3703232
CS:pref_filled: 1466671
CS:pref_useful: 1374743
CS:pref_late: 46692
CS:misses: 239785
CS:misses_by_poll: 1508

CPLX: 
CPLX:times selected: 12863304
CPLX:pref_filled: 454623
CPLX:pref_useful: 19659
CPLX:pref_late: 6044
CPLX:misses: 8530889
CPLX:misses_by_poll: 196

NL_L1: 
NL:times selected: 14607
NL:pref_filled: 9323
NL:pref_useful: 686
NL:pref_late: 68
NL:misses: 10242
NL:misses_by_poll: 0

total selections: 33225021
total_filled: 9870629
total_useful: 1317451
total_late: 202763
total_polluted: 1704
total_misses_after_warmup: 9350108
conflicts: 329
Degree Incremented Times: 854834
Degree Decremented Times: 1894477

L1 IP Table Write Accesses: 174087038
L1 IP Table Read Accesses: 174086709
L1 RST Write Accesses: 53692498
L1 RST Read Accesses: 107384996
L1 CSPT Write Accesses: 53692498
L1 CSPT Read Accesses: 94508375
L1 RR Filter Tag Write Accesses: 52727258
L1 RR Filter Tag Read Accesses: 2599486163
L1 IP Table Tag Write Accesses: 174090757
L1 IP Table Tag Read Accesses: 174090757
L1 RST Tag Write Accesses: 0
L1 RST Tag Read Accesses: 485403710
L1 RR Filter Write Accesses: 0
L1 RR Filter Read Accesses: 91598223
test: 19776773
LLC TOTAL     ACCESS:   17094985  HIT:    9433617  MISS:    7661368  HIT %:    55.1835  MISS %:    44.8165   MPKI: 38.3068
LLC LOAD      ACCESS:    7356812  HIT:    4388886  MISS:    2967926  HIT %:    59.6574  MISS %:    40.3426   MPKI: 14.8396
LLC RFO       ACCESS:     207020  HIT:      87287  MISS:     119733  HIT %:    42.1636  MISS %:    57.8364   MPKI: 0.598665
LLC PREFETCH  ACCESS:    8591287  HIT:    4119297  MISS:    4471990  HIT %:    47.9474  MISS %:    52.0526   MPKI: 22.36
LLC WRITEBACK ACCESS:     892533  HIT:     828323  MISS:      64210  HIT %:    92.8059  MISS %:    7.19413   MPKI: 0.32105

RAW hits: 79933
Loads Generated: 76780291
Loads sent to L1D: 76700357
Stores Generated: 2230436
Stores sent to L1D: 2230436

Region of Interest Statistics

CPU 0 cumulative IPC: 0.244842 instructions: 200000003 cycles: 816853339
ITLB TOTAL     ACCESS:   24703290  HIT:   24703290  MISS:          0  HIT %:        100  MISS %:          0   MPKI: 0
ITLB LOAD TRANSLATION ACCESS:   24703290  HIT:   24703290  MISS:          0  HIT %:        100  MISS %:          0   MPKI: 0
ITLB PREFETCH  REQUESTED:          0  ISSUED:          0  USEFUL:          0  USELESS:          0
ITLB USEFUL LOAD PREFETCHES:          0 PREFETCH ISSUED TO LOWER LEVEL:          0  ACCURACY: -nan
ITLB TIMELY PREFETCHES:          0 LATE PREFETCHES: 0 DROPPED PREFETCHES: 0
ITLB PREFETCHES SAME FILL-ORIGIN LEVEL: 0 DIFFERENT FILL-ORIGIN LEVEL: 0
ITLB AVERAGE MISS LATENCY: -nan cycles
ITLB RQ	ACCESS:   25400211	FORWARD:          0	MERGED:     668419	TO_CACHE:   24731792

DTLB TOTAL     ACCESS:   41322798  HIT:   36774191  MISS:    4548607  HIT %:    88.9925  MISS %:    11.0075   MPKI: 22.743
DTLB LOAD TRANSLATION ACCESS:   41322798  HIT:   36774191  MISS:    4548607  HIT %:    88.9925  MISS %:    11.0075   MPKI: 22.743
DTLB PREFETCH  REQUESTED:          0  ISSUED:          0  USEFUL:          0  USELESS:          0
DTLB USEFUL LOAD PREFETCHES:          0 PREFETCH ISSUED TO LOWER LEVEL:          0  ACCURACY: -nan
DTLB TIMELY PREFETCHES:          0 LATE PREFETCHES: 0 DROPPED PREFETCHES: 0
DTLB PREFETCHES SAME FILL-ORIGIN LEVEL: 0 DIFFERENT FILL-ORIGIN LEVEL: 0
DTLB AVERAGE MISS LATENCY: 13.4046 cycles
DTLB RQ	ACCESS:   45783422	FORWARD:          0	MERGED:    4121540	TO_CACHE:   41661882

STLB TOTAL     ACCESS:   13083469  HIT:   13023464  MISS:      60005  HIT %:    99.5414  MISS %:   0.458632   MPKI: 0.300025
STLB LOAD TRANSLATION ACCESS:    4548607  HIT:    4488603  MISS:      60004  HIT %:    98.6808  MISS %:    1.31917   MPKI: 0.30002
STLB TRANSLATION FROM L1D PREFETCHER ACCESS:    8534862  HIT:    8534861  MISS:          1  HIT %:        100  MISS %: 1.17167e-05   MPKI: 5e-06
STLB PREFETCH  REQUESTED:          0  ISSUED:          0  USEFUL:          1  USELESS:          0
STLB USEFUL LOAD PREFETCHES:          1 PREFETCH ISSUED TO LOWER LEVEL:          0  ACCURACY: inf
STLB TIMELY PREFETCHES:          1 LATE PREFETCHES: 0 DROPPED PREFETCHES: 0
STLB PREFETCHES SAME FILL-ORIGIN LEVEL: 0 DIFFERENT FILL-ORIGIN LEVEL: 0
STLB AVERAGE MISS LATENCY: 312.602 cycles
STLB RQ	ACCESS:   17754754	FORWARD:          0	MERGED:    4652975	TO_CACHE:   13101779

STLB Hit, L1D data hit: 0
STLB Hit, L2C data hit: 0
STLB Hit, LLC data hit: 0
STLB Hit, LLC data miss: 0
STLB STLB hints to L2: 0
L1D TOTAL     ACCESS:   57972374  HIT:   38384078  MISS:   19588296  HIT %:     66.211  MISS %:     33.789   MPKI: 97.9415
L1D LOAD      ACCESS:   43323471  HIT:   34157057  MISS:    9166414  HIT %:    78.8419  MISS %:    21.1581   MPKI: 45.8321
L1D RFO       ACCESS:    2051685  HIT:    1506470  MISS:     545215  HIT %:     73.426  MISS %:     26.574   MPKI: 2.72607
L1D PREFETCH  ACCESS:   12597218  HIT:    2720551  MISS:    9876667  HIT %:    21.5964  MISS %:    78.4036   MPKI: 49.3833
L1D PREFETCH  REQUESTED:   26397015  ISSUED:   26397015  USEFUL:    1319825  USELESS:    8568903
L1D USEFUL LOAD PREFETCHES:    1319825 PREFETCH ISSUED TO LOWER LEVEL:   10053356  ACCURACY: 13.1282
L1D TIMELY PREFETCHES:    1319825 LATE PREFETCHES: 164580 DROPPED PREFETCHES: 0
L1D PREFETCHES SAME FILL-ORIGIN LEVEL: 10053356 DIFFERENT FILL-ORIGIN LEVEL: 0
L1D AVERAGE MISS LATENCY: 176.021 cycles
L1D RQ	ACCESS:   76788918	FORWARD:          0	MERGED:   33235898	TO_CACHE:   43552515
L1D WQ	ACCESS:    2231606	FORWARD:        507	MERGED:        699	TO_CACHE:    2230907
L1D PQ	ACCESS:   13198536	FORWARD:          0	MERGED:         55	TO_CACHE:   13198479

L1D UNIQUE REGIONS ACCESSED: 0
L1D REGIONS CONFLICTS: 0
L1D Cross Page Prefetch Requests: 0
L1D Same Page Prefetch Requests: 16275411
L1D ROI Sum of L1D PQ occupancy: 149789036
L1D PREFETCHES PUSHED FROM L2C: 0
L1I TOTAL     ACCESS:   25371297  HIT:   25371297  MISS:          0  HIT %:        100  MISS %:          0   MPKI: 0
L1I LOAD      ACCESS:   25371297  HIT:   25371297  MISS:          0  HIT %:        100  MISS %:          0   MPKI: 0
L1I PREFETCH  REQUESTED:          0  ISSUED:          0  USEFUL:          0  USELESS:          0
L1I USEFUL LOAD PREFETCHES:          0 PREFETCH ISSUED TO LOWER LEVEL:          0  ACCURACY: -nan
L1I TIMELY PREFETCHES:          0 LATE PREFETCHES: 0 DROPPED PREFETCHES: 0
L1I PREFETCHES SAME FILL-ORIGIN LEVEL: 0 DIFFERENT FILL-ORIGIN LEVEL: 0
L1I AVERAGE MISS LATENCY: -nan cycles
L1I RQ	ACCESS:   39047534	FORWARD:          0	MERGED:   13647323	TO_CACHE:   25400211

BTB TOTAL     ACCESS:   29060334  HIT:   29060190  MISS:        144  HIT %:    99.9995  MISS %: 0.000495521   MPKI: 0.00072
BTB BRANCH_DIRECT_JUMP	ACCESS:    9220962  HIT:    9220922  MISS:         40
BTB BRANCH_INDIRECT	ACCESS:          0  HIT:          0  MISS:          0
BTB BRANCH_CONDITIONAL	ACCESS:   19836772  HIT:   19836692  MISS:         80
BTB BRANCH_DIRECT_CALL	ACCESS:       1300  HIT:       1290  MISS:         10
BTB BRANCH_INDIRECT_CALL	ACCESS:          0  HIT:          0  MISS:          0
BTB BRANCH_RETURN	ACCESS:       1300  HIT:       1286  MISS:         14
BTB BRANCH_OTHER ACCESS:          0  HIT:          0  MISS:          0

L2C TOTAL     ACCESS:   21136153  HIT:    4902191  MISS:   16233962  HIT %:    23.1934  MISS %:    76.8066   MPKI: 81.1698
L2C LOAD      ACCESS:    9001854  HIT:    1653817  MISS:    7348037  HIT %:     18.372  MISS %:     81.628   MPKI: 36.7402
L2C DATA LOAD MPKI: 36.7402
L2C INSTRUCTION LOAD MPKI: 0
L2C RFO       ACCESS:     545160  HIT:     338546  MISS:     206614  HIT %:    62.1003  MISS %:    37.8997   MPKI: 1.03307
L2C PREFETCH  ACCESS:   10041216  HIT:    1452795  MISS:    8588421  HIT %:    14.4683  MISS %:    85.5317   MPKI: 42.9421
L2C DATA PREFETCH MPKI: 42.9421
L2C INSTRUCTION PREFETCH MPKI: 0
L2C WRITEBACK ACCESS:    1475870  HIT:    1432661  MISS:      43209  HIT %:    97.0723  MISS %:     2.9277   MPKI: 0.216045
L2C LOAD TRANSLATION ACCESS:      72052  HIT:      24372  MISS:      47680  HIT %:    33.8256  MISS %:    66.1744   MPKI: 0.2384
L2C TRANSLATION FROM L1D PREFETCHER ACCESS:          1  HIT:          0  MISS:          1  HIT %:          0  MISS %:        100   MPKI: 5e-06
L2C PREFETCH  REQUESTED:          0  ISSUED:          0  USEFUL:     247507  USELESS:    8350702
L2C USEFUL LOAD PREFETCHES:     247507 PREFETCH ISSUED TO LOWER LEVEL:    8598223  ACCURACY: 2.87858
L2C TIMELY PREFETCHES:     247507 LATE PREFETCHES: 0 DROPPED PREFETCHES: 0
L2C PREFETCHES SAME FILL-ORIGIN LEVEL: 0 DIFFERENT FILL-ORIGIN LEVEL: 0
L2C AVERAGE MISS LATENCY: 199.766 cycles
L2C RQ	ACCESS:    9630569	FORWARD:          0	MERGED:          0	TO_CACHE:    9630509
L2C WQ	ACCESS:    1476813	FORWARD:         67	MERGED:          0	TO_CACHE:    1476813
L2C PQ	ACCESS:   10053356	FORWARD:          0	MERGED:          0	TO_CACHE:   10053349

L2C Instructions Evicting Data 0
L2C Translations Evicting Data 47640
L2C Data Evicting Data 16113742
L2C Instructions Evicting Instructions 0
L2C Translations Evicting Instructions 0
L2C Data Evicting Instructions 0
L2C Instructions Evicting Translations 0
L2C Translations Evicting Translations 113
L2C Data Evicting Translations 47561
L2C Dense regions hint from L2: 0
PSCL5 TOTAL     ACCESS:      60005  HIT:      60005  MISS:          0  HIT %:        100  MISS %:          0   MPKI: 0
PSCL5 LOAD TRANSLATION ACCESS:      60004  HIT:      60004  MISS:          0  HIT %:        100  MISS %:          0   MPKI: 0
PSCL5 TRANSLATION FROM L1D PREFETCHER ACCESS:          1  HIT:          1  MISS:          0  HIT %:        100  MISS %:          0   MPKI: 0
PSCL5 PREFETCH  REQUESTED:          0  ISSUED:          0  USEFUL:          0  USELESS:          0
PSCL5 USEFUL LOAD PREFETCHES:          0 PREFETCH ISSUED TO LOWER LEVEL:          0  ACCURACY: -nan
PSCL5 TIMELY PREFETCHES:          0 LATE PREFETCHES: 0 DROPPED PREFETCHES: 0
PSCL5 PREFETCHES SAME FILL-ORIGIN LEVEL: 0 DIFFERENT FILL-ORIGIN LEVEL: 0

PSCL4 TOTAL     ACCESS:      60005  HIT:      60005  MISS:          0  HIT %:        100  MISS %:          0   MPKI: 0
PSCL4 LOAD TRANSLATION ACCESS:      60004  HIT:      60004  MISS:          0  HIT %:        100  MISS %:          0   MPKI: 0
PSCL4 TRANSLATION FROM L1D PREFETCHER ACCESS:          1  HIT:          1  MISS:          0  HIT %:        100  MISS %:          0   MPKI: 0
PSCL4 PREFETCH  REQUESTED:          0  ISSUED:          0  USEFUL:          0  USELESS:          0
PSCL4 USEFUL LOAD PREFETCHES:          0 PREFETCH ISSUED TO LOWER LEVEL:          0  ACCURACY: -nan
PSCL4 TIMELY PREFETCHES:          0 LATE PREFETCHES: 0 DROPPED PREFETCHES: 0
PSCL4 PREFETCHES SAME FILL-ORIGIN LEVEL: 0 DIFFERENT FILL-ORIGIN LEVEL: 0

PSCL3 TOTAL     ACCESS:      60005  HIT:      60005  MISS:          0  HIT %:        100  MISS %:          0   MPKI: 0
PSCL3 LOAD TRANSLATION ACCESS:      60004  HIT:      60004  MISS:          0  HIT %:        100  MISS %:          0   MPKI: 0
PSCL3 TRANSLATION FROM L1D PREFETCHER ACCESS:          1  HIT:          1  MISS:          0  HIT %:        100  MISS %:          0   MPKI: 0
PSCL3 PREFETCH  REQUESTED:          0  ISSUED:          0  USEFUL:          0  USELESS:          0
PSCL3 USEFUL LOAD PREFETCHES:          0 PREFETCH ISSUED TO LOWER LEVEL:          0  ACCURACY: -nan
PSCL3 TIMELY PREFETCHES:          0 LATE PREFETCHES: 0 DROPPED PREFETCHES: 0
PSCL3 PREFETCHES SAME FILL-ORIGIN LEVEL: 0 DIFFERENT FILL-ORIGIN LEVEL: 0

PSCL2 TOTAL     ACCESS:      60005  HIT:      47955  MISS:      12050  HIT %:    79.9183  MISS %:    20.0817   MPKI: 0.06025
PSCL2 LOAD TRANSLATION ACCESS:      60004  HIT:      47954  MISS:      12050  HIT %:     79.918  MISS %:     20.082   MPKI: 0.06025
PSCL2 TRANSLATION FROM L1D PREFETCHER ACCESS:          1  HIT:          1  MISS:          0  HIT %:        100  MISS %:          0   MPKI: 0
PSCL2 PREFETCH  REQUESTED:          0  ISSUED:          0  USEFUL:          0  USELESS:          0
PSCL2 USEFUL LOAD PREFETCHES:          0 PREFETCH ISSUED TO LOWER LEVEL:          0  ACCURACY: -nan
PSCL2 TIMELY PREFETCHES:          0 LATE PREFETCHES: 0 DROPPED PREFETCHES: 0
PSCL2 PREFETCHES SAME FILL-ORIGIN LEVEL: 0 DIFFERENT FILL-ORIGIN LEVEL: 0

LLC TOTAL     ACCESS:   17077258  HIT:    9414932  MISS:    7662326  HIT %:    55.1314  MISS %:    44.8686   MPKI: 38.3116
LLC LOAD      ACCESS:    7348031  HIT:    4379815  MISS:    2968216  HIT %:    59.6053  MISS %:    40.3947   MPKI: 14.8411
LLC RFO       ACCESS:     206612  HIT:      86577  MISS:     120035  HIT %:    41.9032  MISS %:    58.0968   MPKI: 0.600175
LLC PREFETCH  ACCESS:    8588418  HIT:    4115781  MISS:    4472637  HIT %:    47.9225  MISS %:    52.0775   MPKI: 22.3632
LLC WRITEBACK ACCESS:     886516  HIT:     822778  MISS:      63738  HIT %:    92.8103  MISS %:    7.18972   MPKI: 0.31869
LLC LOAD TRANSLATION ACCESS:      47680  HIT:       9981  MISS:      37699  HIT %:    20.9333  MISS %:    79.0667   MPKI: 0.188495
LLC TRANSLATION FROM L1D PREFETCHER ACCESS:          1  HIT:          0  MISS:          1  HIT %:          0  MISS %:        100   MPKI: 5e-06
LLC PREFETCH  REQUESTED:          0  ISSUED:          0  USEFUL:    1721425  USELESS:   16170358
LLC USEFUL LOAD PREFETCHES:    1721425 PREFETCH ISSUED TO LOWER LEVEL:   17889387  ACCURACY: 9.6226
LLC TIMELY PREFETCHES:    1721425 LATE PREFETCHES: 0 DROPPED PREFETCHES: 0
LLC PREFETCHES SAME FILL-ORIGIN LEVEL: 0 DIFFERENT FILL-ORIGIN LEVEL: 0
LLC AVERAGE MISS LATENCY: 1438.46 cycles
LLC RQ	ACCESS:   30438996	FORWARD:          0	MERGED:          0	TO_CACHE:   30438974
LLC WQ	ACCESS:    3553441	FORWARD:         34	MERGED:          0	TO_CACHE:    3553441
LLC PQ	ACCESS:   34368698	FORWARD:          0	MERGED:          0	TO_CACHE:   34368686

LLC Dense regions hint to LLC: 0

RAW hits: 80033
Loads Generated: 76780307
Loads sent to L1D: 76700274
Stores Generated: 2230397
Stores sent to L1D: 2230397
Major fault: 0 Minor fault: 36904
Allocated PAGES: 147513

CPU 1 cumulative IPC: 0.244638 instructions: 200000000 cycles: 817534520
ITLB TOTAL     ACCESS:   24703730  HIT:   24703730  MISS:          0  HIT %:        100  MISS %:          0   MPKI: 0
ITLB LOAD TRANSLATION ACCESS:   24703730  HIT:   24703730  MISS:          0  HIT %:        100  MISS %:          0   MPKI: 0
ITLB PREFETCH  REQUESTED:          0  ISSUED:          0  USEFUL:          0  USELESS:          0
ITLB USEFUL LOAD PREFETCHES:          0 PREFETCH ISSUED TO LOWER LEVEL:          0  ACCURACY: -nan
ITLB TIMELY PREFETCHES:          0 LATE PREFETCHES: 0 DROPPED PREFETCHES: 0
ITLB PREFETCHES SAME FILL-ORIGIN LEVEL: 0 DIFFERENT FILL-ORIGIN LEVEL: 0
ITLB AVERAGE MISS LATENCY: -nan cycles
ITLB RQ	ACCESS:   25377431	FORWARD:          0	MERGED:     668078	TO_CACHE:   24709353

DTLB TOTAL     ACCESS:   41323945  HIT:   36775522  MISS:    4548423  HIT %:    88.9933  MISS %:    11.0067   MPKI: 22.7421
DTLB LOAD TRANSLATION ACCESS:   41323945  HIT:   36775522  MISS:    4548423  HIT %:    88.9933  MISS %:    11.0067   MPKI: 22.7421
DTLB PREFETCH  REQUESTED:          0  ISSUED:          0  USEFUL:          0  USELESS:          0
DTLB USEFUL LOAD PREFETCHES:          0 PREFETCH ISSUED TO LOWER LEVEL:          0  ACCURACY: -nan
DTLB TIMELY PREFETCHES:          0 LATE PREFETCHES: 0 DROPPED PREFETCHES: 0
DTLB PREFETCHES SAME FILL-ORIGIN LEVEL: 0 DIFFERENT FILL-ORIGIN LEVEL: 0
DTLB AVERAGE MISS LATENCY: 13.3628 cycles
DTLB RQ	ACCESS:   45744055	FORWARD:          0	MERGED:    4118463	TO_CACHE:   41625592

STLB TOTAL     ACCESS:   13078125  HIT:   13018121  MISS:      60004  HIT %:    99.5412  MISS %:   0.458812   MPKI: 0.30002
STLB LOAD TRANSLATION ACCESS:    4548423  HIT:    4488420  MISS:      60003  HIT %:    98.6808  MISS %:     1.3192   MPKI: 0.300015
STLB TRANSLATION FROM L1D PREFETCHER ACCESS:    8529702  HIT:    8529701  MISS:          1  HIT %:        100  MISS %: 1.17237e-05   MPKI: 5e-06
STLB PREFETCH  REQUESTED:          0  ISSUED:          0  USEFUL:          1  USELESS:          0
STLB USEFUL LOAD PREFETCHES:          1 PREFETCH ISSUED TO LOWER LEVEL:          0  ACCURACY: inf
STLB TIMELY PREFETCHES:          1 LATE PREFETCHES: 0 DROPPED PREFETCHES: 0
STLB PREFETCHES SAME FILL-ORIGIN LEVEL: 0 DIFFERENT FILL-ORIGIN LEVEL: 0
STLB AVERAGE MISS LATENCY: 310.481 cycles
STLB RQ	ACCESS:   17730336	FORWARD:          0	MERGED:    4648833	TO_CACHE:   13081503

STLB Hit, L1D data hit: 0
STLB Hit, L2C data hit: 0
STLB Hit, LLC data hit: 0
STLB Hit, LLC data miss: 0
STLB STLB hints to L2: 0
L1D TOTAL     ACCESS:   57965771  HIT:   38380520  MISS:   19585251  HIT %:    66.2124  MISS %:    33.7876   MPKI: 97.9263
L1D LOAD      ACCESS:   43322601  HIT:   34155944  MISS:    9166657  HIT %:    78.8409  MISS %:    21.1591   MPKI: 45.8333
L1D RFO       ACCESS:    2051826  HIT:    1506454  MISS:     545372  HIT %:    73.4202  MISS %:    26.5798   MPKI: 2.72686
L1D PREFETCH  ACCESS:   12591344  HIT:    2718122  MISS:    9873222  HIT %:    21.5872  MISS %:    78.4128   MPKI: 49.3661
L1D PREFETCH  REQUESTED:   26361176  ISSUED:   26361176  USEFUL:    1318382  USELESS:    8557159
L1D USEFUL LOAD PREFETCHES:    1318382 PREFETCH ISSUED TO LOWER LEVEL:   10040549  ACCURACY: 13.1306
L1D TIMELY PREFETCHES:    1318382 LATE PREFETCHES: 164967 DROPPED PREFETCHES: 0
L1D PREFETCHES SAME FILL-ORIGIN LEVEL: 10040549 DIFFERENT FILL-ORIGIN LEVEL: 0
L1D AVERAGE MISS LATENCY: 175.928 cycles
L1D RQ	ACCESS:   76717655	FORWARD:          0	MERGED:   33203054	TO_CACHE:   43514072
L1D WQ	ACCESS:    2230681	FORWARD:        532	MERGED:        698	TO_CACHE:    2229983
L1D PQ	ACCESS:   13180615	FORWARD:          0	MERGED:         51	TO_CACHE:   13180561

L1D UNIQUE REGIONS ACCESSED: 0
L1D REGIONS CONFLICTS: 0
L1D Cross Page Prefetch Requests: 0
L1D Same Page Prefetch Requests: 16022517
L1D ROI Sum of L1D PQ occupancy: 149613966
L1D PREFETCHES PUSHED FROM L2C: 0
L1I TOTAL     ACCESS:   25371732  HIT:   25371732  MISS:          0  HIT %:        100  MISS %:          0   MPKI: 0
L1I LOAD      ACCESS:   25371732  HIT:   25371732  MISS:          0  HIT %:        100  MISS %:          0   MPKI: 0
L1I PREFETCH  REQUESTED:          0  ISSUED:          0  USEFUL:          0  USELESS:          0
L1I USEFUL LOAD PREFETCHES:          0 PREFETCH ISSUED TO LOWER LEVEL:          0  ACCURACY: -nan
L1I TIMELY PREFETCHES:          0 LATE PREFETCHES: 0 DROPPED PREFETCHES: 0
L1I PREFETCHES SAME FILL-ORIGIN LEVEL: 0 DIFFERENT FILL-ORIGIN LEVEL: 0
L1I AVERAGE MISS LATENCY: -nan cycles
L1I RQ	ACCESS:   39011593	FORWARD:          0	MERGED:   13634162	TO_CACHE:   25377431

BTB TOTAL     ACCESS:   29060023  HIT:   29059879  MISS:        144  HIT %:    99.9995  MISS %: 0.000495526   MPKI: 0.00072
BTB BRANCH_DIRECT_JUMP	ACCESS:    9220944  HIT:    9220904  MISS:         40
BTB BRANCH_INDIRECT	ACCESS:          0  HIT:          0  MISS:          0
BTB BRANCH_CONDITIONAL	ACCESS:   19836479  HIT:   19836399  MISS:         80
BTB BRANCH_DIRECT_CALL	ACCESS:       1300  HIT:       1290  MISS:         10
BTB BRANCH_INDIRECT_CALL	ACCESS:          0  HIT:          0  MISS:          0
BTB BRANCH_RETURN	ACCESS:       1300  HIT:       1286  MISS:         14
BTB BRANCH_OTHER ACCESS:          0  HIT:          0  MISS:          0

L2C TOTAL     ACCESS:   21133311  HIT:    4895699  MISS:   16237612  HIT %:    23.1658  MISS %:    76.8342   MPKI: 81.1881
L2C LOAD      ACCESS:    9001682  HIT:    1648475  MISS:    7353207  HIT %:     18.313  MISS %:     81.687   MPKI: 36.766
L2C DATA LOAD MPKI: 36.766
L2C INSTRUCTION LOAD MPKI: 0
L2C RFO       ACCESS:     545325  HIT:     339486  MISS:     205839  HIT %:    62.2539  MISS %:    37.7461   MPKI: 1.0292
L2C PREFETCH  ACCESS:   10038181  HIT:    1447604  MISS:    8590577  HIT %:     14.421  MISS %:     85.579   MPKI: 42.9529
L2C DATA PREFETCH MPKI: 42.9529
L2C INSTRUCTION PREFETCH MPKI: 0
L2C WRITEBACK ACCESS:    1476072  HIT:    1435615  MISS:      40457  HIT %:    97.2591  MISS %:    2.74086   MPKI: 0.202285
L2C LOAD TRANSLATION ACCESS:      72050  HIT:      24519  MISS:      47531  HIT %:    34.0305  MISS %:    65.9695   MPKI: 0.237655
L2C TRANSLATION FROM L1D PREFETCHER ACCESS:          1  HIT:          0  MISS:          1  HIT %:          0  MISS %:        100   MPKI: 5e-06
L2C PREFETCH  REQUESTED:          0  ISSUED:          0  USEFUL:     246243  USELESS:    8346328
L2C USEFUL LOAD PREFETCHES:     246243 PREFETCH ISSUED TO LOWER LEVEL:    8592500  ACCURACY: 2.86579
L2C TIMELY PREFETCHES:     246243 LATE PREFETCHES: 0 DROPPED PREFETCHES: 0
L2C PREFETCHES SAME FILL-ORIGIN LEVEL: 0 DIFFERENT FILL-ORIGIN LEVEL: 0
L2C AVERAGE MISS LATENCY: 199.621 cycles
L2C RQ	ACCESS:    9621334	FORWARD:          0	MERGED:          0	TO_CACHE:    9621275
L2C WQ	ACCESS:    1476240	FORWARD:         63	MERGED:          0	TO_CACHE:    1476240
L2C PQ	ACCESS:   10040549	FORWARD:          0	MERGED:          0	TO_CACHE:   10040545

L2C Instructions Evicting Data 0
L2C Translations Evicting Data 47361
L2C Data Evicting Data 16105920
L2C Instructions Evicting Instructions 0
L2C Translations Evicting Instructions 0
L2C Data Evicting Instructions 0
L2C Instructions Evicting Translations 0
L2C Translations Evicting Translations 176
L2C Data Evicting Translations 47263
L2C Dense regions hint from L2: 0
PSCL5 TOTAL     ACCESS:      60004  HIT:      60004  MISS:          0  HIT %:        100  MISS %:          0   MPKI: 0
PSCL5 LOAD TRANSLATION ACCESS:      60003  HIT:      60003  MISS:          0  HIT %:        100  MISS %:          0   MPKI: 0
PSCL5 TRANSLATION FROM L1D PREFETCHER ACCESS:          1  HIT:          1  MISS:          0  HIT %:        100  MISS %:          0   MPKI: 0
PSCL5 PREFETCH  REQUESTED:          0  ISSUED:          0  USEFUL:          0  USELESS:          0
PSCL5 USEFUL LOAD PREFETCHES:          0 PREFETCH ISSUED TO LOWER LEVEL:          0  ACCURACY: -nan
PSCL5 TIMELY PREFETCHES:          0 LATE PREFETCHES: 0 DROPPED PREFETCHES: 0
PSCL5 PREFETCHES SAME FILL-ORIGIN LEVEL: 0 DIFFERENT FILL-ORIGIN LEVEL: 0

PSCL4 TOTAL     ACCESS:      60004  HIT:      60004  MISS:          0  HIT %:        100  MISS %:          0   MPKI: 0
PSCL4 LOAD TRANSLATION ACCESS:      60003  HIT:      60003  MISS:          0  HIT %:        100  MISS %:          0   MPKI: 0
PSCL4 TRANSLATION FROM L1D PREFETCHER ACCESS:          1  HIT:          1  MISS:          0  HIT %:        100  MISS %:          0   MPKI: 0
PSCL4 PREFETCH  REQUESTED:          0  ISSUED:          0  USEFUL:          0  USELESS:          0
PSCL4 USEFUL LOAD PREFETCHES:          0 PREFETCH ISSUED TO LOWER LEVEL:          0  ACCURACY: -nan
PSCL4 TIMELY PREFETCHES:          0 LATE PREFETCHES: 0 DROPPED PREFETCHES: 0
PSCL4 PREFETCHES SAME FILL-ORIGIN LEVEL: 0 DIFFERENT FILL-ORIGIN LEVEL: 0

PSCL3 TOTAL     ACCESS:      60004  HIT:      60004  MISS:          0  HIT %:        100  MISS %:          0   MPKI: 0
PSCL3 LOAD TRANSLATION ACCESS:      60003  HIT:      60003  MISS:          0  HIT %:        100  MISS %:          0   MPKI: 0
PSCL3 TRANSLATION FROM L1D PREFETCHER ACCESS:          1  HIT:          1  MISS:          0  HIT %:        100  MISS %:          0   MPKI: 0
PSCL3 PREFETCH  REQUESTED:          0  ISSUED:          0  USEFUL:          0  USELESS:          0
PSCL3 USEFUL LOAD PREFETCHES:          0 PREFETCH ISSUED TO LOWER LEVEL:          0  ACCURACY: -nan
PSCL3 TIMELY PREFETCHES:          0 LATE PREFETCHES: 0 DROPPED PREFETCHES: 0
PSCL3 PREFETCHES SAME FILL-ORIGIN LEVEL: 0 DIFFERENT FILL-ORIGIN LEVEL: 0

PSCL2 TOTAL     ACCESS:      60004  HIT:      47955  MISS:      12049  HIT %:    79.9197  MISS %:    20.0803   MPKI: 0.060245
PSCL2 LOAD TRANSLATION ACCESS:      60003  HIT:      47954  MISS:      12049  HIT %:    79.9193  MISS %:    20.0807   MPKI: 0.060245
PSCL2 TRANSLATION FROM L1D PREFETCHER ACCESS:          1  HIT:          1  MISS:          0  HIT %:        100  MISS %:          0   MPKI: 0
PSCL2 PREFETCH  REQUESTED:          0  ISSUED:          0  USEFUL:          0  USELESS:          0
PSCL2 USEFUL LOAD PREFETCHES:          0 PREFETCH ISSUED TO LOWER LEVEL:          0  ACCURACY: -nan
PSCL2 TIMELY PREFETCHES:          0 LATE PREFETCHES: 0 DROPPED PREFETCHES: 0
PSCL2 PREFETCHES SAME FILL-ORIGIN LEVEL: 0 DIFFERENT FILL-ORIGIN LEVEL: 0

LLC TOTAL     ACCESS:   17083888  HIT:    9430560  MISS:    7653328  HIT %:    55.2015  MISS %:    44.7985   MPKI: 38.2666
LLC LOAD      ACCESS:    7353204  HIT:    4386753  MISS:    2966451  HIT %:    59.6577  MISS %:    40.3423   MPKI: 14.8323
LLC RFO       ACCESS:     205838  HIT:      86282  MISS:     119556  HIT %:    41.9174  MISS %:    58.0826   MPKI: 0.59778
LLC PREFETCH  ACCESS:    8590574  HIT:    4122830  MISS:    4467744  HIT %:    47.9925  MISS %:    52.0075   MPKI: 22.3387
LLC WRITEBACK ACCESS:     886740  HIT:     824440  MISS:      62300  HIT %:    92.9743  MISS %:    7.02573   MPKI: 0.3115
LLC LOAD TRANSLATION ACCESS:      47531  HIT:      10255  MISS:      37276  HIT %:    21.5754  MISS %:    78.4246   MPKI: 0.18638
LLC TRANSLATION FROM L1D PREFETCHER ACCESS:          1  HIT:          0  MISS:          1  HIT %:          0  MISS %:        100   MPKI: 5e-06
LLC PREFETCH  REQUESTED:          0  ISSUED:          0  USEFUL:    1721425  USELESS:   16170358
LLC USEFUL LOAD PREFETCHES:    1721425 PREFETCH ISSUED TO LOWER LEVEL:   17889387  ACCURACY: 9.6226
LLC TIMELY PREFETCHES:    1721425 LATE PREFETCHES: 0 DROPPED PREFETCHES: 0
LLC PREFETCHES SAME FILL-ORIGIN LEVEL: 0 DIFFERENT FILL-ORIGIN LEVEL: 0
LLC AVERAGE MISS LATENCY: 1440.15 cycles
LLC RQ	ACCESS:   30438996	FORWARD:          0	MERGED:          0	TO_CACHE:   30438974
LLC WQ	ACCESS:    3553441	FORWARD:         34	MERGED:          0	TO_CACHE:    3553441
LLC PQ	ACCESS:   34368698	FORWARD:          0	MERGED:          0	TO_CACHE:   34368686

LLC Dense regions hint to LLC: 0

RAW hits: 79911
Loads Generated: 76780229
Loads sent to L1D: 76700316
Stores Generated: 2230458
Stores sent to L1D: 2230458
Major fault: 0 Minor fault: 36873
Allocated PAGES: 147513

CPU 2 cumulative IPC: 0.244602 instructions: 200000001 cycles: 817654189
ITLB TOTAL     ACCESS:   24703357  HIT:   24703357  MISS:          0  HIT %:        100  MISS %:          0   MPKI: 0
ITLB LOAD TRANSLATION ACCESS:   24703357  HIT:   24703357  MISS:          0  HIT %:        100  MISS %:          0   MPKI: 0
ITLB PREFETCH  REQUESTED:          0  ISSUED:          0  USEFUL:          0  USELESS:          0
ITLB USEFUL LOAD PREFETCHES:          0 PREFETCH ISSUED TO LOWER LEVEL:          0  ACCURACY: -nan
ITLB TIMELY PREFETCHES:          0 LATE PREFETCHES: 0 DROPPED PREFETCHES: 0
ITLB PREFETCHES SAME FILL-ORIGIN LEVEL: 0 DIFFERENT FILL-ORIGIN LEVEL: 0
ITLB AVERAGE MISS LATENCY: -nan cycles
ITLB RQ	ACCESS:   25372800	FORWARD:          0	MERGED:     668029	TO_CACHE:   24704771

DTLB TOTAL     ACCESS:   41320079  HIT:   36771974  MISS:    4548105  HIT %:     88.993  MISS %:     11.007   MPKI: 22.7405
DTLB LOAD TRANSLATION ACCESS:   41320079  HIT:   36771974  MISS:    4548105  HIT %:     88.993  MISS %:     11.007   MPKI: 22.7405
DTLB PREFETCH  REQUESTED:          0  ISSUED:          0  USEFUL:          0  USELESS:          0
DTLB USEFUL LOAD PREFETCHES:          0 PREFETCH ISSUED TO LOWER LEVEL:          0  ACCURACY: -nan
DTLB TIMELY PREFETCHES:          0 LATE PREFETCHES: 0 DROPPED PREFETCHES: 0
DTLB PREFETCHES SAME FILL-ORIGIN LEVEL: 0 DIFFERENT FILL-ORIGIN LEVEL: 0
DTLB AVERAGE MISS LATENCY: 13.3701 cycles
DTLB RQ	ACCESS:   45734667	FORWARD:          0	MERGED:    4119352	TO_CACHE:   41615315

STLB TOTAL     ACCESS:   13073470  HIT:   13013471  MISS:      59999  HIT %:    99.5411  MISS %:   0.458937   MPKI: 0.299995
STLB LOAD TRANSLATION ACCESS:    4548105  HIT:    4488107  MISS:      59998  HIT %:    98.6808  MISS %:    1.31919   MPKI: 0.29999
STLB TRANSLATION FROM L1D PREFETCHER ACCESS:    8525365  HIT:    8525364  MISS:          1  HIT %:        100  MISS %: 1.17297e-05   MPKI: 5e-06
STLB PREFETCH  REQUESTED:          0  ISSUED:          0  USEFUL:          1  USELESS:          0
STLB USEFUL LOAD PREFETCHES:          1 PREFETCH ISSUED TO LOWER LEVEL:          0  ACCURACY: inf
STLB TIMELY PREFETCHES:          1 LATE PREFETCHES: 0 DROPPED PREFETCHES: 0
STLB PREFETCHES SAME FILL-ORIGIN LEVEL: 0 DIFFERENT FILL-ORIGIN LEVEL: 0
STLB AVERAGE MISS LATENCY: 311.176 cycles
STLB RQ	ACCESS:   17718296	FORWARD:          0	MERGED:    4643776	TO_CACHE:   13074520

STLB Hit, L1D data hit: 0
STLB Hit, L2C data hit: 0
STLB Hit, LLC data hit: 0
STLB Hit, LLC data miss: 0
STLB STLB hints to L2: 0
L1D TOTAL     ACCESS:   57954736  HIT:   38375151  MISS:   19579585  HIT %:    66.2157  MISS %:    33.7843   MPKI: 97.8979
L1D LOAD      ACCESS:   43319190  HIT:   34151630  MISS:    9167560  HIT %:    78.8372  MISS %:    21.1628   MPKI: 45.8378
L1D RFO       ACCESS:    2052004  HIT:    1506920  MISS:     545084  HIT %:    73.4365  MISS %:    26.5635   MPKI: 2.72542
L1D PREFETCH  ACCESS:   12583542  HIT:    2716601  MISS:    9866941  HIT %:    21.5885  MISS %:    78.4115   MPKI: 49.3347
L1D PREFETCH  REQUESTED:   26339472  ISSUED:   26339472  USEFUL:    1317312  USELESS:    8550194
L1D USEFUL LOAD PREFETCHES:    1317312 PREFETCH ISSUED TO LOWER LEVEL:   10032117  ACCURACY: 13.1309
L1D TIMELY PREFETCHES:    1317312 LATE PREFETCHES: 164563 DROPPED PREFETCHES: 0
L1D PREFETCHES SAME FILL-ORIGIN LEVEL: 10032117 DIFFERENT FILL-ORIGIN LEVEL: 0
L1D AVERAGE MISS LATENCY: 176.046 cycles
L1D RQ	ACCESS:   76704326	FORWARD:          0	MERGED:   33199118	TO_CACHE:   43504709
L1D WQ	ACCESS:    2230652	FORWARD:        501	MERGED:        694	TO_CACHE:    2229958
L1D PQ	ACCESS:   13169754	FORWARD:          0	MERGED:         34	TO_CACHE:   13169718

L1D UNIQUE REGIONS ACCESSED: 0
L1D REGIONS CONFLICTS: 0
L1D Cross Page Prefetch Requests: 0
L1D Same Page Prefetch Requests: 16183420
L1D ROI Sum of L1D PQ occupancy: 149543398
L1D PREFETCHES PUSHED FROM L2C: 0
L1I TOTAL     ACCESS:   25371362  HIT:   25371362  MISS:          0  HIT %:        100  MISS %:          0   MPKI: 0
L1I LOAD      ACCESS:   25371362  HIT:   25371362  MISS:          0  HIT %:        100  MISS %:          0   MPKI: 0
L1I PREFETCH  REQUESTED:          0  ISSUED:          0  USEFUL:          0  USELESS:          0
L1I USEFUL LOAD PREFETCHES:          0 PREFETCH ISSUED TO LOWER LEVEL:          0  ACCURACY: -nan
L1I TIMELY PREFETCHES:          0 LATE PREFETCHES: 0 DROPPED PREFETCHES: 0
L1I PREFETCHES SAME FILL-ORIGIN LEVEL: 0 DIFFERENT FILL-ORIGIN LEVEL: 0
L1I AVERAGE MISS LATENCY: -nan cycles
L1I RQ	ACCESS:   39004625	FORWARD:          0	MERGED:   13631825	TO_CACHE:   25372800

BTB TOTAL     ACCESS:   29059524  HIT:   29059377  MISS:        147  HIT %:    99.9995  MISS %: 0.000505858   MPKI: 0.000735
BTB BRANCH_DIRECT_JUMP	ACCESS:    9220892  HIT:    9220851  MISS:         41
BTB BRANCH_INDIRECT	ACCESS:          0  HIT:          0  MISS:          0
BTB BRANCH_CONDITIONAL	ACCESS:   19836032  HIT:   19835950  MISS:         82
BTB BRANCH_DIRECT_CALL	ACCESS:       1300  HIT:       1290  MISS:         10
BTB BRANCH_INDIRECT_CALL	ACCESS:          0  HIT:          0  MISS:          0
BTB BRANCH_RETURN	ACCESS:       1300  HIT:       1286  MISS:         14
BTB BRANCH_OTHER ACCESS:          0  HIT:          0  MISS:          0

L2C TOTAL     ACCESS:   21127426  HIT:    4894534  MISS:   16232892  HIT %:    23.1667  MISS %:    76.8333   MPKI: 81.1645
L2C LOAD      ACCESS:    9002984  HIT:    1648031  MISS:    7354953  HIT %:    18.3054  MISS %:    81.6946   MPKI: 36.7748
L2C DATA LOAD MPKI: 36.7748
L2C INSTRUCTION LOAD MPKI: 0
L2C RFO       ACCESS:     545030  HIT:     338917  MISS:     206113  HIT %:    62.1832  MISS %:    37.8168   MPKI: 1.03056
L2C PREFETCH  ACCESS:   10031497  HIT:    1445275  MISS:    8586222  HIT %:    14.4074  MISS %:    85.5926   MPKI: 42.9311
L2C DATA PREFETCH MPKI: 42.9311
L2C INSTRUCTION PREFETCH MPKI: 0
L2C WRITEBACK ACCESS:    1475875  HIT:    1437564  MISS:      38311  HIT %:    97.4042  MISS %:    2.59582   MPKI: 0.191555
L2C LOAD TRANSLATION ACCESS:      72038  HIT:      24747  MISS:      47291  HIT %:    34.3527  MISS %:    65.6473   MPKI: 0.236455
L2C TRANSLATION FROM L1D PREFETCHER ACCESS:          2  HIT:          0  MISS:          2  HIT %:          0  MISS %:        100   MPKI: 1e-05
L2C PREFETCH  REQUESTED:          0  ISSUED:          0  USEFUL:     247201  USELESS:    8339491
[...]

LLC Dense regions hint to LLC: 0

RAW hits: 80096
Loads Generated: 76779993
Loads sent to L1D: 76699892
Stores Generated: 2230582
Stores sent to L1D: 2230588
Major fault: 0 Minor fault: 36868
Allocated PAGES: 147513

CPU 3 cumulative IPC: 0.24459 instructions: 200000000 cycles: 817694936
ITLB TOTAL     ACCESS:   24703503  HIT:   24703503  MISS:          0  HIT %:        100  MISS %:          0   MPKI: 0
ITLB LOAD TRANSLATION ACCESS:   24703503  HIT:   24703503  MISS:          0  HIT %:        100  MISS %:          0   MPKI: 0
ITLB PREFETCH  REQUESTED:          0  ISSUED:          0  USEFUL:          0  USELESS:          0
ITLB USEFUL LOAD PREFETCHES:          0 PREFETCH ISSUED TO LOWER LEVEL:          0  ACCURACY: -nan
ITLB TIMELY PREFETCHES:          0 LATE PREFETCHES: 0 DROPPED PREFETCHES: 0
ITLB PREFETCHES SAME FILL-ORIGIN LEVEL: 0 DIFFERENT FILL-ORIGIN LEVEL: 0
ITLB AVERAGE MISS LATENCY: -nan cycles
ITLB RQ	ACCESS:   25371441	FORWARD:          0	MERGED:     667938	TO_CACHE:   24703503

DTLB TOTAL     ACCESS:   41321979  HIT:   36773473  MISS:    4548506  HIT %:    88.9925  MISS %:    11.0075   MPKI: 22.7425
DTLB LOAD TRANSLATION ACCESS:   41321979  HIT:   36773473  MISS:    4548506  HIT %:    88.9925  MISS %:    11.0075   MPKI: 22.7425
DTLB PREFETCH  REQUESTED:          0  ISSUED:          0  USEFUL:          0  USELESS:          0
DTLB USEFUL LOAD PREFETCHES:          0 PREFETCH ISSUED TO LOWER LEVEL:          0  ACCURACY: -nan
DTLB TIMELY PREFETCHES:          0 LATE PREFETCHES: 0 DROPPED PREFETCHES: 0
DTLB PREFETCHES SAME FILL-ORIGIN LEVEL: 0 DIFFERENT FILL-ORIGIN LEVEL: 0
DTLB AVERAGE MISS LATENCY: 13.3588 cycles
DTLB RQ	ACCESS:   45733907	FORWARD:          0	MERGED:    4119200	TO_CACHE:   41614707

STLB TOTAL     ACCESS:   13076915  HIT:   13016908  MISS:      60007  HIT %:    99.5411  MISS %:   0.458877   MPKI: 0.300035
STLB LOAD TRANSLATION ACCESS:    4548506  HIT:    4488500  MISS:      60006  HIT %:    98.6808  MISS %:    1.31925   MPKI: 0.30003
STLB TRANSLATION FROM L1D PREFETCHER ACCESS:    8528409  HIT:    8528408  MISS:          1  HIT %:        100  MISS %: 1.17255e-05   MPKI: 5e-06
STLB PREFETCH  REQUESTED:          0  ISSUED:          0  USEFUL:          1  USELESS:          0
STLB USEFUL LOAD PREFETCHES:          1 PREFETCH ISSUED TO LOWER LEVEL:          0  ACCURACY: inf
STLB TIMELY PREFETCHES:          1 LATE PREFETCHES: 0 DROPPED PREFETCHES: 0
STLB PREFETCHES SAME FILL-ORIGIN LEVEL: 0 DIFFERENT FILL-ORIGIN LEVEL: 0
STLB AVERAGE MISS LATENCY: 310.372 cycles
STLB RQ	ACCESS:   17722794	FORWARD:          0	MERGED:    4645879	TO_CACHE:   13076915

STLB Hit, L1D data hit: 0
STLB Hit, L2C data hit: 0
STLB Hit, LLC data hit: 0
STLB Hit, LLC data miss: 0
STLB STLB hints to L2: 0
L1D TOTAL     ACCESS:   57962105  HIT:   38379003  MISS:   19583102  HIT %:     66.214  MISS %:     33.786   MPKI: 97.9155
L1D LOAD      ACCESS:   43321771  HIT:   34154537  MISS:    9167234  HIT %:    78.8392  MISS %:    21.1608   MPKI: 45.8362
L1D RFO       ACCESS:    2051629  HIT:    1506390  MISS:     545239  HIT %:    73.4241  MISS %:    26.5759   MPKI: 2.7262
L1D PREFETCH  ACCESS:   12588705  HIT:    2718076  MISS:    9870629  HIT %:    21.5914  MISS %:    78.4086   MPKI: 49.3531
L1D PREFETCH  REQUESTED:   26348647  ISSUED:   26348647  USEFUL:    1317451  USELESS:    8553157
L1D USEFUL LOAD PREFETCHES:    1317451 PREFETCH ISSUED TO LOWER LEVEL:   10035232  ACCURACY: 13.1283
L1D TIMELY PREFETCHES:    1317451 LATE PREFETCHES: 164599 DROPPED PREFETCHES: 0
L1D PREFETCHES SAME FILL-ORIGIN LEVEL: 10035232 DIFFERENT FILL-ORIGIN LEVEL: 0
L1D AVERAGE MISS LATENCY: 176.014 cycles
L1D RQ	ACCESS:   76700357	FORWARD:          0	MERGED:   33195653	TO_CACHE:   43504172
L1D WQ	ACCESS:    2230436	FORWARD:        535	MERGED:        701	TO_CACHE:    2229735
L1D PQ	ACCESS:   13174359	FORWARD:          0	MERGED:         68	TO_CACHE:   13174288

L1D UNIQUE REGIONS ACCESSED: 0
L1D REGIONS CONFLICTS: 0
L1D Cross Page Prefetch Requests: 0
L1D Same Page Prefetch Requests: 16073571
L1D ROI Sum of L1D PQ occupancy: 149639578
L1D PREFETCHES PUSHED FROM L2C: 0
L1I TOTAL     ACCESS:   25371441  HIT:   25371441  MISS:          0  HIT %:        100  MISS %:          0   MPKI: 0
L1I LOAD      ACCESS:   25371441  HIT:   25371441  MISS:          0  HIT %:        100  MISS %:          0   MPKI: 0
L1I PREFETCH  REQUESTED:          0  ISSUED:          0  USEFUL:          0  USELESS:          0
L1I USEFUL LOAD PREFETCHES:          0 PREFETCH ISSUED TO LOWER LEVEL:          0  ACCURACY: -nan
L1I TIMELY PREFETCHES:          0 LATE PREFETCHES: 0 DROPPED PREFETCHES: 0
L1I PREFETCHES SAME FILL-ORIGIN LEVEL: 0 DIFFERENT FILL-ORIGIN LEVEL: 0
L1I AVERAGE MISS LATENCY: -nan cycles
L1I RQ	ACCESS:   39002809	FORWARD:          0	MERGED:   13631368	TO_CACHE:   25371441

BTB TOTAL     ACCESS:   29060250  HIT:   29060106  MISS:        144  HIT %:    99.9995  MISS %: 0.000495522   MPKI: 0.00072
BTB BRANCH_DIRECT_JUMP	ACCESS:    9220965  HIT:    9220925  MISS:         40
BTB BRANCH_INDIRECT	ACCESS:          0  HIT:          0  MISS:          0
BTB BRANCH_CONDITIONAL	ACCESS:   19836685  HIT:   19836605  MISS:         80
BTB BRANCH_DIRECT_CALL	ACCESS:       1300  HIT:       1290  MISS:         10
BTB BRANCH_INDIRECT_CALL	ACCESS:          0  HIT:          0  MISS:          0
BTB BRANCH_RETURN	ACCESS:       1300  HIT:       1286  MISS:         14
BTB BRANCH_OTHER ACCESS:          0  HIT:          0  MISS:          0

L2C TOTAL     ACCESS:   21130968  HIT:    4887236  MISS:   16243732  HIT %:    23.1283  MISS %:    76.8717   MPKI: 81.2187
L2C LOAD      ACCESS:    9002622  HIT:    1645806  MISS:    7356816  HIT %:    18.2814  MISS %:    81.7186   MPKI: 36.7841
L2C DATA LOAD MPKI: 36.7841
L2C INSTRUCTION LOAD MPKI: 0
L2C RFO       ACCESS:     545202  HIT:     338182  MISS:     207020  HIT %:    62.0288  MISS %:    37.9712   MPKI: 1.0351
L2C PREFETCH  ACCESS:   10035224  HIT:    1443935  MISS:    8591289  HIT %:    14.3887  MISS %:    85.6113   MPKI: 42.9564
L2C DATA PREFETCH MPKI: 42.9564
L2C INSTRUCTION PREFETCH MPKI: 0
L2C WRITEBACK ACCESS:    1475859  HIT:    1434585  MISS:      41274  HIT %:    97.2034  MISS %:    2.79661   MPKI: 0.20637
L2C LOAD TRANSLATION ACCESS:      72059  HIT:      24728  MISS:      47331  HIT %:    34.3163  MISS %:    65.6837   MPKI: 0.236655
L2C TRANSLATION FROM L1D PREFETCHER ACCESS:          2  HIT:          0  MISS:          2  HIT %:          0  MISS %:        100   MPKI: 1e-05
L2C PREFETCH  REQUESTED:          0  ISSUED:          0  USEFUL:     247556  USELESS:    8343821
L2C USEFUL LOAD PREFETCHES:     247556 PREFETCH ISSUED TO LOWER LEVEL:    8591290  ACCURACY: 2.88148
L2C TIMELY PREFETCHES:     247556 LATE PREFETCHES: 0 DROPPED PREFETCHES: 0
L2C PREFETCHES SAME FILL-ORIGIN LEVEL: 0 DIFFERENT FILL-ORIGIN LEVEL: 0
L2C AVERAGE MISS LATENCY: 199.643 cycles
L2C RQ	ACCESS:    9619932	FORWARD:          0	MERGED:          0	TO_CACHE:    9619885
L2C WQ	ACCESS:    1475859	FORWARD:         54	MERGED:          0	TO_CACHE:    1475859
L2C PQ	ACCESS:   10035232	FORWARD:          0	MERGED:          0	TO_CACHE:   10035225

L2C Instructions Evicting Data 0
L2C Translations Evicting Data 47206
L2C Data Evicting Data 16108034
L2C Instructions Evicting Instructions 0
L2C Translations Evicting Instructions 0
L2C Data Evicting Instructions 0
L2C Instructions Evicting Translations 0
L2C Translations Evicting Translations 127
L2C Data Evicting Translations 47091
L2C Dense regions hint from L2: 0
PSCL5 TOTAL     ACCESS:      60007  HIT:      60007  MISS:          0  HIT %:        100  MISS %:          0   MPKI: 0
PSCL5 LOAD TRANSLATION ACCESS:      60006  HIT:      60006  MISS:          0  HIT %:        100  MISS %:          0   MPKI: 0
PSCL5 TRANSLATION FROM L1D PREFETCHER ACCESS:          1  HIT:          1  MISS:          0  HIT %:        100  MISS %:          0   MPKI: 0
PSCL5 PREFETCH  REQUESTED:          0  ISSUED:          0  USEFUL:          0  USELESS:          0
PSCL5 USEFUL LOAD PREFETCHES:          0 PREFETCH ISSUED TO LOWER LEVEL:          0  ACCURACY: -nan
PSCL5 TIMELY PREFETCHES:          0 LATE PREFETCHES: 0 DROPPED PREFETCHES: 0
PSCL5 PREFETCHES SAME FILL-ORIGIN LEVEL: 0 DIFFERENT FILL-ORIGIN LEVEL: 0

PSCL4 TOTAL     ACCESS:      60007  HIT:      60007  MISS:          0  HIT %:        100  MISS %:          0   MPKI: 0
PSCL4 LOAD TRANSLATION ACCESS:      60006  HIT:      60006  MISS:          0  HIT %:        100  MISS %:          0   MPKI: 0
PSCL4 TRANSLATION FROM L1D PREFETCHER ACCESS:          1  HIT:          1  MISS:          0  HIT %:        100  MISS %:          0   MPKI: 0
PSCL4 PREFETCH  REQUESTED:          0  ISSUED:          0  USEFUL:          0  USELESS:          0
PSCL4 USEFUL LOAD PREFETCHES:          0 PREFETCH ISSUED TO LOWER LEVEL:          0  ACCURACY: -nan
PSCL4 TIMELY PREFETCHES:          0 LATE PREFETCHES: 0 DROPPED PREFETCHES: 0
PSCL4 PREFETCHES SAME FILL-ORIGIN LEVEL: 0 DIFFERENT FILL-ORIGIN LEVEL: 0

PSCL3 TOTAL     ACCESS:      60007  HIT:      60007  MISS:          0  HIT %:        100  MISS %:          0   MPKI: 0
PSCL3 LOAD TRANSLATION ACCESS:      60006  HIT:      60006  MISS:          0  HIT %:        100  MISS %:          0   MPKI: 0
PSCL3 TRANSLATION FROM L1D PREFETCHER ACCESS:          1  HIT:          1  MISS:          0  HIT %:        100  MISS %:          0   MPKI: 0
PSCL3 PREFETCH  REQUESTED:          0  ISSUED:          0  USEFUL:          0  USELESS:          0
PSCL3 USEFUL LOAD PREFETCHES:          0 PREFETCH ISSUED TO LOWER LEVEL:          0  ACCURACY: -nan
PSCL3 TIMELY PREFETCHES:          0 LATE PREFETCHES: 0 DROPPED PREFETCHES: 0
PSCL3 PREFETCHES SAME FILL-ORIGIN LEVEL: 0 DIFFERENT FILL-ORIGIN LEVEL: 0

PSCL2 TOTAL     ACCESS:      60007  HIT:      47951  MISS:      12056  HIT %:     79.909  MISS %:     20.091   MPKI: 0.06028
PSCL2 LOAD TRANSLATION ACCESS:      60007  HIT:      47951  MISS:      12056  HIT %:     79.909  MISS %:     20.091   MPKI: 0.06028
PSCL2 PREFETCH  REQUESTED:          0  ISSUED:          0  USEFUL:          0  USELESS:          0
PSCL2 USEFUL LOAD PREFETCHES:          0 PREFETCH ISSUED TO LOWER LEVEL:          0  ACCURACY: -nan
PSCL2 TIMELY PREFETCHES:          0 LATE PREFETCHES: 0 DROPPED PREFETCHES: 0
PSCL2 PREFETCHES SAME FILL-ORIGIN LEVEL: 0 DIFFERENT FILL-ORIGIN LEVEL: 0

LLC TOTAL     ACCESS:   17094985  HIT:    9433617  MISS:    7661368  HIT %:    55.1835  MISS %:    44.8165   MPKI: 38.3068
LLC LOAD      ACCESS:    7356812  HIT:    4388886  MISS:    2967926  HIT %:    59.6574  MISS %:    40.3426   MPKI: 14.8396
LLC RFO       ACCESS:     207020  HIT:      87287  MISS:     119733  HIT %:    42.1636  MISS %:    57.8364   MPKI: 0.598665
LLC PREFETCH  ACCESS:    8591287  HIT:    4119297  MISS:    4471990  HIT %:    47.9474  MISS %:    52.0526   MPKI: 22.36
LLC WRITEBACK ACCESS:     892533  HIT:     828323  MISS:      64210  HIT %:    92.8059  MISS %:    7.19413   MPKI: 0.32105
LLC LOAD TRANSLATION ACCESS:      47331  HIT:       9824  MISS:      37507  HIT %:     20.756  MISS %:     79.244   MPKI: 0.187535
LLC TRANSLATION FROM L1D PREFETCHER ACCESS:          2  HIT:          0  MISS:          2  HIT %:          0  MISS %:        100   MPKI: 1e-05
LLC PREFETCH  REQUESTED:          0  ISSUED:          0  USEFUL:    1721425  USELESS:   16170358
LLC USEFUL LOAD PREFETCHES:    1721425 PREFETCH ISSUED TO LOWER LEVEL:   17889387  ACCURACY: 9.6226
LLC TIMELY PREFETCHES:    1721425 LATE PREFETCHES: 0 DROPPED PREFETCHES: 0
LLC PREFETCHES SAME FILL-ORIGIN LEVEL: 0 DIFFERENT FILL-ORIGIN LEVEL: 0
LLC AVERAGE MISS LATENCY: 1438.64 cycles
LLC RQ	ACCESS:   30438996	FORWARD:          0	MERGED:          0	TO_CACHE:   30438974
LLC WQ	ACCESS:    3553441	FORWARD:         34	MERGED:          0	TO_CACHE:    3553441
LLC PQ	ACCESS:   34368698	FORWARD:          0	MERGED:          0	TO_CACHE:   34368686

LLC Dense regions hint to LLC: 0

RAW hits: 79933
Loads Generated: 76780291
Loads sent to L1D: 76700357
Stores Generated: 2230436
Stores sent to L1D: 2230436
Major fault: 0 Minor fault: 36868
Allocated PAGES: 147513

stream: 
stream:times selected: 16657719
stream:pref_filled: 9989024
stream:pref_useful: 290184
stream:pref_late: 144411
stream:misses: 2297916
stream:misses_by_poll: 0

CS: 
CS:times selected: 3707015
CS:pref_filled: 1488587
CS:pref_useful: 1395822
CS:pref_late: 41244
CS:misses: 218080
CS:misses_by_poll: 1359

CPLX: 
CPLX:times selected: 12873296
CPLX:pref_filled: 460019
CPLX:pref_useful: 20044
CPLX:pref_late: 6063
CPLX:misses: 8533835
CPLX:misses_by_poll: 183

NL_L1: 
NL:times selected: 14116
NL:pref_filled: 9659
NL:pref_useful: 675
NL:pref_late: 78
NL:misses: 9970
NL:misses_by_poll: 0

total selections: 33252146
total_filled: 9888769
total_useful: 1319825
total_late: 196877
total_polluted: 1542
total_misses_after_warmup: 9358888
conflicts: 329
Degree Incremented Times: 854834
Degree Decremented Times: 1894477

L1 IP Table Write Accesses: 174087038
L1 IP Table Read Accesses: 174086709
L1 RST Write Accesses: 53692498
L1 RST Read Accesses: 107384996
L1 CSPT Write Accesses: 53692498
L1 CSPT Read Accesses: 94508375
L1 RR Filter Tag Write Accesses: 52727258
L1 RR Filter Tag Read Accesses: 2599486163
L1 IP Table Tag Write Accesses: 174090757
L1 IP Table Tag Read Accesses: 174090757
L1 RST Tag Write Accesses: 0
L1 RST Tag Read Accesses: 485403710
L1 RR Filter Write Accesses: 0
L1 RR Filter Read Accesses: 91598223
test: 19776773

stream: 
stream:times selected: 16647809
stream:pref_filled: 9896224
stream:pref_useful: 295070
stream:pref_late: 144611
stream:misses: 2296412
stream:misses_by_poll: 0

CS: 
CS:times selected: 3704833
CS:pref_filled: 1458094
CS:pref_useful: 1366556
CS:pref_late: 46920
CS:misses: 240849
CS:misses_by_poll: 1383

CPLX: 
CPLX:times selected: 12865668
CPLX:pref_filled: 452854
CPLX:pref_useful: 19603
CPLX:pref_late: 5924
CPLX:misses: 8533662
CPLX:misses_by_poll: 224

NL_L1: 
NL:times selected: 14459
NL:pref_filled: 9082
NL:pref_useful: 631
NL:pref_late: 77
NL:misses: 10201
NL:misses_by_poll: 0

total selections: 33232769
total_filled: 9875575
total_useful: 1318382
total_late: 202516
total_polluted: 1607
total_misses_after_warmup: 9351077
conflicts: 329
Degree Incremented Times: 854834
Degree Decremented Times: 1894477

L1 IP Table Write Accesses: 174087038
L1 IP Table Read Accesses: 174086709
L1 RST Write Accesses: 53692498
L1 RST Read Accesses: 107384996
L1 CSPT Write Accesses: 53692498
L1 CSPT Read Accesses: 94508375
L1 RR Filter Tag Write Accesses: 52727258
L1 RR Filter Tag Read Accesses: 2599486163
L1 IP Table Tag Write Accesses: 174090757
L1 IP Table Tag Read Accesses: 174090757
L1 RST Tag Write Accesses: 0
L1 RST Tag Read Accesses: 485403710
L1 RR Filter Write Accesses: 0
L1 RR Filter Read Accesses: 91598223
test: 19776773

stream: 
stream:times selected: 16646039
stream:pref_filled: 9958326
stream:pref_useful: 296083
stream:pref_late: 144930
stream:misses: 2295328
stream:misses_by_poll: 0

CS: 
CS:times selected: 3706167
CS:pref_filled: 1472637
CS:pref_useful: 1380417
CS:pref_late: 43105
CS:misses: 226410
CS:misses_by_poll: 1400

CPLX: 
CPLX:times selected: 12862579
CPLX:pref_filled: 457490
CPLX:pref_useful: 19891
CPLX:pref_late: 5968
CPLX:misses: 8528674
CPLX:misses_by_poll: 210

NL_L1: 
NL:times selected: 14103
NL:pref_filled: 9437
NL:pref_useful: 620
NL:pref_late: 81
NL:misses: 10009
NL:misses_by_poll: 0

total selections: 33228888
total_filled: 9867542
total_useful: 1317312
total_late: 199081
total_polluted: 1610
total_misses_after_warmup: 9351190
conflicts: 329
Degree Incremented Times: 854834
Degree Decremented Times: 1894477

L1 IP Table Write Accesses: 174087038
L1 IP Table Read Accesses: 174086709
L1 RST Write Accesses: 53692498
L1 RST Read Accesses: 107384996
L1 CSPT Write Accesses: 53692498
L1 CSPT Read Accesses: 94508375
L1 RR Filter Tag Write Accesses: 52727258
L1 RR Filter Tag Read Accesses: 2599486163
L1 IP Table Tag Write Accesses: 174090757
L1 IP Table Tag Read Accesses: 174090757
L1 RST Tag Write Accesses: 0
L1 RST Tag Read Accesses: 485403710
L1 RR Filter Write Accesses: 0
L1 RR Filter Read Accesses: 91598223
test: 19776773

stream: 
stream:times selected: 16643878
stream:pref_filled: 9917291
stream:pref_useful: 288649
stream:pref_late: 144839
stream:misses: 2295605
stream:misses_by_poll: 0

CS: 
CS:times selected: 3703232
CS:pref_filled: 1466671
CS:pref_useful: 1374743
CS:pref_late: 46692
CS:misses: 239785
CS:misses_by_poll: 1508

CPLX: 
CPLX:times selected: 12863304
CPLX:pref_filled: 454623
CPLX:pref_useful: 19659
CPLX:pref_late: 6044
CPLX:misses: 8530889
CPLX:misses_by_poll: 196

NL_L1: 
NL:times selected: 14607
NL:pref_filled: 9323
NL:pref_useful: 686
NL:pref_late: 68
NL:misses: 10242
NL:misses_by_poll: 0

total selections: 33225021
total_filled: 9870629
total_useful: 1317451
total_late: 202763
total_polluted: 1704
total_misses_after_warmup: 9350108
conflicts: 329
Degree Incremented Times: 854834
Degree Decremented Times: 1894477

L1 IP Table Write Accesses: 174087038
L1 IP Table Read Accesses: 174086709
L1 RST Write Accesses: 53692498
L1 RST Read Accesses: 107384996
L1 CSPT Write Accesses: 53692498
L1 CSPT Read Accesses: 94508375
L1 RR Filter Tag Write Accesses: 52727258
L1 RR Filter Tag Read Accesses: 2599486163
L1 IP Table Tag Write Accesses: 174090757
L1 IP Table Tag Read Accesses: 174090757
L1 RST Tag Write Accesses: 0
L1 RST Tag Read Accesses: 485403710
L1 RR Filter Write Accesses: 0
L1 RR Filter Read Accesses: 91598223
test: 19776773

DRAM Statistics
 CHANNEL 0
 RQ ROW_BUFFER_HIT:    4918905  ROW_BUFFER_MISS:   25462668
 DBUS_CONGESTED:         11
 WQ ROW_BUFFER_HIT:     117668  ROW_BUFFER_MISS:    2794821  FULL:          0

 AVG_CONGESTED_CYCLE: 5
 All warmup complete: 5
Channel 0 Bank busy for read cycles: 0
Channel 0 Bank busy for write cycles: 0
Channel 0
Rank 0
0banks busy for read cycles: 24083
0banks busy for write cycles: 0
1banks busy for read cycles: 3808139
1banks busy for write cycles: 323254
2banks busy for read cycles: 18190667
2banks busy for write cycles: 323227
3banks busy for read cycles: 47836680
3banks busy for write cycles: 323208
4banks busy for read cycles: 91285609
4banks busy for write cycles: 324130
5banks busy for read cycles: 139105973
5banks busy for write cycles: 414962
6banks busy for read cycles: 170138640
6banks busy for write cycles: 2613678
7banks busy for read cycles: 159520281
7banks busy for write cycles: 20959628
8banks busy for read cycles: 99978039
8banks busy for write cycles: 62524738

CPU 0 Branch Prediction Accuracy: 97.7768% MPKI: 3.30656 Average ROB Occupancy at Mispredict: 175.921
Branch types
NOT_BRANCH: 170444599 85.1259%
BRANCH_DIRECT_JUMP: 9231829 4.61069%
BRANCH_INDIRECT: 0 0%
BRANCH_CONDITIONAL: 20547871 10.2623%
BRANCH_DIRECT_CALL: 1300 0.000649264%
BRANCH_INDIRECT_CALL: 0 0%
BRANCH_RETURN: 1300 0.000649264%
BRANCH_OTHER: 0 0%


CPU 1 Branch Prediction Accuracy: 97.7759% MPKI: 3.3081 Average ROB Occupancy at Mispredict: 175.927
Branch types
NOT_BRANCH: 170289294 85.1258%
BRANCH_DIRECT_JUMP: 9223071 4.61051%
BRANCH_INDIRECT: 0 0%
BRANCH_CONDITIONAL: 20529355 10.2624%
BRANCH_DIRECT_CALL: 1300 0.000649856%
BRANCH_INDIRECT_CALL: 0 0%
BRANCH_RETURN: 1300 0.000649856%
BRANCH_OTHER: 0 0%


CPU 2 Branch Prediction Accuracy: 97.7755% MPKI: 3.30871 Average ROB Occupancy at Mispredict: 175.904
Branch types
NOT_BRANCH: 170261081 85.1257%
BRANCH_DIRECT_JUMP: 9221430 4.61045%
BRANCH_INDIRECT: 0 0%
BRANCH_CONDITIONAL: 20526024 10.2624%
BRANCH_DIRECT_CALL: 1300 0.000649963%
BRANCH_INDIRECT_CALL: 0 0%
BRANCH_RETURN: 1300 0.000649963%
BRANCH_OTHER: 0 0%


CPU 3 Branch Prediction Accuracy: 97.7756% MPKI: 3.30836 Average ROB Occupancy at Mispredict: 175.905
Branch types
NOT_BRANCH: 170251882 85.1259%
BRANCH_DIRECT_JUMP: 9220965 4.61048%
BRANCH_INDIRECT: 0 0%
BRANCH_CONDITIONAL: 20524890 10.2624%
BRANCH_DIRECT_CALL: 1300 0.00065%
BRANCH_INDIRECT_CALL: 0 0%
BRANCH_RETURN: 1300 0.00065%
BRANCH_OTHER: 0 0%

DRAM PAGES: 1048576
Allocated PAGES: 147513
