
*** ChampSim Multicore Out-of-Order Simulator ***

Warmup Instructions: 50000000
Simulation Instructions: 200000000
Number of CPUs: 4
LLC sets: 8192
LLC ways: 16
Off-chip DRAM Size: 4096 MB Channels: 1 Width: 64-bit Data Rate: 6400 MT/s
CPU 0 runs ./traces/ligra/ligra_BC.com-lj.ungraph.gcc_6.3.0_O3.drop_500M.length_250M.champsimtrace.xz
.xz
CPU 1 runs ./traces/ligra/ligra_BC.com-lj.ungraph.gcc_6.3.0_O3.drop_500M.length_250M.champsimtrace.xz
.xz
CPU 2 runs ./traces/ligra/ligra_BC.com-lj.ungraph.gcc_6.3.0_O3.drop_500M.length_250M.champsimtrace.xz
.xz
CPU 3 runs ./traces/ligra/ligra_BC.com-lj.ungraph.gcc_6.3.0_O3.drop_500M.length_250M.champsimtrace.xz
.xz
BTB has LRU replacement policy
ITLB has LRU replacement policy
DTLB has LRU replacement policy
STLB has LRU replacement policy
L1I has LRU replacement policy
IP Table Entries: 1024
CSPT Entries: 128
RR_ENTRIES: 32
RST_ENTRIES: 8
L1D has LRU replacement policy
Initialize SRRIP state for L2C
Initialize DRRIP state for LLC
BTB has LRU replacement policy
ITLB has LRU replacement policy
DTLB has LRU replacement policy
STLB has LRU replacement policy
L1I has LRU replacement policy
IP Table Entries: 1024
CSPT Entries: 128
RR_ENTRIES: 32
RST_ENTRIES: 8
L1D has LRU replacement policy
Initialize SRRIP state for L2C
Initialize DRRIP state for LLC
BTB has LRU replacement policy
ITLB has LRU replacement policy
DTLB has LRU replacement policy
STLB has LRU replacement policy
L1I has LRU replacement policy
IP Table Entries: 1024
CSPT Entries: 128
RR_ENTRIES: 32
RST_ENTRIES: 8
L1D has LRU replacement policy
Initialize SRRIP state for L2C
Initialize DRRIP state for LLC
BTB has LRU replacement policy
ITLB has LRU replacement policy
DTLB has LRU replacement policy
STLB has LRU replacement policy
L1I has LRU replacement policy
IP Table Entries: 1024
CSPT Entries: 128
RR_ENTRIES: 32
RST_ENTRIES: 8
L1D has LRU replacement policy
Initialize SRRIP state for L2C
Initialize DRRIP state for LLC
Heartbeat CPU 0 instructions: 10000002 cycles: 3333346 heartbeat IPC: 2.99999 cumulative IPC: 2.99999 (Simulation time: 0 hr 1 min 43 sec) 
Heartbeat CPU 1 instructions: 10000002 cycles: 3333347 heartbeat IPC: 2.99999 cumulative IPC: 2.99999 (Simulation time: 0 hr 1 min 43 sec) 
Heartbeat CPU 2 instructions: 10000002 cycles: 3333348 heartbeat IPC: 2.99999 cumulative IPC: 2.99999 (Simulation time: 0 hr 1 min 43 sec) 
Heartbeat CPU 3 instructions: 10000002 cycles: 3333349 heartbeat IPC: 2.99999 cumulative IPC: 2.99999 (Simulation time: 0 hr 1 min 43 sec) 
Heartbeat CPU 0 instructions: 20000002 cycles: 6666679 heartbeat IPC: 3 cumulative IPC: 2.99999 (Simulation time: 0 hr 3 min 23 sec) 
Heartbeat CPU 1 instructions: 20000002 cycles: 6666680 heartbeat IPC: 3 cumulative IPC: 2.99999 (Simulation time: 0 hr 3 min 23 sec) 
Heartbeat CPU 2 instructions: 20000002 cycles: 6666681 heartbeat IPC: 3 cumulative IPC: 2.99999 (Simulation time: 0 hr 3 min 23 sec) 
Heartbeat CPU 3 instructions: 20000002 cycles: 6666682 heartbeat IPC: 3 cumulative IPC: 2.99999 (Simulation time: 0 hr 3 min 23 sec) 
Heartbeat CPU 0 instructions: 30000002 cycles: 10000012 heartbeat IPC: 3 cumulative IPC: 3 (Simulation time: 0 hr 5 min 1 sec) 
Heartbeat CPU 1 instructions: 30000002 cycles: 10000013 heartbeat IPC: 3 cumulative IPC: 3 (Simulation time: 0 hr 5 min 1 sec) 
Heartbeat CPU 2 instructions: 30000002 cycles: 10000014 heartbeat IPC: 3 cumulative IPC: 3 (Simulation time: 0 hr 5 min 1 sec) 
Heartbeat CPU 3 instructions: 30000002 cycles: 10000015 heartbeat IPC: 3 cumulative IPC: 3 (Simulation time: 0 hr 5 min 1 sec) 
Heartbeat CPU 0 instructions: 40000000 cycles: 13333345 heartbeat IPC: 3 cumulative IPC: 3 (Simulation time: 0 hr 6 min 38 sec) 
Heartbeat CPU 1 instructions: 40000000 cycles: 13333346 heartbeat IPC: 3 cumulative IPC: 3 (Simulation time: 0 hr 6 min 38 sec) 
Heartbeat CPU 2 instructions: 40000000 cycles: 13333347 heartbeat IPC: 3 cumulative IPC: 3 (Simulation time: 0 hr 6 min 38 sec) 
Heartbeat CPU 3 instructions: 40000000 cycles: 13333348 heartbeat IPC: 3 cumulative IPC: 3 (Simulation time: 0 hr 6 min 38 sec) 
Heartbeat CPU 0 instructions: 50000002 cycles: 16666678 heartbeat IPC: 3 cumulative IPC: 3 (Simulation time: 0 hr 8 min 21 sec) 
Heartbeat CPU 1 instructions: 50000002 cycles: 16666679 heartbeat IPC: 3 cumulative IPC: 3 (Simulation time: 0 hr 8 min 21 sec) 
Heartbeat CPU 2 instructions: 50000002 cycles: 16666680 heartbeat IPC: 3 cumulative IPC: 3 (Simulation time: 0 hr 8 min 21 sec) 
Heartbeat CPU 3 instructions: 50000002 cycles: 16666681 heartbeat IPC: 3 cumulative IPC: 3 (Simulation time: 0 hr 8 min 21 sec) 

Warmup complete CPU 0 instructions: 50000010 cycles: 16666681 (Simulation time: 0 hr 8 min 21 sec) 
Warmup complete CPU 1 instructions: 50000008 cycles: 16666681 (Simulation time: 0 hr 8 min 21 sec) 
Warmup complete CPU 2 instructions: 50000005 cycles: 16666681 (Simulation time: 0 hr 8 min 21 sec) 
Warmup complete CPU 3 instructions: 50000002 cycles: 16666681 (Simulation time: 0 hr 8 min 21 sec) 

Heartbeat CPU 0 instructions: 60000000 cycles: 25234863 heartbeat IPC: 1.16711 cumulative IPC: 1.16711 (Simulation time: 0 hr 10 min 49 sec) 
Heartbeat CPU 2 instructions: 60000000 cycles: 25246872 heartbeat IPC: 1.16547 cumulative IPC: 1.16547 (Simulation time: 0 hr 10 min 49 sec) 
Heartbeat CPU 3 instructions: 60000000 cycles: 25254273 heartbeat IPC: 1.16447 cumulative IPC: 1.16447 (Simulation time: 0 hr 10 min 49 sec) 
Heartbeat CPU 1 instructions: 60000000 cycles: 25261817 heartbeat IPC: 1.16345 cumulative IPC: 1.16345 (Simulation time: 0 hr 10 min 49 sec) 
Heartbeat CPU 0 instructions: 70000003 cycles: 33821737 heartbeat IPC: 1.16457 cumulative IPC: 1.16584 (Simulation time: 0 hr 13 min 20 sec) 
Heartbeat CPU 2 instructions: 70000003 cycles: 33831296 heartbeat IPC: 1.1649 cumulative IPC: 1.16519 (Simulation time: 0 hr 13 min 20 sec) 
Heartbeat CPU 3 instructions: 70000003 cycles: 33840987 heartbeat IPC: 1.16459 cumulative IPC: 1.16453 (Simulation time: 0 hr 13 min 21 sec) 
Heartbeat CPU 1 instructions: 70000003 cycles: 33847411 heartbeat IPC: 1.16474 cumulative IPC: 1.16409 (Simulation time: 0 hr 13 min 21 sec) 
Heartbeat CPU 0 instructions: 80000001 cycles: 42420680 heartbeat IPC: 1.16293 cumulative IPC: 1.16487 (Simulation time: 0 hr 15 min 44 sec) 
Heartbeat CPU 2 instructions: 80000001 cycles: 42429447 heartbeat IPC: 1.16304 cumulative IPC: 1.16447 (Simulation time: 0 hr 15 min 44 sec) 
Heartbeat CPU 3 instructions: 80000001 cycles: 42439238 heartbeat IPC: 1.16303 cumulative IPC: 1.16403 (Simulation time: 0 hr 15 min 44 sec) 
Heartbeat CPU 1 instructions: 80000001 cycles: 42447336 heartbeat IPC: 1.1628 cumulative IPC: 1.16366 (Simulation time: 0 hr 15 min 44 sec) 
Heartbeat CPU 0 instructions: 90000002 cycles: 51031418 heartbeat IPC: 1.16134 cumulative IPC: 1.16398 (Simulation time: 0 hr 18 min 21 sec) 
Heartbeat CPU 2 instructions: 90000002 cycles: 51040651 heartbeat IPC: 1.16128 cumulative IPC: 1.16367 (Simulation time: 0 hr 18 min 21 sec) 
Heartbeat CPU 3 instructions: 90000002 cycles: 51050860 heartbeat IPC: 1.16122 cumulative IPC: 1.16333 (Simulation time: 0 hr 18 min 21 sec) 
Heartbeat CPU 1 instructions: 90000002 cycles: 51061397 heartbeat IPC: 1.16089 cumulative IPC: 1.16297 (Simulation time: 0 hr 18 min 21 sec) 
Heartbeat CPU 0 instructions: 100000003 cycles: 59577374 heartbeat IPC: 1.17014 cumulative IPC: 1.16521 (Simulation time: 0 hr 20 min 56 sec) 
Heartbeat CPU 2 instructions: 100000003 cycles: 59587362 heartbeat IPC: 1.17004 cumulative IPC: 1.16494 (Simulation time: 0 hr 20 min 56 sec) 
Heartbeat CPU 3 instructions: 100000003 cycles: 59598362 heartbeat IPC: 1.16993 cumulative IPC: 1.16464 (Simulation time: 0 hr 20 min 56 sec) 
Heartbeat CPU 1 instructions: 100000003 cycles: 59608179 heartbeat IPC: 1.17003 cumulative IPC: 1.16437 (Simulation time: 0 hr 20 min 56 sec) 
Heartbeat CPU 0 instructions: 110000000 cycles: 68102674 heartbeat IPC: 1.17298 cumulative IPC: 1.1665 (Simulation time: 0 hr 23 min 37 sec) 
Heartbeat CPU 2 instructions: 110000000 cycles: 68115182 heartbeat IPC: 1.17263 cumulative IPC: 1.16621 (Simulation time: 0 hr 23 min 37 sec) 
Heartbeat CPU 3 instructions: 110000000 cycles: 68123291 heartbeat IPC: 1.17303 cumulative IPC: 1.16603 (Simulation time: 0 hr 23 min 37 sec) 
Heartbeat CPU 1 instructions: 110000000 cycles: 68136251 heartbeat IPC: 1.1726 cumulative IPC: 1.16574 (Simulation time: 0 hr 23 min 37 sec) 
Heartbeat CPU 0 instructions: 120000003 cycles: 76609556 heartbeat IPC: 1.17552 cumulative IPC: 1.16778 (Simulation time: 0 hr 25 min 59 sec) 
Heartbeat CPU 2 instructions: 120000003 cycles: 76624544 heartbeat IPC: 1.17518 cumulative IPC: 1.16749 (Simulation time: 0 hr 25 min 59 sec) 
Heartbeat CPU 3 instructions: 120000003 cycles: 76631092 heartbeat IPC: 1.17539 cumulative IPC: 1.16736 (Simulation time: 0 hr 26 min 0 sec) 
Heartbeat CPU 1 instructions: 120000003 cycles: 76644946 heartbeat IPC: 1.17527 cumulative IPC: 1.16709 (Simulation time: 0 hr 26 min 0 sec) 
Heartbeat CPU 0 instructions: 130000002 cycles: 85182601 heartbeat IPC: 1.16645 cumulative IPC: 1.16761 (Simulation time: 0 hr 28 min 22 sec) 
Heartbeat CPU 2 instructions: 130000002 cycles: 85198886 heartbeat IPC: 1.16627 cumulative IPC: 1.16733 (Simulation time: 0 hr 28 min 22 sec) 
Heartbeat CPU 3 instructions: 130000002 cycles: 85205229 heartbeat IPC: 1.1663 cumulative IPC: 1.16723 (Simulation time: 0 hr 28 min 22 sec) 
Heartbeat CPU 1 instructions: 130000002 cycles: 85220094 heartbeat IPC: 1.16616 cumulative IPC: 1.16697 (Simulation time: 0 hr 28 min 22 sec) 
Heartbeat CPU 0 instructions: 140000001 cycles: 93805038 heartbeat IPC: 1.15976 cumulative IPC: 1.16673 (Simulation time: 0 hr 30 min 37 sec) 
Heartbeat CPU 2 instructions: 140000001 cycles: 93822097 heartbeat IPC: 1.15966 cumulative IPC: 1.16648 (Simulation time: 0 hr 30 min 37 sec) 
Heartbeat CPU 3 instructions: 140000001 cycles: 93828370 heartbeat IPC: 1.15967 cumulative IPC: 1.16638 (Simulation time: 0 hr 30 min 37 sec) 
Heartbeat CPU 1 instructions: 140000001 cycles: 93843484 heartbeat IPC: 1.15964 cumulative IPC: 1.16615 (Simulation time: 0 hr 30 min 38 sec) 
Heartbeat CPU 0 instructions: 150000002 cycles: 102450325 heartbeat IPC: 1.1567 cumulative IPC: 1.16572 (Simulation time: 0 hr 33 min 10 sec) 
Heartbeat CPU 2 instructions: 150000002 cycles: 102469570 heartbeat IPC: 1.15641 cumulative IPC: 1.16546 (Simulation time: 0 hr 33 min 11 sec) 
Heartbeat CPU 3 instructions: 150000002 cycles: 102478551 heartbeat IPC: 1.15605 cumulative IPC: 1.16534 (Simulation time: 0 hr 33 min 11 sec) 
Heartbeat CPU 1 instructions: 150000002 cycles: 102490836 heartbeat IPC: 1.15642 cumulative IPC: 1.16517 (Simulation time: 0 hr 33 min 11 sec) 
Heartbeat CPU 0 instructions: 160000001 cycles: 111152757 heartbeat IPC: 1.1491 cumulative IPC: 1.16419 (Simulation time: 0 hr 35 min 46 sec) 
Heartbeat CPU 2 instructions: 160000001 cycles: 111171222 heartbeat IPC: 1.14921 cumulative IPC: 1.16397 (Simulation time: 0 hr 35 min 46 sec) 
Heartbeat CPU 3 instructions: 160000001 cycles: 111180095 heartbeat IPC: 1.14922 cumulative IPC: 1.16386 (Simulation time: 0 hr 35 min 47 sec) 
Heartbeat CPU 1 instructions: 160000001 cycles: 111192255 heartbeat IPC: 1.14924 cumulative IPC: 1.16371 (Simulation time: 0 hr 35 min 47 sec) 
Heartbeat CPU 0 instructions: 170000001 cycles: 119931616 heartbeat IPC: 1.1391 cumulative IPC: 1.16206 (Simulation time: 0 hr 38 min 20 sec) 
Heartbeat CPU 2 instructions: 170000001 cycles: 119949530 heartbeat IPC: 1.13917 cumulative IPC: 1.16186 (Simulation time: 0 hr 38 min 20 sec) 
Heartbeat CPU 3 instructions: 170000001 cycles: 119958255 heartbeat IPC: 1.13919 cumulative IPC: 1.16176 (Simulation time: 0 hr 38 min 20 sec) 
Heartbeat CPU 1 instructions: 170000001 cycles: 119970898 heartbeat IPC: 1.13913 cumulative IPC: 1.16162 (Simulation time: 0 hr 38 min 21 sec) 
Heartbeat CPU 0 instructions: 180000000 cycles: 128510070 heartbeat IPC: 1.16571 cumulative IPC: 1.16234 (Simulation time: 0 hr 40 min 50 sec) 
Heartbeat CPU 2 instructions: 180000000 cycles: 128526649 heartbeat IPC: 1.16589 cumulative IPC: 1.16217 (Simulation time: 0 hr 40 min 50 sec) 
Heartbeat CPU 3 instructions: 180000000 cycles: 128537952 heartbeat IPC: 1.16554 cumulative IPC: 1.16205 (Simulation time: 0 hr 40 min 51 sec) 
Heartbeat CPU 1 instructions: 180000000 cycles: 128547836 heartbeat IPC: 1.16592 cumulative IPC: 1.16195 (Simulation time: 0 hr 40 min 51 sec) 
Heartbeat CPU 0 instructions: 190000003 cycles: 137060237 heartbeat IPC: 1.16957 cumulative IPC: 1.16285 (Simulation time: 0 hr 43 min 20 sec) 
Heartbeat CPU 2 instructions: 190000003 cycles: 137076031 heartbeat IPC: 1.16968 cumulative IPC: 1.1627 (Simulation time: 0 hr 43 min 20 sec) 
Heartbeat CPU 3 instructions: 190000003 cycles: 137086868 heartbeat IPC: 1.16974 cumulative IPC: 1.1626 (Simulation time: 0 hr 43 min 20 sec) 
Heartbeat CPU 1 instructions: 190000003 cycles: 137095471 heartbeat IPC: 1.16991 cumulative IPC: 1.16251 (Simulation time: 0 hr 43 min 20 sec) 
Heartbeat CPU 0 instructions: 200000000 cycles: 145591493 heartbeat IPC: 1.17216 cumulative IPC: 1.16347 (Simulation time: 0 hr 45 min 34 sec) 
Heartbeat CPU 2 instructions: 200000000 cycles: 145608277 heartbeat IPC: 1.17202 cumulative IPC: 1.16332 (Simulation time: 0 hr 45 min 34 sec) 
Heartbeat CPU 3 instructions: 200000000 cycles: 145617634 heartbeat IPC: 1.17223 cumulative IPC: 1.16323 (Simulation time: 0 hr 45 min 34 sec) 
Heartbeat CPU 1 instructions: 200000000 cycles: 145628033 heartbeat IPC: 1.17198 cumulative IPC: 1.16314 (Simulation time: 0 hr 45 min 34 sec) 
Heartbeat CPU 0 instructions: 210000000 cycles: 154097400 heartbeat IPC: 1.17565 cumulative IPC: 1.16422 (Simulation time: 0 hr 48 min 22 sec) 
Heartbeat CPU 2 instructions: 210000000 cycles: 154114090 heartbeat IPC: 1.17567 cumulative IPC: 1.16408 (Simulation time: 0 hr 48 min 22 sec) 
Heartbeat CPU 3 instructions: 210000000 cycles: 154123704 heartbeat IPC: 1.17563 cumulative IPC: 1.164 (Simulation time: 0 hr 48 min 22 sec) 
Heartbeat CPU 1 instructions: 210000000 cycles: 154133868 heartbeat IPC: 1.17566 cumulative IPC: 1.16391 (Simulation time: 0 hr 48 min 23 sec) 
Heartbeat CPU 0 instructions: 220000000 cycles: 162609474 heartbeat IPC: 1.1748 cumulative IPC: 1.16484 (Simulation time: 0 hr 51 min 7 sec) 
Heartbeat CPU 2 instructions: 220000000 cycles: 162624736 heartbeat IPC: 1.175 cumulative IPC: 1.16472 (Simulation time: 0 hr 51 min 7 sec) 
Heartbeat CPU 3 instructions: 220000000 cycles: 162635362 heartbeat IPC: 1.17486 cumulative IPC: 1.16463 (Simulation time: 0 hr 51 min 7 sec) 
Heartbeat CPU 1 instructions: 220000000 cycles: 162645157 heartbeat IPC: 1.17491 cumulative IPC: 1.16456 (Simulation time: 0 hr 51 min 8 sec) 
Heartbeat CPU 0 instructions: 230000001 cycles: 171332580 heartbeat IPC: 1.14638 cumulative IPC: 1.1638 (Simulation time: 0 hr 53 min 20 sec) 
Heartbeat CPU 2 instructions: 230000001 cycles: 171348037 heartbeat IPC: 1.14636 cumulative IPC: 1.16368 (Simulation time: 0 hr 53 min 21 sec) 
Heartbeat CPU 3 instructions: 230000001 cycles: 171360043 heartbeat IPC: 1.14617 cumulative IPC: 1.16359 (Simulation time: 0 hr 53 min 21 sec) 
Heartbeat CPU 1 instructions: 230000001 cycles: 171369051 heartbeat IPC: 1.14628 cumulative IPC: 1.16352 (Simulation time: 0 hr 53 min 21 sec) 
Heartbeat CPU 0 instructions: 240000000 cycles: 180019669 heartbeat IPC: 1.15113 cumulative IPC: 1.16313 (Simulation time: 0 hr 55 min 37 sec) 
Heartbeat CPU 2 instructions: 240000000 cycles: 180035525 heartbeat IPC: 1.15108 cumulative IPC: 1.16301 (Simulation time: 0 hr 55 min 37 sec) 
Heartbeat CPU 3 instructions: 240000000 cycles: 180047730 heartbeat IPC: 1.15105 cumulative IPC: 1.16293 (Simulation time: 0 hr 55 min 37 sec) 
Heartbeat CPU 1 instructions: 240000000 cycles: 180054468 heartbeat IPC: 1.15136 cumulative IPC: 1.16288 (Simulation time: 0 hr 55 min 37 sec) 
*** Reached end of trace for Core: 0 Repeating trace: ./traces/ligra/ligra_BC.com-lj.ungraph.gcc_6.3.0_O3.drop_500M.length_250M.champsimtrace.xz
Heartbeat CPU 0 instructions: 250000003 cycles: 188596620 heartbeat IPC: 1.16592 cumulative IPC: 1.16326 (Simulation time: 0 hr 58 min 6 sec) 
Finished CPU 0 instructions: 200000000 cycles: 171929945 cumulative IPC: 1.16326 (Simulation time: 0 hr 58 min 6 sec) 
*** Reached end of trace for Core: 2 Repeating trace: ./traces/ligra/ligra_BC.com-lj.ungraph.gcc_6.3.0_O3.drop_500M.length_250M.champsimtrace.xz
Heartbeat CPU 2 instructions: 250000003 cycles: 188614958 heartbeat IPC: 1.16558 cumulative IPC: 1.16314 (Simulation time: 0 hr 58 min 6 sec) 
Finished CPU 2 instructions: 200000000 cycles: 171948278 cumulative IPC: 1.16314 (Simulation time: 0 hr 58 min 6 sec) 
*** Reached end of trace for Core: 3 Repeating trace: ./traces/ligra/ligra_BC.com-lj.ungraph.gcc_6.3.0_O3.drop_500M.length_250M.champsimtrace.xz
Heartbeat CPU 3 instructions: 250000003 cycles: 188626179 heartbeat IPC: 1.16571 cumulative IPC: 1.16306 (Simulation time: 0 hr 58 min 7 sec) 
Finished CPU 3 instructions: 200000001 cycles: 171959498 cumulative IPC: 1.16306 (Simulation time: 0 hr 58 min 7 sec) 
*** Reached end of trace for Core: 1 Repeating trace: ./traces/ligra/ligra_BC.com-lj.ungraph.gcc_6.3.0_O3.drop_500M.length_250M.champsimtrace.xz
Heartbeat CPU 1 instructions: 250000003 cycles: 188631724 heartbeat IPC: 1.16587 cumulative IPC: 1.16303 (Simulation time: 0 hr 58 min 7 sec) 
Finished CPU 1 instructions: 200000002 cycles: 171965049 cumulative IPC: 1.16303 (Simulation time: 0 hr 58 min 7 sec) 

ChampSim completed all CPUs

Total Simulation Statistics (not including warmup)

CPU 0 cumulative IPC: 1.16327 instructions: 200041290 cycles: 171965049
ITLB TOTAL     ACCESS:   33209681  HIT:   33209681  MISS:          0  HIT %:        100  MISS %:          0   MPKI: 0
ITLB LOAD      ACCESS:          0  HIT:          0  MISS:          0  HIT %:       -nan  MISS %:       -nan   MPKI: 0
ITLB RFO       ACCESS:          0  HIT:          0  MISS:          0  HIT %:       -nan  MISS %:       -nan   MPKI: 0
ITLB PREFETCH  ACCESS:          0  HIT:          0  MISS:          0  HIT %:       -nan  MISS %:       -nan   MPKI: 0
ITLB WRITEBACK ACCESS:          0  HIT:          0  MISS:          0  HIT %:       -nan  MISS %:       -nan   MPKI: 0
DTLB TOTAL     ACCESS:   18101806  HIT:   18094514  MISS:       7292  HIT %:    99.9597  MISS %:  0.0402833   MPKI: 0.0364525
DTLB LOAD      ACCESS:          0  HIT:          0  MISS:          0  HIT %:       -nan  MISS %:       -nan   MPKI: 0
DTLB RFO       ACCESS:          0  HIT:          0  MISS:          0  HIT %:       -nan  MISS %:       -nan   MPKI: 0
DTLB PREFETCH  ACCESS:          0  HIT:          0  MISS:          0  HIT %:       -nan  MISS %:       -nan   MPKI: 0
DTLB WRITEBACK ACCESS:          0  HIT:          0  MISS:          0  HIT %:       -nan  MISS %:       -nan   MPKI: 0
STLB TOTAL     ACCESS:     431852  HIT:     424560  MISS:       7292  HIT %:    98.3115  MISS %:    1.68854   MPKI: 0.0364525
STLB LOAD      ACCESS:          0  HIT:          0  MISS:          0  HIT %:       -nan  MISS %:       -nan   MPKI: 0
STLB RFO       ACCESS:          0  HIT:          0  MISS:          0  HIT %:       -nan  MISS %:       -nan   MPKI: 0
STLB PREFETCH  ACCESS:          0  HIT:          0  MISS:          0  HIT %:       -nan  MISS %:       -nan   MPKI: 0
STLB WRITEBACK ACCESS:          0  HIT:          0  MISS:          0  HIT %:       -nan  MISS %:       -nan   MPKI: 0
L1D TOTAL     ACCESS:   19088375  HIT:   18621800  MISS:     466575  HIT %:    97.5557  MISS %:    2.44429   MPKI: 2.33239
L1D LOAD      ACCESS:   14427451  HIT:   14420032  MISS:       7419  HIT %:    99.9486  MISS %:  0.0514228   MPKI: 0.0370873
L1D RFO       ACCESS:    4175792  HIT:    4175791  MISS:          1  HIT %:        100  MISS %: 2.39476e-05   MPKI: 4.99897e-06
L1D PREFETCH  ACCESS:     485132  HIT:      25977  MISS:     459155  HIT %:    5.35463  MISS %:    94.6454   MPKI: 2.2953
L1D WRITEBACK ACCESS:          0  HIT:          0  MISS:          0  HIT %:       -nan  MISS %:       -nan   MPKI: 0
L1I TOTAL     ACCESS:   33209681  HIT:   33209681  MISS:          0  HIT %:        100  MISS %:          0   MPKI: 0
L1I LOAD      ACCESS:   33209681  HIT:   33209681  MISS:          0  HIT %:        100  MISS %:          0   MPKI: 0
L1I RFO       ACCESS:          0  HIT:          0  MISS:          0  HIT %:       -nan  MISS %:       -nan   MPKI: 0
L1I PREFETCH  ACCESS:          0  HIT:          0  MISS:          0  HIT %:       -nan  MISS %:       -nan   MPKI: 0
L1I WRITEBACK ACCESS:          0  HIT:          0  MISS:          0  HIT %:       -nan  MISS %:       -nan   MPKI: 0
L2C TOTAL     ACCESS:     940442  HIT:     245989  MISS:     694453  HIT %:    26.1567  MISS %:    73.8433   MPKI: 3.47155
L2C LOAD      ACCESS:       7291  HIT:          0  MISS:       7291  HIT %:          0  MISS %:        100   MPKI: 0.0364475
L2C RFO       ACCESS:          1  HIT:          0  MISS:          1  HIT %:          0  MISS %:        100   MPKI: 4.99897e-06
L2C PREFETCH  ACCESS:     459283  HIT:          0  MISS:     459283  HIT %:          0  MISS %:        100   MPKI: 2.29594
L2C WRITEBACK ACCESS:     466575  HIT:     239620  MISS:     226955  HIT %:    51.3572  MISS %:    48.6428   MPKI: 1.13454
PSCL5 TOTAL     ACCESS:       7292  HIT:       7292  MISS:          0  HIT %:        100  MISS %:          0   MPKI: 0
PSCL5 LOAD      ACCESS:          0  HIT:          0  MISS:          0  HIT %:       -nan  MISS %:       -nan   MPKI: 0
PSCL5 RFO       ACCESS:          0  HIT:          0  MISS:          0  HIT %:       -nan  MISS %:       -nan   MPKI: 0
PSCL5 PREFETCH  ACCESS:          0  HIT:          0  MISS:          0  HIT %:       -nan  MISS %:       -nan   MPKI: 0
PSCL5 WRITEBACK ACCESS:          0  HIT:          0  MISS:          0  HIT %:       -nan  MISS %:       -nan   MPKI: 0
PSCL4 TOTAL     ACCESS:       7292  HIT:       7292  MISS:          0  HIT %:        100  MISS %:          0   MPKI: 0
PSCL4 LOAD      ACCESS:          0  HIT:          0  MISS:          0  HIT %:       -nan  MISS %:       -nan   MPKI: 0
PSCL4 RFO       ACCESS:          0  HIT:          0  MISS:          0  HIT %:       -nan  MISS %:       -nan   MPKI: 0
PSCL4 PREFETCH  ACCESS:          0  HIT:          0  MISS:          0  HIT %:       -nan  MISS %:       -nan   MPKI: 0
PSCL4 WRITEBACK ACCESS:          0  HIT:          0  MISS:          0  HIT %:       -nan  MISS %:       -nan   MPKI: 0
PSCL3 TOTAL     ACCESS:       7292  HIT:       7292  MISS:          0  HIT %:        100  MISS %:          0   MPKI: 0
PSCL3 LOAD      ACCESS:          0  HIT:          0  MISS:          0  HIT %:       -nan  MISS %:       -nan   MPKI: 0
PSCL3 RFO       ACCESS:          0  HIT:          0  MISS:          0  HIT %:       -nan  MISS %:       -nan   MPKI: 0
PSCL3 PREFETCH  ACCESS:          0  HIT:          0  MISS:          0  HIT %:       -nan  MISS %:       -nan   MPKI: 0
PSCL3 WRITEBACK ACCESS:          0  HIT:          0  MISS:          0  HIT %:       -nan  MISS %:       -nan   MPKI: 0
PSCL2 TOTAL     ACCESS:       7292  HIT:       7277  MISS:         15  HIT %:    99.7943  MISS %:   0.205705   MPKI: 7.49845e-05
PSCL2 LOAD      ACCESS:          0  HIT:          0  MISS:          0  HIT %:       -nan  MISS %:       -nan   MPKI: 0
PSCL2 RFO       ACCESS:          0  HIT:          0  MISS:          0  HIT %:       -nan  MISS %:       -nan   MPKI: 0
PSCL2 PREFETCH  ACCESS:          0  HIT:          0  MISS:          0  HIT %:       -nan  MISS %:       -nan   MPKI: 0
PSCL2 WRITEBACK ACCESS:          0  HIT:          0  MISS:          0  HIT %:       -nan  MISS %:       -nan   MPKI: 0

stream: 
stream:times selected: 657329
stream:pref_filled: 571271
stream:pref_useful: 571260
stream:pref_late: 120
stream:misses: 17
stream:misses_by_poll: 0

CS: 
CS:times selected: 657322
CS:pref_filled: 2030
CS:pref_useful: 2030
CS:pref_late: 8
CS:misses: 46665
CS:misses_by_poll: 4

CPLX: 
CPLX:times selected: 5
CPLX:pref_filled: 0
CPLX:pref_useful: 0
CPLX:pref_late: 0
CPLX:misses: 0
CPLX:misses_by_poll: 0

NL_L1: 
NL:times selected: 0
NL:pref_filled: 0
NL:pref_useful: 0
NL:pref_late: 0
NL:misses: 0
NL:misses_by_poll: 0

total selections: 1314656
total_filled: 459155
total_useful: 459150
total_late: 128
total_polluted: 4
total_misses_after_warmup: 43335
conflicts: 0
Degree Incremented Times: 454711
Degree Decremented Times: 0

L1 IP Table Write Accesses: 57834383
L1 IP Table Read Accesses: 57834383
L1 RST Write Accesses: 2165063
L1 RST Read Accesses: 4330126
L1 CSPT Write Accesses: 2165063
L1 CSPT Read Accesses: 2165063
L1 RR Filter Tag Write Accesses: 1938558
L1 RR Filter Tag Read Accesses: 378834115
L1 IP Table Tag Write Accesses: 57834383
L1 IP Table Tag Read Accesses: 57834383
L1 RST Tag Write Accesses: 0
L1 RST Tag Read Accesses: 19481933
L1 RR Filter Write Accesses: 0
L1 RR Filter Read Accesses: 18575979
test: 36138
LLC TOTAL     ACCESS:     934214  HIT:     421446  MISS:     512768  HIT %:    45.1124  MISS %:    54.8876   MPKI: 2.56331
LLC LOAD      ACCESS:       7291  HIT:          0  MISS:       7291  HIT %:          0  MISS %:        100   MPKI: 0.0364475
LLC RFO       ACCESS:          1  HIT:          0  MISS:          1  HIT %:          0  MISS %:        100   MPKI: 4.99897e-06
LLC PREFETCH  ACCESS:     459283  HIT:          0  MISS:     459283  HIT %:          0  MISS %:        100   MPKI: 2.29594
LLC WRITEBACK ACCESS:     466716  HIT:     421446  MISS:      45270  HIT %:    90.3003  MISS %:    9.69969   MPKI: 0.226303

RAW hits: 0
Loads Generated: 29860389
Loads sent to L1D: 29860387
Stores Generated: 4175792
Stores sent to L1D: 4175792

CPU 1 cumulative IPC: 1.16303 instructions: 200000002 cycles: 171965049
ITLB TOTAL     ACCESS:   33202837  HIT:   33202837  MISS:          0  HIT %:        100  MISS %:          0   MPKI: 0
ITLB LOAD      ACCESS:          0  HIT:          0  MISS:          0  HIT %:       -nan  MISS %:       -nan   MPKI: 0
ITLB RFO       ACCESS:          0  HIT:          0  MISS:          0  HIT %:       -nan  MISS %:       -nan   MPKI: 0
ITLB PREFETCH  ACCESS:          0  HIT:          0  MISS:          0  HIT %:       -nan  MISS %:       -nan   MPKI: 0
ITLB WRITEBACK ACCESS:          0  HIT:          0  MISS:          0  HIT %:       -nan  MISS %:       -nan   MPKI: 0
DTLB TOTAL     ACCESS:   18093119  HIT:   18085830  MISS:       7289  HIT %:    99.9597  MISS %:   0.040286   MPKI: 0.036445
DTLB LOAD      ACCESS:          0  HIT:          0  MISS:          0  HIT %:       -nan  MISS %:       -nan   MPKI: 0
DTLB RFO       ACCESS:          0  HIT:          0  MISS:          0  HIT %:       -nan  MISS %:       -nan   MPKI: 0
DTLB PREFETCH  ACCESS:          0  HIT:          0  MISS:          0  HIT %:       -nan  MISS %:       -nan   MPKI: 0
DTLB WRITEBACK ACCESS:          0  HIT:          0  MISS:          0  HIT %:       -nan  MISS %:       -nan   MPKI: 0
STLB TOTAL     ACCESS:     430452  HIT:     423163  MISS:       7289  HIT %:    98.3067  MISS %:    1.69334   MPKI: 0.036445
STLB LOAD      ACCESS:          0  HIT:          0  MISS:          0  HIT %:       -nan  MISS %:       -nan   MPKI: 0
STLB RFO       ACCESS:          0  HIT:          0  MISS:          0  HIT %:       -nan  MISS %:       -nan   MPKI: 0
STLB PREFETCH  ACCESS:          0  HIT:          0  MISS:          0  HIT %:       -nan  MISS %:       -nan   MPKI: 0
STLB WRITEBACK ACCESS:          0  HIT:          0  MISS:          0  HIT %:       -nan  MISS %:       -nan   MPKI: 0
L1D TOTAL     ACCESS:   19076282  HIT:   18609803  MISS:     466479  HIT %:    97.5547  MISS %:    2.44533   MPKI: 2.33239
L1D LOAD      ACCESS:   14416691  HIT:   14408736  MISS:       7955  HIT %:    99.9448  MISS %:  0.0551791   MPKI: 0.039775
L1D RFO       ACCESS:    4174852  HIT:    4174852  MISS:          0  HIT %:        100  MISS %:          0   MPKI: 0
L1D PREFETCH  ACCESS:     484739  HIT:      26215  MISS:     458524  HIT %:    5.40806  MISS %:    94.5919   MPKI: 2.29262
L1D WRITEBACK ACCESS:          0  HIT:          0  MISS:          0  HIT %:       -nan  MISS %:       -nan   MPKI: 0
L1I TOTAL     ACCESS:   33202836  HIT:   33202836  MISS:          0  HIT %:        100  MISS %:          0   MPKI: 0
L1I LOAD      ACCESS:   33202836  HIT:   33202836  MISS:          0  HIT %:        100  MISS %:          0   MPKI: 0
L1I RFO       ACCESS:          0  HIT:          0  MISS:          0  HIT %:       -nan  MISS %:       -nan   MPKI: 0
L1I PREFETCH  ACCESS:          0  HIT:          0  MISS:          0  HIT %:       -nan  MISS %:       -nan   MPKI: 0
L1I WRITEBACK ACCESS:          0  HIT:          0  MISS:          0  HIT %:       -nan  MISS %:       -nan   MPKI: 0
L2C TOTAL     ACCESS:     940247  HIT:     242797  MISS:     697450  HIT %:    25.8227  MISS %:    74.1773   MPKI: 3.48725
L2C LOAD      ACCESS:       7826  HIT:          0  MISS:       7826  HIT %:          0  MISS %:        100   MPKI: 0.03913
L2C RFO       ACCESS:          0  HIT:          0  MISS:          0  HIT %:       -nan  MISS %:       -nan   MPKI: 0
L2C PREFETCH  ACCESS:     458653  HIT:          0  MISS:     458653  HIT %:          0  MISS %:        100   MPKI: 2.29326
L2C WRITEBACK ACCESS:     466479  HIT:     236432  MISS:     230047  HIT %:    50.6844  MISS %:    49.3156   MPKI: 1.15023
PSCL5 TOTAL     ACCESS:       7289  HIT:       7289  MISS:          0  HIT %:        100  MISS %:          0   MPKI: 0
PSCL5 LOAD      ACCESS:          0  HIT:          0  MISS:          0  HIT %:       -nan  MISS %:       -nan   MPKI: 0
PSCL5 RFO       ACCESS:          0  HIT:          0  MISS:          0  HIT %:       -nan  MISS %:       -nan   MPKI: 0
PSCL5 PREFETCH  ACCESS:          0  HIT:          0  MISS:          0  HIT %:       -nan  MISS %:       -nan   MPKI: 0
PSCL5 WRITEBACK ACCESS:          0  HIT:          0  MISS:          0  HIT %:       -nan  MISS %:       -nan   MPKI: 0
PSCL4 TOTAL     ACCESS:       7289  HIT:       7289  MISS:          0  HIT %:        100  MISS %:          0   MPKI: 0
PSCL4 LOAD      ACCESS:          0  HIT:          0  MISS:          0  HIT %:       -nan  MISS %:       -nan   MPKI: 0
PSCL4 RFO       ACCESS:          0  HIT:          0  MISS:          0  HIT %:       -nan  MISS %:       -nan   MPKI: 0
PSCL4 PREFETCH  ACCESS:          0  HIT:          0  MISS:          0  HIT %:       -nan  MISS %:       -nan   MPKI: 0
PSCL4 WRITEBACK ACCESS:          0  HIT:          0  MISS:          0  HIT %:       -nan  MISS %:       -nan   MPKI: 0
PSCL3 TOTAL     ACCESS:       7289  HIT:       7289  MISS:          0  HIT %:        100  MISS %:          0   MPKI: 0
PSCL3 LOAD      ACCESS:          0  HIT:          0  MISS:          0  HIT %:       -nan  MISS %:       -nan   MPKI: 0
PSCL3 RFO       ACCESS:          0  HIT:          0  MISS:          0  HIT %:       -nan  MISS %:       -nan   MPKI: 0
PSCL3 PREFETCH  ACCESS:          0  HIT:          0  MISS:          0  HIT %:       -nan  MISS %:       -nan   MPKI: 0
PSCL3 WRITEBACK ACCESS:          0  HIT:          0  MISS:          0  HIT %:       -nan  MISS %:       -nan   MPKI: 0
PSCL2 TOTAL     ACCESS:       7289  HIT:       7274  MISS:         15  HIT %:    99.7942  MISS %:    0.20579   MPKI: 7.5e-05
PSCL2 LOAD      ACCESS:          0  HIT:          0  MISS:          0  HIT %:       -nan  MISS %:       -nan   MPKI: 0
PSCL2 RFO       ACCESS:          0  HIT:          0  MISS:          0  HIT %:       -nan  MISS %:       -nan   MPKI: 0
PSCL2 PREFETCH  ACCESS:          0  HIT:          0  MISS:          0  HIT %:       -nan  MISS %:       -nan   MPKI: 0
PSCL2 WRITEBACK ACCESS:          0  HIT:          0  MISS:          0  HIT %:       -nan  MISS %:       -nan   MPKI: 0

stream: 
stream:times selected: 657113
stream:pref_filled: 456710
stream:pref_useful: 456705
stream:pref_late: 121
stream:misses: 23
stream:misses_by_poll: 0

CS: 
CS:times selected: 657106
CS:pref_filled: 1814
CS:pref_useful: 1814
CS:pref_late: 6
CS:misses: 263114
CS:misses_by_poll: 5

CPLX: 
CPLX:times selected: 5
CPLX:pref_filled: 0
CPLX:pref_useful: 0
CPLX:pref_late: 0
CPLX:misses: 9
CPLX:misses_by_poll: 0

NL_L1: 
NL:times selected: 0
NL:pref_filled: 0
NL:pref_useful: 0
NL:pref_late: 0
NL:misses: 0
NL:misses_by_poll: 0

total selections: 1314224
total_filled: 458524
total_useful: 458519
total_late: 129
total_polluted: 5
total_misses_after_warmup: 47248
conflicts: 0
Degree Incremented Times: 454711
Degree Decremented Times: 0

L1 IP Table Write Accesses: 57834383
L1 IP Table Read Accesses: 57834383
L1 RST Write Accesses: 2165063
L1 RST Read Accesses: 4330126
L1 CSPT Write Accesses: 2165063
L1 CSPT Read Accesses: 2165063
L1 RR Filter Tag Write Accesses: 1938558
L1 RR Filter Tag Read Accesses: 378834115
L1 IP Table Tag Write Accesses: 57834383
L1 IP Table Tag Read Accesses: 57834383
L1 RST Tag Write Accesses: 0
L1 RST Tag Read Accesses: 19481933
L1 RR Filter Write Accesses: 0
L1 RR Filter Read Accesses: 18575979
test: 36138
LLC TOTAL     ACCESS:     933959  HIT:     420312  MISS:     513647  HIT %:    45.0033  MISS %:    54.9967   MPKI: 2.56823
LLC LOAD      ACCESS:       7826  HIT:          0  MISS:       7826  HIT %:          0  MISS %:        100   MPKI: 0.03913
LLC RFO       ACCESS:          0  HIT:          0  MISS:          0  HIT %:       -nan  MISS %:       -nan   MPKI: 0
LLC PREFETCH  ACCESS:     458653  HIT:          0  MISS:     458653  HIT %:          0  MISS %:        100   MPKI: 2.29326
LLC WRITEBACK ACCESS:     466556  HIT:     420312  MISS:      46244  HIT %:    90.0882  MISS %:    9.91178   MPKI: 0.23122

RAW hits: 0
Loads Generated: 29854289
Loads sent to L1D: 29854288
Stores Generated: 4174853
Stores sent to L1D: 4174853

CPU 2 cumulative IPC: 1.16314 instructions: 200019022 cycles: 171965049
ITLB TOTAL     ACCESS:   33205994  HIT:   33205994  MISS:          0  HIT %:        100  MISS %:          0   MPKI: 0
ITLB LOAD      ACCESS:          0  HIT:          0  MISS:          0  HIT %:       -nan  MISS %:       -nan   MPKI: 0
ITLB RFO       ACCESS:          0  HIT:          0  MISS:          0  HIT %:       -nan  MISS %:       -nan   MPKI: 0
ITLB PREFETCH  ACCESS:          0  HIT:          0  MISS:          0  HIT %:       -nan  MISS %:       -nan   MPKI: 0
ITLB WRITEBACK ACCESS:          0  HIT:          0  MISS:          0  HIT %:       -nan  MISS %:       -nan   MPKI: 0
DTLB TOTAL     ACCESS:   18097423  HIT:   18090132  MISS:       7291  HIT %:    99.9597  MISS %:  0.0402875   MPKI: 0.0364515
DTLB LOAD      ACCESS:          0  HIT:          0  MISS:          0  HIT %:       -nan  MISS %:       -nan   MPKI: 0
DTLB RFO       ACCESS:          0  HIT:          0  MISS:          0  HIT %:       -nan  MISS %:       -nan   MPKI: 0
DTLB PREFETCH  ACCESS:          0  HIT:          0  MISS:          0  HIT %:       -nan  MISS %:       -nan   MPKI: 0
DTLB WRITEBACK ACCESS:          0  HIT:          0  MISS:          0  HIT %:       -nan  MISS %:       -nan   MPKI: 0
STLB TOTAL     ACCESS:     431526  HIT:     424235  MISS:       7291  HIT %:    98.3104  MISS %:    1.68959   MPKI: 0.0364515
STLB LOAD      ACCESS:          0  HIT:          0  MISS:          0  HIT %:       -nan  MISS %:       -nan   MPKI: 0
STLB RFO       ACCESS:          0  HIT:          0  MISS:          0  HIT %:       -nan  MISS %:       -nan   MPKI: 0
STLB PREFETCH  ACCESS:          0  HIT:          0  MISS:          0  HIT %:       -nan  MISS %:       -nan   MPKI: 0
STLB WRITEBACK ACCESS:          0  HIT:          0  MISS:          0  HIT %:       -nan  MISS %:       -nan   MPKI: 0
L1D TOTAL     ACCESS:   19081803  HIT:   18615273  MISS:     466530  HIT %:    97.5551  MISS %:    2.44489   MPKI: 2.33243
L1D LOAD      ACCESS:   14422045  HIT:   14414345  MISS:       7700  HIT %:    99.9466  MISS %:  0.0533905   MPKI: 0.0384963
L1D RFO       ACCESS:    4175271  HIT:    4175270  MISS:          1  HIT %:        100  MISS %: 2.39505e-05   MPKI: 4.99952e-06
L1D PREFETCH  ACCESS:     484487  HIT:      25658  MISS:     458829  HIT %:    5.29591  MISS %:    94.7041   MPKI: 2.29393
L1D WRITEBACK ACCESS:          0  HIT:          0  MISS:          0  HIT %:       -nan  MISS %:       -nan   MPKI: 0
L1I TOTAL     ACCESS:   33205993  HIT:   33205993  MISS:          0  HIT %:        100  MISS %:          0   MPKI: 0
L1I LOAD      ACCESS:   33205993  HIT:   33205993  MISS:          0  HIT %:        100  MISS %:          0   MPKI: 0
L1I RFO       ACCESS:          0  HIT:          0  MISS:          0  HIT %:       -nan  MISS %:       -nan   MPKI: 0
L1I PREFETCH  ACCESS:          0  HIT:          0  MISS:          0  HIT %:       -nan  MISS %:       -nan   MPKI: 0
L1I WRITEBACK ACCESS:          0  HIT:          0  MISS:          0  HIT %:       -nan  MISS %:       -nan   MPKI: 0
L2C TOTAL     ACCESS:     940351  HIT:     244168  MISS:     696183  HIT %:    25.9656  MISS %:    74.0344   MPKI: 3.48058
L2C LOAD      ACCESS:       7525  HIT:          0  MISS:       7525  HIT %:          0  MISS %:        100   MPKI: 0.0376214
L2C RFO       ACCESS:          1  HIT:          0  MISS:          1  HIT %:          0  MISS %:        100   MPKI: 4.99952e-06
L2C PREFETCH  ACCESS:     459004  HIT:          0  MISS:     459004  HIT %:          0  MISS %:        100   MPKI: 2.2948
L2C WRITEBACK ACCESS:     466530  HIT:     237803  MISS:     228727  HIT %:    50.9727  MISS %:    49.0273   MPKI: 1.14353
PSCL5 TOTAL     ACCESS:       7291  HIT:       7291  MISS:          0  HIT %:        100  MISS %:          0   MPKI: 0
PSCL5 LOAD      ACCESS:          0  HIT:          0  MISS:          0  HIT %:       -nan  MISS %:       -nan   MPKI: 0
PSCL5 RFO       ACCESS:          0  HIT:          0  MISS:          0  HIT %:       -nan  MISS %:       -nan   MPKI: 0
PSCL5 PREFETCH  ACCESS:          0  HIT:          0  MISS:          0  HIT %:       -nan  MISS %:       -nan   MPKI: 0
PSCL5 WRITEBACK ACCESS:          0  HIT:          0  MISS:          0  HIT %:       -nan  MISS %:       -nan   MPKI: 0
PSCL4 TOTAL     ACCESS:       7291  HIT:       7291  MISS:          0  HIT %:        100  MISS %:          0   MPKI: 0
PSCL4 LOAD      ACCESS:          0  HIT:          0  MISS:          0  HIT %:       -nan  MISS %:       -nan   MPKI: 0
PSCL4 RFO       ACCESS:          0  HIT:          0  MISS:          0  HIT %:       -nan  MISS %:       -nan   MPKI: 0
PSCL4 PREFETCH  ACCESS:          0  HIT:          0  MISS:          0  HIT %:       -nan  MISS %:       -nan   MPKI: 0
PSCL4 WRITEBACK ACCESS:          0  HIT:          0  MISS:          0  HIT %:       -nan  MISS %:       -nan   MPKI: 0
PSCL3 TOTAL     ACCESS:       7291  HIT:       7291  MISS:          0  HIT %:        100  MISS %:          0   MPKI: 0
PSCL3 LOAD      ACCESS:          0  HIT:          0  MISS:          0  HIT %:       -nan  MISS %:       -nan   MPKI: 0
PSCL3 RFO       ACCESS:          0  HIT:          0  MISS:          0  HIT %:       -nan  MISS %:       -nan   MPKI: 0
PSCL3 PREFETCH  ACCESS:          0  HIT:          0  MISS:          0  HIT %:       -nan  MISS %:       -nan   MPKI: 0
PSCL3 WRITEBACK ACCESS:          0  HIT:          0  MISS:          0  HIT %:       -nan  MISS %:       -nan   MPKI: 0
PSCL2 TOTAL     ACCESS:       7291  HIT:       7276  MISS:         15  HIT %:    99.7943  MISS %:   0.205733   MPKI: 7.49929e-05
PSCL2 LOAD      ACCESS:          0  HIT:          0  MISS:          0  HIT %:       -nan  MISS %:       -nan   MPKI: 0
PSCL2 RFO       ACCESS:          0  HIT:          0  MISS:          0  HIT %:       -nan  MISS %:       -nan   MPKI: 0
PSCL2 PREFETCH  ACCESS:          0  HIT:          0  MISS:          0  HIT %:       -nan  MISS %:       -nan   MPKI: 0
PSCL2 WRITEBACK ACCESS:          0  HIT:          0  MISS:          0  HIT %:       -nan  MISS %:       -nan   MPKI: 0

stream: 
stream:times selected: 657298
stream:pref_filled: 457159
stream:pref_useful: 457148
stream:pref_late: 167
stream:misses: 27
stream:misses_by_poll: 0

CS: 
CS:times selected: 657291
CS:pref_filled: 1670
CS:pref_useful: 1670
CS:pref_late: 7
CS:misses: 263760
CS:misses_by_poll: 6

CPLX: 
CPLX:times selected: 5
CPLX:pref_filled: 0
CPLX:pref_useful: 0
CPLX:pref_late: 0
CPLX:misses: 9
CPLX:misses_by_poll: 0

NL_L1: 
NL:times selected: 0
NL:pref_filled: 0
NL:pref_useful: 0
NL:pref_late: 0
NL:misses: 0
NL:misses_by_poll: 0

total selections: 1314594
total_filled: 458829
total_useful: 458818
total_late: 175
total_polluted: 6
total_misses_after_warmup: 45380
conflicts: 0
Degree Incremented Times: 454711
Degree Decremented Times: 0

L1 IP Table Write Accesses: 57834383
L1 IP Table Read Accesses: 57834383
L1 RST Write Accesses: 2165063
L1 RST Read Accesses: 4330126
L1 CSPT Write Accesses: 2165063
L1 CSPT Read Accesses: 2165063
L1 RR Filter Tag Write Accesses: 1938558
L1 RR Filter Tag Read Accesses: 378834115
L1 IP Table Tag Write Accesses: 57834383
L1 IP Table Tag Read Accesses: 57834383
L1 RST Tag Write Accesses: 0
L1 RST Tag Read Accesses: 19481933
L1 RR Filter Write Accesses: 0
L1 RR Filter Read Accesses: 18575979
test: 36138
LLC TOTAL     ACCESS:     934155  HIT:     421069  MISS:     513086  HIT %:    45.0749  MISS %:    54.9251   MPKI: 2.56519
LLC LOAD      ACCESS:       7525  HIT:          0  MISS:       7525  HIT %:          0  MISS %:        100   MPKI: 0.0376214
LLC RFO       ACCESS:          1  HIT:          0  MISS:          1  HIT %:          0  MISS %:        100   MPKI: 4.99952e-06
LLC PREFETCH  ACCESS:     459004  HIT:          0  MISS:     459004  HIT %:          0  MISS %:        100   MPKI: 2.2948
LLC WRITEBACK ACCESS:     466699  HIT:     421065  MISS:      45634  HIT %:     90.222  MISS %:    9.77804   MPKI: 0.228148

RAW hits: 0
Loads Generated: 29857111
Loads sent to L1D: 29857109
Stores Generated: 4175271
Stores sent to L1D: 4175271

CPU 3 cumulative IPC: 1.16306 instructions: 200005844 cycles: 171965049
ITLB TOTAL     ACCESS:   33203798  HIT:   33203798  MISS:          0  HIT %:        100  MISS %:          0   MPKI: 0
ITLB LOAD      ACCESS:          0  HIT:          0  MISS:          0  HIT %:       -nan  MISS %:       -nan   MPKI: 0
ITLB RFO       ACCESS:          0  HIT:          0  MISS:          0  HIT %:       -nan  MISS %:       -nan   MPKI: 0
ITLB PREFETCH  ACCESS:          0  HIT:          0  MISS:          0  HIT %:       -nan  MISS %:       -nan   MPKI: 0
ITLB WRITEBACK ACCESS:          0  HIT:          0  MISS:          0  HIT %:       -nan  MISS %:       -nan   MPKI: 0
DTLB TOTAL     ACCESS:   18092348  HIT:   18085058  MISS:       7290  HIT %:    99.9597  MISS %:  0.0402933   MPKI: 0.0364489
DTLB LOAD      ACCESS:          0  HIT:          0  MISS:          0  HIT %:       -nan  MISS %:       -nan   MPKI: 0
DTLB RFO       ACCESS:          0  HIT:          0  MISS:          0  HIT %:       -nan  MISS %:       -nan   MPKI: 0
DTLB PREFETCH  ACCESS:          0  HIT:          0  MISS:          0  HIT %:       -nan  MISS %:       -nan   MPKI: 0
DTLB WRITEBACK ACCESS:          0  HIT:          0  MISS:          0  HIT %:       -nan  MISS %:       -nan   MPKI: 0
STLB TOTAL     ACCESS:     430000  HIT:     422710  MISS:       7290  HIT %:    98.3047  MISS %:    1.69535   MPKI: 0.0364489
STLB LOAD      ACCESS:          0  HIT:          0  MISS:          0  HIT %:       -nan  MISS %:       -nan   MPKI: 0
STLB RFO       ACCESS:          0  HIT:          0  MISS:          0  HIT %:       -nan  MISS %:       -nan   MPKI: 0
STLB PREFETCH  ACCESS:          0  HIT:          0  MISS:          0  HIT %:       -nan  MISS %:       -nan   MPKI: 0
STLB WRITEBACK ACCESS:          0  HIT:          0  MISS:          0  HIT %:       -nan  MISS %:       -nan   MPKI: 0
L1D TOTAL     ACCESS:   19073587  HIT:   18607088  MISS:     466499  HIT %:    97.5542  MISS %:    2.44579   MPKI: 2.33243
L1D LOAD      ACCESS:   14414985  HIT:   14406887  MISS:       8098  HIT %:    99.9438  MISS %:  0.0561777   MPKI: 0.0404888
L1D RFO       ACCESS:    4174990  HIT:    4174989  MISS:          1  HIT %:        100  MISS %: 2.39522e-05   MPKI: 4.99985e-06
L1D PREFETCH  ACCESS:     483612  HIT:      25212  MISS:     458400  HIT %:    5.21327  MISS %:    94.7867   MPKI: 2.29193
L1D WRITEBACK ACCESS:          0  HIT:          0  MISS:          0  HIT %:       -nan  MISS %:       -nan   MPKI: 0
L1I TOTAL     ACCESS:   33203798  HIT:   33203798  MISS:          0  HIT %:        100  MISS %:          0   MPKI: 0
L1I LOAD      ACCESS:   33203798  HIT:   33203798  MISS:          0  HIT %:        100  MISS %:          0   MPKI: 0
L1I RFO       ACCESS:          0  HIT:          0  MISS:          0  HIT %:       -nan  MISS %:       -nan   MPKI: 0
L1I PREFETCH  ACCESS:          0  HIT:          0  MISS:          0  HIT %:       -nan  MISS %:       -nan   MPKI: 0
L1I WRITEBACK ACCESS:          0  HIT:          0  MISS:          0  HIT %:       -nan  MISS %:       -nan   MPKI: 0
L2C TOTAL     ACCESS:     940288  HIT:     246126  MISS:     694162  HIT %:    26.1756  MISS %:    73.8244   MPKI: 3.47071
L2C LOAD      ACCESS:       7980  HIT:          0  MISS:       7980  HIT %:          0  MISS %:        100   MPKI: 0.0398988
L2C RFO       ACCESS:          1  HIT:          0  MISS:          1  HIT %:          0  MISS %:        100   MPKI: 4.99985e-06
L2C PREFETCH  ACCESS:     458518  HIT:          0  MISS:     458518  HIT %:          0  MISS %:        100   MPKI: 2.29252
L2C WRITEBACK ACCESS:     466499  HIT:     239762  MISS:     226737  HIT %:     51.396  MISS %:     48.604   MPKI: 1.13365
PSCL5 TOTAL     ACCESS:       7290  HIT:       7290  MISS:          0  HIT %:        100  MISS %:          0   MPKI: 0
PSCL5 LOAD      ACCESS:          0  HIT:          0  MISS:          0  HIT %:       -nan  MISS %:       -nan   MPKI: 0
PSCL5 RFO       ACCESS:          0  HIT:          0  MISS:          0  HIT %:       -nan  MISS %:       -nan   MPKI: 0
PSCL5 PREFETCH  ACCESS:          0  HIT:          0  MISS:          0  HIT %:       -nan  MISS %:       -nan   MPKI: 0
PSCL5 WRITEBACK ACCESS:          0  HIT:          0  MISS:          0  HIT %:       -nan  MISS %:       -nan   MPKI: 0
PSCL4 TOTAL     ACCESS:       7290  HIT:       7290  MISS:          0  HIT %:        100  MISS %:          0   MPKI: 0
PSCL4 LOAD      ACCESS:          0  HIT:          0  MISS:          0  HIT %:       -nan  MISS %:       -nan   MPKI: 0
PSCL4 RFO       ACCESS:          0  HIT:          0  MISS:          0  HIT %:       -nan  MISS %:       -nan   MPKI: 0
PSCL4 PREFETCH  ACCESS:          0  HIT:          0  MISS:          0  HIT %:       -nan  MISS %:       -nan   MPKI: 0
PSCL4 WRITEBACK ACCESS:          0  HIT:          0  MISS:          0  HIT %:       -nan  MISS %:       -nan   MPKI: 0
PSCL3 TOTAL     ACCESS:       7290  HIT:       7290  MISS:          0  HIT %:        100  MISS %:          0   MPKI: 0
PSCL3 LOAD      ACCESS:          0  HIT:          0  MISS:          0  HIT %:       -nan  MISS %:       -nan   MPKI: 0
PSCL3 RFO       ACCESS:          0  HIT:          0  MISS:          0  HIT %:       -nan  MISS %:       -nan   MPKI: 0
PSCL3 PREFETCH  ACCESS:          0  HIT:          0  MISS:          0  HIT %:       -nan  MISS %:       -nan   MPKI: 0
PSCL3 WRITEBACK ACCESS:          0  HIT:          0  MISS:          0  HIT %:       -nan  MISS %:       -nan   MPKI: 0
PSCL2 TOTAL     ACCESS:       7290  HIT:       7275  MISS:         15  HIT %:    99.7942  MISS %:   0.205761   MPKI: 7.49978e-05
PSCL2 LOAD      ACCESS:          0  HIT:          0  MISS:          0  HIT %:       -nan  MISS %:       -nan   MPKI: 0
PSCL2 RFO       ACCESS:          0  HIT:          0  MISS:          0  HIT %:       -nan  MISS %:       -nan   MPKI: 0
PSCL2 PREFETCH  ACCESS:          0  HIT:          0  MISS:          0  HIT %:       -nan  MISS %:       -nan   MPKI: 0
PSCL2 WRITEBACK ACCESS:          0  HIT:          0  MISS:          0  HIT %:       -nan  MISS %:       -nan   MPKI: 0

stream: 
stream:times selected: 657135
stream:pref_filled: 456382
stream:pref_useful: 456371
stream:pref_late: 113
stream:misses: 23
stream:misses_by_poll: 0

CS: 
CS:times selected: 657128
CS:pref_filled: 2018
CS:pref_useful: 2018
CS:pref_late: 4
CS:misses: 266919
CS:misses_by_poll: 7

CPLX: 
CPLX:times selected: 5
CPLX:pref_filled: 0
CPLX:pref_useful: 0
CPLX:pref_late: 0
CPLX:misses: 9
CPLX:misses_by_poll: 0

NL_L1: 
NL:times selected: 0
NL:pref_filled: 0
NL:pref_useful: 0
NL:pref_late: 0
NL:misses: 0
NL:misses_by_poll: 0

total selections: 1314268
total_filled: 458400
total_useful: 458389
total_late: 118
total_polluted: 7
total_misses_after_warmup: 48420
conflicts: 0
Degree Incremented Times: 454711
Degree Decremented Times: 0

L1 IP Table Write Accesses: 57834383
L1 IP Table Read Accesses: 57834383
L1 RST Write Accesses: 2165063
L1 RST Read Accesses: 4330126
L1 CSPT Write Accesses: 2165063
L1 CSPT Read Accesses: 2165063
L1 RR Filter Tag Write Accesses: 1938558
L1 RR Filter Tag Read Accesses: 378834115
L1 IP Table Tag Write Accesses: 57834383
L1 IP Table Tag Read Accesses: 57834383
L1 RST Tag Write Accesses: 0
L1 RST Tag Read Accesses: 19481933
L1 RR Filter Write Accesses: 0
L1 RR Filter Read Accesses: 18575979
test: 36138
LLC TOTAL     ACCESS:     934031  HIT:     421115  MISS:     512916  HIT %:    45.0858  MISS %:    54.9142   MPKI: 2.56451
LLC LOAD      ACCESS:       7980  HIT:          0  MISS:       7980  HIT %:          0  MISS %:        100   MPKI: 0.0398988
LLC RFO       ACCESS:          1  HIT:          0  MISS:          1  HIT %:          0  MISS %:        100   MPKI: 4.99985e-06
LLC PREFETCH  ACCESS:     458518  HIT:          0  MISS:     458518  HIT %:          0  MISS %:        100   MPKI: 2.29252
LLC WRITEBACK ACCESS:     466606  HIT:     421115  MISS:      45491  HIT %:    90.2507  MISS %:    9.74934   MPKI: 0.227448

RAW hits: 0
Loads Generated: 29855149
Loads sent to L1D: 29855148
Stores Generated: 4174991
Stores sent to L1D: 4174990

Region of Interest Statistics

CPU 0 cumulative IPC: 1.16326 instructions: 200000000 cycles: 171929945
ITLB TOTAL     ACCESS:   33202807  HIT:   33202807  MISS:          0  HIT %:        100  MISS %:          0   MPKI: 0
ITLB LOAD TRANSLATION ACCESS:   33202807  HIT:   33202807  MISS:          0  HIT %:        100  MISS %:          0   MPKI: 0
ITLB PREFETCH  REQUESTED:          0  ISSUED:          0  USEFUL:          0  USELESS:          0
ITLB USEFUL LOAD PREFETCHES:          0 PREFETCH ISSUED TO LOWER LEVEL:          0  ACCURACY: -nan
ITLB TIMELY PREFETCHES:          0 LATE PREFETCHES: 0 DROPPED PREFETCHES: 0
ITLB PREFETCHES SAME FILL-ORIGIN LEVEL: 0 DIFFERENT FILL-ORIGIN LEVEL: 0
ITLB AVERAGE MISS LATENCY: -nan cycles
ITLB RQ	ACCESS:   33209682	FORWARD:          0	MERGED:          0	TO_CACHE:   33209682

DTLB TOTAL     ACCESS:   18098098  HIT:   18090809  MISS:       7289  HIT %:    99.9597  MISS %:   0.040275   MPKI: 0.036445
DTLB LOAD TRANSLATION ACCESS:   18098098  HIT:   18090809  MISS:       7289  HIT %:    99.9597  MISS %:   0.040275   MPKI: 0.036445
DTLB PREFETCH  REQUESTED:          0  ISSUED:          0  USEFUL:          0  USELESS:          0
DTLB USEFUL LOAD PREFETCHES:          0 PREFETCH ISSUED TO LOWER LEVEL:          0  ACCURACY: -nan
DTLB TIMELY PREFETCHES:          0 LATE PREFETCHES: 0 DROPPED PREFETCHES: 0
DTLB PREFETCHES SAME FILL-ORIGIN LEVEL: 0 DIFFERENT FILL-ORIGIN LEVEL: 0
DTLB AVERAGE MISS LATENCY: 147.959 cycles
DTLB RQ	ACCESS:   18639159	FORWARD:          0	MERGED:     537352	TO_CACHE:   18101807

STLB TOTAL     ACCESS:     431765  HIT:     424476  MISS:       7289  HIT %:    98.3118  MISS %:    1.68819   MPKI: 0.036445
STLB LOAD TRANSLATION ACCESS:       7289  HIT:          0  MISS:       7289  HIT %:          0  MISS %:        100   MPKI: 0.036445
STLB TRANSLATION FROM L1D PREFETCHER ACCESS:     424476  HIT:     424476  MISS:          0  HIT %:        100  MISS %:          0   MPKI: 0
STLB PREFETCH  REQUESTED:          0  ISSUED:          0  USEFUL:          0  USELESS:          0
STLB USEFUL LOAD PREFETCHES:          0 PREFETCH ISSUED TO LOWER LEVEL:          0  ACCURACY: -nan
STLB TIMELY PREFETCHES:          0 LATE PREFETCHES: 0 DROPPED PREFETCHES: 0
STLB PREFETCHES SAME FILL-ORIGIN LEVEL: 0 DIFFERENT FILL-ORIGIN LEVEL: 0
STLB AVERAGE MISS LATENCY: 138.955 cycles
STLB RQ	ACCESS:     492553	FORWARD:          0	MERGED:      60701	TO_CACHE:     431852

STLB Hit, L1D data hit: 0
STLB Hit, L2C data hit: 0
STLB Hit, LLC data hit: 0
STLB Hit, LLC data miss: 0
STLB STLB hints to L2: 0
L1D TOTAL     ACCESS:   19084418  HIT:   18617945  MISS:     466473  HIT %:    97.5557  MISS %:    2.44426   MPKI: 2.33236
L1D LOAD      ACCESS:   14424533  HIT:   14417116  MISS:       7417  HIT %:    99.9486  MISS %:  0.0514193   MPKI: 0.037085
L1D RFO       ACCESS:    4174852  HIT:    4174852  MISS:          0  HIT %:        100  MISS %:          0   MPKI: 0
L1D PREFETCH  ACCESS:     485033  HIT:      25977  MISS:     459056  HIT %:    5.35572  MISS %:    94.6443   MPKI: 2.29528
L1D PREFETCH  REQUESTED:     970522  ISSUED:     970522  USEFUL:     459150  USELESS:          0
L1D USEFUL LOAD PREFETCHES:     459150 PREFETCH ISSUED TO LOWER LEVEL:     459284  ACCURACY: 99.9708
L1D TIMELY PREFETCHES:     459150 LATE PREFETCHES: 128 DROPPED PREFETCHES: 0
L1D PREFETCHES SAME FILL-ORIGIN LEVEL: 459284 DIFFERENT FILL-ORIGIN LEVEL: 0
L1D AVERAGE MISS LATENCY: 230.783 cycles
L1D RQ	ACCESS:   29860387	FORWARD:          0	MERGED:   15397020	TO_CACHE:   14463367
L1D WQ	ACCESS:    4175792	FORWARD:          0	MERGED:          0	TO_CACHE:    4175792
L1D PQ	ACCESS:     485261	FORWARD:          0	MERGED:          0	TO_CACHE:     485261

L1D UNIQUE REGIONS ACCESSED: 0
L1D REGIONS CONFLICTS: 0
L1D Cross Page Prefetch Requests: 0
L1D Same Page Prefetch Requests: 599436
L1D ROI Sum of L1D PQ occupancy: 5376793
L1D PREFETCHES PUSHED FROM L2C: 0
L1I TOTAL     ACCESS:   33202806  HIT:   33202806  MISS:          0  HIT %:        100  MISS %:          0   MPKI: 0
L1I LOAD      ACCESS:   33202806  HIT:   33202806  MISS:          0  HIT %:        100  MISS %:          0   MPKI: 0
L1I PREFETCH  REQUESTED:          0  ISSUED:          0  USEFUL:          0  USELESS:          0
L1I USEFUL LOAD PREFETCHES:          0 PREFETCH ISSUED TO LOWER LEVEL:          0  ACCURACY: -nan
L1I TIMELY PREFETCHES:          0 LATE PREFETCHES: 0 DROPPED PREFETCHES: 0
L1I PREFETCHES SAME FILL-ORIGIN LEVEL: 0 DIFFERENT FILL-ORIGIN LEVEL: 0
L1I AVERAGE MISS LATENCY: -nan cycles
L1I RQ	ACCESS:   80085109	FORWARD:          0	MERGED:   46875427	TO_CACHE:   33209682

BTB TOTAL     ACCESS:   59708583  HIT:   59708580  MISS:          3  HIT %:        100  MISS %: 5.0244e-06   MPKI: 1.5e-05
BTB BRANCH_DIRECT_JUMP	ACCESS:          0  HIT:          0  MISS:          0
BTB BRANCH_INDIRECT	ACCESS:          0  HIT:          0  MISS:          0
BTB BRANCH_CONDITIONAL	ACCESS:   59708583  HIT:   59708580  MISS:          3
BTB BRANCH_DIRECT_CALL	ACCESS:          0  HIT:          0  MISS:          0
BTB BRANCH_INDIRECT_CALL	ACCESS:          0  HIT:          0  MISS:          0
BTB BRANCH_RETURN	ACCESS:          0  HIT:          0  MISS:          0
BTB BRANCH_OTHER ACCESS:          0  HIT:          0  MISS:          0

L2C TOTAL     ACCESS:     940235  HIT:     245885  MISS:     694350  HIT %:    26.1514  MISS %:    73.8486   MPKI: 3.47175
L2C LOAD      ACCESS:       7289  HIT:          0  MISS:       7289  HIT %:          0  MISS %:        100   MPKI: 0.036445
L2C DATA LOAD MPKI: 0.036445
L2C INSTRUCTION LOAD MPKI: 0
L2C PREFETCH  ACCESS:     459184  HIT:          0  MISS:     459184  HIT %:          0  MISS %:        100   MPKI: 2.29592
L2C DATA PREFETCH MPKI: 2.29592
L2C INSTRUCTION PREFETCH MPKI: 0
L2C WRITEBACK ACCESS:     466473  HIT:     239518  MISS:     226955  HIT %:    51.3466  MISS %:    48.6534   MPKI: 1.13478
L2C LOAD TRANSLATION ACCESS:       7289  HIT:       6367  MISS:        922  HIT %:    87.3508  MISS %:    12.6492   MPKI: 0.00461
L2C PREFETCH  REQUESTED:          0  ISSUED:          0  USEFUL:          0  USELESS:     459334
L2C USEFUL LOAD PREFETCHES:          0 PREFETCH ISSUED TO LOWER LEVEL:     459284  ACCURACY: 0
L2C TIMELY PREFETCHES:          0 LATE PREFETCHES: 0 DROPPED PREFETCHES: 0
L2C PREFETCHES SAME FILL-ORIGIN LEVEL: 0 DIFFERENT FILL-ORIGIN LEVEL: 0
L2C AVERAGE MISS LATENCY: 146.622 cycles
L2C RQ	ACCESS:      14584	FORWARD:          0	MERGED:          0	TO_CACHE:      14584
L2C WQ	ACCESS:     466575	FORWARD:          0	MERGED:          0	TO_CACHE:     466575
L2C PQ	ACCESS:     459284	FORWARD:          0	MERGED:          0	TO_CACHE:     459284

L2C Instructions Evicting Data 0
L2C Translations Evicting Data 923
L2C Data Evicting Data 465848
L2C Instructions Evicting Instructions 0
L2C Translations Evicting Instructions 0
L2C Data Evicting Instructions 0
L2C Instructions Evicting Translations 0
L2C Translations Evicting Translations 0
L2C Data Evicting Translations 727
L2C Dense regions hint from L2: 0
PSCL5 TOTAL     ACCESS:       7289  HIT:       7289  MISS:          0  HIT %:        100  MISS %:          0   MPKI: 0
PSCL5 LOAD TRANSLATION ACCESS:       7289  HIT:       7289  MISS:          0  HIT %:        100  MISS %:          0   MPKI: 0
PSCL5 PREFETCH  REQUESTED:          0  ISSUED:          0  USEFUL:          0  USELESS:          0
PSCL5 USEFUL LOAD PREFETCHES:          0 PREFETCH ISSUED TO LOWER LEVEL:          0  ACCURACY: -nan
PSCL5 TIMELY PREFETCHES:          0 LATE PREFETCHES: 0 DROPPED PREFETCHES: 0
PSCL5 PREFETCHES SAME FILL-ORIGIN LEVEL: 0 DIFFERENT FILL-ORIGIN LEVEL: 0

PSCL4 TOTAL     ACCESS:       7289  HIT:       7289  MISS:          0  HIT %:        100  MISS %:          0   MPKI: 0
PSCL4 LOAD TRANSLATION ACCESS:       7289  HIT:       7289  MISS:          0  HIT %:        100  MISS %:          0   MPKI: 0
PSCL4 PREFETCH  REQUESTED:          0  ISSUED:          0  USEFUL:          0  USELESS:          0
PSCL4 USEFUL LOAD PREFETCHES:          0 PREFETCH ISSUED TO LOWER LEVEL:          0  ACCURACY: -nan
PSCL4 TIMELY PREFETCHES:          0 LATE PREFETCHES: 0 DROPPED PREFETCHES: 0
PSCL4 PREFETCHES SAME FILL-ORIGIN LEVEL: 0 DIFFERENT FILL-ORIGIN LEVEL: 0

PSCL3 TOTAL     ACCESS:       7289  HIT:       7289  MISS:          0  HIT %:        100  MISS %:          0   MPKI: 0
PSCL3 LOAD TRANSLATION ACCESS:       7289  HIT:       7289  MISS:          0  HIT %:        100  MISS %:          0   MPKI: 0
PSCL3 PREFETCH  REQUESTED:          0  ISSUED:          0  USEFUL:          0  USELESS:          0
PSCL3 USEFUL LOAD PREFETCHES:          0 PREFETCH ISSUED TO LOWER LEVEL:          0  ACCURACY: -nan
PSCL3 TIMELY PREFETCHES:          0 LATE PREFETCHES: 0 DROPPED PREFETCHES: 0
PSCL3 PREFETCHES SAME FILL-ORIGIN LEVEL: 0 DIFFERENT FILL-ORIGIN LEVEL: 0

PSCL2 TOTAL     ACCESS:       7289  HIT:       7274  MISS:         15  HIT %:    99.7942  MISS %:    0.20579   MPKI: 7.5e-05
PSCL2 LOAD TRANSLATION ACCESS:       7289  HIT:       7274  MISS:         15  HIT %:    99.7942  MISS %:    0.20579   MPKI: 7.5e-05
PSCL2 PREFETCH  REQUESTED:          0  ISSUED:          0  USEFUL:          0  USELESS:          0
PSCL2 USEFUL LOAD PREFETCHES:          0 PREFETCH ISSUED TO LOWER LEVEL:          0  ACCURACY: -nan
PSCL2 TIMELY PREFETCHES:          0 LATE PREFETCHES: 0 DROPPED PREFETCHES: 0
PSCL2 PREFETCHES SAME FILL-ORIGIN LEVEL: 0 DIFFERENT FILL-ORIGIN LEVEL: 0

LLC TOTAL     ACCESS:     934008  HIT:     421378  MISS:     512630  HIT %:     45.115  MISS %:     54.885   MPKI: 2.56315
LLC LOAD      ACCESS:       7289  HIT:          0  MISS:       7289  HIT %:          0  MISS %:        100   MPKI: 0.036445
LLC PREFETCH  ACCESS:     459184  HIT:          0  MISS:     459184  HIT %:          0  MISS %:        100   MPKI: 2.29592
LLC WRITEBACK ACCESS:     466613  HIT:     421378  MISS:      45235  HIT %:    90.3057  MISS %:    9.69433   MPKI: 0.226175
LLC LOAD TRANSLATION ACCESS:        922  HIT:          0  MISS:        922  HIT %:          0  MISS %:        100   MPKI: 0.00461
LLC PREFETCH  REQUESTED:          0  ISSUED:          0  USEFUL:          0  USELESS:    1749566
LLC USEFUL LOAD PREFETCHES:          0 PREFETCH ISSUED TO LOWER LEVEL:    1835462  ACCURACY: 0
LLC TIMELY PREFETCHES:          0 LATE PREFETCHES: 0 DROPPED PREFETCHES: 0
LLC PREFETCHES SAME FILL-ORIGIN LEVEL: 0 DIFFERENT FILL-ORIGIN LEVEL: 0
LLC AVERAGE MISS LATENCY: 685.087 cycles
LLC RQ	ACCESS:      34324	FORWARD:          0	MERGED:          0	TO_CACHE:      34324
LLC WQ	ACCESS:    1866577	FORWARD:          0	MERGED:          0	TO_CACHE:    1866577
LLC PQ	ACCESS:    1835462	FORWARD:          0	MERGED:          0	TO_CACHE:    1835462

LLC Dense regions hint to LLC: 0

RAW hits: 0
Loads Generated: 29854289
Loads sent to L1D: 29854288
Stores Generated: 4174853
Stores sent to L1D: 4174853
Major fault: 0 Minor fault: 9127
Allocated PAGES: 36508

CPU 1 cumulative IPC: 1.16303 instructions: 200000002 cycles: 171965049
ITLB TOTAL     ACCESS:   33202837  HIT:   33202837  MISS:          0  HIT %:        100  MISS %:          0   MPKI: 0
ITLB LOAD TRANSLATION ACCESS:   33202837  HIT:   33202837  MISS:          0  HIT %:        100  MISS %:          0   MPKI: 0
ITLB PREFETCH  REQUESTED:          0  ISSUED:          0  USEFUL:          0  USELESS:          0
ITLB USEFUL LOAD PREFETCHES:          0 PREFETCH ISSUED TO LOWER LEVEL:          0  ACCURACY: -nan
ITLB TIMELY PREFETCHES:          0 LATE PREFETCHES: 0 DROPPED PREFETCHES: 0
ITLB PREFETCHES SAME FILL-ORIGIN LEVEL: 0 DIFFERENT FILL-ORIGIN LEVEL: 0
ITLB AVERAGE MISS LATENCY: -nan cycles
ITLB RQ	ACCESS:   33202837	FORWARD:          0	MERGED:          0	TO_CACHE:   33202837

DTLB TOTAL     ACCESS:   18093119  HIT:   18085830  MISS:       7289  HIT %:    99.9597  MISS %:   0.040286   MPKI: 0.036445
DTLB LOAD TRANSLATION ACCESS:   18093119  HIT:   18085830  MISS:       7289  HIT %:    99.9597  MISS %:   0.040286   MPKI: 0.036445
DTLB PREFETCH  REQUESTED:          0  ISSUED:          0  USEFUL:          0  USELESS:          0
DTLB USEFUL LOAD PREFETCHES:          0 PREFETCH ISSUED TO LOWER LEVEL:          0  ACCURACY: -nan
DTLB TIMELY PREFETCHES:          0 LATE PREFETCHES: 0 DROPPED PREFETCHES: 0
DTLB PREFETCHES SAME FILL-ORIGIN LEVEL: 0 DIFFERENT FILL-ORIGIN LEVEL: 0
DTLB AVERAGE MISS LATENCY: 148.521 cycles
DTLB RQ	ACCESS:   18630837	FORWARD:          0	MERGED:     537717	TO_CACHE:   18093120

STLB TOTAL     ACCESS:     430452  HIT:     423163  MISS:       7289  HIT %:    98.3067  MISS %:    1.69334   MPKI: 0.036445
STLB LOAD TRANSLATION ACCESS:       7289  HIT:          0  MISS:       7289  HIT %:          0  MISS %:        100   MPKI: 0.036445
STLB TRANSLATION FROM L1D PREFETCHER ACCESS:     423163  HIT:     423163  MISS:          0  HIT %:        100  MISS %:          0   MPKI: 0
STLB PREFETCH  REQUESTED:          0  ISSUED:          0  USEFUL:          0  USELESS:          0
STLB USEFUL LOAD PREFETCHES:          0 PREFETCH ISSUED TO LOWER LEVEL:          0  ACCURACY: -nan
STLB TIMELY PREFETCHES:          0 LATE PREFETCHES: 0 DROPPED PREFETCHES: 0
STLB PREFETCHES SAME FILL-ORIGIN LEVEL: 0 DIFFERENT FILL-ORIGIN LEVEL: 0
STLB AVERAGE MISS LATENCY: 139.521 cycles
STLB RQ	ACCESS:     492170	FORWARD:          0	MERGED:      61718	TO_CACHE:     430452

STLB Hit, L1D data hit: 0
STLB Hit, L2C data hit: 0
STLB Hit, LLC data hit: 0
STLB Hit, LLC data miss: 0
STLB STLB hints to L2: 0
L1D TOTAL     ACCESS:   19076282  HIT:   18609803  MISS:     466479  HIT %:    97.5547  MISS %:    2.44533   MPKI: 2.33239
L1D LOAD      ACCESS:   14416691  HIT:   14408736  MISS:       7955  HIT %:    99.9448  MISS %:  0.0551791   MPKI: 0.039775
L1D RFO       ACCESS:    4174852  HIT:    4174852  MISS:          0  HIT %:        100  MISS %:          0   MPKI: 0
L1D PREFETCH  ACCESS:     484739  HIT:      26215  MISS:     458524  HIT %:    5.40806  MISS %:    94.5919   MPKI: 2.29262
L1D PREFETCH  REQUESTED:     969762  ISSUED:     969762  USEFUL:     458519  USELESS:          0
L1D USEFUL LOAD PREFETCHES:     458519 PREFETCH ISSUED TO LOWER LEVEL:     458654  ACCURACY: 99.9706
L1D TIMELY PREFETCHES:     458519 LATE PREFETCHES: 129 DROPPED PREFETCHES: 0
L1D PREFETCHES SAME FILL-ORIGIN LEVEL: 458654 DIFFERENT FILL-ORIGIN LEVEL: 0
L1D AVERAGE MISS LATENCY: 231.102 cycles
L1D RQ	ACCESS:   29854288	FORWARD:          0	MERGED:   15398304	TO_CACHE:   14455984
L1D WQ	ACCESS:    4174853	FORWARD:          0	MERGED:          0	TO_CACHE:    4174853
L1D PQ	ACCESS:     484881	FORWARD:          0	MERGED:          0	TO_CACHE:     484881

L1D UNIQUE REGIONS ACCESSED: 0
L1D REGIONS CONFLICTS: 0
L1D Cross Page Prefetch Requests: 0
L1D Same Page Prefetch Requests: 484881
L1D ROI Sum of L1D PQ occupancy: 5373109
L1D PREFETCHES PUSHED FROM L2C: 0
L1I TOTAL     ACCESS:   33202836  HIT:   33202836  MISS:          0  HIT %:        100  MISS %:          0   MPKI: 0
L1I LOAD      ACCESS:   33202836  HIT:   33202836  MISS:          0  HIT %:        100  MISS %:          0   MPKI: 0
L1I PREFETCH  REQUESTED:          0  ISSUED:          0  USEFUL:          0  USELESS:          0
L1I USEFUL LOAD PREFETCHES:          0 PREFETCH ISSUED TO LOWER LEVEL:          0  ACCURACY: -nan
L1I TIMELY PREFETCHES:          0 LATE PREFETCHES: 0 DROPPED PREFETCHES: 0
L1I PREFETCHES SAME FILL-ORIGIN LEVEL: 0 DIFFERENT FILL-ORIGIN LEVEL: 0
L1I AVERAGE MISS LATENCY: -nan cycles
L1I RQ	ACCESS:   80069008	FORWARD:          0	MERGED:   46866171	TO_CACHE:   33202837

BTB TOTAL     ACCESS:   59708583  HIT:   59708580  MISS:          3  HIT %:        100  MISS %: 5.0244e-06   MPKI: 1.5e-05
BTB BRANCH_DIRECT_JUMP	ACCESS:          0  HIT:          0  MISS:          0
BTB BRANCH_INDIRECT	ACCESS:          0  HIT:          0  MISS:          0
BTB BRANCH_CONDITIONAL	ACCESS:   59708583  HIT:   59708580  MISS:          3
BTB BRANCH_DIRECT_CALL	ACCESS:          0  HIT:          0  MISS:          0
BTB BRANCH_INDIRECT_CALL	ACCESS:          0  HIT:          0  MISS:          0
BTB BRANCH_RETURN	ACCESS:          0  HIT:          0  MISS:          0
BTB BRANCH_OTHER ACCESS:          0  HIT:          0  MISS:          0

L2C TOTAL     ACCESS:     940247  HIT:     242797  MISS:     697450  HIT %:    25.8227  MISS %:    74.1773   MPKI: 3.48725
L2C LOAD      ACCESS:       7826  HIT:          0  MISS:       7826  HIT %:          0  MISS %:        100   MPKI: 0.03913
L2C DATA LOAD MPKI: 0.03913
L2C INSTRUCTION LOAD MPKI: 0
L2C PREFETCH  ACCESS:     458653  HIT:          0  MISS:     458653  HIT %:          0  MISS %:        100   MPKI: 2.29326
L2C DATA PREFETCH MPKI: 2.29326
L2C INSTRUCTION PREFETCH MPKI: 0
L2C WRITEBACK ACCESS:     466479  HIT:     236432  MISS:     230047  HIT %:    50.6844  MISS %:    49.3156   MPKI: 1.15023
L2C LOAD TRANSLATION ACCESS:       7289  HIT:       6365  MISS:        924  HIT %:    87.3234  MISS %:    12.6766   MPKI: 0.00462
L2C PREFETCH  REQUESTED:          0  ISSUED:          0  USEFUL:          0  USELESS:     452712
L2C USEFUL LOAD PREFETCHES:          0 PREFETCH ISSUED TO LOWER LEVEL:     458654  ACCURACY: 0
L2C TIMELY PREFETCHES:          0 LATE PREFETCHES: 0 DROPPED PREFETCHES: 0
L2C PREFETCHES SAME FILL-ORIGIN LEVEL: 0 DIFFERENT FILL-ORIGIN LEVEL: 0
L2C AVERAGE MISS LATENCY: 146.19 cycles
L2C RQ	ACCESS:      15115	FORWARD:          0	MERGED:          0	TO_CACHE:      15115
L2C WQ	ACCESS:     466479	FORWARD:          0	MERGED:          0	TO_CACHE:     466479
L2C PQ	ACCESS:     458654	FORWARD:          0	MERGED:          0	TO_CACHE:     458654

L2C Instructions Evicting Data 0
L2C Translations Evicting Data 914
L2C Data Evicting Data 465697
L2C Instructions Evicting Instructions 0
L2C Translations Evicting Instructions 0
L2C Data Evicting Instructions 0
L2C Instructions Evicting Translations 0
L2C Translations Evicting Translations 10
L2C Data Evicting Translations 782
L2C Dense regions hint from L2: 0
PSCL5 TOTAL     ACCESS:       7289  HIT:       7289  MISS:          0  HIT %:        100  MISS %:          0   MPKI: 0
PSCL5 LOAD TRANSLATION ACCESS:       7289  HIT:       7289  MISS:          0  HIT %:        100  MISS %:          0   MPKI: 0
PSCL5 PREFETCH  REQUESTED:          0  ISSUED:          0  USEFUL:          0  USELESS:          0
PSCL5 USEFUL LOAD PREFETCHES:          0 PREFETCH ISSUED TO LOWER LEVEL:          0  ACCURACY: -nan
PSCL5 TIMELY PREFETCHES:          0 LATE PREFETCHES: 0 DROPPED PREFETCHES: 0
PSCL5 PREFETCHES SAME FILL-ORIGIN LEVEL: 0 DIFFERENT FILL-ORIGIN LEVEL: 0

PSCL4 TOTAL     ACCESS:       7289  HIT:       7289  MISS:          0  HIT %:        100  MISS %:          0   MPKI: 0
PSCL4 LOAD TRANSLATION ACCESS:       7289  HIT:       7289  MISS:          0  HIT %:        100  MISS %:          0   MPKI: 0
PSCL4 PREFETCH  REQUESTED:          0  ISSUED:          0  USEFUL:          0  USELESS:          0
PSCL4 USEFUL LOAD PREFETCHES:          0 PREFETCH ISSUED TO LOWER LEVEL:          0  ACCURACY: -nan
PSCL4 TIMELY PREFETCHES:          0 LATE PREFETCHES: 0 DROPPED PREFETCHES: 0
PSCL4 PREFETCHES SAME FILL-ORIGIN LEVEL: 0 DIFFERENT FILL-ORIGIN LEVEL: 0

PSCL3 TOTAL     ACCESS:       7289  HIT:       7289  MISS:          0  HIT %:        100  MISS %:          0   MPKI: 0
PSCL3 LOAD TRANSLATION ACCESS:       7289  HIT:       7289  MISS:          0  HIT %:        100  MISS %:          0   MPKI: 0
PSCL3 PREFETCH  REQUESTED:          0  ISSUED:          0  USEFUL:          0  USELESS:          0
PSCL3 USEFUL LOAD PREFETCHES:          0 PREFETCH ISSUED TO LOWER LEVEL:          0  ACCURACY: -nan
PSCL3 TIMELY PREFETCHES:          0 LATE PREFETCHES: 0 DROPPED PREFETCHES: 0
PSCL3 PREFETCHES SAME FILL-ORIGIN LEVEL: 0 DIFFERENT FILL-ORIGIN LEVEL: 0

PSCL2 TOTAL     ACCESS:       7289  HIT:       7274  MISS:         15  HIT %:    99.7942  MISS %:    0.20579   MPKI: 7.5e-05
PSCL2 LOAD TRANSLATION ACCESS:       7289  HIT:       7274  MISS:         15  HIT %:    99.7942  MISS %:    0.20579   MPKI: 7.5e-05
PSCL2 PREFETCH  REQUESTED:          0  ISSUED:          0  USEFUL:          0  USELESS:          0
PSCL2 USEFUL LOAD PREFETCHES:          0 PREFETCH ISSUED TO LOWER LEVEL:          0  ACCURACY: -nan
PSCL2 TIMELY PREFETCHES:          0 LATE PREFETCHES: 0 DROPPED PREFETCHES: 0
PSCL2 PREFETCHES SAME FILL-ORIGIN LEVEL: 0 DIFFERENT FILL-ORIGIN LEVEL: 0

LLC TOTAL     ACCESS:     933959  HIT:     420312  MISS:     513647  HIT %:    45.0033  MISS %:    54.9967   MPKI: 2.56823
LLC LOAD      ACCESS:       7826  HIT:          0  MISS:       7826  HIT %:          0  MISS %:        100   MPKI: 0.03913
LLC PREFETCH  ACCESS:     458653  HIT:          0  MISS:     458653  HIT %:          0  MISS %:        100   MPKI: 2.29326
LLC WRITEBACK ACCESS:     466556  HIT:     420312  MISS:      46244  HIT %:    90.0882  MISS %:    9.91178   MPKI: 0.23122
LLC LOAD TRANSLATION ACCESS:        924  HIT:          0  MISS:        924  HIT %:          0  MISS %:        100   MPKI: 0.00462
LLC PREFETCH  REQUESTED:          0  ISSUED:          0  USEFUL:          0  USELESS:    1749566
LLC USEFUL LOAD PREFETCHES:          0 PREFETCH ISSUED TO LOWER LEVEL:    1835462  ACCURACY: 0
LLC TIMELY PREFETCHES:          0 LATE PREFETCHES: 0 DROPPED PREFETCHES: 0
LLC PREFETCHES SAME FILL-ORIGIN LEVEL: 0 DIFFERENT FILL-ORIGIN LEVEL: 0
LLC AVERAGE MISS LATENCY: 683.731 cycles
LLC RQ	ACCESS:      34324	FORWARD:          0	MERGED:          0	TO_CACHE:      34324
LLC WQ	ACCESS:    1866577	FORWARD:          0	MERGED:          0	TO_CACHE:    1866577
LLC PQ	ACCESS:    1835462	FORWARD:          0	MERGED:          0	TO_CACHE:    1835462

LLC Dense regions hint to LLC: 0

RAW hits: 0
Loads Generated: 29854289
Loads sent to L1D: 29854288
Stores Generated: 4174853
Stores sent to L1D: 4174853
Major fault: 0 Minor fault: 9127
Allocated PAGES: 36508

CPU 2 cumulative IPC: 1.16314 instructions: 200000000 cycles: 171948278
ITLB TOTAL     ACCESS:   33202827  HIT:   33202827  MISS:          0  HIT %:        100  MISS %:          0   MPKI: 0
ITLB LOAD TRANSLATION ACCESS:   33202827  HIT:   33202827  MISS:          0  HIT %:        100  MISS %:          0   MPKI: 0
ITLB PREFETCH  REQUESTED:          0  ISSUED:          0  USEFUL:          0  USELESS:          0
ITLB USEFUL LOAD PREFETCHES:          0 PREFETCH ISSUED TO LOWER LEVEL:          0  ACCURACY: -nan
ITLB TIMELY PREFETCHES:          0 LATE PREFETCHES: 0 DROPPED PREFETCHES: 0
ITLB PREFETCHES SAME FILL-ORIGIN LEVEL: 0 DIFFERENT FILL-ORIGIN LEVEL: 0
ITLB AVERAGE MISS LATENCY: -nan cycles
ITLB RQ	ACCESS:   33205993	FORWARD:          0	MERGED:          0	TO_CACHE:   33205993

DTLB TOTAL     ACCESS:   18095737  HIT:   18088448  MISS:       7289  HIT %:    99.9597  MISS %:  0.0402802   MPKI: 0.036445
DTLB LOAD TRANSLATION ACCESS:   18095737  HIT:   18088448  MISS:       7289  HIT %:    99.9597  MISS %:  0.0402802   MPKI: 0.036445
DTLB PREFETCH  REQUESTED:          0  ISSUED:          0  USEFUL:          0  USELESS:          0
DTLB USEFUL LOAD PREFETCHES:          0 PREFETCH ISSUED TO LOWER LEVEL:          0  ACCURACY: -nan
DTLB TIMELY PREFETCHES:          0 LATE PREFETCHES: 0 DROPPED PREFETCHES: 0
DTLB PREFETCHES SAME FILL-ORIGIN LEVEL: 0 DIFFERENT FILL-ORIGIN LEVEL: 0
DTLB AVERAGE MISS LATENCY: 147.973 cycles
DTLB RQ	ACCESS:   18634996	FORWARD:          0	MERGED:     537572	TO_CACHE:   18097424

STLB TOTAL     ACCESS:     431485  HIT:     424196  MISS:       7289  HIT %:    98.3107  MISS %:    1.68928   MPKI: 0.036445
STLB LOAD TRANSLATION ACCESS:       7289  HIT:          0  MISS:       7289  HIT %:          0  MISS %:        100   MPKI: 0.036445
STLB TRANSLATION FROM L1D PREFETCHER ACCESS:     424196  HIT:     424196  MISS:          0  HIT %:        100  MISS %:          0   MPKI: 0
STLB PREFETCH  REQUESTED:          0  ISSUED:          0  USEFUL:          0  USELESS:          0
STLB USEFUL LOAD PREFETCHES:          0 PREFETCH ISSUED TO LOWER LEVEL:          0  ACCURACY: -nan
STLB TIMELY PREFETCHES:          0 LATE PREFETCHES: 0 DROPPED PREFETCHES: 0
STLB PREFETCHES SAME FILL-ORIGIN LEVEL: 0 DIFFERENT FILL-ORIGIN LEVEL: 0
STLB AVERAGE MISS LATENCY: 138.971 cycles
STLB RQ	ACCESS:     491955	FORWARD:          0	MERGED:      60429	TO_CACHE:     431526

STLB Hit, L1D data hit: 0
STLB Hit, L2C data hit: 0
STLB Hit, LLC data hit: 0
STLB Hit, LLC data miss: 0
STLB STLB hints to L2: 0
L1D TOTAL     ACCESS:   19080008  HIT:   18613529  MISS:     466479  HIT %:    97.5551  MISS %:    2.44486   MPKI: 2.33239
L1D LOAD      ACCESS:   14420718  HIT:   14413019  MISS:       7699  HIT %:    99.9466  MISS %:  0.0533885   MPKI: 0.038495
L1D RFO       ACCESS:    4174852  HIT:    4174852  MISS:          0  HIT %:        100  MISS %:          0   MPKI: 0
L1D PREFETCH  ACCESS:     484438  HIT:      25658  MISS:     458780  HIT %:    5.29645  MISS %:    94.7036   MPKI: 2.2939
L1D PREFETCH  REQUESTED:     969328  ISSUED:     969328  USEFUL:     458818  USELESS:          0
L1D USEFUL LOAD PREFETCHES:     458818 PREFETCH ISSUED TO LOWER LEVEL:     459005  ACCURACY: 99.9593
L1D TIMELY PREFETCHES:     458818 LATE PREFETCHES: 175 DROPPED PREFETCHES: 0
L1D PREFETCHES SAME FILL-ORIGIN LEVEL: 459005 DIFFERENT FILL-ORIGIN LEVEL: 0
L1D AVERAGE MISS LATENCY: 230.777 cycles
L1D RQ	ACCESS:   29857109	FORWARD:          0	MERGED:   15397384	TO_CACHE:   14459725
L1D WQ	ACCESS:    4175271	FORWARD:          0	MERGED:          0	TO_CACHE:    4175271
L1D PQ	ACCESS:     484664	FORWARD:          0	MERGED:          0	TO_CACHE:     484664

L1D UNIQUE REGIONS ACCESSED: 0
L1D REGIONS CONFLICTS: 0
L1D Cross Page Prefetch Requests: 0
L1D Same Page Prefetch Requests: 484664
L1D ROI Sum of L1D PQ occupancy: 5369811
L1D PREFETCHES PUSHED FROM L2C: 0
L1I TOTAL     ACCESS:   33202826  HIT:   33202826  MISS:          0  HIT %:        100  MISS %:          0   MPKI: 0
L1I LOAD      ACCESS:   33202826  HIT:   33202826  MISS:          0  HIT %:        100  MISS %:          0   MPKI: 0
L1I PREFETCH  REQUESTED:          0  ISSUED:          0  USEFUL:          0  USELESS:          0
L1I USEFUL LOAD PREFETCHES:          0 PREFETCH ISSUED TO LOWER LEVEL:          0  ACCURACY: -nan
L1I TIMELY PREFETCHES:          0 LATE PREFETCHES: 0 DROPPED PREFETCHES: 0
L1I PREFETCHES SAME FILL-ORIGIN LEVEL: 0 DIFFERENT FILL-ORIGIN LEVEL: 0
L1I AVERAGE MISS LATENCY: -nan cycles
L1I RQ	ACCESS:   80076456	FORWARD:          0	MERGED:   46870463	TO_CACHE:   33205993

BTB TOTAL     ACCESS:   59708581  HIT:   59708578  MISS:          3  HIT %:        100  MISS %: 5.0244e-06   MPKI: 1.5e-05
BTB BRANCH_DIRECT_JUMP	ACCESS:          0  HIT:          0  MISS:          0
BTB BRANCH_INDIRECT	ACCESS:          0  HIT:          0  MISS:          0
BTB BRANCH_CONDITIONAL	ACCESS:   59708581  HIT:   59708578  MISS:          3
BTB BRANCH_DIRECT_CALL	ACCESS:          0  HIT:          0  MISS:          0
BTB BRANCH_INDIRECT_CALL	ACCESS:          0  HIT:          0  MISS:          0
BTB BRANCH_RETURN	ACCESS:          0  HIT:          0  MISS:          0
BTB BRANCH_OTHER ACCESS:          0  HIT:          0  MISS:          0

L2C TOTAL     ACCESS:     940247  HIT:     244118  MISS:     696129  HIT %:    25.9632  MISS %:    74.0368   MPKI: 3.48064
L2C LOAD      ACCESS:       7524  HIT:          0  MISS:       7524  HIT %:          0  MISS %:        100   MPKI: 0.03762
L2C DATA LOAD MPKI: 0.03762
L2C INSTRUCTION LOAD MPKI: 0
L2C PREFETCH  ACCESS:     458955  HIT:          0  MISS:     458955  HIT %:          0  MISS %:        100   MPKI: 2.29478
L2C DATA PREFETCH MPKI: 2.29478
L2C INSTRUCTION PREFETCH MPKI: 0
L2C WRITEBACK ACCESS:     466479  HIT:     237754  MISS:     228725  HIT %:    50.9678  MISS %:    49.0322   MPKI: 1.14362
L2C LOAD TRANSLATION ACCESS:       7289  HIT:       6364  MISS:        925  HIT %:    87.3096  MISS %:    12.6904   MPKI: 0.004625
L2C PREFETCH  REQUESTED:          0  ISSUED:          0  USEFUL:          0  USELESS:     452846
L2C USEFUL LOAD PREFETCHES:          0 PREFETCH ISSUED TO LOWER LEVEL:     459005  ACCURACY: 0
L2C TIMELY PREFETCHES:          0 LATE PREFETCHES: 0 DROPPED PREFETCHES: 0
L2C PREFETCHES SAME FILL-ORIGIN LEVEL: 0 DIFFERENT FILL-ORIGIN LEVEL: 0
L2C AVERAGE MISS LATENCY: 146.284 cycles
L2C RQ	ACCESS:      14817	FORWARD:          0	MERGED:          0	TO_CACHE:      14817
L2C WQ	ACCESS:     466530	FORWARD:          0	MERGED:          0	TO_CACHE:     466530
L2C PQ	ACCESS:     459005	FORWARD:          0	MERGED:          0	TO_CACHE:     459005

L2C Instructions Evicting Data 0
L2C Translations Evicting Data 926
L2C Data Evicting Data 465738
L2C Instructions Evicting Instructions 0
L2C Translations Evicting Instructions 0
L2C Data Evicting Instructions 0
L2C Instructions Evicting Translations 0
L2C Translations Evicting Translations 0
L2C Data Evicting Translations 792
L2C Dense regions hint from L2: 0
PSCL5 TOTAL     ACCESS:       7289  HIT:       7289  MISS:          0  HIT %:        100  MISS %:          0   MPKI: 0
PSCL5 LOAD TRANSLATION ACCESS:       7289  HIT:       7289  MISS:          0  HIT %:        100  MISS %:          0   MPKI: 0
PSCL5 PREFETCH  REQUESTED:          0  ISSUED:          0  USEFUL:          0  USELESS:          0
PSCL5 USEFUL LOAD PREFETCHES:          0 PREFETCH ISSUED TO LOWER LEVEL:          0  ACCURACY: -nan
PSCL5 TIMELY PREFETCHES:          0 LATE PREFETCHES: 0 DROPPED PREFETCHES: 0
PSCL5 PREFETCHES SAME FILL-ORIGIN LEVEL: 0 DIFFERENT FILL-ORIGIN LEVEL: 0

PSCL4 TOTAL     ACCESS:       7289  HIT:       7289  MISS:          0  HIT %:        100  MISS %:          0   MPKI: 0
PSCL4 LOAD TRANSLATION ACCESS:       7289  HIT:       7289  MISS:          0  HIT %:        100  MISS %:          0   MPKI: 0
PSCL4 PREFETCH  REQUESTED:          0  ISSUED:          0  USEFUL:          0  USELESS:          0
PSCL4 USEFUL LOAD PREFETCHES:          0 PREFETCH ISSUED TO LOWER LEVEL:          0  ACCURACY: -nan
PSCL4 TIMELY PREFETCHES:          0 LATE PREFETCHES: 0 DROPPED PREFETCHES: 0
PSCL4 PREFETCHES SAME FILL-ORIGIN LEVEL: 0 DIFFERENT FILL-ORIGIN LEVEL: 0

PSCL3 TOTAL     ACCESS:       7289  HIT:       7289  MISS:          0  HIT %:        100  MISS %:          0   MPKI: 0
PSCL3 LOAD TRANSLATION ACCESS:       7289  HIT:       7289  MISS:          0  HIT %:        100  MISS %:          0   MPKI: 0
PSCL3 PREFETCH  REQUESTED:          0  ISSUED:          0  USEFUL:          0  USELESS:          0
[...]
PSCL2 PREFETCH  REQUESTED:          0  ISSUED:          0  USEFUL:          0  USELESS:          0
PSCL2 USEFUL LOAD PREFETCHES:          0 PREFETCH ISSUED TO LOWER LEVEL:          0  ACCURACY: -nan
PSCL2 TIMELY PREFETCHES:          0 LATE PREFETCHES: 0 DROPPED PREFETCHES: 0
PSCL2 PREFETCHES SAME FILL-ORIGIN LEVEL: 0 DIFFERENT FILL-ORIGIN LEVEL: 0

LLC TOTAL     ACCESS:     934069  HIT:     421035  MISS:     513034  HIT %:    45.0754  MISS %:    54.9246   MPKI: 2.56517
LLC LOAD      ACCESS:       7524  HIT:          0  MISS:       7524  HIT %:          0  MISS %:        100   MPKI: 0.03762
LLC PREFETCH  ACCESS:     458955  HIT:          0  MISS:     458955  HIT %:          0  MISS %:        100   MPKI: 2.29478
LLC WRITEBACK ACCESS:     466665  HIT:     421031  MISS:      45634  HIT %:    90.2213  MISS %:    9.77875   MPKI: 0.22817
LLC LOAD TRANSLATION ACCESS:        925  HIT:          4  MISS:        921  HIT %:   0.432432  MISS %:    99.5676   MPKI: 0.004605
LLC PREFETCH  REQUESTED:          0  ISSUED:          0  USEFUL:          0  USELESS:    1749566
LLC USEFUL LOAD PREFETCHES:          0 PREFETCH ISSUED TO LOWER LEVEL:    1835462  ACCURACY: 0
LLC TIMELY PREFETCHES:          0 LATE PREFETCHES: 0 DROPPED PREFETCHES: 0
LLC PREFETCHES SAME FILL-ORIGIN LEVEL: 0 DIFFERENT FILL-ORIGIN LEVEL: 0
LLC AVERAGE MISS LATENCY: 684.548 cycles
LLC RQ	ACCESS:      34324	FORWARD:          0	MERGED:          0	TO_CACHE:      34324
LLC WQ	ACCESS:    1866577	FORWARD:          0	MERGED:          0	TO_CACHE:    1866577
LLC PQ	ACCESS:    1835462	FORWARD:          0	MERGED:          0	TO_CACHE:    1835462

LLC Dense regions hint to LLC: 0

RAW hits: 0
Loads Generated: 29854288
Loads sent to L1D: 29854288
Stores Generated: 4174853
Stores sent to L1D: 4174852
Major fault: 0 Minor fault: 9127
Allocated PAGES: 36508

CPU 3 cumulative IPC: 1.16306 instructions: 200000001 cycles: 171959498
ITLB TOTAL     ACCESS:   33202828  HIT:   33202828  MISS:          0  HIT %:        100  MISS %:          0   MPKI: 0
ITLB LOAD TRANSLATION ACCESS:   33202828  HIT:   33202828  MISS:          0  HIT %:        100  MISS %:          0   MPKI: 0
ITLB PREFETCH  REQUESTED:          0  ISSUED:          0  USEFUL:          0  USELESS:          0
ITLB USEFUL LOAD PREFETCHES:          0 PREFETCH ISSUED TO LOWER LEVEL:          0  ACCURACY: -nan
ITLB TIMELY PREFETCHES:          0 LATE PREFETCHES: 0 DROPPED PREFETCHES: 0
ITLB PREFETCHES SAME FILL-ORIGIN LEVEL: 0 DIFFERENT FILL-ORIGIN LEVEL: 0
ITLB AVERAGE MISS LATENCY: -nan cycles
ITLB RQ	ACCESS:   33203798	FORWARD:          0	MERGED:          0	TO_CACHE:   33203798

DTLB TOTAL     ACCESS:   18091819  HIT:   18084530  MISS:       7289  HIT %:    99.9597  MISS %:  0.0402889   MPKI: 0.036445
DTLB LOAD TRANSLATION ACCESS:   18091819  HIT:   18084530  MISS:       7289  HIT %:    99.9597  MISS %:  0.0402889   MPKI: 0.036445
DTLB PREFETCH  REQUESTED:          0  ISSUED:          0  USEFUL:          0  USELESS:          0
DTLB USEFUL LOAD PREFETCHES:          0 PREFETCH ISSUED TO LOWER LEVEL:          0  ACCURACY: -nan
DTLB TIMELY PREFETCHES:          0 LATE PREFETCHES: 0 DROPPED PREFETCHES: 0
DTLB PREFETCHES SAME FILL-ORIGIN LEVEL: 0 DIFFERENT FILL-ORIGIN LEVEL: 0
DTLB AVERAGE MISS LATENCY: 148.016 cycles
DTLB RQ	ACCESS:   18630298	FORWARD:          0	MERGED:     537949	TO_CACHE:   18092349

STLB TOTAL     ACCESS:     429985  HIT:     422696  MISS:       7289  HIT %:    98.3048  MISS %:    1.69518   MPKI: 0.036445
STLB LOAD TRANSLATION ACCESS:       7289  HIT:          0  MISS:       7289  HIT %:          0  MISS %:        100   MPKI: 0.036445
STLB TRANSLATION FROM L1D PREFETCHER ACCESS:     422696  HIT:     422696  MISS:          0  HIT %:        100  MISS %:          0   MPKI: 0
STLB PREFETCH  REQUESTED:          0  ISSUED:          0  USEFUL:          0  USELESS:          0
STLB USEFUL LOAD PREFETCHES:          0 PREFETCH ISSUED TO LOWER LEVEL:          0  ACCURACY: -nan
STLB TIMELY PREFETCHES:          0 LATE PREFETCHES: 0 DROPPED PREFETCHES: 0
STLB PREFETCHES SAME FILL-ORIGIN LEVEL: 0 DIFFERENT FILL-ORIGIN LEVEL: 0
STLB AVERAGE MISS LATENCY: 139.015 cycles
STLB RQ	ACCESS:     491042	FORWARD:          0	MERGED:      61042	TO_CACHE:     430000

STLB Hit, L1D data hit: 0
STLB Hit, L2C data hit: 0
STLB Hit, LLC data hit: 0
STLB Hit, LLC data miss: 0
STLB STLB hints to L2: 0
L1D TOTAL     ACCESS:   19073019  HIT:   18606541  MISS:     466478  HIT %:    97.5543  MISS %:    2.44575   MPKI: 2.33239
L1D LOAD      ACCESS:   14414575  HIT:   14406477  MISS:       8098  HIT %:    99.9438  MISS %:  0.0561792   MPKI: 0.04049
L1D RFO       ACCESS:    4174852  HIT:    4174852  MISS:          0  HIT %:        100  MISS %:          0   MPKI: 0
L1D PREFETCH  ACCESS:     483592  HIT:      25212  MISS:     458380  HIT %:    5.21349  MISS %:    94.7865   MPKI: 2.2919
L1D PREFETCH  REQUESTED:     967504  ISSUED:     967504  USEFUL:     458389  USELESS:          0
L1D USEFUL LOAD PREFETCHES:     458389 PREFETCH ISSUED TO LOWER LEVEL:     458519  ACCURACY: 99.9716
L1D TIMELY PREFETCHES:     458389 LATE PREFETCHES: 118 DROPPED PREFETCHES: 0
L1D PREFETCHES SAME FILL-ORIGIN LEVEL: 458519 DIFFERENT FILL-ORIGIN LEVEL: 0
L1D AVERAGE MISS LATENCY: 230.55 cycles
L1D RQ	ACCESS:   29855148	FORWARD:          0	MERGED:   15399840	TO_CACHE:   14455308
L1D WQ	ACCESS:    4174990	FORWARD:          0	MERGED:          0	TO_CACHE:    4174990
L1D PQ	ACCESS:     483752	FORWARD:          0	MERGED:          0	TO_CACHE:     483752

L1D UNIQUE REGIONS ACCESSED: 0
L1D REGIONS CONFLICTS: 0
L1D Cross Page Prefetch Requests: 0
L1D Same Page Prefetch Requests: 483752
L1D ROI Sum of L1D PQ occupancy: 5361186
L1D PREFETCHES PUSHED FROM L2C: 0
L1I TOTAL     ACCESS:   33202827  HIT:   33202827  MISS:          0  HIT %:        100  MISS %:          0   MPKI: 0
L1I LOAD      ACCESS:   33202827  HIT:   33202827  MISS:          0  HIT %:        100  MISS %:          0   MPKI: 0
L1I PREFETCH  REQUESTED:          0  ISSUED:          0  USEFUL:          0  USELESS:          0
L1I USEFUL LOAD PREFETCHES:          0 PREFETCH ISSUED TO LOWER LEVEL:          0  ACCURACY: -nan
L1I TIMELY PREFETCHES:          0 LATE PREFETCHES: 0 DROPPED PREFETCHES: 0
L1I PREFETCHES SAME FILL-ORIGIN LEVEL: 0 DIFFERENT FILL-ORIGIN LEVEL: 0
L1I AVERAGE MISS LATENCY: -nan cycles
L1I RQ	ACCESS:   80071280	FORWARD:          0	MERGED:   46867482	TO_CACHE:   33203798

BTB TOTAL     ACCESS:   59708582  HIT:   59708578  MISS:          4  HIT %:        100  MISS %: 6.6992e-06   MPKI: 2e-05
BTB BRANCH_DIRECT_JUMP	ACCESS:          0  HIT:          0  MISS:          0
BTB BRANCH_INDIRECT	ACCESS:          0  HIT:          0  MISS:          0
BTB BRANCH_CONDITIONAL	ACCESS:   59708582  HIT:   59708578  MISS:          4
BTB BRANCH_DIRECT_CALL	ACCESS:          0  HIT:          0  MISS:          0
BTB BRANCH_INDIRECT_CALL	ACCESS:          0  HIT:          0  MISS:          0
BTB BRANCH_RETURN	ACCESS:          0  HIT:          0  MISS:          0
BTB BRANCH_OTHER ACCESS:          0  HIT:          0  MISS:          0

L2C TOTAL     ACCESS:     940245  HIT:     246105  MISS:     694140  HIT %:    26.1746  MISS %:    73.8254   MPKI: 3.4707
L2C LOAD      ACCESS:       7980  HIT:          0  MISS:       7980  HIT %:          0  MISS %:        100   MPKI: 0.0399
L2C DATA LOAD MPKI: 0.0399
L2C INSTRUCTION LOAD MPKI: 0
L2C PREFETCH  ACCESS:     458498  HIT:          0  MISS:     458498  HIT %:          0  MISS %:        100   MPKI: 2.29249
L2C DATA PREFETCH MPKI: 2.29249
L2C INSTRUCTION PREFETCH MPKI: 0
L2C WRITEBACK ACCESS:     466478  HIT:     239741  MISS:     226737  HIT %:    51.3938  MISS %:    48.6062   MPKI: 1.13368
L2C LOAD TRANSLATION ACCESS:       7289  HIT:       6364  MISS:        925  HIT %:    87.3096  MISS %:    12.6904   MPKI: 0.004625
L2C PREFETCH  REQUESTED:          0  ISSUED:          0  USEFUL:          0  USELESS:     452390
L2C USEFUL LOAD PREFETCHES:          0 PREFETCH ISSUED TO LOWER LEVEL:     458519  ACCURACY: 0
L2C TIMELY PREFETCHES:          0 LATE PREFETCHES: 0 DROPPED PREFETCHES: 0
L2C PREFETCHES SAME FILL-ORIGIN LEVEL: 0 DIFFERENT FILL-ORIGIN LEVEL: 0
L2C AVERAGE MISS LATENCY: 146.497 cycles
L2C RQ	ACCESS:      15271	FORWARD:          0	MERGED:          0	TO_CACHE:      15271
L2C WQ	ACCESS:     466499	FORWARD:          0	MERGED:          0	TO_CACHE:     466499
L2C PQ	ACCESS:     458519	FORWARD:          0	MERGED:          0	TO_CACHE:     458519

L2C Instructions Evicting Data 0
L2C Translations Evicting Data 918
L2C Data Evicting Data 465737
L2C Instructions Evicting Instructions 0
L2C Translations Evicting Instructions 0
L2C Data Evicting Instructions 0
L2C Instructions Evicting Translations 0
L2C Translations Evicting Translations 8
L2C Data Evicting Translations 762
L2C Dense regions hint from L2: 0
PSCL5 TOTAL     ACCESS:       7289  HIT:       7289  MISS:          0  HIT %:        100  MISS %:          0   MPKI: 0
PSCL5 LOAD TRANSLATION ACCESS:       7289  HIT:       7289  MISS:          0  HIT %:        100  MISS %:          0   MPKI: 0
PSCL5 PREFETCH  REQUESTED:          0  ISSUED:          0  USEFUL:          0  USELESS:          0
PSCL5 USEFUL LOAD PREFETCHES:          0 PREFETCH ISSUED TO LOWER LEVEL:          0  ACCURACY: -nan
PSCL5 TIMELY PREFETCHES:          0 LATE PREFETCHES: 0 DROPPED PREFETCHES: 0
PSCL5 PREFETCHES SAME FILL-ORIGIN LEVEL: 0 DIFFERENT FILL-ORIGIN LEVEL: 0

PSCL4 TOTAL     ACCESS:       7289  HIT:       7289  MISS:          0  HIT %:        100  MISS %:          0   MPKI: 0
PSCL4 LOAD TRANSLATION ACCESS:       7289  HIT:       7289  MISS:          0  HIT %:        100  MISS %:          0   MPKI: 0
PSCL4 PREFETCH  REQUESTED:          0  ISSUED:          0  USEFUL:          0  USELESS:          0
PSCL4 USEFUL LOAD PREFETCHES:          0 PREFETCH ISSUED TO LOWER LEVEL:          0  ACCURACY: -nan
PSCL4 TIMELY PREFETCHES:          0 LATE PREFETCHES: 0 DROPPED PREFETCHES: 0
PSCL4 PREFETCHES SAME FILL-ORIGIN LEVEL: 0 DIFFERENT FILL-ORIGIN LEVEL: 0

PSCL3 TOTAL     ACCESS:       7289  HIT:       7289  MISS:          0  HIT %:        100  MISS %:          0   MPKI: 0
PSCL3 LOAD TRANSLATION ACCESS:       7289  HIT:       7289  MISS:          0  HIT %:        100  MISS %:          0   MPKI: 0
PSCL3 PREFETCH  REQUESTED:          0  ISSUED:          0  USEFUL:          0  USELESS:          0
PSCL3 USEFUL LOAD PREFETCHES:          0 PREFETCH ISSUED TO LOWER LEVEL:          0  ACCURACY: -nan
PSCL3 TIMELY PREFETCHES:          0 LATE PREFETCHES: 0 DROPPED PREFETCHES: 0
PSCL3 PREFETCHES SAME FILL-ORIGIN LEVEL: 0 DIFFERENT FILL-ORIGIN LEVEL: 0

PSCL2 TOTAL     ACCESS:       7289  HIT:       7274  MISS:         15  HIT %:    99.7942  MISS %:    0.20579   MPKI: 7.5e-05
PSCL2 LOAD TRANSLATION ACCESS:       7289  HIT:       7274  MISS:         15  HIT %:    99.7942  MISS %:    0.20579   MPKI: 7.5e-05
PSCL2 PREFETCH  REQUESTED:          0  ISSUED:          0  USEFUL:          0  USELESS:          0
PSCL2 USEFUL LOAD PREFETCHES:          0 PREFETCH ISSUED TO LOWER LEVEL:          0  ACCURACY: -nan
PSCL2 TIMELY PREFETCHES:          0 LATE PREFETCHES: 0 DROPPED PREFETCHES: 0
PSCL2 PREFETCHES SAME FILL-ORIGIN LEVEL: 0 DIFFERENT FILL-ORIGIN LEVEL: 0

LLC TOTAL     ACCESS:     933987  HIT:     421094  MISS:     512893  HIT %:    45.0856  MISS %:    54.9144   MPKI: 2.56446
LLC LOAD      ACCESS:       7980  HIT:          0  MISS:       7980  HIT %:          0  MISS %:        100   MPKI: 0.0399
LLC PREFETCH  ACCESS:     458498  HIT:          0  MISS:     458498  HIT %:          0  MISS %:        100   MPKI: 2.29249
LLC WRITEBACK ACCESS:     466584  HIT:     421094  MISS:      45490  HIT %:    90.2504  MISS %:    9.74958   MPKI: 0.22745
LLC LOAD TRANSLATION ACCESS:        925  HIT:          0  MISS:        925  HIT %:          0  MISS %:        100   MPKI: 0.004625
LLC PREFETCH  REQUESTED:          0  ISSUED:          0  USEFUL:          0  USELESS:    1749566
LLC USEFUL LOAD PREFETCHES:          0 PREFETCH ISSUED TO LOWER LEVEL:    1835462  ACCURACY: 0
LLC TIMELY PREFETCHES:          0 LATE PREFETCHES: 0 DROPPED PREFETCHES: 0
LLC PREFETCHES SAME FILL-ORIGIN LEVEL: 0 DIFFERENT FILL-ORIGIN LEVEL: 0
LLC AVERAGE MISS LATENCY: 684.736 cycles
LLC RQ	ACCESS:      34324	FORWARD:          0	MERGED:          0	TO_CACHE:      34324
LLC WQ	ACCESS:    1866577	FORWARD:          0	MERGED:          0	TO_CACHE:    1866577
LLC PQ	ACCESS:    1835462	FORWARD:          0	MERGED:          0	TO_CACHE:    1835462

LLC Dense regions hint to LLC: 0

RAW hits: 0
Loads Generated: 29854288
Loads sent to L1D: 29854288
Stores Generated: 4174853
Stores sent to L1D: 4174852
Major fault: 0 Minor fault: 9127
Allocated PAGES: 36508

stream: 
stream:times selected: 657329
stream:pref_filled: 571271
stream:pref_useful: 571260
stream:pref_late: 120
stream:misses: 17
stream:misses_by_poll: 0

CS: 
CS:times selected: 657322
CS:pref_filled: 2030
CS:pref_useful: 2030
CS:pref_late: 8
CS:misses: 46665
CS:misses_by_poll: 4

CPLX: 
CPLX:times selected: 5
CPLX:pref_filled: 0
CPLX:pref_useful: 0
CPLX:pref_late: 0
CPLX:misses: 0
CPLX:misses_by_poll: 0

NL_L1: 
NL:times selected: 0
NL:pref_filled: 0
NL:pref_useful: 0
NL:pref_late: 0
NL:misses: 0
NL:misses_by_poll: 0

total selections: 1314656
total_filled: 459155
total_useful: 459150
total_late: 128
total_polluted: 4
total_misses_after_warmup: 43335
conflicts: 0
Degree Incremented Times: 454711
Degree Decremented Times: 0

L1 IP Table Write Accesses: 57834383
L1 IP Table Read Accesses: 57834383
L1 RST Write Accesses: 2165063
L1 RST Read Accesses: 4330126
L1 CSPT Write Accesses: 2165063
L1 CSPT Read Accesses: 2165063
L1 RR Filter Tag Write Accesses: 1938558
L1 RR Filter Tag Read Accesses: 378834115
L1 IP Table Tag Write Accesses: 57834383
L1 IP Table Tag Read Accesses: 57834383
L1 RST Tag Write Accesses: 0
L1 RST Tag Read Accesses: 19481933
L1 RR Filter Write Accesses: 0
L1 RR Filter Read Accesses: 18575979
test: 36138

stream: 
stream:times selected: 657113
stream:pref_filled: 456710
stream:pref_useful: 456705
stream:pref_late: 121
stream:misses: 23
stream:misses_by_poll: 0

CS: 
CS:times selected: 657106
CS:pref_filled: 1814
CS:pref_useful: 1814
CS:pref_late: 6
CS:misses: 263114
CS:misses_by_poll: 5

CPLX: 
CPLX:times selected: 5
CPLX:pref_filled: 0
CPLX:pref_useful: 0
CPLX:pref_late: 0
CPLX:misses: 9
CPLX:misses_by_poll: 0

NL_L1: 
NL:times selected: 0
NL:pref_filled: 0
NL:pref_useful: 0
NL:pref_late: 0
NL:misses: 0
NL:misses_by_poll: 0

total selections: 1314224
total_filled: 458524
total_useful: 458519
total_late: 129
total_polluted: 5
total_misses_after_warmup: 47248
conflicts: 0
Degree Incremented Times: 454711
Degree Decremented Times: 0

L1 IP Table Write Accesses: 57834383
L1 IP Table Read Accesses: 57834383
L1 RST Write Accesses: 2165063
L1 RST Read Accesses: 4330126
L1 CSPT Write Accesses: 2165063
L1 CSPT Read Accesses: 2165063
L1 RR Filter Tag Write Accesses: 1938558
L1 RR Filter Tag Read Accesses: 378834115
L1 IP Table Tag Write Accesses: 57834383
L1 IP Table Tag Read Accesses: 57834383
L1 RST Tag Write Accesses: 0
L1 RST Tag Read Accesses: 19481933
L1 RR Filter Write Accesses: 0
L1 RR Filter Read Accesses: 18575979
test: 36138

stream: 
stream:times selected: 657298
stream:pref_filled: 457159
stream:pref_useful: 457148
stream:pref_late: 167
stream:misses: 27
stream:misses_by_poll: 0

CS: 
CS:times selected: 657291
CS:pref_filled: 1670
CS:pref_useful: 1670
CS:pref_late: 7
CS:misses: 263760
CS:misses_by_poll: 6

CPLX: 
CPLX:times selected: 5
CPLX:pref_filled: 0
CPLX:pref_useful: 0
CPLX:pref_late: 0
CPLX:misses: 9
CPLX:misses_by_poll: 0

NL_L1: 
NL:times selected: 0
NL:pref_filled: 0
NL:pref_useful: 0
NL:pref_late: 0
NL:misses: 0
NL:misses_by_poll: 0

total selections: 1314594
total_filled: 458829
total_useful: 458818
total_late: 175
total_polluted: 6
total_misses_after_warmup: 45380
conflicts: 0
Degree Incremented Times: 454711
Degree Decremented Times: 0

L1 IP Table Write Accesses: 57834383
L1 IP Table Read Accesses: 57834383
L1 RST Write Accesses: 2165063
L1 RST Read Accesses: 4330126
L1 CSPT Write Accesses: 2165063
L1 CSPT Read Accesses: 2165063
L1 RR Filter Tag Write Accesses: 1938558
L1 RR Filter Tag Read Accesses: 378834115
L1 IP Table Tag Write Accesses: 57834383
L1 IP Table Tag Read Accesses: 57834383
L1 RST Tag Write Accesses: 0
L1 RST Tag Read Accesses: 19481933
L1 RR Filter Write Accesses: 0
L1 RR Filter Read Accesses: 18575979
test: 36138

stream: 
stream:times selected: 657135
stream:pref_filled: 456382
stream:pref_useful: 456371
stream:pref_late: 113
stream:misses: 23
stream:misses_by_poll: 0

CS: 
CS:times selected: 657128
CS:pref_filled: 2018
CS:pref_useful: 2018
CS:pref_late: 4
CS:misses: 266919
CS:misses_by_poll: 7

CPLX: 
CPLX:times selected: 5
CPLX:pref_filled: 0
CPLX:pref_useful: 0
CPLX:pref_late: 0
CPLX:misses: 9
CPLX:misses_by_poll: 0

NL_L1: 
NL:times selected: 0
NL:pref_filled: 0
NL:pref_useful: 0
NL:pref_late: 0
NL:misses: 0
NL:misses_by_poll: 0

total selections: 1314268
total_filled: 458400
total_useful: 458389
total_late: 118
total_polluted: 7
total_misses_after_warmup: 48420
conflicts: 0
Degree Incremented Times: 454711
Degree Decremented Times: 0

L1 IP Table Write Accesses: 57834383
L1 IP Table Read Accesses: 57834383
L1 RST Write Accesses: 2165063
L1 RST Read Accesses: 4330126
L1 CSPT Write Accesses: 2165063
L1 CSPT Read Accesses: 2165063
L1 RR Filter Tag Write Accesses: 1938558
L1 RR Filter Tag Read Accesses: 378834115
L1 IP Table Tag Write Accesses: 57834383
L1 IP Table Tag Read Accesses: 57834383
L1 RST Tag Write Accesses: 0
L1 RST Tag Read Accesses: 19481933
L1 RR Filter Write Accesses: 0
L1 RR Filter Read Accesses: 18575979
test: 36138

DRAM Statistics
 CHANNEL 0
 RQ ROW_BUFFER_HIT:     351342  ROW_BUFFER_MISS:    1518436
 DBUS_CONGESTED:       2020
 WQ ROW_BUFFER_HIT:    1166315  ROW_BUFFER_MISS:     707183  FULL:      16547

 AVG_CONGESTED_CYCLE: 5
 All warmup complete: 5
Channel 0 Bank busy for read cycles: 0
Channel 0 Bank busy for write cycles: 0
Channel 0
Rank 0
0banks busy for read cycles: 540343
0banks busy for write cycles: 936
1banks busy for read cycles: 46684871
1banks busy for write cycles: 505943
2banks busy for read cycles: 42666615
2banks busy for write cycles: 566218
3banks busy for read cycles: 20739689
3banks busy for write cycles: 647101
4banks busy for read cycles: 5547283
4banks busy for write cycles: 703740
5banks busy for read cycles: 1028948
5banks busy for write cycles: 820378
6banks busy for read cycles: 756489
6banks busy for write cycles: 1068321
7banks busy for read cycles: 2360884
7banks busy for write cycles: 3679496
8banks busy for read cycles: 557929
8banks busy for write cycles: 43089866

CPU 0 Branch Prediction Accuracy: 99.6667% MPKI: 1.06472 Average ROB Occupancy at Mispredict: 26.6629
Branch types
NOT_BRANCH: 136144734 68.0583%
BRANCH_DIRECT_JUMP: 0 0%
BRANCH_INDIRECT: 0 0%
BRANCH_CONDITIONAL: 63896575 31.9417%
BRANCH_DIRECT_CALL: 0 0%
BRANCH_INDIRECT_CALL: 0 0%
BRANCH_RETURN: 0 0%
BRANCH_OTHER: 0 0%


CPU 1 Branch Prediction Accuracy: 99.6666% MPKI: 1.06487 Average ROB Occupancy at Mispredict: 26.8332
Branch types
NOT_BRANCH: 136116574 68.0583%
BRANCH_DIRECT_JUMP: 0 0%
BRANCH_INDIRECT: 0 0%
BRANCH_CONDITIONAL: 63883435 31.9417%
BRANCH_DIRECT_CALL: 0 0%
BRANCH_INDIRECT_CALL: 0 0%
BRANCH_RETURN: 0 0%
BRANCH_OTHER: 0 0%


CPU 2 Branch Prediction Accuracy: 99.6666% MPKI: 1.0648 Average ROB Occupancy at Mispredict: 26.7465
Branch types
NOT_BRANCH: 136129540 68.0583%
BRANCH_DIRECT_JUMP: 0 0%
BRANCH_INDIRECT: 0 0%
BRANCH_CONDITIONAL: 63889499 31.9417%
BRANCH_DIRECT_CALL: 0 0%
BRANCH_INDIRECT_CALL: 0 0%
BRANCH_RETURN: 0 0%
BRANCH_OTHER: 0 0%


CPU 3 Branch Prediction Accuracy: 99.6666% MPKI: 1.06487 Average ROB Occupancy at Mispredict: 26.8388
Branch types
NOT_BRANCH: 136120568 68.0583%
BRANCH_DIRECT_JUMP: 0 0%
BRANCH_INDIRECT: 0 0%
BRANCH_CONDITIONAL: 63885294 31.9417%
BRANCH_DIRECT_CALL: 0 0%
BRANCH_INDIRECT_CALL: 0 0%
BRANCH_RETURN: 0 0%
BRANCH_OTHER: 0 0%

DRAM PAGES: 1048576
Allocated PAGES: 36508
