
*** ChampSim Multicore Out-of-Order Simulator ***

Warmup Instructions: 50000000
Simulation Instructions: 200000000
Number of CPUs: 4
LLC sets: 8192
LLC ways: 16
Off-chip DRAM Size: 4096 MB Channels: 1 Width: 64-bit Data Rate: 6400 MT/s
CPU 0 runs ./traces/ligra/ligra_CF.com-lj.ungraph.gcc_6.3.0_O3.drop_10750M.length_250M.champsimtrace.xz
.xz
CPU 1 runs ./traces/ligra/ligra_CF.com-lj.ungraph.gcc_6.3.0_O3.drop_10750M.length_250M.champsimtrace.xz
.xz
CPU 2 runs ./traces/ligra/ligra_CF.com-lj.ungraph.gcc_6.3.0_O3.drop_10750M.length_250M.champsimtrace.xz
.xz
CPU 3 runs ./traces/ligra/ligra_CF.com-lj.ungraph.gcc_6.3.0_O3.drop_10750M.length_250M.champsimtrace.xz
.xz
BTB has LRU replacement policy
ITLB has LRU replacement policy
DTLB has LRU replacement policy
STLB has LRU replacement policy
L1I has LRU replacement policy
IP Table Entries: 1024
CSPT Entries: 128
RR_ENTRIES: 32
RST_ENTRIES: 8
L1D has LRU replacement policy
Initialize SRRIP state for L2C
Initialize DRRIP state for LLC
BTB has LRU replacement policy
ITLB has LRU replacement policy
DTLB has LRU replacement policy
STLB has LRU replacement policy
L1I has LRU replacement policy
IP Table Entries: 1024
CSPT Entries: 128
RR_ENTRIES: 32
RST_ENTRIES: 8
L1D has LRU replacement policy
Initialize SRRIP state for L2C
Initialize DRRIP state for LLC
BTB has LRU replacement policy
ITLB has LRU replacement policy
DTLB has LRU replacement policy
STLB has LRU replacement policy
L1I has LRU replacement policy
IP Table Entries: 1024
CSPT Entries: 128
RR_ENTRIES: 32
RST_ENTRIES: 8
L1D has LRU replacement policy
Initialize SRRIP state for L2C
Initialize DRRIP state for LLC
BTB has LRU replacement policy
ITLB has LRU replacement policy
DTLB has LRU replacement policy
STLB has LRU replacement policy
L1I has LRU replacement policy
IP Table Entries: 1024
CSPT Entries: 128
RR_ENTRIES: 32
RST_ENTRIES: 8
L1D has LRU replacement policy
Initialize SRRIP state for L2C
Initialize DRRIP state for LLC
Heartbeat CPU 0 instructions: 10000000 cycles: 2845180 heartbeat IPC: 3.51472 cumulative IPC: 3.51472 (Simulation time: 0 hr 2 min 50 sec) 
Heartbeat CPU 3 instructions: 10000000 cycles: 2845181 heartbeat IPC: 3.51471 cumulative IPC: 3.51471 (Simulation time: 0 hr 2 min 50 sec) 
Heartbeat CPU 1 instructions: 10000000 cycles: 2845182 heartbeat IPC: 3.51471 cumulative IPC: 3.51471 (Simulation time: 0 hr 2 min 50 sec) 
Heartbeat CPU 2 instructions: 10000000 cycles: 2845185 heartbeat IPC: 3.51471 cumulative IPC: 3.51471 (Simulation time: 0 hr 2 min 50 sec) 
Heartbeat CPU 2 instructions: 20000001 cycles: 5692194 heartbeat IPC: 3.51246 cumulative IPC: 3.51358 (Simulation time: 0 hr 5 min 46 sec) 
Heartbeat CPU 0 instructions: 20000001 cycles: 5692196 heartbeat IPC: 3.51245 cumulative IPC: 3.51358 (Simulation time: 0 hr 5 min 46 sec) 
Heartbeat CPU 1 instructions: 20000001 cycles: 5692197 heartbeat IPC: 3.51245 cumulative IPC: 3.51358 (Simulation time: 0 hr 5 min 46 sec) 
Heartbeat CPU 3 instructions: 20000001 cycles: 5692197 heartbeat IPC: 3.51245 cumulative IPC: 3.51358 (Simulation time: 0 hr 5 min 46 sec) 
Heartbeat CPU 0 instructions: 30000002 cycles: 8538729 heartbeat IPC: 3.51305 cumulative IPC: 3.5134 (Simulation time: 0 hr 8 min 33 sec) 
Heartbeat CPU 2 instructions: 30000002 cycles: 8538730 heartbeat IPC: 3.51304 cumulative IPC: 3.5134 (Simulation time: 0 hr 8 min 33 sec) 
Heartbeat CPU 1 instructions: 30000002 cycles: 8538731 heartbeat IPC: 3.51304 cumulative IPC: 3.5134 (Simulation time: 0 hr 8 min 33 sec) 
Heartbeat CPU 3 instructions: 30000002 cycles: 8538733 heartbeat IPC: 3.51304 cumulative IPC: 3.5134 (Simulation time: 0 hr 8 min 33 sec) 
Heartbeat CPU 0 instructions: 40000002 cycles: 11383870 heartbeat IPC: 3.51476 cumulative IPC: 3.51374 (Simulation time: 0 hr 11 min 44 sec) 
Heartbeat CPU 3 instructions: 40000002 cycles: 11383872 heartbeat IPC: 3.51477 cumulative IPC: 3.51374 (Simulation time: 0 hr 11 min 44 sec) 
Heartbeat CPU 2 instructions: 40000002 cycles: 11383875 heartbeat IPC: 3.51476 cumulative IPC: 3.51374 (Simulation time: 0 hr 11 min 44 sec) 
Heartbeat CPU 1 instructions: 40000002 cycles: 11383878 heartbeat IPC: 3.51476 cumulative IPC: 3.51374 (Simulation time: 0 hr 11 min 44 sec) 
Heartbeat CPU 1 instructions: 50000003 cycles: 14231889 heartbeat IPC: 3.51122 cumulative IPC: 3.51324 (Simulation time: 0 hr 15 min 1 sec) 
Heartbeat CPU 3 instructions: 50000003 cycles: 14231890 heartbeat IPC: 3.51121 cumulative IPC: 3.51324 (Simulation time: 0 hr 15 min 1 sec) 
Heartbeat CPU 0 instructions: 50000003 cycles: 14231892 heartbeat IPC: 3.51121 cumulative IPC: 3.51324 (Simulation time: 0 hr 15 min 1 sec) 
Heartbeat CPU 2 instructions: 50000003 cycles: 14231892 heartbeat IPC: 3.51122 cumulative IPC: 3.51324 (Simulation time: 0 hr 15 min 1 sec) 

Warmup complete CPU 0 instructions: 50000003 cycles: 14231892 (Simulation time: 0 hr 15 min 1 sec) 
Warmup complete CPU 1 instructions: 50000015 cycles: 14231892 (Simulation time: 0 hr 15 min 1 sec) 
Warmup complete CPU 2 instructions: 50000003 cycles: 14231892 (Simulation time: 0 hr 15 min 1 sec) 
Warmup complete CPU 3 instructions: 50000007 cycles: 14231891 (Simulation time: 0 hr 15 min 1 sec) 

Heartbeat CPU 0 instructions: 60000000 cycles: 28849487 heartbeat IPC: 0.684107 cumulative IPC: 0.684107 (Simulation time: 0 hr 17 min 39 sec) 
Heartbeat CPU 1 instructions: 60000000 cycles: 28867147 heartbeat IPC: 0.683281 cumulative IPC: 0.683281 (Simulation time: 0 hr 17 min 39 sec) 
Heartbeat CPU 3 instructions: 60000000 cycles: 28868643 heartbeat IPC: 0.683211 cumulative IPC: 0.683211 (Simulation time: 0 hr 17 min 39 sec) 
Heartbeat CPU 2 instructions: 60000000 cycles: 28870948 heartbeat IPC: 0.683104 cumulative IPC: 0.683104 (Simulation time: 0 hr 17 min 39 sec) 
Heartbeat CPU 0 instructions: 70000002 cycles: 43422310 heartbeat IPC: 0.686209 cumulative IPC: 0.685156 (Simulation time: 0 hr 20 min 42 sec) 
Heartbeat CPU 1 instructions: 70000002 cycles: 43457265 heartbeat IPC: 0.685396 cumulative IPC: 0.684336 (Simulation time: 0 hr 20 min 43 sec) 
Heartbeat CPU 3 instructions: 70000002 cycles: 43458935 heartbeat IPC: 0.685387 cumulative IPC: 0.684298 (Simulation time: 0 hr 20 min 43 sec) 
Heartbeat CPU 2 instructions: 70000002 cycles: 43460716 heartbeat IPC: 0.685412 cumulative IPC: 0.684256 (Simulation time: 0 hr 20 min 43 sec) 
Heartbeat CPU 0 instructions: 80000003 cycles: 57991066 heartbeat IPC: 0.6864 cumulative IPC: 0.685571 (Simulation time: 0 hr 23 min 37 sec) 
Heartbeat CPU 1 instructions: 80000003 cycles: 58037010 heartbeat IPC: 0.685883 cumulative IPC: 0.684851 (Simulation time: 0 hr 23 min 37 sec) 
Heartbeat CPU 3 instructions: 80000003 cycles: 58038154 heartbeat IPC: 0.685908 cumulative IPC: 0.684833 (Simulation time: 0 hr 23 min 37 sec) 
Heartbeat CPU 2 instructions: 80000003 cycles: 58040957 heartbeat IPC: 0.68586 cumulative IPC: 0.68479 (Simulation time: 0 hr 23 min 37 sec) 
Heartbeat CPU 0 instructions: 90000002 cycles: 72383494 heartbeat IPC: 0.69481 cumulative IPC: 0.687857 (Simulation time: 0 hr 26 min 32 sec) 
Heartbeat CPU 1 instructions: 90000002 cycles: 72435254 heartbeat IPC: 0.694529 cumulative IPC: 0.687245 (Simulation time: 0 hr 26 min 33 sec) 
Heartbeat CPU 3 instructions: 90000002 cycles: 72440582 heartbeat IPC: 0.694327 cumulative IPC: 0.687183 (Simulation time: 0 hr 26 min 33 sec) 
Heartbeat CPU 2 instructions: 90000002 cycles: 72441951 heartbeat IPC: 0.694396 cumulative IPC: 0.687166 (Simulation time: 0 hr 26 min 33 sec) 
Heartbeat CPU 0 instructions: 100000002 cycles: 86819681 heartbeat IPC: 0.692704 cumulative IPC: 0.688821 (Simulation time: 0 hr 29 min 24 sec) 
Heartbeat CPU 1 instructions: 100000002 cycles: 86879099 heartbeat IPC: 0.692336 cumulative IPC: 0.688258 (Simulation time: 0 hr 29 min 24 sec) 
Heartbeat CPU 3 instructions: 100000002 cycles: 86885527 heartbeat IPC: 0.692284 cumulative IPC: 0.688197 (Simulation time: 0 hr 29 min 24 sec) 
Heartbeat CPU 2 instructions: 100000002 cycles: 86889138 heartbeat IPC: 0.692176 cumulative IPC: 0.688163 (Simulation time: 0 hr 29 min 24 sec) 
Heartbeat CPU 0 instructions: 110000000 cycles: 101369894 heartbeat IPC: 0.687275 cumulative IPC: 0.688563 (Simulation time: 0 hr 32 min 23 sec) 
Heartbeat CPU 1 instructions: 110000000 cycles: 101439757 heartbeat IPC: 0.686782 cumulative IPC: 0.688011 (Simulation time: 0 hr 32 min 24 sec) 
Heartbeat CPU 3 instructions: 110000000 cycles: 101445521 heartbeat IPC: 0.686813 cumulative IPC: 0.687966 (Simulation time: 0 hr 32 min 24 sec) 
Heartbeat CPU 2 instructions: 110000000 cycles: 101451269 heartbeat IPC: 0.686713 cumulative IPC: 0.687921 (Simulation time: 0 hr 32 min 24 sec) 
Heartbeat CPU 0 instructions: 120000002 cycles: 115957805 heartbeat IPC: 0.685499 cumulative IPC: 0.688124 (Simulation time: 0 hr 35 min 14 sec) 
Heartbeat CPU 1 instructions: 120000002 cycles: 116032951 heartbeat IPC: 0.685251 cumulative IPC: 0.687616 (Simulation time: 0 hr 35 min 15 sec) 
Heartbeat CPU 3 instructions: 120000002 cycles: 116039971 heartbeat IPC: 0.685192 cumulative IPC: 0.687568 (Simulation time: 0 hr 35 min 15 sec) 
Heartbeat CPU 2 instructions: 120000002 cycles: 116051300 heartbeat IPC: 0.68493 cumulative IPC: 0.687492 (Simulation time: 0 hr 35 min 15 sec) 
Heartbeat CPU 0 instructions: 130000000 cycles: 130624543 heartbeat IPC: 0.681815 cumulative IPC: 0.687329 (Simulation time: 0 hr 38 min 15 sec) 
Heartbeat CPU 1 instructions: 130000000 cycles: 130701476 heartbeat IPC: 0.681732 cumulative IPC: 0.686875 (Simulation time: 0 hr 38 min 16 sec) 
Heartbeat CPU 3 instructions: 130000000 cycles: 130708748 heartbeat IPC: 0.68172 cumulative IPC: 0.686832 (Simulation time: 0 hr 38 min 16 sec) 
Heartbeat CPU 2 instructions: 130000000 cycles: 130731844 heartbeat IPC: 0.681174 cumulative IPC: 0.686696 (Simulation time: 0 hr 38 min 16 sec) 
Heartbeat CPU 0 instructions: 140000001 cycles: 145305218 heartbeat IPC: 0.681168 cumulative IPC: 0.686639 (Simulation time: 0 hr 41 min 20 sec) 
Heartbeat CPU 1 instructions: 140000001 cycles: 145382706 heartbeat IPC: 0.681142 cumulative IPC: 0.686233 (Simulation time: 0 hr 41 min 21 sec) 
Heartbeat CPU 3 instructions: 140000001 cycles: 145389927 heartbeat IPC: 0.681144 cumulative IPC: 0.686195 (Simulation time: 0 hr 41 min 21 sec) 
Heartbeat CPU 2 instructions: 140000001 cycles: 145423420 heartbeat IPC: 0.680662 cumulative IPC: 0.68602 (Simulation time: 0 hr 41 min 22 sec) 
Heartbeat CPU 0 instructions: 150000000 cycles: 159855131 heartbeat IPC: 0.687289 cumulative IPC: 0.686704 (Simulation time: 0 hr 44 min 37 sec) 
Heartbeat CPU 1 instructions: 150000000 cycles: 159934487 heartbeat IPC: 0.687201 cumulative IPC: 0.686329 (Simulation time: 0 hr 44 min 38 sec) 
Heartbeat CPU 3 instructions: 150000000 cycles: 159943807 heartbeat IPC: 0.687102 cumulative IPC: 0.686286 (Simulation time: 0 hr 44 min 38 sec) 
Heartbeat CPU 2 instructions: 150000000 cycles: 159981122 heartbeat IPC: 0.686922 cumulative IPC: 0.68611 (Simulation time: 0 hr 44 min 39 sec) 
Heartbeat CPU 0 instructions: 160000000 cycles: 174481511 heartbeat IPC: 0.683696 cumulative IPC: 0.686429 (Simulation time: 0 hr 47 min 33 sec) 
Heartbeat CPU 1 instructions: 160000000 cycles: 174562454 heartbeat IPC: 0.683622 cumulative IPC: 0.686082 (Simulation time: 0 hr 47 min 34 sec) 
Heartbeat CPU 3 instructions: 160000000 cycles: 174570416 heartbeat IPC: 0.683685 cumulative IPC: 0.686048 (Simulation time: 0 hr 47 min 34 sec) 
Heartbeat CPU 2 instructions: 160000000 cycles: 174614311 heartbeat IPC: 0.683378 cumulative IPC: 0.685861 (Simulation time: 0 hr 47 min 34 sec) 
Heartbeat CPU 0 instructions: 170000000 cycles: 189015357 heartbeat IPC: 0.688049 cumulative IPC: 0.686564 (Simulation time: 0 hr 50 min 37 sec) 
Heartbeat CPU 1 instructions: 170000000 cycles: 189099941 heartbeat IPC: 0.687877 cumulative IPC: 0.686232 (Simulation time: 0 hr 50 min 38 sec) 
Heartbeat CPU 3 instructions: 170000000 cycles: 189110743 heartbeat IPC: 0.687742 cumulative IPC: 0.686189 (Simulation time: 0 hr 50 min 38 sec) 
Heartbeat CPU 2 instructions: 170000000 cycles: 189159036 heartbeat IPC: 0.687535 cumulative IPC: 0.686 (Simulation time: 0 hr 50 min 39 sec) 
Heartbeat CPU 0 instructions: 180000001 cycles: 203613489 heartbeat IPC: 0.685019 cumulative IPC: 0.686445 (Simulation time: 0 hr 53 min 28 sec) 
Heartbeat CPU 1 instructions: 180000001 cycles: 203703017 heartbeat IPC: 0.684787 cumulative IPC: 0.68612 (Simulation time: 0 hr 53 min 29 sec) 
Heartbeat CPU 3 instructions: 180000001 cycles: 203720353 heartbeat IPC: 0.684481 cumulative IPC: 0.686058 (Simulation time: 0 hr 53 min 29 sec) 
Heartbeat CPU 2 instructions: 180000001 cycles: 203766723 heartbeat IPC: 0.684571 cumulative IPC: 0.68589 (Simulation time: 0 hr 53 min 30 sec) 
Heartbeat CPU 0 instructions: 190000000 cycles: 218214739 heartbeat IPC: 0.684873 cumulative IPC: 0.686332 (Simulation time: 0 hr 56 min 31 sec) 
Heartbeat CPU 1 instructions: 190000000 cycles: 218308030 heartbeat IPC: 0.684696 cumulative IPC: 0.686018 (Simulation time: 0 hr 56 min 32 sec) 
Heartbeat CPU 3 instructions: 190000000 cycles: 218327666 heartbeat IPC: 0.684589 cumulative IPC: 0.685952 (Simulation time: 0 hr 56 min 32 sec) 
Heartbeat CPU 2 instructions: 190000000 cycles: 218372180 heartbeat IPC: 0.684676 cumulative IPC: 0.685803 (Simulation time: 0 hr 56 min 33 sec) 
Heartbeat CPU 0 instructions: 200000003 cycles: 232651058 heartbeat IPC: 0.692698 cumulative IPC: 0.686753 (Simulation time: 0 hr 59 min 45 sec) 
Heartbeat CPU 1 instructions: 200000003 cycles: 232745809 heartbeat IPC: 0.692627 cumulative IPC: 0.686455 (Simulation time: 0 hr 59 min 46 sec) 
Heartbeat CPU 3 instructions: 200000003 cycles: 232769600 heartbeat IPC: 0.692428 cumulative IPC: 0.68638 (Simulation time: 0 hr 59 min 46 sec) 
Heartbeat CPU 2 instructions: 200000003 cycles: 232815829 heartbeat IPC: 0.692346 cumulative IPC: 0.686235 (Simulation time: 0 hr 59 min 47 sec) 
Heartbeat CPU 0 instructions: 210000001 cycles: 247195412 heartbeat IPC: 0.687552 cumulative IPC: 0.686803 (Simulation time: 1 hr 3 min 0 sec) 
Heartbeat CPU 1 instructions: 210000001 cycles: 247292451 heartbeat IPC: 0.687444 cumulative IPC: 0.686517 (Simulation time: 1 hr 3 min 2 sec) 
Heartbeat CPU 3 instructions: 210000001 cycles: 247322126 heartbeat IPC: 0.687166 cumulative IPC: 0.686429 (Simulation time: 1 hr 3 min 2 sec) 
Heartbeat CPU 2 instructions: 210000001 cycles: 247368267 heartbeat IPC: 0.68717 cumulative IPC: 0.686294 (Simulation time: 1 hr 3 min 3 sec) 
Heartbeat CPU 0 instructions: 220000000 cycles: 261795417 heartbeat IPC: 0.684931 cumulative IPC: 0.686692 (Simulation time: 1 hr 5 min 49 sec) 
Heartbeat CPU 1 instructions: 220000000 cycles: 261893384 heartbeat IPC: 0.684888 cumulative IPC: 0.686421 (Simulation time: 1 hr 5 min 50 sec) 
Heartbeat CPU 3 instructions: 220000000 cycles: 261927940 heartbeat IPC: 0.684659 cumulative IPC: 0.686325 (Simulation time: 1 hr 5 min 50 sec) 
Heartbeat CPU 2 instructions: 220000000 cycles: 261972831 heartbeat IPC: 0.684717 cumulative IPC: 0.686201 (Simulation time: 1 hr 5 min 51 sec) 
Heartbeat CPU 0 instructions: 230000000 cycles: 276554398 heartbeat IPC: 0.677554 cumulative IPC: 0.686178 (Simulation time: 1 hr 8 min 39 sec) 
Heartbeat CPU 1 instructions: 230000000 cycles: 276656593 heartbeat IPC: 0.67736 cumulative IPC: 0.685911 (Simulation time: 1 hr 8 min 40 sec) 
Heartbeat CPU 3 instructions: 230000000 cycles: 276694106 heartbeat IPC: 0.677224 cumulative IPC: 0.685813 (Simulation time: 1 hr 8 min 40 sec) 
Heartbeat CPU 2 instructions: 230000000 cycles: 276739400 heartbeat IPC: 0.677205 cumulative IPC: 0.685695 (Simulation time: 1 hr 8 min 41 sec) 
Heartbeat CPU 0 instructions: 240000003 cycles: 291037240 heartbeat IPC: 0.690472 cumulative IPC: 0.686403 (Simulation time: 1 hr 11 min 51 sec) 
Heartbeat CPU 1 instructions: 240000003 cycles: 291141675 heartbeat IPC: 0.690366 cumulative IPC: 0.686144 (Simulation time: 1 hr 11 min 53 sec) 
Heartbeat CPU 3 instructions: 240000003 cycles: 291181283 heartbeat IPC: 0.690266 cumulative IPC: 0.686046 (Simulation time: 1 hr 11 min 53 sec) 
Heartbeat CPU 2 instructions: 240000003 cycles: 291227741 heartbeat IPC: 0.69021 cumulative IPC: 0.685931 (Simulation time: 1 hr 11 min 54 sec) 
Heartbeat CPU 0 instructions: 250000000 cycles: 305621439 heartbeat IPC: 0.685673 cumulative IPC: 0.686366 (Simulation time: 1 hr 14 min 55 sec) 
*** Reached end of trace for Core: 0 Repeating trace: ./traces/ligra/ligra_CF.com-lj.ungraph.gcc_6.3.0_O3.drop_10750M.length_250M.champsimtrace.xz
Finished CPU 0 instructions: 200000003 cycles: 291389596 cumulative IPC: 0.686366 (Simulation time: 1 hr 14 min 55 sec) 
Heartbeat CPU 1 instructions: 250000000 cycles: 305724814 heartbeat IPC: 0.685723 cumulative IPC: 0.686123 (Simulation time: 1 hr 14 min 56 sec) 
*** Reached end of trace for Core: 1 Repeating trace: ./traces/ligra/ligra_CF.com-lj.ungraph.gcc_6.3.0_O3.drop_10750M.length_250M.champsimtrace.xz
Finished CPU 1 instructions: 200000003 cycles: 291492984 cumulative IPC: 0.686123 (Simulation time: 1 hr 14 min 56 sec) 
Heartbeat CPU 3 instructions: 250000000 cycles: 305766186 heartbeat IPC: 0.68564 cumulative IPC: 0.686026 (Simulation time: 1 hr 14 min 57 sec) 
*** Reached end of trace for Core: 3 Repeating trace: ./traces/ligra/ligra_CF.com-lj.ungraph.gcc_6.3.0_O3.drop_10750M.length_250M.champsimtrace.xz
Finished CPU 3 instructions: 200000000 cycles: 291534345 cumulative IPC: 0.686026 (Simulation time: 1 hr 14 min 57 sec) 
Heartbeat CPU 2 instructions: 250000000 cycles: 305818066 heartbeat IPC: 0.685385 cumulative IPC: 0.685904 (Simulation time: 1 hr 14 min 57 sec) 
*** Reached end of trace for Core: 2 Repeating trace: ./traces/ligra/ligra_CF.com-lj.ungraph.gcc_6.3.0_O3.drop_10750M.length_250M.champsimtrace.xz
Finished CPU 2 instructions: 200000003 cycles: 291586223 cumulative IPC: 0.685903 (Simulation time: 1 hr 14 min 57 sec) 

ChampSim completed all CPUs

Total Simulation Statistics (not including warmup)

CPU 0 cumulative IPC: 0.686363 instructions: 200134104 cycles: 291586223
ITLB TOTAL     ACCESS:   34604234  HIT:   34604234  MISS:          0  HIT %:        100  MISS %:          0   MPKI: 0
ITLB LOAD      ACCESS:          0  HIT:          0  MISS:          0  HIT %:       -nan  MISS %:       -nan   MPKI: 0
ITLB RFO       ACCESS:          0  HIT:          0  MISS:          0  HIT %:       -nan  MISS %:       -nan   MPKI: 0
ITLB PREFETCH  ACCESS:          0  HIT:          0  MISS:          0  HIT %:       -nan  MISS %:       -nan   MPKI: 0
ITLB WRITEBACK ACCESS:          0  HIT:          0  MISS:          0  HIT %:       -nan  MISS %:       -nan   MPKI: 0
DTLB TOTAL     ACCESS:   33596131  HIT:   33588475  MISS:       7656  HIT %:    99.9772  MISS %:  0.0227883   MPKI: 0.0382543
DTLB LOAD      ACCESS:          0  HIT:          0  MISS:          0  HIT %:       -nan  MISS %:       -nan   MPKI: 0
DTLB RFO       ACCESS:          0  HIT:          0  MISS:          0  HIT %:       -nan  MISS %:       -nan   MPKI: 0
DTLB PREFETCH  ACCESS:          0  HIT:          0  MISS:          0  HIT %:       -nan  MISS %:       -nan   MPKI: 0
DTLB WRITEBACK ACCESS:          0  HIT:          0  MISS:          0  HIT %:       -nan  MISS %:       -nan   MPKI: 0
STLB TOTAL     ACCESS:    1584923  HIT:    1580104  MISS:       4819  HIT %:    99.6959  MISS %:   0.304053   MPKI: 0.0240789
STLB LOAD      ACCESS:          0  HIT:          0  MISS:          0  HIT %:       -nan  MISS %:       -nan   MPKI: 0
STLB RFO       ACCESS:          0  HIT:          0  MISS:          0  HIT %:       -nan  MISS %:       -nan   MPKI: 0
STLB PREFETCH  ACCESS:          0  HIT:          0  MISS:          0  HIT %:       -nan  MISS %:       -nan   MPKI: 0
STLB WRITEBACK ACCESS:          0  HIT:          0  MISS:          0  HIT %:       -nan  MISS %:       -nan   MPKI: 0
L1D TOTAL     ACCESS:   45937765  HIT:   45629729  MISS:     308036  HIT %:    99.3294  MISS %:   0.670551   MPKI: 1.53915
L1D LOAD      ACCESS:   24108090  HIT:   24100421  MISS:       7669  HIT %:    99.9682  MISS %:  0.0318109   MPKI: 0.0383193
L1D RFO       ACCESS:   14301071  HIT:   14226460  MISS:      74611  HIT %:    99.4783  MISS %:   0.521716   MPKI: 0.372805
L1D PREFETCH  ACCESS:    7528604  HIT:    7302848  MISS:     225756  HIT %:    97.0014  MISS %:    2.99864   MPKI: 1.12802
L1D WRITEBACK ACCESS:          0  HIT:          0  MISS:          0  HIT %:       -nan  MISS %:       -nan   MPKI: 0
L1I TOTAL     ACCESS:   38622327  HIT:   38622327  MISS:          0  HIT %:        100  MISS %:          0   MPKI: 0
L1I LOAD      ACCESS:   38622327  HIT:   38622327  MISS:          0  HIT %:        100  MISS %:          0   MPKI: 0
L1I RFO       ACCESS:          0  HIT:          0  MISS:          0  HIT %:       -nan  MISS %:       -nan   MPKI: 0
L1I PREFETCH  ACCESS:          0  HIT:          0  MISS:          0  HIT %:       -nan  MISS %:       -nan   MPKI: 0
L1I WRITEBACK ACCESS:          0  HIT:          0  MISS:          0  HIT %:       -nan  MISS %:       -nan   MPKI: 0
L2C TOTAL     ACCESS:     387508  HIT:      75918  MISS:     311590  HIT %:    19.5913  MISS %:    80.4087   MPKI: 1.55691
L2C LOAD      ACCESS:       7664  HIT:          0  MISS:       7664  HIT %:          0  MISS %:        100   MPKI: 0.0382943
L2C RFO       ACCESS:      74611  HIT:          0  MISS:      74611  HIT %:          0  MISS %:        100   MPKI: 0.372805
L2C PREFETCH  ACCESS:     225761  HIT:          2  MISS:     225759  HIT %: 0.000885893  MISS %:    99.9991   MPKI: 1.12804
L2C WRITEBACK ACCESS:      74653  HIT:      71717  MISS:       2936  HIT %:    96.0671  MISS %:    3.93286   MPKI: 0.0146702
PSCL5 TOTAL     ACCESS:       4819  HIT:       4819  MISS:          0  HIT %:        100  MISS %:          0   MPKI: 0
PSCL5 LOAD      ACCESS:          0  HIT:          0  MISS:          0  HIT %:       -nan  MISS %:       -nan   MPKI: 0
PSCL5 RFO       ACCESS:          0  HIT:          0  MISS:          0  HIT %:       -nan  MISS %:       -nan   MPKI: 0
PSCL5 PREFETCH  ACCESS:          0  HIT:          0  MISS:          0  HIT %:       -nan  MISS %:       -nan   MPKI: 0
PSCL5 WRITEBACK ACCESS:          0  HIT:          0  MISS:          0  HIT %:       -nan  MISS %:       -nan   MPKI: 0
PSCL4 TOTAL     ACCESS:       4819  HIT:       4819  MISS:          0  HIT %:        100  MISS %:          0   MPKI: 0
PSCL4 LOAD      ACCESS:          0  HIT:          0  MISS:          0  HIT %:       -nan  MISS %:       -nan   MPKI: 0
PSCL4 RFO       ACCESS:          0  HIT:          0  MISS:          0  HIT %:       -nan  MISS %:       -nan   MPKI: 0
PSCL4 PREFETCH  ACCESS:          0  HIT:          0  MISS:          0  HIT %:       -nan  MISS %:       -nan   MPKI: 0
PSCL4 WRITEBACK ACCESS:          0  HIT:          0  MISS:          0  HIT %:       -nan  MISS %:       -nan   MPKI: 0
PSCL3 TOTAL     ACCESS:       4819  HIT:       4819  MISS:          0  HIT %:        100  MISS %:          0   MPKI: 0
PSCL3 LOAD      ACCESS:          0  HIT:          0  MISS:          0  HIT %:       -nan  MISS %:       -nan   MPKI: 0
PSCL3 RFO       ACCESS:          0  HIT:          0  MISS:          0  HIT %:       -nan  MISS %:       -nan   MPKI: 0
PSCL3 PREFETCH  ACCESS:          0  HIT:          0  MISS:          0  HIT %:       -nan  MISS %:       -nan   MPKI: 0
PSCL3 WRITEBACK ACCESS:          0  HIT:          0  MISS:          0  HIT %:       -nan  MISS %:       -nan   MPKI: 0
PSCL2 TOTAL     ACCESS:       4819  HIT:       4810  MISS:          9  HIT %:    99.8132  MISS %:   0.186761   MPKI: 4.49698e-05
PSCL2 LOAD      ACCESS:          0  HIT:          0  MISS:          0  HIT %:       -nan  MISS %:       -nan   MPKI: 0
PSCL2 RFO       ACCESS:          0  HIT:          0  MISS:          0  HIT %:       -nan  MISS %:       -nan   MPKI: 0
PSCL2 PREFETCH  ACCESS:          0  HIT:          0  MISS:          0  HIT %:       -nan  MISS %:       -nan   MPKI: 0
PSCL2 WRITEBACK ACCESS:          0  HIT:          0  MISS:          0  HIT %:       -nan  MISS %:       -nan   MPKI: 0

stream: 
stream:times selected: 4571263
stream:pref_filled: 151122
stream:pref_useful: 151092
stream:pref_late: 3
stream:misses: 4462
stream:misses_by_poll: 0

CS: 
CS:times selected: 187427
CS:pref_filled: 26207
CS:pref_useful: 26204
CS:pref_late: 0
CS:misses: 23648
CS:misses_by_poll: 28

CPLX: 
CPLX:times selected: 4330566
CPLX:pref_filled: 78848
CPLX:pref_useful: 78659
CPLX:pref_late: 2
CPLX:misses: 12186
CPLX:misses_by_poll: 56

NL_L1: 
NL:times selected: 22524
NL:pref_filled: 385
NL:pref_useful: 385
NL:pref_late: 0
NL:misses: 133
NL:misses_by_poll: 0

total selections: 9111780
total_filled: 225756
total_useful: 225608
total_late: 5
total_polluted: 84
total_misses_after_warmup: 11678
conflicts: 0
Degree Incremented Times: 1651734
Degree Decremented Times: 0

L1 IP Table Write Accesses: 96407830
L1 IP Table Read Accesses: 96407830
L1 RST Write Accesses: 14597519
L1 RST Read Accesses: 29195038
L1 CSPT Write Accesses: 14597519
L1 CSPT Read Accesses: 49268046
L1 RR Filter Tag Write Accesses: 25003669
L1 RR Filter Tag Read Accesses: 2605336767
L1 IP Table Tag Write Accesses: 96407830
L1 IP Table Tag Read Accesses: 96407830
L1 RST Tag Write Accesses: 0
L1 RST Tag Read Accesses: 131388876
L1 RR Filter Write Accesses: 0
L1 RR Filter Read Accesses: 106787292
test: 13047100
LLC TOTAL     ACCESS:     382736  HIT:      71100  MISS:     311636  HIT %:    18.5768  MISS %:    81.4232   MPKI: 1.55714
LLC LOAD      ACCESS:       7664  HIT:          0  MISS:       7664  HIT %:          0  MISS %:        100   MPKI: 0.0382943
LLC RFO       ACCESS:      74611  HIT:          0  MISS:      74611  HIT %:          0  MISS %:        100   MPKI: 0.372805
LLC PREFETCH  ACCESS:     225759  HIT:          0  MISS:     225759  HIT %:          0  MISS %:        100   MPKI: 1.12804
LLC WRITEBACK ACCESS:      74082  HIT:      71096  MISS:       2986  HIT %:    95.9693  MISS %:    4.03067   MPKI: 0.01492

RAW hits: 3314983
Loads Generated: 32246556
Loads sent to L1D: 28931573
Stores Generated: 14325206
Stores sent to L1D: 14325217

CPU 1 cumulative IPC: 0.686119 instructions: 200062948 cycles: 291586223
ITLB TOTAL     ACCESS:   34591937  HIT:   34591937  MISS:          0  HIT %:        100  MISS %:          0   MPKI: 0
ITLB LOAD      ACCESS:          0  HIT:          0  MISS:          0  HIT %:       -nan  MISS %:       -nan   MPKI: 0
ITLB RFO       ACCESS:          0  HIT:          0  MISS:          0  HIT %:       -nan  MISS %:       -nan   MPKI: 0
ITLB PREFETCH  ACCESS:          0  HIT:          0  MISS:          0  HIT %:       -nan  MISS %:       -nan   MPKI: 0
ITLB WRITEBACK ACCESS:          0  HIT:          0  MISS:          0  HIT %:       -nan  MISS %:       -nan   MPKI: 0
DTLB TOTAL     ACCESS:   33582790  HIT:   33575138  MISS:       7652  HIT %:    99.9772  MISS %:  0.0227855   MPKI: 0.038248
DTLB LOAD      ACCESS:          0  HIT:          0  MISS:          0  HIT %:       -nan  MISS %:       -nan   MPKI: 0
DTLB RFO       ACCESS:          0  HIT:          0  MISS:          0  HIT %:       -nan  MISS %:       -nan   MPKI: 0
DTLB PREFETCH  ACCESS:          0  HIT:          0  MISS:          0  HIT %:       -nan  MISS %:       -nan   MPKI: 0
DTLB WRITEBACK ACCESS:          0  HIT:          0  MISS:          0  HIT %:       -nan  MISS %:       -nan   MPKI: 0
STLB TOTAL     ACCESS:    1507112  HIT:    1502295  MISS:       4817  HIT %:    99.6804  MISS %:   0.319618   MPKI: 0.0240774
STLB LOAD      ACCESS:          0  HIT:          0  MISS:          0  HIT %:       -nan  MISS %:       -nan   MPKI: 0
STLB RFO       ACCESS:          0  HIT:          0  MISS:          0  HIT %:       -nan  MISS %:       -nan   MPKI: 0
STLB PREFETCH  ACCESS:          0  HIT:          0  MISS:          0  HIT %:       -nan  MISS %:       -nan   MPKI: 0
STLB WRITEBACK ACCESS:          0  HIT:          0  MISS:          0  HIT %:       -nan  MISS %:       -nan   MPKI: 0
L1D TOTAL     ACCESS:   44055871  HIT:   43747935  MISS:     307936  HIT %:     99.301  MISS %:   0.698967   MPKI: 1.5392
L1D LOAD      ACCESS:   24097812  HIT:   24088727  MISS:       9085  HIT %:    99.9623  MISS %:  0.0377005   MPKI: 0.0454107
L1D RFO       ACCESS:   14295895  HIT:   14221311  MISS:      74584  HIT %:    99.4783  MISS %:   0.521716   MPKI: 0.372803
L1D PREFETCH  ACCESS:    5662164  HIT:    5437897  MISS:     224267  HIT %:    96.0392  MISS %:     3.9608   MPKI: 1.12098
L1D WRITEBACK ACCESS:          0  HIT:          0  MISS:          0  HIT %:       -nan  MISS %:       -nan   MPKI: 0
L1I TOTAL     ACCESS:   38608551  HIT:   38608551  MISS:          0  HIT %:        100  MISS %:          0   MPKI: 0
L1I LOAD      ACCESS:   38608551  HIT:   38608551  MISS:          0  HIT %:        100  MISS %:          0   MPKI: 0
L1I RFO       ACCESS:          0  HIT:          0  MISS:          0  HIT %:       -nan  MISS %:       -nan   MPKI: 0
L1I PREFETCH  ACCESS:          0  HIT:          0  MISS:          0  HIT %:       -nan  MISS %:       -nan   MPKI: 0
L1I WRITEBACK ACCESS:          0  HIT:          0  MISS:          0  HIT %:       -nan  MISS %:       -nan   MPKI: 0
L2C TOTAL     ACCESS:     387385  HIT:      76694  MISS:     310691  HIT %:    19.7979  MISS %:    80.2021   MPKI: 1.55297
L2C LOAD      ACCESS:       9070  HIT:          0  MISS:       9070  HIT %:          0  MISS %:        100   MPKI: 0.0453357
L2C RFO       ACCESS:      74584  HIT:          0  MISS:      74584  HIT %:          0  MISS %:        100   MPKI: 0.372803
L2C PREFETCH  ACCESS:     224282  HIT:          2  MISS:     224280  HIT %: 0.000891735  MISS %:    99.9991   MPKI: 1.12105
L2C WRITEBACK ACCESS:      74632  HIT:      72493  MISS:       2139  HIT %:    97.1339  MISS %:    2.86606   MPKI: 0.0106916
PSCL5 TOTAL     ACCESS:       4817  HIT:       4817  MISS:          0  HIT %:        100  MISS %:          0   MPKI: 0
PSCL5 LOAD      ACCESS:          0  HIT:          0  MISS:          0  HIT %:       -nan  MISS %:       -nan   MPKI: 0
PSCL5 RFO       ACCESS:          0  HIT:          0  MISS:          0  HIT %:       -nan  MISS %:       -nan   MPKI: 0
PSCL5 PREFETCH  ACCESS:          0  HIT:          0  MISS:          0  HIT %:       -nan  MISS %:       -nan   MPKI: 0
PSCL5 WRITEBACK ACCESS:          0  HIT:          0  MISS:          0  HIT %:       -nan  MISS %:       -nan   MPKI: 0
PSCL4 TOTAL     ACCESS:       4817  HIT:       4817  MISS:          0  HIT %:        100  MISS %:          0   MPKI: 0
PSCL4 LOAD      ACCESS:          0  HIT:          0  MISS:          0  HIT %:       -nan  MISS %:       -nan   MPKI: 0
PSCL4 RFO       ACCESS:          0  HIT:          0  MISS:          0  HIT %:       -nan  MISS %:       -nan   MPKI: 0
PSCL4 PREFETCH  ACCESS:          0  HIT:          0  MISS:          0  HIT %:       -nan  MISS %:       -nan   MPKI: 0
PSCL4 WRITEBACK ACCESS:          0  HIT:          0  MISS:          0  HIT %:       -nan  MISS %:       -nan   MPKI: 0
PSCL3 TOTAL     ACCESS:       4817  HIT:       4817  MISS:          0  HIT %:        100  MISS %:          0   MPKI: 0
PSCL3 LOAD      ACCESS:          0  HIT:          0  MISS:          0  HIT %:       -nan  MISS %:       -nan   MPKI: 0
PSCL3 RFO       ACCESS:          0  HIT:          0  MISS:          0  HIT %:       -nan  MISS %:       -nan   MPKI: 0
PSCL3 PREFETCH  ACCESS:          0  HIT:          0  MISS:          0  HIT %:       -nan  MISS %:       -nan   MPKI: 0
PSCL3 WRITEBACK ACCESS:          0  HIT:          0  MISS:          0  HIT %:       -nan  MISS %:       -nan   MPKI: 0
PSCL2 TOTAL     ACCESS:       4817  HIT:       4808  MISS:          9  HIT %:    99.8132  MISS %:   0.186838   MPKI: 4.49858e-05
PSCL2 LOAD      ACCESS:          0  HIT:          0  MISS:          0  HIT %:       -nan  MISS %:       -nan   MPKI: 0
PSCL2 RFO       ACCESS:          0  HIT:          0  MISS:          0  HIT %:       -nan  MISS %:       -nan   MPKI: 0
PSCL2 PREFETCH  ACCESS:          0  HIT:          0  MISS:          0  HIT %:       -nan  MISS %:       -nan   MPKI: 0
PSCL2 WRITEBACK ACCESS:          0  HIT:          0  MISS:          0  HIT %:       -nan  MISS %:       -nan   MPKI: 0

stream: 
stream:times selected: 4569716
stream:pref_filled: 151777
stream:pref_useful: 151744
stream:pref_late: 10
stream:misses: 4957
stream:misses_by_poll: 0

CS: 
CS:times selected: 187372
CS:pref_filled: 26519
CS:pref_useful: 26519
CS:pref_late: 0
CS:misses: 23407
CS:misses_by_poll: 46

CPLX: 
CPLX:times selected: 4329091
CPLX:pref_filled: 76888
CPLX:pref_useful: 76721
CPLX:pref_late: 6
CPLX:misses: 13608
CPLX:misses_by_poll: 90

NL_L1: 
NL:times selected: 22793
NL:pref_filled: 421
NL:pref_useful: 421
NL:pref_late: 0
NL:misses: 137
NL:misses_by_poll: 0

total selections: 9108972
total_filled: 224267
total_useful: 224109
total_late: 16
total_polluted: 136
total_misses_after_warmup: 13924
conflicts: 0
Degree Incremented Times: 1651734
Degree Decremented Times: 0

L1 IP Table Write Accesses: 96407830
L1 IP Table Read Accesses: 96407830
L1 RST Write Accesses: 14597519
L1 RST Read Accesses: 29195038
L1 CSPT Write Accesses: 14597519
L1 CSPT Read Accesses: 49268046
L1 RR Filter Tag Write Accesses: 25003669
L1 RR Filter Tag Read Accesses: 2605336767
L1 IP Table Tag Write Accesses: 96407830
L1 IP Table Tag Read Accesses: 96407830
L1 RST Tag Write Accesses: 0
L1 RST Tag Read Accesses: 131388876
L1 RR Filter Write Accesses: 0
L1 RR Filter Read Accesses: 106787292
test: 13047100
LLC TOTAL     ACCESS:     382989  HIT:      71537  MISS:     311452  HIT %:    18.6786  MISS %:    81.3214   MPKI: 1.55677
LLC LOAD      ACCESS:       9070  HIT:          0  MISS:       9070  HIT %:          0  MISS %:        100   MPKI: 0.0453357
LLC RFO       ACCESS:      74584  HIT:          0  MISS:      74584  HIT %:          0  MISS %:        100   MPKI: 0.372803
LLC PREFETCH  ACCESS:     224280  HIT:          0  MISS:     224280  HIT %:          0  MISS %:        100   MPKI: 1.12105
LLC WRITEBACK ACCESS:      74437  HIT:      71535  MISS:       2902  HIT %:    96.1014  MISS %:     3.8986   MPKI: 0.0145054

RAW hits: 3313931
Loads Generated: 32234964
Loads sent to L1D: 28921033
Stores Generated: 14319962
Stores sent to L1D: 14319970

CPU 2 cumulative IPC: 0.685903 instructions: 200000003 cycles: 291586223
ITLB TOTAL     ACCESS:   34581141  HIT:   34581141  MISS:          0  HIT %:        100  MISS %:          0   MPKI: 0
ITLB LOAD      ACCESS:          0  HIT:          0  MISS:          0  HIT %:       -nan  MISS %:       -nan   MPKI: 0
ITLB RFO       ACCESS:          0  HIT:          0  MISS:          0  HIT %:       -nan  MISS %:       -nan   MPKI: 0
ITLB PREFETCH  ACCESS:          0  HIT:          0  MISS:          0  HIT %:       -nan  MISS %:       -nan   MPKI: 0
ITLB WRITEBACK ACCESS:          0  HIT:          0  MISS:          0  HIT %:       -nan  MISS %:       -nan   MPKI: 0
DTLB TOTAL     ACCESS:   33570810  HIT:   33563164  MISS:       7646  HIT %:    99.9772  MISS %:  0.0227757   MPKI: 0.03823
DTLB LOAD      ACCESS:          0  HIT:          0  MISS:          0  HIT %:       -nan  MISS %:       -nan   MPKI: 0
DTLB RFO       ACCESS:          0  HIT:          0  MISS:          0  HIT %:       -nan  MISS %:       -nan   MPKI: 0
DTLB PREFETCH  ACCESS:          0  HIT:          0  MISS:          0  HIT %:       -nan  MISS %:       -nan   MPKI: 0
DTLB WRITEBACK ACCESS:          0  HIT:          0  MISS:          0  HIT %:       -nan  MISS %:       -nan   MPKI: 0
STLB TOTAL     ACCESS:    1507977  HIT:    1503167  MISS:       4810  HIT %:     99.681  MISS %:    0.31897   MPKI: 0.02405
STLB LOAD      ACCESS:          0  HIT:          0  MISS:          0  HIT %:       -nan  MISS %:       -nan   MPKI: 0
STLB RFO       ACCESS:          0  HIT:          0  MISS:          0  HIT %:       -nan  MISS %:       -nan   MPKI: 0
STLB PREFETCH  ACCESS:          0  HIT:          0  MISS:          0  HIT %:       -nan  MISS %:       -nan   MPKI: 0
STLB WRITEBACK ACCESS:          0  HIT:          0  MISS:          0  HIT %:       -nan  MISS %:       -nan   MPKI: 0
L1D TOTAL     ACCESS:   44732681  HIT:   44424955  MISS:     307726  HIT %:    99.3121  MISS %:   0.687922   MPKI: 1.53863
L1D LOAD      ACCESS:   24088135  HIT:   24077485  MISS:      10650  HIT %:    99.9558  MISS %:  0.0442126   MPKI: 0.05325
L1D RFO       ACCESS:   14292361  HIT:   14217802  MISS:      74559  HIT %:    99.4783  MISS %:    0.52167   MPKI: 0.372795
L1D PREFETCH  ACCESS:    6352185  HIT:    6129668  MISS:     222517  HIT %:     96.497  MISS %:      3.503   MPKI: 1.11258
L1D WRITEBACK ACCESS:          0  HIT:          0  MISS:          0  HIT %:       -nan  MISS %:       -nan   MPKI: 0
L1I TOTAL     ACCESS:   38596458  HIT:   38596458  MISS:          0  HIT %:        100  MISS %:          0   MPKI: 0
L1I LOAD      ACCESS:   38596458  HIT:   38596458  MISS:          0  HIT %:        100  MISS %:          0   MPKI: 0
L1I RFO       ACCESS:          0  HIT:          0  MISS:          0  HIT %:       -nan  MISS %:       -nan   MPKI: 0
L1I PREFETCH  ACCESS:          0  HIT:          0  MISS:          0  HIT %:       -nan  MISS %:       -nan   MPKI: 0
L1I WRITEBACK ACCESS:          0  HIT:          0  MISS:          0  HIT %:       -nan  MISS %:       -nan   MPKI: 0
L2C TOTAL     ACCESS:     387118  HIT:      77804  MISS:     309314  HIT %:    20.0983  MISS %:    79.9017   MPKI: 1.54657
L2C LOAD      ACCESS:      10631  HIT:          0  MISS:      10631  HIT %:          0  MISS %:        100   MPKI: 0.053155
L2C RFO       ACCESS:      74559  HIT:          0  MISS:      74559  HIT %:          0  MISS %:        100   MPKI: 0.372795
L2C PREFETCH  ACCESS:     222536  HIT:          1  MISS:     222535  HIT %: 0.000449365  MISS %:    99.9996   MPKI: 1.11267
L2C WRITEBACK ACCESS:      74582  HIT:      73606  MISS:        976  HIT %:    98.6914  MISS %:    1.30863   MPKI: 0.00488
PSCL5 TOTAL     ACCESS:       4810  HIT:       4810  MISS:          0  HIT %:        100  MISS %:          0   MPKI: 0
PSCL5 LOAD      ACCESS:          0  HIT:          0  MISS:          0  HIT %:       -nan  MISS %:       -nan   MPKI: 0
PSCL5 RFO       ACCESS:          0  HIT:          0  MISS:          0  HIT %:       -nan  MISS %:       -nan   MPKI: 0
PSCL5 PREFETCH  ACCESS:          0  HIT:          0  MISS:          0  HIT %:       -nan  MISS %:       -nan   MPKI: 0
PSCL5 WRITEBACK ACCESS:          0  HIT:          0  MISS:          0  HIT %:       -nan  MISS %:       -nan   MPKI: 0
PSCL4 TOTAL     ACCESS:       4810  HIT:       4810  MISS:          0  HIT %:        100  MISS %:          0   MPKI: 0
PSCL4 LOAD      ACCESS:          0  HIT:          0  MISS:          0  HIT %:       -nan  MISS %:       -nan   MPKI: 0
PSCL4 RFO       ACCESS:          0  HIT:          0  MISS:          0  HIT %:       -nan  MISS %:       -nan   MPKI: 0
PSCL4 PREFETCH  ACCESS:          0  HIT:          0  MISS:          0  HIT %:       -nan  MISS %:       -nan   MPKI: 0
PSCL4 WRITEBACK ACCESS:          0  HIT:          0  MISS:          0  HIT %:       -nan  MISS %:       -nan   MPKI: 0
PSCL3 TOTAL     ACCESS:       4810  HIT:       4810  MISS:          0  HIT %:        100  MISS %:          0   MPKI: 0
PSCL3 LOAD      ACCESS:          0  HIT:          0  MISS:          0  HIT %:       -nan  MISS %:       -nan   MPKI: 0
PSCL3 RFO       ACCESS:          0  HIT:          0  MISS:          0  HIT %:       -nan  MISS %:       -nan   MPKI: 0
PSCL3 PREFETCH  ACCESS:          0  HIT:          0  MISS:          0  HIT %:       -nan  MISS %:       -nan   MPKI: 0
PSCL3 WRITEBACK ACCESS:          0  HIT:          0  MISS:          0  HIT %:       -nan  MISS %:       -nan   MPKI: 0
PSCL2 TOTAL     ACCESS:       4810  HIT:       4801  MISS:          9  HIT %:    99.8129  MISS %:    0.18711   MPKI: 4.5e-05
PSCL2 LOAD      ACCESS:          0  HIT:          0  MISS:          0  HIT %:       -nan  MISS %:       -nan   MPKI: 0
PSCL2 RFO       ACCESS:          0  HIT:          0  MISS:          0  HIT %:       -nan  MISS %:       -nan   MPKI: 0
PSCL2 PREFETCH  ACCESS:          0  HIT:          0  MISS:          0  HIT %:       -nan  MISS %:       -nan   MPKI: 0
PSCL2 WRITEBACK ACCESS:          0  HIT:          0  MISS:          0  HIT %:       -nan  MISS %:       -nan   MPKI: 0

stream: 
stream:times selected: 4568455
stream:pref_filled: 151216
stream:pref_useful: 151198
stream:pref_late: 9
stream:misses: 5876
stream:misses_by_poll: 0

CS: 
CS:times selected: 187323
CS:pref_filled: 26586
CS:pref_useful: 26586
CS:pref_late: 0
CS:misses: 23727
CS:misses_by_poll: 27

CPLX: 
CPLX:times selected: 4327867
CPLX:pref_filled: 75045
CPLX:pref_useful: 74956
CPLX:pref_late: 6
CPLX:misses: 15869
CPLX:misses_by_poll: 84

NL_L1: 
NL:times selected: 22597
NL:pref_filled: 447
NL:pref_useful: 447
NL:pref_late: 5
NL:misses: 160
NL:misses_by_poll: 0

total selections: 9106242
total_filled: 222517
total_useful: 222466
total_late: 20
total_polluted: 111
total_misses_after_warmup: 16812
conflicts: 0
Degree Incremented Times: 1651734
Degree Decremented Times: 0

L1 IP Table Write Accesses: 96407830
L1 IP Table Read Accesses: 96407830
L1 RST Write Accesses: 14597519
L1 RST Read Accesses: 29195038
L1 CSPT Write Accesses: 14597519
L1 CSPT Read Accesses: 49268046
L1 RR Filter Tag Write Accesses: 25003669
L1 RR Filter Tag Read Accesses: 2605336767
L1 IP Table Tag Write Accesses: 96407830
L1 IP Table Tag Read Accesses: 96407830
L1 RST Tag Write Accesses: 0
L1 RST Tag Read Accesses: 131388876
L1 RR Filter Write Accesses: 0
L1 RR Filter Read Accesses: 106787292
test: 13047100
LLC TOTAL     ACCESS:     382582  HIT:      71567  MISS:     311015  HIT %:    18.7063  MISS %:    81.2937   MPKI: 1.55507
LLC LOAD      ACCESS:      10631  HIT:          0  MISS:      10631  HIT %:          0  MISS %:        100   MPKI: 0.053155
LLC RFO       ACCESS:      74559  HIT:          0  MISS:      74559  HIT %:          0  MISS %:        100   MPKI: 0.372795
LLC PREFETCH  ACCESS:     222535  HIT:          0  MISS:     222535  HIT %:          0  MISS %:        100   MPKI: 1.11267
LLC WRITEBACK ACCESS:      74244  HIT:      71565  MISS:       2679  HIT %:    96.3916  MISS %:    3.60837   MPKI: 0.013395

RAW hits: 3313249
Loads Generated: 32224644
Loads sent to L1D: 28911394
Stores Generated: 14315306
Stores sent to L1D: 14315316

CPU 3 cumulative IPC: 0.686023 instructions: 200034871 cycles: 291586224
ITLB TOTAL     ACCESS:   34587132  HIT:   34587132  MISS:          0  HIT %:        100  MISS %:          0   MPKI: 0
ITLB LOAD      ACCESS:          0  HIT:          0  MISS:          0  HIT %:       -nan  MISS %:       -nan   MPKI: 0
ITLB RFO       ACCESS:          0  HIT:          0  MISS:          0  HIT %:       -nan  MISS %:       -nan   MPKI: 0
ITLB PREFETCH  ACCESS:          0  HIT:          0  MISS:          0  HIT %:       -nan  MISS %:       -nan   MPKI: 0
ITLB WRITEBACK ACCESS:          0  HIT:          0  MISS:          0  HIT %:       -nan  MISS %:       -nan   MPKI: 0
DTLB TOTAL     ACCESS:   33577219  HIT:   33569566  MISS:       7653  HIT %:    99.9772  MISS %:  0.0227922   MPKI: 0.0382583
DTLB LOAD      ACCESS:          0  HIT:          0  MISS:          0  HIT %:       -nan  MISS %:       -nan   MPKI: 0
DTLB RFO       ACCESS:          0  HIT:          0  MISS:          0  HIT %:       -nan  MISS %:       -nan   MPKI: 0
DTLB PREFETCH  ACCESS:          0  HIT:          0  MISS:          0  HIT %:       -nan  MISS %:       -nan   MPKI: 0
DTLB WRITEBACK ACCESS:          0  HIT:          0  MISS:          0  HIT %:       -nan  MISS %:       -nan   MPKI: 0
STLB TOTAL     ACCESS:    1444600  HIT:    1439783  MISS:       4817  HIT %:    99.6666  MISS %:   0.333449   MPKI: 0.0240808
STLB LOAD      ACCESS:          0  HIT:          0  MISS:          0  HIT %:       -nan  MISS %:       -nan   MPKI: 0
STLB RFO       ACCESS:          0  HIT:          0  MISS:          0  HIT %:       -nan  MISS %:       -nan   MPKI: 0
STLB PREFETCH  ACCESS:          0  HIT:          0  MISS:          0  HIT %:       -nan  MISS %:       -nan   MPKI: 0
STLB WRITEBACK ACCESS:          0  HIT:          0  MISS:          0  HIT %:       -nan  MISS %:       -nan   MPKI: 0
L1D TOTAL     ACCESS:   43845930  HIT:   43538067  MISS:     307863  HIT %:    99.2979  MISS %:   0.702147   MPKI: 1.53905
L1D LOAD      ACCESS:   24093504  HIT:   24083822  MISS:       9682  HIT %:    99.9598  MISS %:  0.0401851   MPKI: 0.0484016
L1D RFO       ACCESS:   14295757  HIT:   14221184  MISS:      74573  HIT %:    99.4784  MISS %:   0.521644   MPKI: 0.3728
L1D PREFETCH  ACCESS:    5456669  HIT:    5233061  MISS:     223608  HIT %:    95.9021  MISS %:    4.09788   MPKI: 1.11785
L1D WRITEBACK ACCESS:          0  HIT:          0  MISS:          0  HIT %:       -nan  MISS %:       -nan   MPKI: 0
L1I TOTAL     ACCESS:   38603163  HIT:   38603163  MISS:          0  HIT %:        100  MISS %:          0   MPKI: 0
L1I LOAD      ACCESS:   38603163  HIT:   38603163  MISS:          0  HIT %:        100  MISS %:          0   MPKI: 0
L1I RFO       ACCESS:          0  HIT:          0  MISS:          0  HIT %:       -nan  MISS %:       -nan   MPKI: 0
L1I PREFETCH  ACCESS:          0  HIT:          0  MISS:          0  HIT %:       -nan  MISS %:       -nan   MPKI: 0
L1I WRITEBACK ACCESS:          0  HIT:          0  MISS:          0  HIT %:       -nan  MISS %:       -nan   MPKI: 0
L2C TOTAL     ACCESS:     387287  HIT:      77190  MISS:     310097  HIT %:     19.931  MISS %:     80.069   MPKI: 1.55021
L2C LOAD      ACCESS:       9664  HIT:          0  MISS:       9664  HIT %:          0  MISS %:        100   MPKI: 0.0483116
L2C RFO       ACCESS:      74573  HIT:          0  MISS:      74573  HIT %:          0  MISS %:        100   MPKI: 0.3728
L2C PREFETCH  ACCESS:     223626  HIT:          1  MISS:     223625  HIT %: 0.000447175  MISS %:    99.9996   MPKI: 1.11793
L2C WRITEBACK ACCESS:      74607  HIT:      72992  MISS:       1615  HIT %:    97.8353  MISS %:    2.16468   MPKI: 0.00807359
PSCL5 TOTAL     ACCESS:       4817  HIT:       4817  MISS:          0  HIT %:        100  MISS %:          0   MPKI: 0
PSCL5 LOAD      ACCESS:          0  HIT:          0  MISS:          0  HIT %:       -nan  MISS %:       -nan   MPKI: 0
PSCL5 RFO       ACCESS:          0  HIT:          0  MISS:          0  HIT %:       -nan  MISS %:       -nan   MPKI: 0
PSCL5 PREFETCH  ACCESS:          0  HIT:          0  MISS:          0  HIT %:       -nan  MISS %:       -nan   MPKI: 0
PSCL5 WRITEBACK ACCESS:          0  HIT:          0  MISS:          0  HIT %:       -nan  MISS %:       -nan   MPKI: 0
PSCL4 TOTAL     ACCESS:       4817  HIT:       4817  MISS:          0  HIT %:        100  MISS %:          0   MPKI: 0
PSCL4 LOAD      ACCESS:          0  HIT:          0  MISS:          0  HIT %:       -nan  MISS %:       -nan   MPKI: 0
PSCL4 RFO       ACCESS:          0  HIT:          0  MISS:          0  HIT %:       -nan  MISS %:       -nan   MPKI: 0
PSCL4 PREFETCH  ACCESS:          0  HIT:          0  MISS:          0  HIT %:       -nan  MISS %:       -nan   MPKI: 0
PSCL4 WRITEBACK ACCESS:          0  HIT:          0  MISS:          0  HIT %:       -nan  MISS %:       -nan   MPKI: 0
PSCL3 TOTAL     ACCESS:       4817  HIT:       4817  MISS:          0  HIT %:        100  MISS %:          0   MPKI: 0
PSCL3 LOAD      ACCESS:          0  HIT:          0  MISS:          0  HIT %:       -nan  MISS %:       -nan   MPKI: 0
PSCL3 RFO       ACCESS:          0  HIT:          0  MISS:          0  HIT %:       -nan  MISS %:       -nan   MPKI: 0
PSCL3 PREFETCH  ACCESS:          0  HIT:          0  MISS:          0  HIT %:       -nan  MISS %:       -nan   MPKI: 0
PSCL3 WRITEBACK ACCESS:          0  HIT:          0  MISS:          0  HIT %:       -nan  MISS %:       -nan   MPKI: 0
PSCL2 TOTAL     ACCESS:       4817  HIT:       4808  MISS:          9  HIT %:    99.8132  MISS %:   0.186838   MPKI: 4.49922e-05
PSCL2 LOAD      ACCESS:          0  HIT:          0  MISS:          0  HIT %:       -nan  MISS %:       -nan   MPKI: 0
PSCL2 RFO       ACCESS:          0  HIT:          0  MISS:          0  HIT %:       -nan  MISS %:       -nan   MPKI: 0
PSCL2 PREFETCH  ACCESS:          0  HIT:          0  MISS:          0  HIT %:       -nan  MISS %:       -nan   MPKI: 0
PSCL2 WRITEBACK ACCESS:          0  HIT:          0  MISS:          0  HIT %:       -nan  MISS %:       -nan   MPKI: 0

stream: 
stream:times selected: 4569254
stream:pref_filled: 151459
stream:pref_useful: 151422
stream:pref_late: 8
stream:misses: 5227
stream:misses_by_poll: 0

CS: 
CS:times selected: 187352
CS:pref_filled: 26633
CS:pref_useful: 26633
CS:pref_late: 0
CS:misses: 23701
CS:misses_by_poll: 27

CPLX: 
CPLX:times selected: 4328659
CPLX:pref_filled: 75996
CPLX:pref_useful: 75838
CPLX:pref_late: 5
CPLX:misses: 14647
CPLX:misses_by_poll: 60

NL_L1: 
NL:times selected: 22235
NL:pref_filled: 390
NL:pref_useful: 390
NL:pref_late: 5
NL:misses: 142
NL:misses_by_poll: 0

total selections: 9107500
total_filled: 223608
total_useful: 223479
total_late: 18
total_polluted: 87
total_misses_after_warmup: 14959
conflicts: 0
Degree Incremented Times: 1651734
Degree Decremented Times: 0

L1 IP Table Write Accesses: 96407830
L1 IP Table Read Accesses: 96407830
L1 RST Write Accesses: 14597519
L1 RST Read Accesses: 29195038
L1 CSPT Write Accesses: 14597519
L1 CSPT Read Accesses: 49268046
L1 RR Filter Tag Write Accesses: 25003669
L1 RR Filter Tag Read Accesses: 2605336767
L1 IP Table Tag Write Accesses: 96407830
L1 IP Table Tag Read Accesses: 96407830
L1 RST Tag Write Accesses: 0
L1 RST Tag Read Accesses: 131388876
L1 RR Filter Write Accesses: 0
L1 RR Filter Read Accesses: 106787292
test: 13047100
LLC TOTAL     ACCESS:     382947  HIT:      71570  MISS:     311377  HIT %:    18.6893  MISS %:    81.3107   MPKI: 1.55661
LLC LOAD      ACCESS:       9664  HIT:          0  MISS:       9664  HIT %:          0  MISS %:        100   MPKI: 0.0483116
LLC RFO       ACCESS:      74573  HIT:          0  MISS:      74573  HIT %:          0  MISS %:        100   MPKI: 0.3728
LLC PREFETCH  ACCESS:     223625  HIT:          0  MISS:     223625  HIT %:          0  MISS %:        100   MPKI: 1.11793
LLC WRITEBACK ACCESS:      74465  HIT:      71566  MISS:       2899  HIT %:    96.1069  MISS %:     3.8931   MPKI: 0.0144925

RAW hits: 3313681
Loads Generated: 32230356
Loads sent to L1D: 28916674
Stores Generated: 14317874
Stores sent to L1D: 14317885

Region of Interest Statistics

CPU 0 cumulative IPC: 0.686366 instructions: 200000003 cycles: 291389596
ITLB TOTAL     ACCESS:   34581142  HIT:   34581142  MISS:          0  HIT %:        100  MISS %:          0   MPKI: 0
ITLB LOAD TRANSLATION ACCESS:   34581142  HIT:   34581142  MISS:          0  HIT %:        100  MISS %:          0   MPKI: 0
ITLB PREFETCH  REQUESTED:          0  ISSUED:          0  USEFUL:          0  USELESS:          0
ITLB USEFUL LOAD PREFETCHES:          0 PREFETCH ISSUED TO LOWER LEVEL:          0  ACCURACY: -nan
ITLB TIMELY PREFETCHES:          0 LATE PREFETCHES: 0 DROPPED PREFETCHES: 0
ITLB PREFETCHES SAME FILL-ORIGIN LEVEL: 0 DIFFERENT FILL-ORIGIN LEVEL: 0
ITLB AVERAGE MISS LATENCY: -nan cycles
ITLB RQ	ACCESS:   38622329	FORWARD:          0	MERGED:    4018095	TO_CACHE:   34604234

DTLB TOTAL     ACCESS:   33573342  HIT:   33565695  MISS:       7647  HIT %:    99.9772  MISS %:   0.022777   MPKI: 0.038235
DTLB LOAD TRANSLATION ACCESS:   33573342  HIT:   33565695  MISS:       7647  HIT %:    99.9772  MISS %:   0.022777   MPKI: 0.038235
DTLB PREFETCH  REQUESTED:          0  ISSUED:          0  USEFUL:          0  USELESS:          0
DTLB USEFUL LOAD PREFETCHES:          0 PREFETCH ISSUED TO LOWER LEVEL:          0  ACCURACY: -nan
DTLB TIMELY PREFETCHES:          0 LATE PREFETCHES: 0 DROPPED PREFETCHES: 0
DTLB PREFETCHES SAME FILL-ORIGIN LEVEL: 0 DIFFERENT FILL-ORIGIN LEVEL: 0
DTLB AVERAGE MISS LATENCY: 95.2813 cycles
DTLB RQ	ACCESS:   38437316	FORWARD:          0	MERGED:    4841070	TO_CACHE:   33596246

STLB TOTAL     ACCESS:    1583813  HIT:    1579003  MISS:       4810  HIT %:    99.6963  MISS %:   0.303697   MPKI: 0.02405
STLB LOAD TRANSLATION ACCESS:       7647  HIT:       2837  MISS:       4810  HIT %:    37.0995  MISS %:    62.9005   MPKI: 0.02405
STLB TRANSLATION FROM L1D PREFETCHER ACCESS:    1576166  HIT:    1576166  MISS:          0  HIT %:        100  MISS %:          0   MPKI: 0
STLB PREFETCH  REQUESTED:          0  ISSUED:          0  USEFUL:          0  USELESS:          0
STLB USEFUL LOAD PREFETCHES:          0 PREFETCH ISSUED TO LOWER LEVEL:          0  ACCURACY: -nan
STLB TIMELY PREFETCHES:          0 LATE PREFETCHES: 0 DROPPED PREFETCHES: 0
STLB PREFETCHES SAME FILL-ORIGIN LEVEL: 0 DIFFERENT FILL-ORIGIN LEVEL: 0
STLB AVERAGE MISS LATENCY: 137.154 cycles
STLB RQ	ACCESS:    7537358	FORWARD:          0	MERGED:    5952435	TO_CACHE:    1584923

STLB Hit, L1D data hit: 0
STLB Hit, L2C data hit: 0
STLB Hit, LLC data hit: 0
STLB Hit, LLC data miss: 0
STLB STLB hints to L2: 0
L1D TOTAL     ACCESS:   45905246  HIT:   45597527  MISS:     307719  HIT %:    99.3297  MISS %:   0.670335   MPKI: 1.53859
L1D LOAD      ACCESS:   24091864  HIT:   24084213  MISS:       7651  HIT %:    99.9682  MISS %:  0.0317576   MPKI: 0.038255
L1D RFO       ACCESS:   14291195  HIT:   14216636  MISS:      74559  HIT %:    99.4783  MISS %:   0.521713   MPKI: 0.372795
L1D PREFETCH  ACCESS:    7522187  HIT:    7296678  MISS:     225509  HIT %:    97.0021  MISS %:    2.99792   MPKI: 1.12754
L1D PREFETCH  REQUESTED:   15059412  ISSUED:   15059412  USEFUL:     225608  USELESS:          2
L1D USEFUL LOAD PREFETCHES:     225608 PREFETCH ISSUED TO LOWER LEVEL:     225761  ACCURACY: 99.9322
L1D TIMELY PREFETCHES:     225608 LATE PREFETCHES: 5 DROPPED PREFETCHES: 0
L1D PREFETCHES SAME FILL-ORIGIN LEVEL: 225761 DIFFERENT FILL-ORIGIN LEVEL: 0
L1D AVERAGE MISS LATENCY: 171.773 cycles
L1D RQ	ACCESS:   28931573	FORWARD:          0	MERGED:    4799537	TO_CACHE:   24112099
L1D WQ	ACCESS:   14325217	FORWARD:      19937	MERGED:          0	TO_CACHE:   14325217
L1D PQ	ACCESS:    7529710	FORWARD:          0	MERGED:          8	TO_CACHE:    7529702

L1D UNIQUE REGIONS ACCESSED: 0
L1D REGIONS CONFLICTS: 0
L1D Cross Page Prefetch Requests: 0
L1D Same Page Prefetch Requests: 7676020
L1D ROI Sum of L1D PQ occupancy: 91036764
L1D PREFETCHES PUSHED FROM L2C: 0
L1I TOTAL     ACCESS:   38596459  HIT:   38596459  MISS:          0  HIT %:        100  MISS %:          0   MPKI: 0
L1I LOAD      ACCESS:   38596459  HIT:   38596459  MISS:          0  HIT %:        100  MISS %:          0   MPKI: 0
L1I PREFETCH  REQUESTED:          0  ISSUED:          0  USEFUL:          0  USELESS:          0
L1I USEFUL LOAD PREFETCHES:          0 PREFETCH ISSUED TO LOWER LEVEL:          0  ACCURACY: -nan
L1I TIMELY PREFETCHES:          0 LATE PREFETCHES: 0 DROPPED PREFETCHES: 0
L1I PREFETCHES SAME FILL-ORIGIN LEVEL: 0 DIFFERENT FILL-ORIGIN LEVEL: 0
L1I AVERAGE MISS LATENCY: -nan cycles
L1I RQ	ACCESS:   53839388	FORWARD:          0	MERGED:   15217059	TO_CACHE:   38622329

BTB TOTAL     ACCESS:   30759871  HIT:   29566913  MISS:    1192958  HIT %:    96.1217  MISS %:    3.87829   MPKI: 5.96479
BTB BRANCH_DIRECT_JUMP	ACCESS:    7761714  HIT:    7761709  MISS:          5
BTB BRANCH_INDIRECT	ACCESS:          0  HIT:          0  MISS:          0
BTB BRANCH_CONDITIONAL	ACCESS:   20612275  HIT:   20612265  MISS:         10
BTB BRANCH_DIRECT_CALL	ACCESS:    1192941  HIT:    1192939  MISS:          2
BTB BRANCH_INDIRECT_CALL	ACCESS:          0  HIT:          0  MISS:          0
BTB BRANCH_RETURN	ACCESS:    1192941  HIT:          0  MISS:    1192941
BTB BRANCH_OTHER ACCESS:          0  HIT:          0  MISS:          0

L2C TOTAL     ACCESS:     387116  HIT:      75848  MISS:     311268  HIT %:    19.5931  MISS %:    80.4069   MPKI: 1.55634
L2C LOAD      ACCESS:       7646  HIT:          0  MISS:       7646  HIT %:          0  MISS %:        100   MPKI: 0.03823
L2C DATA LOAD MPKI: 0.03823
L2C INSTRUCTION LOAD MPKI: 0
L2C RFO       ACCESS:      74559  HIT:          0  MISS:      74559  HIT %:          0  MISS %:        100   MPKI: 0.372795
L2C PREFETCH  ACCESS:     225514  HIT:          2  MISS:     225512  HIT %: 0.000886863  MISS %:    99.9991   MPKI: 1.12756
L2C DATA PREFETCH MPKI: 1.12756
L2C INSTRUCTION PREFETCH MPKI: 0
L2C WRITEBACK ACCESS:      74587  HIT:      71651  MISS:       2936  HIT %:    96.0637  MISS %:    3.93634   MPKI: 0.01468
L2C LOAD TRANSLATION ACCESS:       4810  HIT:       4195  MISS:        615  HIT %:    87.2141  MISS %:    12.7859   MPKI: 0.003075
L2C PREFETCH  REQUESTED:          0  ISSUED:          0  USEFUL:          0  USELESS:     223583
L2C USEFUL LOAD PREFETCHES:          0 PREFETCH ISSUED TO LOWER LEVEL:     225759  ACCURACY: 0
L2C TIMELY PREFETCHES:          0 LATE PREFETCHES: 0 DROPPED PREFETCHES: 0
L2C PREFETCHES SAME FILL-ORIGIN LEVEL: 0 DIFFERENT FILL-ORIGIN LEVEL: 0
L2C AVERAGE MISS LATENCY: 157.228 cycles
L2C RQ	ACCESS:      87094	FORWARD:          0	MERGED:          0	TO_CACHE:      87094
L2C WQ	ACCESS:      74653	FORWARD:          0	MERGED:          0	TO_CACHE:      74653
L2C PQ	ACCESS:     225761	FORWARD:          0	MERGED:          0	TO_CACHE:     225761

L2C Instructions Evicting Data 0
L2C Translations Evicting Data 620
L2C Data Evicting Data 307426
L2C Instructions Evicting Instructions 0
L2C Translations Evicting Instructions 0
L2C Data Evicting Instructions 0
L2C Instructions Evicting Translations 0
L2C Translations Evicting Translations 0
L2C Data Evicting Translations 608
L2C Dense regions hint from L2: 0
PSCL5 TOTAL     ACCESS:       4810  HIT:       4810  MISS:          0  HIT %:        100  MISS %:          0   MPKI: 0
PSCL5 LOAD TRANSLATION ACCESS:       4810  HIT:       4810  MISS:          0  HIT %:        100  MISS %:          0   MPKI: 0
PSCL5 PREFETCH  REQUESTED:          0  ISSUED:          0  USEFUL:          0  USELESS:          0
PSCL5 USEFUL LOAD PREFETCHES:          0 PREFETCH ISSUED TO LOWER LEVEL:          0  ACCURACY: -nan
PSCL5 TIMELY PREFETCHES:          0 LATE PREFETCHES: 0 DROPPED PREFETCHES: 0
PSCL5 PREFETCHES SAME FILL-ORIGIN LEVEL: 0 DIFFERENT FILL-ORIGIN LEVEL: 0

PSCL4 TOTAL     ACCESS:       4810  HIT:       4810  MISS:          0  HIT %:        100  MISS %:          0   MPKI: 0
PSCL4 LOAD TRANSLATION ACCESS:       4810  HIT:       4810  MISS:          0  HIT %:        100  MISS %:          0   MPKI: 0
PSCL4 PREFETCH  REQUESTED:          0  ISSUED:          0  USEFUL:          0  USELESS:          0
PSCL4 USEFUL LOAD PREFETCHES:          0 PREFETCH ISSUED TO LOWER LEVEL:          0  ACCURACY: -nan
PSCL4 TIMELY PREFETCHES:          0 LATE PREFETCHES: 0 DROPPED PREFETCHES: 0
PSCL4 PREFETCHES SAME FILL-ORIGIN LEVEL: 0 DIFFERENT FILL-ORIGIN LEVEL: 0

PSCL3 TOTAL     ACCESS:       4810  HIT:       4810  MISS:          0  HIT %:        100  MISS %:          0   MPKI: 0
PSCL3 LOAD TRANSLATION ACCESS:       4810  HIT:       4810  MISS:          0  HIT %:        100  MISS %:          0   MPKI: 0
PSCL3 PREFETCH  REQUESTED:          0  ISSUED:          0  USEFUL:          0  USELESS:          0
PSCL3 USEFUL LOAD PREFETCHES:          0 PREFETCH ISSUED TO LOWER LEVEL:          0  ACCURACY: -nan
PSCL3 TIMELY PREFETCHES:          0 LATE PREFETCHES: 0 DROPPED PREFETCHES: 0
PSCL3 PREFETCHES SAME FILL-ORIGIN LEVEL: 0 DIFFERENT FILL-ORIGIN LEVEL: 0

PSCL2 TOTAL     ACCESS:       4810  HIT:       4801  MISS:          9  HIT %:    99.8129  MISS %:    0.18711   MPKI: 4.5e-05
PSCL2 LOAD TRANSLATION ACCESS:       4810  HIT:       4801  MISS:          9  HIT %:    99.8129  MISS %:    0.18711   MPKI: 4.5e-05
PSCL2 PREFETCH  REQUESTED:          0  ISSUED:          0  USEFUL:          0  USELESS:          0
PSCL2 USEFUL LOAD PREFETCHES:          0 PREFETCH ISSUED TO LOWER LEVEL:          0  ACCURACY: -nan
PSCL2 TIMELY PREFETCHES:          0 LATE PREFETCHES: 0 DROPPED PREFETCHES: 0
PSCL2 PREFETCHES SAME FILL-ORIGIN LEVEL: 0 DIFFERENT FILL-ORIGIN LEVEL: 0

LLC TOTAL     ACCESS:     382307  HIT:      70994  MISS:     311313  HIT %:    18.5699  MISS %:    81.4301   MPKI: 1.55656
LLC LOAD      ACCESS:       7646  HIT:          0  MISS:       7646  HIT %:          0  MISS %:        100   MPKI: 0.03823
LLC RFO       ACCESS:      74559  HIT:          0  MISS:      74559  HIT %:          0  MISS %:        100   MPKI: 0.372795
LLC PREFETCH  ACCESS:     225512  HIT:          0  MISS:     225512  HIT %:          0  MISS %:        100   MPKI: 1.12756
LLC WRITEBACK ACCESS:      73975  HIT:      70990  MISS:       2985  HIT %:    95.9649  MISS %:    4.03515   MPKI: 0.014925
LLC LOAD TRANSLATION ACCESS:        615  HIT:          4  MISS:        611  HIT %:   0.650407  MISS %:    99.3496   MPKI: 0.003055
LLC PREFETCH  REQUESTED:          0  ISSUED:          0  USEFUL:          0  USELESS:     857070
LLC USEFUL LOAD PREFETCHES:          0 PREFETCH ISSUED TO LOWER LEVEL:     896200  ACCURACY: 0
LLC TIMELY PREFETCHES:          0 LATE PREFETCHES: 0 DROPPED PREFETCHES: 0
LLC PREFETCHES SAME FILL-ORIGIN LEVEL: 0 DIFFERENT FILL-ORIGIN LEVEL: 0
LLC AVERAGE MISS LATENCY: 504.483 cycles
LLC RQ	ACCESS:     337827	FORWARD:          0	MERGED:          0	TO_CACHE:     337827
LLC WQ	ACCESS:     297228	FORWARD:          0	MERGED:          0	TO_CACHE:     297228
LLC PQ	ACCESS:     896200	FORWARD:          0	MERGED:          0	TO_CACHE:     896200

LLC Dense regions hint to LLC: 0

RAW hits: 3312570
Loads Generated: 32224644
Loads sent to L1D: 28912073
Stores Generated: 14315306
Stores sent to L1D: 14315316
Major fault: 0 Minor fault: 6061
Allocated PAGES: 24244

CPU 1 cumulative IPC: 0.686123 instructions: 200000003 cycles: 291492984
ITLB TOTAL     ACCESS:   34581143  HIT:   34581143  MISS:          0  HIT %:        100  MISS %:          0   MPKI: 0
ITLB LOAD TRANSLATION ACCESS:   34581143  HIT:   34581143  MISS:          0  HIT %:        100  MISS %:          0   MPKI: 0
ITLB PREFETCH  REQUESTED:          0  ISSUED:          0  USEFUL:          0  USELESS:          0
ITLB USEFUL LOAD PREFETCHES:          0 PREFETCH ISSUED TO LOWER LEVEL:          0  ACCURACY: -nan
ITLB TIMELY PREFETCHES:          0 LATE PREFETCHES: 0 DROPPED PREFETCHES: 0
ITLB PREFETCHES SAME FILL-ORIGIN LEVEL: 0 DIFFERENT FILL-ORIGIN LEVEL: 0
ITLB AVERAGE MISS LATENCY: -nan cycles
ITLB RQ	ACCESS:   38608551	FORWARD:          0	MERGED:    4016614	TO_CACHE:   34591937

DTLB TOTAL     ACCESS:   33572134  HIT:   33564489  MISS:       7645  HIT %:    99.9772  MISS %:  0.0227719   MPKI: 0.038225
DTLB LOAD TRANSLATION ACCESS:   33572134  HIT:   33564489  MISS:       7645  HIT %:    99.9772  MISS %:  0.0227719   MPKI: 0.038225
DTLB PREFETCH  REQUESTED:          0  ISSUED:          0  USEFUL:          0  USELESS:          0
DTLB USEFUL LOAD PREFETCHES:          0 PREFETCH ISSUED TO LOWER LEVEL:          0  ACCURACY: -nan
DTLB TIMELY PREFETCHES:          0 LATE PREFETCHES: 0 DROPPED PREFETCHES: 0
DTLB PREFETCHES SAME FILL-ORIGIN LEVEL: 0 DIFFERENT FILL-ORIGIN LEVEL: 0
DTLB AVERAGE MISS LATENCY: 95.378 cycles
DTLB RQ	ACCESS:   38422622	FORWARD:          0	MERGED:    4839717	TO_CACHE:   33582905

STLB TOTAL     ACCESS:    1506576  HIT:    1501766  MISS:       4810  HIT %:    99.6807  MISS %:   0.319267   MPKI: 0.02405
STLB LOAD TRANSLATION ACCESS:       7645  HIT:       2835  MISS:       4810  HIT %:    37.0831  MISS %:    62.9169   MPKI: 0.02405
STLB TRANSLATION FROM L1D PREFETCHER ACCESS:    1498931  HIT:    1498931  MISS:          0  HIT %:        100  MISS %:          0   MPKI: 0
STLB PREFETCH  REQUESTED:          0  ISSUED:          0  USEFUL:          0  USELESS:          0
STLB USEFUL LOAD PREFETCHES:          0 PREFETCH ISSUED TO LOWER LEVEL:          0  ACCURACY: -nan
STLB TIMELY PREFETCHES:          0 LATE PREFETCHES: 0 DROPPED PREFETCHES: 0
STLB PREFETCHES SAME FILL-ORIGIN LEVEL: 0 DIFFERENT FILL-ORIGIN LEVEL: 0
STLB AVERAGE MISS LATENCY: 137.276 cycles
STLB RQ	ACCESS:    5670968	FORWARD:          0	MERGED:    4163856	TO_CACHE:    1507112

STLB Hit, L1D data hit: 0
STLB Hit, L2C data hit: 0
STLB Hit, LLC data hit: 0
STLB Hit, LLC data miss: 0
STLB STLB hints to L2: 0
L1D TOTAL     ACCESS:   44040946  HIT:   43733224  MISS:     307722  HIT %:    99.3013  MISS %:   0.698718   MPKI: 1.53861
L1D LOAD      ACCESS:   24090258  HIT:   24081186  MISS:       9072  HIT %:    99.9623  MISS %:  0.0376584   MPKI: 0.04536
L1D RFO       ACCESS:   14291250  HIT:   14216691  MISS:      74559  HIT %:    99.4783  MISS %:   0.521711   MPKI: 0.372795
L1D PREFETCH  ACCESS:    5659438  HIT:    5435347  MISS:     224091  HIT %:    96.0404  MISS %:     3.9596   MPKI: 1.12045
L1D PREFETCH  REQUESTED:   11326632  ISSUED:   11326632  USEFUL:     224109  USELESS:          2
L1D USEFUL LOAD PREFETCHES:     224109 PREFETCH ISSUED TO LOWER LEVEL:     224282  ACCURACY: 99.9229
L1D TIMELY PREFETCHES:     224109 LATE PREFETCHES: 15 DROPPED PREFETCHES: 0
L1D PREFETCHES SAME FILL-ORIGIN LEVEL: 224282 DIFFERENT FILL-ORIGIN LEVEL: 0
L1D AVERAGE MISS LATENCY: 171.306 cycles
L1D RQ	ACCESS:   28921033	FORWARD:          0	MERGED:    4798431	TO_CACHE:   24102652
L1D WQ	ACCESS:   14319970	FORWARD:      19950	MERGED:          0	TO_CACHE:   14319970
L1D PQ	ACCESS:    5663316	FORWARD:          0	MERGED:          0	TO_CACHE:    5663316

L1D UNIQUE REGIONS ACCESSED: 0
L1D REGIONS CONFLICTS: 0
L1D Cross Page Prefetch Requests: 0
L1D Same Page Prefetch Requests: 5812791
L1D ROI Sum of L1D PQ occupancy: 67450971
L1D PREFETCHES PUSHED FROM L2C: 0
L1I TOTAL     ACCESS:   38596458  HIT:   38596458  MISS:          0  HIT %:        100  MISS %:          0   MPKI: 0
L1I LOAD      ACCESS:   38596458  HIT:   38596458  MISS:          0  HIT %:        100  MISS %:          0   MPKI: 0
L1I PREFETCH  REQUESTED:          0  ISSUED:          0  USEFUL:          0  USELESS:          0
L1I USEFUL LOAD PREFETCHES:          0 PREFETCH ISSUED TO LOWER LEVEL:          0  ACCURACY: -nan
L1I TIMELY PREFETCHES:          0 LATE PREFETCHES: 0 DROPPED PREFETCHES: 0
L1I PREFETCHES SAME FILL-ORIGIN LEVEL: 0 DIFFERENT FILL-ORIGIN LEVEL: 0
L1I AVERAGE MISS LATENCY: -nan cycles
L1I RQ	ACCESS:   53820372	FORWARD:          0	MERGED:   15211821	TO_CACHE:   38608551

BTB TOTAL     ACCESS:   30759870  HIT:   29566913  MISS:    1192957  HIT %:    96.1217  MISS %:    3.87829   MPKI: 5.96478
BTB BRANCH_DIRECT_JUMP	ACCESS:    7761714  HIT:    7761709  MISS:          5
BTB BRANCH_INDIRECT	ACCESS:          0  HIT:          0  MISS:          0
BTB BRANCH_CONDITIONAL	ACCESS:   20612274  HIT:   20612265  MISS:          9
BTB BRANCH_DIRECT_CALL	ACCESS:    1192941  HIT:    1192939  MISS:          2
BTB BRANCH_INDIRECT_CALL	ACCESS:          0  HIT:          0  MISS:          0
BTB BRANCH_RETURN	ACCESS:    1192941  HIT:          0  MISS:    1192941
BTB BRANCH_OTHER ACCESS:          0  HIT:          0  MISS:          0

L2C TOTAL     ACCESS:     387121  HIT:      76649  MISS:     310472  HIT %:    19.7998  MISS %:    80.2002   MPKI: 1.55236
L2C LOAD      ACCESS:       9057  HIT:          0  MISS:       9057  HIT %:          0  MISS %:        100   MPKI: 0.045285
L2C DATA LOAD MPKI: 0.045285
L2C INSTRUCTION LOAD MPKI: 0
L2C RFO       ACCESS:      74559  HIT:          0  MISS:      74559  HIT %:          0  MISS %:        100   MPKI: 0.372795
L2C PREFETCH  ACCESS:     224106  HIT:          2  MISS:     224104  HIT %: 0.000892435  MISS %:    99.9991   MPKI: 1.12052
L2C DATA PREFETCH MPKI: 1.12052
L2C INSTRUCTION PREFETCH MPKI: 0
L2C WRITEBACK ACCESS:      74589  HIT:      72450  MISS:       2139  HIT %:    97.1323  MISS %:    2.86772   MPKI: 0.010695
L2C LOAD TRANSLATION ACCESS:       4810  HIT:       4197  MISS:        613  HIT %:    87.2557  MISS %:    12.7443   MPKI: 0.003065
L2C PREFETCH  REQUESTED:          0  ISSUED:          0  USEFUL:          0  USELESS:     221890
L2C USEFUL LOAD PREFETCHES:          0 PREFETCH ISSUED TO LOWER LEVEL:     224280  ACCURACY: 0
L2C TIMELY PREFETCHES:          0 LATE PREFETCHES: 0 DROPPED PREFETCHES: 0
L2C PREFETCHES SAME FILL-ORIGIN LEVEL: 0 DIFFERENT FILL-ORIGIN LEVEL: 0
L2C AVERAGE MISS LATENCY: 157.188 cycles
L2C RQ	ACCESS:      88471	FORWARD:          0	MERGED:          0	TO_CACHE:      88471
L2C WQ	ACCESS:      74632	FORWARD:          0	MERGED:          0	TO_CACHE:      74632
L2C PQ	ACCESS:     224282	FORWARD:          0	MERGED:          0	TO_CACHE:     224282

L2C Instructions Evicting Data 0
L2C Translations Evicting Data 618
L2C Data Evicting Data 307321
L2C Instructions Evicting Instructions 0
L2C Translations Evicting Instructions 0
L2C Data Evicting Instructions 0
L2C Instructions Evicting Translations 0
L2C Translations Evicting Translations 0
L2C Data Evicting Translations 613
L2C Dense regions hint from L2: 0
PSCL5 TOTAL     ACCESS:       4810  HIT:       4810  MISS:          0  HIT %:        100  MISS %:          0   MPKI: 0
PSCL5 LOAD TRANSLATION ACCESS:       4810  HIT:       4810  MISS:          0  HIT %:        100  MISS %:          0   MPKI: 0
PSCL5 PREFETCH  REQUESTED:          0  ISSUED:          0  USEFUL:          0  USELESS:          0
PSCL5 USEFUL LOAD PREFETCHES:          0 PREFETCH ISSUED TO LOWER LEVEL:          0  ACCURACY: -nan
PSCL5 TIMELY PREFETCHES:          0 LATE PREFETCHES: 0 DROPPED PREFETCHES: 0
PSCL5 PREFETCHES SAME FILL-ORIGIN LEVEL: 0 DIFFERENT FILL-ORIGIN LEVEL: 0

PSCL4 TOTAL     ACCESS:       4810  HIT:       4810  MISS:          0  HIT %:        100  MISS %:          0   MPKI: 0
PSCL4 LOAD TRANSLATION ACCESS:       4810  HIT:       4810  MISS:          0  HIT %:        100  MISS %:          0   MPKI: 0
PSCL4 PREFETCH  REQUESTED:          0  ISSUED:          0  USEFUL:          0  USELESS:          0
PSCL4 USEFUL LOAD PREFETCHES:          0 PREFETCH ISSUED TO LOWER LEVEL:          0  ACCURACY: -nan
PSCL4 TIMELY PREFETCHES:          0 LATE PREFETCHES: 0 DROPPED PREFETCHES: 0
PSCL4 PREFETCHES SAME FILL-ORIGIN LEVEL: 0 DIFFERENT FILL-ORIGIN LEVEL: 0

PSCL3 TOTAL     ACCESS:       4810  HIT:       4810  MISS:          0  HIT %:        100  MISS %:          0   MPKI: 0
PSCL3 LOAD TRANSLATION ACCESS:       4810  HIT:       4810  MISS:          0  HIT %:        100  MISS %:          0   MPKI: 0
PSCL3 PREFETCH  REQUESTED:          0  ISSUED:          0  USEFUL:          0  USELESS:          0
PSCL3 USEFUL LOAD PREFETCHES:          0 PREFETCH ISSUED TO LOWER LEVEL:          0  ACCURACY: -nan
PSCL3 TIMELY PREFETCHES:          0 LATE PREFETCHES: 0 DROPPED PREFETCHES: 0
PSCL3 PREFETCHES SAME FILL-ORIGIN LEVEL: 0 DIFFERENT FILL-ORIGIN LEVEL: 0

PSCL2 TOTAL     ACCESS:       4810  HIT:       4801  MISS:          9  HIT %:    99.8129  MISS %:    0.18711   MPKI: 4.5e-05
PSCL2 LOAD TRANSLATION ACCESS:       4810  HIT:       4801  MISS:          9  HIT %:    99.8129  MISS %:    0.18711   MPKI: 4.5e-05
PSCL2 PREFETCH  REQUESTED:          0  ISSUED:          0  USEFUL:          0  USELESS:          0
PSCL2 USEFUL LOAD PREFETCHES:          0 PREFETCH ISSUED TO LOWER LEVEL:          0  ACCURACY: -nan
PSCL2 TIMELY PREFETCHES:          0 LATE PREFETCHES: 0 DROPPED PREFETCHES: 0
PSCL2 PREFETCHES SAME FILL-ORIGIN LEVEL: 0 DIFFERENT FILL-ORIGIN LEVEL: 0

LLC TOTAL     ACCESS:     382731  HIT:      71498  MISS:     311233  HIT %:     18.681  MISS %:     81.319   MPKI: 1.55616
LLC LOAD      ACCESS:       9057  HIT:          0  MISS:       9057  HIT %:          0  MISS %:        100   MPKI: 0.045285
LLC RFO       ACCESS:      74559  HIT:          0  MISS:      74559  HIT %:          0  MISS %:        100   MPKI: 0.372795
LLC PREFETCH  ACCESS:     224104  HIT:          0  MISS:     224104  HIT %:          0  MISS %:        100   MPKI: 1.12052
LLC WRITEBACK ACCESS:      74398  HIT:      71496  MISS:       2902  HIT %:    96.0994  MISS %:    3.90064   MPKI: 0.01451
LLC LOAD TRANSLATION ACCESS:        613  HIT:          2  MISS:        611  HIT %:   0.326264  MISS %:    99.6737   MPKI: 0.003055
LLC PREFETCH  REQUESTED:          0  ISSUED:          0  USEFUL:          0  USELESS:     857070
LLC USEFUL LOAD PREFETCHES:          0 PREFETCH ISSUED TO LOWER LEVEL:     896200  ACCURACY: 0
LLC TIMELY PREFETCHES:          0 LATE PREFETCHES: 0 DROPPED PREFETCHES: 0
LLC PREFETCHES SAME FILL-ORIGIN LEVEL: 0 DIFFERENT FILL-ORIGIN LEVEL: 0
LLC AVERAGE MISS LATENCY: 504.613 cycles
LLC RQ	ACCESS:     337827	FORWARD:          0	MERGED:          0	TO_CACHE:     337827
LLC WQ	ACCESS:     297228	FORWARD:          0	MERGED:          0	TO_CACHE:     297228
LLC PQ	ACCESS:     896200	FORWARD:          0	MERGED:          0	TO_CACHE:     896200

LLC Dense regions hint to LLC: 0

RAW hits: 3312786
Loads Generated: 32224644
Loads sent to L1D: 28911857
Stores Generated: 14315306
Stores sent to L1D: 14315314
Major fault: 0 Minor fault: 6061
Allocated PAGES: 24244

CPU 2 cumulative IPC: 0.685903 instructions: 200000003 cycles: 291586223
ITLB TOTAL     ACCESS:   34581141  HIT:   34581141  MISS:          0  HIT %:        100  MISS %:          0   MPKI: 0
ITLB LOAD TRANSLATION ACCESS:   34581141  HIT:   34581141  MISS:          0  HIT %:        100  MISS %:          0   MPKI: 0
ITLB PREFETCH  REQUESTED:          0  ISSUED:          0  USEFUL:          0  USELESS:          0
ITLB USEFUL LOAD PREFETCHES:          0 PREFETCH ISSUED TO LOWER LEVEL:          0  ACCURACY: -nan
ITLB TIMELY PREFETCHES:          0 LATE PREFETCHES: 0 DROPPED PREFETCHES: 0
ITLB PREFETCHES SAME FILL-ORIGIN LEVEL: 0 DIFFERENT FILL-ORIGIN LEVEL: 0
ITLB AVERAGE MISS LATENCY: -nan cycles
ITLB RQ	ACCESS:   38596457	FORWARD:          0	MERGED:    4015317	TO_CACHE:   34581140

DTLB TOTAL     ACCESS:   33570810  HIT:   33563164  MISS:       7646  HIT %:    99.9772  MISS %:  0.0227757   MPKI: 0.03823
DTLB LOAD TRANSLATION ACCESS:   33570810  HIT:   33563164  MISS:       7646  HIT %:    99.9772  MISS %:  0.0227757   MPKI: 0.03823
DTLB PREFETCH  REQUESTED:          0  ISSUED:          0  USEFUL:          0  USELESS:          0
DTLB USEFUL LOAD PREFETCHES:          0 PREFETCH ISSUED TO LOWER LEVEL:          0  ACCURACY: -nan
DTLB TIMELY PREFETCHES:          0 LATE PREFETCHES: 0 DROPPED PREFETCHES: 0
DTLB PREFETCHES SAME FILL-ORIGIN LEVEL: 0 DIFFERENT FILL-ORIGIN LEVEL: 0
DTLB AVERAGE MISS LATENCY: 95.0056 cycles
DTLB RQ	ACCESS:   38409614	FORWARD:          0	MERGED:    4838691	TO_CACHE:   33570923

STLB TOTAL     ACCESS:    1507977  HIT:    1503167  MISS:       4810  HIT %:     99.681  MISS %:    0.31897   MPKI: 0.02405
STLB LOAD TRANSLATION ACCESS:       7646  HIT:       2836  MISS:       4810  HIT %:    37.0913  MISS %:    62.9087   MPKI: 0.02405
STLB TRANSLATION FROM L1D PREFETCHER ACCESS:    1500331  HIT:    1500331  MISS:          0  HIT %:        100  MISS %:          0   MPKI: 0
STLB PREFETCH  REQUESTED:          0  ISSUED:          0  USEFUL:          0  USELESS:          0
STLB USEFUL LOAD PREFETCHES:          0 PREFETCH ISSUED TO LOWER LEVEL:          0  ACCURACY: -nan
STLB TIMELY PREFETCHES:          0 LATE PREFETCHES: 0 DROPPED PREFETCHES: 0
STLB PREFETCHES SAME FILL-ORIGIN LEVEL: 0 DIFFERENT FILL-ORIGIN LEVEL: 0
STLB AVERAGE MISS LATENCY: 136.715 cycles
STLB RQ	ACCESS:    6360837	FORWARD:          0	MERGED:    4852860	TO_CACHE:    1507977

STLB Hit, L1D data hit: 0
STLB Hit, L2C data hit: 0
STLB Hit, LLC data hit: 0
STLB Hit, LLC data miss: 0
STLB STLB hints to L2: 0
L1D TOTAL     ACCESS:   44732681  HIT:   44424955  MISS:     307726  HIT %:    99.3121  MISS %:   0.687922   MPKI: 1.53863
L1D LOAD      ACCESS:   24088135  HIT:   24077485  MISS:      10650  HIT %:    99.9558  MISS %:  0.0442126   MPKI: 0.05325
L1D RFO       ACCESS:   14292361  HIT:   14217802  MISS:      74559  HIT %:    99.4783  MISS %:    0.52167   MPKI: 0.372795
L1D PREFETCH  ACCESS:    6352185  HIT:    6129668  MISS:     222517  HIT %:     96.497  MISS %:      3.503   MPKI: 1.11258
L1D PREFETCH  REQUESTED:   12706382  ISSUED:   12706382  USEFUL:     222466  USELESS:          1
L1D USEFUL LOAD PREFETCHES:     222466 PREFETCH ISSUED TO LOWER LEVEL:     222536  ACCURACY: 99.9685
L1D TIMELY PREFETCHES:     222466 LATE PREFETCHES: 19 DROPPED PREFETCHES: 0
L1D PREFETCHES SAME FILL-ORIGIN LEVEL: 222536 DIFFERENT FILL-ORIGIN LEVEL: 0
L1D AVERAGE MISS LATENCY: 169.62 cycles
L1D RQ	ACCESS:   28911394	FORWARD:          0	MERGED:    4797124	TO_CACHE:   24094298
L1D WQ	ACCESS:   14315316	FORWARD:      19972	MERGED:          0	TO_CACHE:   14315316
L1D PQ	ACCESS:    6353191	FORWARD:          0	MERGED:          0	TO_CACHE:    6353191

L1D UNIQUE REGIONS ACCESSED: 0
L1D REGIONS CONFLICTS: 0
L1D Cross Page Prefetch Requests: 0
L1D Same Page Prefetch Requests: 6495230
L1D ROI Sum of L1D PQ occupancy: 76162321
L1D PREFETCHES PUSHED FROM L2C: 0
L1I TOTAL     ACCESS:   38596458  HIT:   38596458  MISS:          0  HIT %:        100  MISS %:          0   MPKI: 0
L1I LOAD      ACCESS:   38596458  HIT:   38596458  MISS:          0  HIT %:        100  MISS %:          0   MPKI: 0
L1I PREFETCH  REQUESTED:          0  ISSUED:          0  USEFUL:          0  USELESS:          0
L1I USEFUL LOAD PREFETCHES:          0 PREFETCH ISSUED TO LOWER LEVEL:          0  ACCURACY: -nan
L1I TIMELY PREFETCHES:          0 LATE PREFETCHES: 0 DROPPED PREFETCHES: 0
L1I PREFETCHES SAME FILL-ORIGIN LEVEL: 0 DIFFERENT FILL-ORIGIN LEVEL: 0
L1I AVERAGE MISS LATENCY: -nan cycles
L1I RQ	ACCESS:   53803493	FORWARD:          0	MERGED:   15207036	TO_CACHE:   38596457

BTB TOTAL     ACCESS:   30759871  HIT:   29566913  MISS:    1192958  HIT %:    96.1217  MISS %:    3.87829   MPKI: 5.96479
BTB BRANCH_DIRECT_JUMP	ACCESS:    7761714  HIT:    7761709  MISS:          5
BTB BRANCH_INDIRECT	ACCESS:          0  HIT:          0  MISS:          0
BTB BRANCH_CONDITIONAL	ACCESS:   20612275  HIT:   20612265  MISS:         10
BTB BRANCH_DIRECT_CALL	ACCESS:    1192941  HIT:    1192939  MISS:          2
BTB BRANCH_INDIRECT_CALL	ACCESS:          0  HIT:          0  MISS:          0
BTB BRANCH_RETURN	ACCESS:    1192941  HIT:          0  MISS:    1192941
BTB BRANCH_OTHER ACCESS:          0  HIT:          0  MISS:          0

L2C TOTAL     ACCESS:     387118  HIT:      77804  MISS:     309314  HIT %:    20.0983  MISS %:    79.9017   MPKI: 1.54657
L2C LOAD      ACCESS:      10631  HIT:          0  MISS:      10631  HIT %:          0  MISS %:        100   MPKI: 0.053155
L2C DATA LOAD MPKI: 0.053155
L2C INSTRUCTION LOAD MPKI: 0
L2C RFO       ACCESS:      74559  HIT:          0  MISS:      74559  HIT %:          0  MISS %:        100   MPKI: 0.372795
L2C PREFETCH  ACCESS:     222536  HIT:          1  MISS:     222535  HIT %: 0.000449365  MISS %:    99.9996   MPKI: 1.11267
L2C DATA PREFETCH MPKI: 1.11267
L2C INSTRUCTION PREFETCH MPKI: 0
L2C WRITEBACK ACCESS:      74582  HIT:      73606  MISS:        976  HIT %:    98.6914  MISS %:    1.30863   MPKI: 0.00488
L2C LOAD TRANSLATION ACCESS:       4810  HIT:       4197  MISS:        613  HIT %:    87.2557  MISS %:    12.7443   MPKI: 0.003065
L2C PREFETCH  REQUESTED:          0  ISSUED:          0  USEFUL:          0  USELESS:     220272
L2C USEFUL LOAD PREFETCHES:          0 PREFETCH ISSUED TO LOWER LEVEL:     222535  ACCURACY: 0
L2C TIMELY PREFETCHES:          0 LATE PREFETCHES: 0 DROPPED PREFETCHES: 0
L2C PREFETCHES SAME FILL-ORIGIN LEVEL: 0 DIFFERENT FILL-ORIGIN LEVEL: 0
L2C AVERAGE MISS LATENCY: 156.099 cycles
L2C RQ	ACCESS:      90000	FORWARD:          0	MERGED:          0	TO_CACHE:      90000
L2C WQ	ACCESS:      74582	FORWARD:          0	MERGED:          0	TO_CACHE:      74582
L2C PQ	ACCESS:     222536	FORWARD:          0	MERGED:          0	TO_CACHE:     222536

L2C Instructions Evicting Data 0
L2C Translations Evicting Data 613
L2C Data Evicting Data 307117
L2C Instructions Evicting Instructions 0
L2C Translations Evicting Instructions 0
L2C Data Evicting Instructions 0
L2C Instructions Evicting Translations 0
L2C Translations Evicting Translations 0
L2C Data Evicting Translations 608
L2C Dense regions hint from L2: 0
PSCL5 TOTAL     ACCESS:       4810  HIT:       4810  MISS:          0  HIT %:        100  MISS %:          0   MPKI: 0
PSCL5 LOAD TRANSLATION ACCESS:       4810  HIT:       4810  MISS:          0  HIT %:        100  MISS %:          0   MPKI: 0
[...]
LLC PREFETCH  ACCESS:     222535  HIT:          0  MISS:     222535  HIT %:          0  MISS %:        100   MPKI: 1.11267
LLC WRITEBACK ACCESS:      74244  HIT:      71565  MISS:       2679  HIT %:    96.3916  MISS %:    3.60837   MPKI: 0.013395
LLC LOAD TRANSLATION ACCESS:        613  HIT:          2  MISS:        611  HIT %:   0.326264  MISS %:    99.6737   MPKI: 0.003055
LLC PREFETCH  REQUESTED:          0  ISSUED:          0  USEFUL:          0  USELESS:     857070
LLC USEFUL LOAD PREFETCHES:          0 PREFETCH ISSUED TO LOWER LEVEL:     896200  ACCURACY: 0
LLC TIMELY PREFETCHES:          0 LATE PREFETCHES: 0 DROPPED PREFETCHES: 0
LLC PREFETCHES SAME FILL-ORIGIN LEVEL: 0 DIFFERENT FILL-ORIGIN LEVEL: 0
LLC AVERAGE MISS LATENCY: 504.967 cycles
LLC RQ	ACCESS:     337827	FORWARD:          0	MERGED:          0	TO_CACHE:     337827
LLC WQ	ACCESS:     297228	FORWARD:          0	MERGED:          0	TO_CACHE:     297228
LLC PQ	ACCESS:     896200	FORWARD:          0	MERGED:          0	TO_CACHE:     896200

LLC Dense regions hint to LLC: 0

RAW hits: 3313249
Loads Generated: 32224644
Loads sent to L1D: 28911394
Stores Generated: 14315306
Stores sent to L1D: 14315316
Major fault: 0 Minor fault: 6061
Allocated PAGES: 24244

CPU 3 cumulative IPC: 0.686026 instructions: 200000000 cycles: 291534345
ITLB TOTAL     ACCESS:   34581143  HIT:   34581143  MISS:          0  HIT %:        100  MISS %:          0   MPKI: 0
ITLB LOAD TRANSLATION ACCESS:   34581143  HIT:   34581143  MISS:          0  HIT %:        100  MISS %:          0   MPKI: 0
ITLB PREFETCH  REQUESTED:          0  ISSUED:          0  USEFUL:          0  USELESS:          0
ITLB USEFUL LOAD PREFETCHES:          0 PREFETCH ISSUED TO LOWER LEVEL:          0  ACCURACY: -nan
ITLB TIMELY PREFETCHES:          0 LATE PREFETCHES: 0 DROPPED PREFETCHES: 0
ITLB PREFETCHES SAME FILL-ORIGIN LEVEL: 0 DIFFERENT FILL-ORIGIN LEVEL: 0
ITLB AVERAGE MISS LATENCY: -nan cycles
ITLB RQ	ACCESS:   38603163	FORWARD:          0	MERGED:    4016031	TO_CACHE:   34587132

DTLB TOTAL     ACCESS:   33571363  HIT:   33563717  MISS:       7646  HIT %:    99.9772  MISS %:  0.0227754   MPKI: 0.03823
DTLB LOAD TRANSLATION ACCESS:   33571363  HIT:   33563717  MISS:       7646  HIT %:    99.9772  MISS %:  0.0227754   MPKI: 0.03823
DTLB PREFETCH  REQUESTED:          0  ISSUED:          0  USEFUL:          0  USELESS:          0
DTLB USEFUL LOAD PREFETCHES:          0 PREFETCH ISSUED TO LOWER LEVEL:          0  ACCURACY: -nan
DTLB TIMELY PREFETCHES:          0 LATE PREFETCHES: 0 DROPPED PREFETCHES: 0
DTLB PREFETCHES SAME FILL-ORIGIN LEVEL: 0 DIFFERENT FILL-ORIGIN LEVEL: 0
DTLB AVERAGE MISS LATENCY: 95.1484 cycles
DTLB RQ	ACCESS:   38416666	FORWARD:          0	MERGED:    4839334	TO_CACHE:   33577332

STLB TOTAL     ACCESS:    1444298  HIT:    1439488  MISS:       4810  HIT %:     99.667  MISS %:   0.333034   MPKI: 0.02405
STLB LOAD TRANSLATION ACCESS:       7646  HIT:       2836  MISS:       4810  HIT %:    37.0913  MISS %:    62.9087   MPKI: 0.02405
STLB TRANSLATION FROM L1D PREFETCHER ACCESS:    1436652  HIT:    1436652  MISS:          0  HIT %:        100  MISS %:          0   MPKI: 0
STLB PREFETCH  REQUESTED:          0  ISSUED:          0  USEFUL:          0  USELESS:          0
STLB USEFUL LOAD PREFETCHES:          0 PREFETCH ISSUED TO LOWER LEVEL:          0  ACCURACY: -nan
STLB TIMELY PREFETCHES:          0 LATE PREFETCHES: 0 DROPPED PREFETCHES: 0
STLB PREFETCHES SAME FILL-ORIGIN LEVEL: 0 DIFFERENT FILL-ORIGIN LEVEL: 0
STLB AVERAGE MISS LATENCY: 136.929 cycles
STLB RQ	ACCESS:    5465104	FORWARD:          0	MERGED:    4020504	TO_CACHE:    1444600

STLB Hit, L1D data hit: 0
STLB Hit, L2C data hit: 0
STLB Hit, LLC data hit: 0
STLB Hit, LLC data miss: 0
STLB STLB hints to L2: 0
L1D TOTAL     ACCESS:   43837901  HIT:   43530179  MISS:     307722  HIT %:     99.298  MISS %:   0.701954   MPKI: 1.53861
L1D LOAD      ACCESS:   24089348  HIT:   24079674  MISS:       9674  HIT %:    99.9598  MISS %:  0.0401588   MPKI: 0.04837
L1D RFO       ACCESS:   14293190  HIT:   14218631  MISS:      74559  HIT %:    99.4784  MISS %:    0.52164   MPKI: 0.372795
L1D PREFETCH  ACCESS:    5455363  HIT:    5231874  MISS:     223489  HIT %:    95.9033  MISS %:    4.09668   MPKI: 1.11745
L1D PREFETCH  REQUESTED:   10914903  ISSUED:   10914903  USEFUL:     223479  USELESS:          1
L1D USEFUL LOAD PREFETCHES:     223479 PREFETCH ISSUED TO LOWER LEVEL:     223627  ACCURACY: 99.9338
L1D TIMELY PREFETCHES:     223479 LATE PREFETCHES: 18 DROPPED PREFETCHES: 0
L1D PREFETCHES SAME FILL-ORIGIN LEVEL: 223627 DIFFERENT FILL-ORIGIN LEVEL: 0
L1D AVERAGE MISS LATENCY: 168.945 cycles
L1D RQ	ACCESS:   28916674	FORWARD:          0	MERGED:    4797924	TO_CACHE:   24098781
L1D WQ	ACCESS:   14317885	FORWARD:      19969	MERGED:          0	TO_CACHE:   14317885
L1D PQ	ACCESS:    5457452	FORWARD:          0	MERGED:          1	TO_CACHE:    5457451

L1D UNIQUE REGIONS ACCESSED: 0
L1D REGIONS CONFLICTS: 0
L1D Cross Page Prefetch Requests: 0
L1D Same Page Prefetch Requests: 5599108
L1D ROI Sum of L1D PQ occupancy: 64997701
L1D PREFETCHES PUSHED FROM L2C: 0
L1I TOTAL     ACCESS:   38596458  HIT:   38596458  MISS:          0  HIT %:        100  MISS %:          0   MPKI: 0
L1I LOAD      ACCESS:   38596458  HIT:   38596458  MISS:          0  HIT %:        100  MISS %:          0   MPKI: 0
L1I PREFETCH  REQUESTED:          0  ISSUED:          0  USEFUL:          0  USELESS:          0
L1I USEFUL LOAD PREFETCHES:          0 PREFETCH ISSUED TO LOWER LEVEL:          0  ACCURACY: -nan
L1I TIMELY PREFETCHES:          0 LATE PREFETCHES: 0 DROPPED PREFETCHES: 0
L1I PREFETCHES SAME FILL-ORIGIN LEVEL: 0 DIFFERENT FILL-ORIGIN LEVEL: 0
L1I AVERAGE MISS LATENCY: -nan cycles
L1I RQ	ACCESS:   53812838	FORWARD:          0	MERGED:   15209675	TO_CACHE:   38603163

BTB TOTAL     ACCESS:   30759871  HIT:   29566913  MISS:    1192958  HIT %:    96.1217  MISS %:    3.87829   MPKI: 5.96479
BTB BRANCH_DIRECT_JUMP	ACCESS:    7761714  HIT:    7761709  MISS:          5
BTB BRANCH_INDIRECT	ACCESS:          0  HIT:          0  MISS:          0
BTB BRANCH_CONDITIONAL	ACCESS:   20612275  HIT:   20612265  MISS:         10
BTB BRANCH_DIRECT_CALL	ACCESS:    1192941  HIT:    1192939  MISS:          2
BTB BRANCH_INDIRECT_CALL	ACCESS:          0  HIT:          0  MISS:          0
BTB BRANCH_RETURN	ACCESS:    1192941  HIT:          0  MISS:    1192941
BTB BRANCH_OTHER ACCESS:          0  HIT:          0  MISS:          0

L2C TOTAL     ACCESS:     387114  HIT:      77163  MISS:     309951  HIT %:    19.9329  MISS %:    80.0671   MPKI: 1.54975
L2C LOAD      ACCESS:       9656  HIT:          0  MISS:       9656  HIT %:          0  MISS %:        100   MPKI: 0.04828
L2C DATA LOAD MPKI: 0.04828
L2C INSTRUCTION LOAD MPKI: 0
L2C RFO       ACCESS:      74559  HIT:          0  MISS:      74559  HIT %:          0  MISS %:        100   MPKI: 0.372795
L2C PREFETCH  ACCESS:     223507  HIT:          1  MISS:     223506  HIT %: 0.000447413  MISS %:    99.9996   MPKI: 1.11753
L2C DATA PREFETCH MPKI: 1.11753
L2C INSTRUCTION PREFETCH MPKI: 0
L2C WRITEBACK ACCESS:      74582  HIT:      72967  MISS:       1615  HIT %:    97.8346  MISS %:     2.1654   MPKI: 0.008075
L2C LOAD TRANSLATION ACCESS:       4810  HIT:       4195  MISS:        615  HIT %:    87.2141  MISS %:    12.7859   MPKI: 0.003075
L2C PREFETCH  REQUESTED:          0  ISSUED:          0  USEFUL:          0  USELESS:     221139
L2C USEFUL LOAD PREFETCHES:          0 PREFETCH ISSUED TO LOWER LEVEL:     223626  ACCURACY: 0
L2C TIMELY PREFETCHES:          0 LATE PREFETCHES: 0 DROPPED PREFETCHES: 0
L2C PREFETCHES SAME FILL-ORIGIN LEVEL: 0 DIFFERENT FILL-ORIGIN LEVEL: 0
L2C AVERAGE MISS LATENCY: 155.1 cycles
L2C RQ	ACCESS:      89054	FORWARD:          0	MERGED:          0	TO_CACHE:      89054
L2C WQ	ACCESS:      74607	FORWARD:          0	MERGED:          0	TO_CACHE:      74607
L2C PQ	ACCESS:     223627	FORWARD:          0	MERGED:          0	TO_CACHE:     223627

L2C Instructions Evicting Data 0
L2C Translations Evicting Data 620
L2C Data Evicting Data 307251
L2C Instructions Evicting Instructions 0
L2C Translations Evicting Instructions 0
L2C Data Evicting Instructions 0
L2C Instructions Evicting Translations 0
L2C Translations Evicting Translations 0
L2C Data Evicting Translations 611
L2C Dense regions hint from L2: 0
PSCL5 TOTAL     ACCESS:       4810  HIT:       4810  MISS:          0  HIT %:        100  MISS %:          0   MPKI: 0
PSCL5 LOAD TRANSLATION ACCESS:       4810  HIT:       4810  MISS:          0  HIT %:        100  MISS %:          0   MPKI: 0
PSCL5 PREFETCH  REQUESTED:          0  ISSUED:          0  USEFUL:          0  USELESS:          0
PSCL5 USEFUL LOAD PREFETCHES:          0 PREFETCH ISSUED TO LOWER LEVEL:          0  ACCURACY: -nan
PSCL5 TIMELY PREFETCHES:          0 LATE PREFETCHES: 0 DROPPED PREFETCHES: 0
PSCL5 PREFETCHES SAME FILL-ORIGIN LEVEL: 0 DIFFERENT FILL-ORIGIN LEVEL: 0

PSCL4 TOTAL     ACCESS:       4810  HIT:       4810  MISS:          0  HIT %:        100  MISS %:          0   MPKI: 0
PSCL4 LOAD TRANSLATION ACCESS:       4810  HIT:       4810  MISS:          0  HIT %:        100  MISS %:          0   MPKI: 0
PSCL4 PREFETCH  REQUESTED:          0  ISSUED:          0  USEFUL:          0  USELESS:          0
PSCL4 USEFUL LOAD PREFETCHES:          0 PREFETCH ISSUED TO LOWER LEVEL:          0  ACCURACY: -nan
PSCL4 TIMELY PREFETCHES:          0 LATE PREFETCHES: 0 DROPPED PREFETCHES: 0
PSCL4 PREFETCHES SAME FILL-ORIGIN LEVEL: 0 DIFFERENT FILL-ORIGIN LEVEL: 0

PSCL3 TOTAL     ACCESS:       4810  HIT:       4810  MISS:          0  HIT %:        100  MISS %:          0   MPKI: 0
PSCL3 LOAD TRANSLATION ACCESS:       4810  HIT:       4810  MISS:          0  HIT %:        100  MISS %:          0   MPKI: 0
PSCL3 PREFETCH  REQUESTED:          0  ISSUED:          0  USEFUL:          0  USELESS:          0
PSCL3 USEFUL LOAD PREFETCHES:          0 PREFETCH ISSUED TO LOWER LEVEL:          0  ACCURACY: -nan
PSCL3 TIMELY PREFETCHES:          0 LATE PREFETCHES: 0 DROPPED PREFETCHES: 0
PSCL3 PREFETCHES SAME FILL-ORIGIN LEVEL: 0 DIFFERENT FILL-ORIGIN LEVEL: 0

PSCL2 TOTAL     ACCESS:       4810  HIT:       4801  MISS:          9  HIT %:    99.8129  MISS %:    0.18711   MPKI: 4.5e-05
PSCL2 LOAD TRANSLATION ACCESS:       4810  HIT:       4801  MISS:          9  HIT %:    99.8129  MISS %:    0.18711   MPKI: 4.5e-05
PSCL2 PREFETCH  REQUESTED:          0  ISSUED:          0  USEFUL:          0  USELESS:          0
PSCL2 USEFUL LOAD PREFETCHES:          0 PREFETCH ISSUED TO LOWER LEVEL:          0  ACCURACY: -nan
PSCL2 TIMELY PREFETCHES:          0 LATE PREFETCHES: 0 DROPPED PREFETCHES: 0
PSCL2 PREFETCHES SAME FILL-ORIGIN LEVEL: 0 DIFFERENT FILL-ORIGIN LEVEL: 0

LLC TOTAL     ACCESS:     382761  HIT:      71534  MISS:     311227  HIT %:    18.6889  MISS %:    81.3111   MPKI: 1.55614
LLC LOAD      ACCESS:       9656  HIT:          0  MISS:       9656  HIT %:          0  MISS %:        100   MPKI: 0.04828
LLC RFO       ACCESS:      74559  HIT:          0  MISS:      74559  HIT %:          0  MISS %:        100   MPKI: 0.372795
LLC PREFETCH  ACCESS:     223506  HIT:          0  MISS:     223506  HIT %:          0  MISS %:        100   MPKI: 1.11753
LLC WRITEBACK ACCESS:      74425  HIT:      71530  MISS:       2895  HIT %:    96.1102  MISS %:    3.88982   MPKI: 0.014475
LLC LOAD TRANSLATION ACCESS:        615  HIT:          4  MISS:        611  HIT %:   0.650407  MISS %:    99.3496   MPKI: 0.003055
LLC PREFETCH  REQUESTED:          0  ISSUED:          0  USEFUL:          0  USELESS:     857070
LLC USEFUL LOAD PREFETCHES:          0 PREFETCH ISSUED TO LOWER LEVEL:     896200  ACCURACY: 0
LLC TIMELY PREFETCHES:          0 LATE PREFETCHES: 0 DROPPED PREFETCHES: 0
LLC PREFETCHES SAME FILL-ORIGIN LEVEL: 0 DIFFERENT FILL-ORIGIN LEVEL: 0
LLC AVERAGE MISS LATENCY: 504.623 cycles
LLC RQ	ACCESS:     337827	FORWARD:          0	MERGED:          0	TO_CACHE:     337827
LLC WQ	ACCESS:     297228	FORWARD:          0	MERGED:          0	TO_CACHE:     297228
LLC PQ	ACCESS:     896200	FORWARD:          0	MERGED:          0	TO_CACHE:     896200

LLC Dense regions hint to LLC: 0

RAW hits: 3313029
Loads Generated: 32224643
Loads sent to L1D: 28911613
Stores Generated: 14315306
Stores sent to L1D: 14315317
Major fault: 0 Minor fault: 6061
Allocated PAGES: 24244

stream: 
stream:times selected: 4571263
stream:pref_filled: 151122
stream:pref_useful: 151092
stream:pref_late: 3
stream:misses: 4462
stream:misses_by_poll: 0

CS: 
CS:times selected: 187427
CS:pref_filled: 26207
CS:pref_useful: 26204
CS:pref_late: 0
CS:misses: 23648
CS:misses_by_poll: 28

CPLX: 
CPLX:times selected: 4330566
CPLX:pref_filled: 78848
CPLX:pref_useful: 78659
CPLX:pref_late: 2
CPLX:misses: 12186
CPLX:misses_by_poll: 56

NL_L1: 
NL:times selected: 22524
NL:pref_filled: 385
NL:pref_useful: 385
NL:pref_late: 0
NL:misses: 133
NL:misses_by_poll: 0

total selections: 9111780
total_filled: 225756
total_useful: 225608
total_late: 5
total_polluted: 84
total_misses_after_warmup: 11678
conflicts: 0
Degree Incremented Times: 1651734
Degree Decremented Times: 0

L1 IP Table Write Accesses: 96407830
L1 IP Table Read Accesses: 96407830
L1 RST Write Accesses: 14597519
L1 RST Read Accesses: 29195038
L1 CSPT Write Accesses: 14597519
L1 CSPT Read Accesses: 49268046
L1 RR Filter Tag Write Accesses: 25003669
L1 RR Filter Tag Read Accesses: 2605336767
L1 IP Table Tag Write Accesses: 96407830
L1 IP Table Tag Read Accesses: 96407830
L1 RST Tag Write Accesses: 0
L1 RST Tag Read Accesses: 131388876
L1 RR Filter Write Accesses: 0
L1 RR Filter Read Accesses: 106787292
test: 13047100

stream: 
stream:times selected: 4569716
stream:pref_filled: 151777
stream:pref_useful: 151744
stream:pref_late: 10
stream:misses: 4957
stream:misses_by_poll: 0

CS: 
CS:times selected: 187372
CS:pref_filled: 26519
CS:pref_useful: 26519
CS:pref_late: 0
CS:misses: 23407
CS:misses_by_poll: 46

CPLX: 
CPLX:times selected: 4329091
CPLX:pref_filled: 76888
CPLX:pref_useful: 76721
CPLX:pref_late: 6
CPLX:misses: 13608
CPLX:misses_by_poll: 90

NL_L1: 
NL:times selected: 22793
NL:pref_filled: 421
NL:pref_useful: 421
NL:pref_late: 0
NL:misses: 137
NL:misses_by_poll: 0

total selections: 9108972
total_filled: 224267
total_useful: 224109
total_late: 16
total_polluted: 136
total_misses_after_warmup: 13924
conflicts: 0
Degree Incremented Times: 1651734
Degree Decremented Times: 0

L1 IP Table Write Accesses: 96407830
L1 IP Table Read Accesses: 96407830
L1 RST Write Accesses: 14597519
L1 RST Read Accesses: 29195038
L1 CSPT Write Accesses: 14597519
L1 CSPT Read Accesses: 49268046
L1 RR Filter Tag Write Accesses: 25003669
L1 RR Filter Tag Read Accesses: 2605336767
L1 IP Table Tag Write Accesses: 96407830
L1 IP Table Tag Read Accesses: 96407830
L1 RST Tag Write Accesses: 0
L1 RST Tag Read Accesses: 131388876
L1 RR Filter Write Accesses: 0
L1 RR Filter Read Accesses: 106787292
test: 13047100

stream: 
stream:times selected: 4568455
stream:pref_filled: 151216
stream:pref_useful: 151198
stream:pref_late: 9
stream:misses: 5876
stream:misses_by_poll: 0

CS: 
CS:times selected: 187323
CS:pref_filled: 26586
CS:pref_useful: 26586
CS:pref_late: 0
CS:misses: 23727
CS:misses_by_poll: 27

CPLX: 
CPLX:times selected: 4327867
CPLX:pref_filled: 75045
CPLX:pref_useful: 74956
CPLX:pref_late: 6
CPLX:misses: 15869
CPLX:misses_by_poll: 84

NL_L1: 
NL:times selected: 22597
NL:pref_filled: 447
NL:pref_useful: 447
NL:pref_late: 5
NL:misses: 160
NL:misses_by_poll: 0

total selections: 9106242
total_filled: 222517
total_useful: 222466
total_late: 20
total_polluted: 111
total_misses_after_warmup: 16812
conflicts: 0
Degree Incremented Times: 1651734
Degree Decremented Times: 0

L1 IP Table Write Accesses: 96407830
L1 IP Table Read Accesses: 96407830
L1 RST Write Accesses: 14597519
L1 RST Read Accesses: 29195038
L1 CSPT Write Accesses: 14597519
L1 CSPT Read Accesses: 49268046
L1 RR Filter Tag Write Accesses: 25003669
L1 RR Filter Tag Read Accesses: 2605336767
L1 IP Table Tag Write Accesses: 96407830
L1 IP Table Tag Read Accesses: 96407830
L1 RST Tag Write Accesses: 0
L1 RST Tag Read Accesses: 131388876
L1 RR Filter Write Accesses: 0
L1 RR Filter Read Accesses: 106787292
test: 13047100

stream: 
stream:times selected: 4569254
stream:pref_filled: 151459
stream:pref_useful: 151422
stream:pref_late: 8
stream:misses: 5227
stream:misses_by_poll: 0

CS: 
CS:times selected: 187352
CS:pref_filled: 26633
CS:pref_useful: 26633
CS:pref_late: 0
CS:misses: 23701
CS:misses_by_poll: 27

CPLX: 
CPLX:times selected: 4328659
CPLX:pref_filled: 75996
CPLX:pref_useful: 75838
CPLX:pref_late: 5
CPLX:misses: 14647
CPLX:misses_by_poll: 60

NL_L1: 
NL:times selected: 22235
NL:pref_filled: 390
NL:pref_useful: 390
NL:pref_late: 5
NL:misses: 142
NL:misses_by_poll: 0

total selections: 9107500
total_filled: 223608
total_useful: 223479
total_late: 18
total_polluted: 87
total_misses_after_warmup: 14959
conflicts: 0
Degree Incremented Times: 1651734
Degree Decremented Times: 0

L1 IP Table Write Accesses: 96407830
L1 IP Table Read Accesses: 96407830
L1 RST Write Accesses: 14597519
L1 RST Read Accesses: 29195038
L1 CSPT Write Accesses: 14597519
L1 CSPT Read Accesses: 49268046
L1 RR Filter Tag Write Accesses: 25003669
L1 RR Filter Tag Read Accesses: 2605336767
L1 IP Table Tag Write Accesses: 96407830
L1 IP Table Tag Read Accesses: 96407830
L1 RST Tag Write Accesses: 0
L1 RST Tag Read Accesses: 131388876
L1 RR Filter Write Accesses: 0
L1 RR Filter Read Accesses: 106787292
test: 13047100

DRAM Statistics
 CHANNEL 0
 RQ ROW_BUFFER_HIT:     575030  ROW_BUFFER_MISS:     658984
 DBUS_CONGESTED:       1935
 WQ ROW_BUFFER_HIT:      41536  ROW_BUFFER_MISS:     255683  FULL:          0

 AVG_CONGESTED_CYCLE: 4
 All warmup complete: 5
Channel 0 Bank busy for read cycles: 0
Channel 0 Bank busy for write cycles: 0
Channel 0
Rank 0
0banks busy for read cycles: 153261432
0banks busy for write cycles: 205250
1banks busy for read cycles: 78453845
1banks busy for write cycles: 30563241
2banks busy for read cycles: 15109658
2banks busy for write cycles: 6642205
3banks busy for read cycles: 2666855
3banks busy for write cycles: 1610437
4banks busy for read cycles: 1162254
4banks busy for write cycles: 530620
5banks busy for read cycles: 372765
5banks busy for write cycles: 194576
6banks busy for read cycles: 237746
6banks busy for write cycles: 94758
7banks busy for read cycles: 393785
7banks busy for write cycles: 50889
8banks busy for read cycles: 30007
8banks busy for write cycles: 5901

CPU 0 Branch Prediction Accuracy: 97.984% MPKI: 5.8086 Average ROB Occupancy at Mispredict: 64.7778
Branch types
NOT_BRANCH: 142471515 71.188%
BRANCH_DIRECT_JUMP: 7766895 3.88085%
BRANCH_INDIRECT: 0 0%
BRANCH_CONDITIONAL: 47507805 23.738%
BRANCH_DIRECT_CALL: 1193766 0.596483%
BRANCH_INDIRECT_CALL: 0 0%
BRANCH_RETURN: 1193766 0.596483%
BRANCH_OTHER: 0 0%


CPU 1 Branch Prediction Accuracy: 97.9838% MPKI: 5.80893 Average ROB Occupancy at Mispredict: 64.7957
Branch types
NOT_BRANCH: 142420768 71.188%
BRANCH_DIRECT_JUMP: 7764155 3.88086%
BRANCH_INDIRECT: 0 0%
BRANCH_CONDITIONAL: 47490994 23.738%
BRANCH_DIRECT_CALL: 1193329 0.596477%
BRANCH_INDIRECT_CALL: 0 0%
BRANCH_RETURN: 1193330 0.596477%
BRANCH_OTHER: 0 0%


CPU 2 Branch Prediction Accuracy: 97.9837% MPKI: 5.80927 Average ROB Occupancy at Mispredict: 64.8229
Branch types
NOT_BRANCH: 142375808 71.1879%
BRANCH_DIRECT_JUMP: 7761714 3.88086%
BRANCH_INDIRECT: 0 0%
BRANCH_CONDITIONAL: 47476237 23.7381%
BRANCH_DIRECT_CALL: 1192941 0.59647%
BRANCH_INDIRECT_CALL: 0 0%
BRANCH_RETURN: 1192941 0.59647%
BRANCH_OTHER: 0 0%


CPU 3 Branch Prediction Accuracy: 97.9838% MPKI: 5.80905 Average ROB Occupancy at Mispredict: 64.8053
Branch types
NOT_BRANCH: 142400720 71.1879%
BRANCH_DIRECT_JUMP: 7763070 3.88086%
BRANCH_INDIRECT: 0 0%
BRANCH_CONDITIONAL: 47484410 23.7381%
BRANCH_DIRECT_CALL: 1193155 0.596474%
BRANCH_INDIRECT_CALL: 0 0%
BRANCH_RETURN: 1193156 0.596474%
BRANCH_OTHER: 0 0%

DRAM PAGES: 1048576
Allocated PAGES: 24244
