
*** ChampSim Multicore Out-of-Order Simulator ***

Warmup Instructions: 50000000
Simulation Instructions: 200000000
Number of CPUs: 4
LLC sets: 8192
LLC ways: 16
Off-chip DRAM Size: 4096 MB Channels: 1 Width: 64-bit Data Rate: 6400 MT/s
CPU 0 runs ./traces/ligra/ligra_Triangle.com-lj.ungraph.gcc_6.3.0_O3.drop_3500M.length_250M.champsimtrace.xz
.xz
CPU 1 runs ./traces/ligra/ligra_Components.com-lj.ungraph.gcc_6.3.0_O3.drop_5000M.length_250M.champsimtrace.xz
.xz
CPU 2 runs ./traces/ligra/ligra_PageRank.com-lj.ungraph.gcc_6.3.0_O3.drop_51000M.length_250M.champsimtrace.xz
.xz
CPU 3 runs ./traces/gap/pr-14.trace.gz
.gz
BTB has LRU replacement policy
ITLB has LRU replacement policy
DTLB has LRU replacement policy
STLB has LRU replacement policy
L1I has LRU replacement policy
IP Table Entries: 1024
CSPT Entries: 128
RR_ENTRIES: 32
RST_ENTRIES: 8
L1D has LRU replacement policy
Initialize SRRIP state for L2C
Initialize DRRIP state for LLC
BTB has LRU replacement policy
ITLB has LRU replacement policy
DTLB has LRU replacement policy
STLB has LRU replacement policy
L1I has LRU replacement policy
IP Table Entries: 1024
CSPT Entries: 128
RR_ENTRIES: 32
RST_ENTRIES: 8
L1D has LRU replacement policy
Initialize SRRIP state for L2C
Initialize DRRIP state for LLC
BTB has LRU replacement policy
ITLB has LRU replacement policy
DTLB has LRU replacement policy
STLB has LRU replacement policy
L1I has LRU replacement policy
IP Table Entries: 1024
CSPT Entries: 128
RR_ENTRIES: 32
RST_ENTRIES: 8
L1D has LRU replacement policy
Initialize SRRIP state for L2C
Initialize DRRIP state for LLC
BTB has LRU replacement policy
ITLB has LRU replacement policy
DTLB has LRU replacement policy
STLB has LRU replacement policy
L1I has LRU replacement policy
IP Table Entries: 1024
CSPT Entries: 128
RR_ENTRIES: 32
RST_ENTRIES: 8
L1D has LRU replacement policy
Initialize SRRIP state for L2C
Initialize DRRIP state for LLC
Heartbeat CPU 2 instructions: 10000000 cycles: 2674088 heartbeat IPC: 3.73959 cumulative IPC: 3.73959 (Simulation time: 0 hr 2 min 46 sec) 
Heartbeat CPU 0 instructions: 10000000 cycles: 3333344 heartbeat IPC: 2.99999 cumulative IPC: 2.99999 (Simulation time: 0 hr 3 min 27 sec) 
Heartbeat CPU 3 instructions: 10000001 cycles: 3333503 heartbeat IPC: 2.99985 cumulative IPC: 2.99985 (Simulation time: 0 hr 3 min 27 sec) 
Heartbeat CPU 1 instructions: 10000000 cycles: 3795392 heartbeat IPC: 2.63477 cumulative IPC: 2.63477 (Simulation time: 0 hr 3 min 57 sec) 
Heartbeat CPU 2 instructions: 20000002 cycles: 5594214 heartbeat IPC: 3.42451 cumulative IPC: 3.57512 (Simulation time: 0 hr 5 min 44 sec) 
Heartbeat CPU 0 instructions: 20000001 cycles: 6666678 heartbeat IPC: 3 cumulative IPC: 2.99999 (Simulation time: 0 hr 6 min 43 sec) 
Heartbeat CPU 1 instructions: 20000000 cycles: 7591461 heartbeat IPC: 2.6343 cumulative IPC: 2.63454 (Simulation time: 0 hr 7 min 28 sec) 
Heartbeat CPU 2 instructions: 30000003 cycles: 8923488 heartbeat IPC: 3.00366 cumulative IPC: 3.36191 (Simulation time: 0 hr 8 min 43 sec) 
Heartbeat CPU 3 instructions: 20000001 cycles: 9478317 heartbeat IPC: 1.62739 cumulative IPC: 2.11008 (Simulation time: 0 hr 9 min 14 sec) 
Heartbeat CPU 0 instructions: 30000002 cycles: 10000011 heartbeat IPC: 3 cumulative IPC: 3 (Simulation time: 0 hr 9 min 42 sec) 
Heartbeat CPU 1 instructions: 30000002 cycles: 11387194 heartbeat IPC: 2.63454 cumulative IPC: 2.63454 (Simulation time: 0 hr 10 min 57 sec) 
Heartbeat CPU 2 instructions: 40000001 cycles: 12255799 heartbeat IPC: 3.00092 cumulative IPC: 3.26376 (Simulation time: 0 hr 11 min 46 sec) 
Heartbeat CPU 0 instructions: 40000003 cycles: 13333345 heartbeat IPC: 3 cumulative IPC: 3 (Simulation time: 0 hr 12 min 46 sec) 
Heartbeat CPU 1 instructions: 40000001 cycles: 15185134 heartbeat IPC: 2.63301 cumulative IPC: 2.63416 (Simulation time: 0 hr 14 min 25 sec) 
Heartbeat CPU 2 instructions: 50000002 cycles: 15589135 heartbeat IPC: 3 cumulative IPC: 3.20736 (Simulation time: 0 hr 14 min 47 sec) 
Heartbeat CPU 3 instructions: 30000003 cycles: 15989741 heartbeat IPC: 1.53576 cumulative IPC: 1.8762 (Simulation time: 0 hr 15 min 6 sec) 
Heartbeat CPU 0 instructions: 50000002 cycles: 16666678 heartbeat IPC: 3 cumulative IPC: 3 (Simulation time: 0 hr 15 min 41 sec) 
Heartbeat CPU 2 instructions: 60000002 cycles: 18922470 heartbeat IPC: 3 cumulative IPC: 0.528472 (Simulation time: 0 hr 17 min 27 sec) 
Heartbeat CPU 1 instructions: 50000002 cycles: 18985948 heartbeat IPC: 2.63102 cumulative IPC: 2.63353 (Simulation time: 0 hr 17 min 30 sec) 
Heartbeat CPU 0 instructions: 60000002 cycles: 20070593 heartbeat IPC: 2.93779 cumulative IPC: 0.498241 (Simulation time: 0 hr 18 min 15 sec) 
Heartbeat CPU 2 instructions: 70000003 cycles: 22100832 heartbeat IPC: 3.14628 cumulative IPC: 0.904943 (Simulation time: 0 hr 19 min 40 sec) 
Heartbeat CPU 3 instructions: 40000003 cycles: 22473514 heartbeat IPC: 1.54231 cumulative IPC: 1.77987 (Simulation time: 0 hr 19 min 57 sec) 
Heartbeat CPU 1 instructions: 60000001 cycles: 22856936 heartbeat IPC: 2.58332 cumulative IPC: 0.437504 (Simulation time: 0 hr 20 min 14 sec) 
Heartbeat CPU 0 instructions: 70000000 cycles: 23480937 heartbeat IPC: 2.93226 cumulative IPC: 0.851755 (Simulation time: 0 hr 20 min 43 sec) 
Heartbeat CPU 2 instructions: 80000001 cycles: 25279798 heartbeat IPC: 3.14568 cumulative IPC: 1.18672 (Simulation time: 0 hr 22 min 6 sec) 
Heartbeat CPU 1 instructions: 70000001 cycles: 26735419 heartbeat IPC: 2.57833 cumulative IPC: 0.748071 (Simulation time: 0 hr 23 min 15 sec) 
Heartbeat CPU 0 instructions: 80000001 cycles: 26882647 heartbeat IPC: 2.9397 cumulative IPC: 1.11596 (Simulation time: 0 hr 23 min 23 sec) 
Heartbeat CPU 2 instructions: 90000001 cycles: 28463568 heartbeat IPC: 3.14093 cumulative IPC: 1.40531 (Simulation time: 0 hr 24 min 36 sec) 
Heartbeat CPU 3 instructions: 50000000 cycles: 28970727 heartbeat IPC: 1.53912 cumulative IPC: 1.72588 (Simulation time: 0 hr 24 min 59 sec) 

Warmup complete CPU 0 instructions: 86126205 cycles: 28970730 (Simulation time: 0 hr 24 min 59 sec) 
Warmup complete CPU 1 instructions: 75755172 cycles: 28970730 (Simulation time: 0 hr 24 min 59 sec) 
Warmup complete CPU 2 instructions: 91595341 cycles: 28970730 (Simulation time: 0 hr 24 min 59 sec) 
Warmup complete CPU 3 instructions: 50000004 cycles: 28970730 (Simulation time: 0 hr 24 min 59 sec) 

Heartbeat CPU 0 instructions: 90000001 cycles: 32370476 heartbeat IPC: 1.82221 cumulative IPC: 1.13944 (Simulation time: 0 hr 26 min 6 sec) 
Heartbeat CPU 1 instructions: 80000001 cycles: 32719021 heartbeat IPC: 1.67123 cumulative IPC: 1.13247 (Simulation time: 0 hr 26 min 14 sec) 
Heartbeat CPU 2 instructions: 100000003 cycles: 36741505 heartbeat IPC: 1.20803 cumulative IPC: 1.08157 (Simulation time: 0 hr 27 min 34 sec) 
Heartbeat CPU 0 instructions: 100000001 cycles: 41111753 heartbeat IPC: 1.144 cumulative IPC: 1.14272 (Simulation time: 0 hr 29 min 6 sec) 
Heartbeat CPU 1 instructions: 90000000 cycles: 41638289 heartbeat IPC: 1.12117 cumulative IPC: 1.12451 (Simulation time: 0 hr 29 min 17 sec) 
Heartbeat CPU 2 instructions: 110000000 cycles: 45429461 heartbeat IPC: 1.15102 cumulative IPC: 1.11823 (Simulation time: 0 hr 30 min 45 sec) 
Heartbeat CPU 0 instructions: 110000000 cycles: 49873043 heartbeat IPC: 1.14138 cumulative IPC: 1.14216 (Simulation time: 0 hr 32 min 22 sec) 
Heartbeat CPU 1 instructions: 100000001 cycles: 50608602 heartbeat IPC: 1.11479 cumulative IPC: 1.12048 (Simulation time: 0 hr 32 min 37 sec) 
Heartbeat CPU 2 instructions: 120000001 cycles: 54719228 heartbeat IPC: 1.07645 cumulative IPC: 1.10316 (Simulation time: 0 hr 33 min 49 sec) 
Heartbeat CPU 0 instructions: 120000001 cycles: 58655644 heartbeat IPC: 1.13862 cumulative IPC: 1.14111 (Simulation time: 0 hr 34 min 59 sec) 
Heartbeat CPU 1 instructions: 110000000 cycles: 59603771 heartbeat IPC: 1.11171 cumulative IPC: 1.1179 (Simulation time: 0 hr 35 min 15 sec) 
Heartbeat CPU 2 instructions: 130000001 cycles: 63707207 heartbeat IPC: 1.1126 cumulative IPC: 1.1056 (Simulation time: 0 hr 36 min 37 sec) 
Heartbeat CPU 0 instructions: 130000002 cycles: 67453924 heartbeat IPC: 1.13659 cumulative IPC: 1.14008 (Simulation time: 0 hr 37 min 43 sec) 
Heartbeat CPU 1 instructions: 120000000 cycles: 68654950 heartbeat IPC: 1.10483 cumulative IPC: 1.11492 (Simulation time: 0 hr 38 min 8 sec) 
Heartbeat CPU 2 instructions: 140000001 cycles: 73416514 heartbeat IPC: 1.02994 cumulative IPC: 1.08907 (Simulation time: 0 hr 39 min 45 sec) 
Heartbeat CPU 0 instructions: 140000003 cycles: 76245097 heartbeat IPC: 1.1375 cumulative IPC: 1.1396 (Simulation time: 0 hr 40 min 35 sec) 
Heartbeat CPU 1 instructions: 130000000 cycles: 77610799 heartbeat IPC: 1.11659 cumulative IPC: 1.11523 (Simulation time: 0 hr 40 min 57 sec) 
Heartbeat CPU 2 instructions: 150000002 cycles: 84383462 heartbeat IPC: 0.911831 cumulative IPC: 1.05399 (Simulation time: 0 hr 43 min 8 sec) 
Heartbeat CPU 0 instructions: 150000001 cycles: 85031421 heartbeat IPC: 1.13813 cumulative IPC: 1.13937 (Simulation time: 0 hr 43 min 21 sec) 
Heartbeat CPU 1 instructions: 140000000 cycles: 86500130 heartbeat IPC: 1.12494 cumulative IPC: 1.11673 (Simulation time: 0 hr 43 min 50 sec) 
Heartbeat CPU 0 instructions: 160000001 cycles: 93820814 heartbeat IPC: 1.13774 cumulative IPC: 1.13915 (Simulation time: 0 hr 46 min 2 sec) 
Heartbeat CPU 1 instructions: 150000002 cycles: 95367850 heartbeat IPC: 1.12769 cumulative IPC: 1.11819 (Simulation time: 0 hr 46 min 32 sec) 
Heartbeat CPU 2 instructions: 160000002 cycles: 97035203 heartbeat IPC: 0.790405 cumulative IPC: 1.005 (Simulation time: 0 hr 47 min 1 sec) 
Heartbeat CPU 0 instructions: 170000001 cycles: 102529958 heartbeat IPC: 1.14822 cumulative IPC: 1.14022 (Simulation time: 0 hr 48 min 37 sec) 
Heartbeat CPU 1 instructions: 160000002 cycles: 104442255 heartbeat IPC: 1.102 cumulative IPC: 1.11625 (Simulation time: 0 hr 49 min 11 sec) 
Heartbeat CPU 0 instructions: 180000002 cycles: 111327686 heartbeat IPC: 1.13666 cumulative IPC: 1.13984 (Simulation time: 0 hr 51 min 0 sec) 
Heartbeat CPU 1 instructions: 170000001 cycles: 113618970 heartbeat IPC: 1.08971 cumulative IPC: 1.11337 (Simulation time: 0 hr 51 min 39 sec) 
Heartbeat CPU 2 instructions: 170000000 cycles: 114198822 heartbeat IPC: 0.582628 cumulative IPC: 0.919939 (Simulation time: 0 hr 51 min 48 sec) 
Heartbeat CPU 0 instructions: 190000002 cycles: 120174114 heartbeat IPC: 1.1304 cumulative IPC: 1.13892 (Simulation time: 0 hr 53 min 19 sec) 
Heartbeat CPU 1 instructions: 180000001 cycles: 122921162 heartbeat IPC: 1.07502 cumulative IPC: 1.10957 (Simulation time: 0 hr 54 min 2 sec) 
Heartbeat CPU 0 instructions: 200000000 cycles: 129051750 heartbeat IPC: 1.12643 cumulative IPC: 1.13782 (Simulation time: 0 hr 55 min 41 sec) 
Heartbeat CPU 1 instructions: 190000001 cycles: 132203034 heartbeat IPC: 1.07737 cumulative IPC: 1.10668 (Simulation time: 0 hr 56 min 39 sec) 
Heartbeat CPU 2 instructions: 180000000 cycles: 132863615 heartbeat IPC: 0.535768 cumulative IPC: 0.850921 (Simulation time: 0 hr 56 min 52 sec) 
Heartbeat CPU 0 instructions: 210000002 cycles: 137890975 heartbeat IPC: 1.13132 cumulative IPC: 1.13729 (Simulation time: 0 hr 58 min 29 sec) 
Heartbeat CPU 1 instructions: 200000000 cycles: 141147392 heartbeat IPC: 1.11802 cumulative IPC: 1.10758 (Simulation time: 0 hr 59 min 32 sec) 
Heartbeat CPU 2 instructions: 190000000 cycles: 144326406 heartbeat IPC: 0.872388 cumulative IPC: 0.853054 (Simulation time: 1 hr 0 min 34 sec) 
Heartbeat CPU 0 instructions: 220000000 cycles: 146811889 heartbeat IPC: 1.12096 cumulative IPC: 1.13605 (Simulation time: 1 hr 1 min 21 sec) 
Heartbeat CPU 1 instructions: 210000000 cycles: 150069829 heartbeat IPC: 1.12077 cumulative IPC: 1.10855 (Simulation time: 1 hr 2 min 22 sec) 
Heartbeat CPU 0 instructions: 230000000 cycles: 155637839 heartbeat IPC: 1.13302 cumulative IPC: 1.13584 (Simulation time: 1 hr 4 min 1 sec) 
Heartbeat CPU 2 instructions: 200000002 cycles: 158230685 heartbeat IPC: 0.719203 cumulative IPC: 0.838656 (Simulation time: 1 hr 4 min 46 sec) 
Heartbeat CPU 1 instructions: 220000000 cycles: 158917890 heartbeat IPC: 1.13019 cumulative IPC: 1.11003 (Simulation time: 1 hr 4 min 59 sec) 
Heartbeat CPU 0 instructions: 240000003 cycles: 164444333 heartbeat IPC: 1.13553 cumulative IPC: 1.13582 (Simulation time: 1 hr 6 min 32 sec) 
Heartbeat CPU 1 instructions: 230000002 cycles: 167957023 heartbeat IPC: 1.1063 cumulative IPC: 1.10978 (Simulation time: 1 hr 7 min 28 sec) 
*** Reached end of trace for Core: 0 Repeating trace: ./traces/ligra/ligra_Triangle.com-lj.ungraph.gcc_6.3.0_O3.drop_3500M.length_250M.champsimtrace.xz
Heartbeat CPU 0 instructions: 250000001 cycles: 173207991 heartbeat IPC: 1.14108 cumulative IPC: 1.13614 (Simulation time: 1 hr 8 min 56 sec) 
Heartbeat CPU 2 instructions: 210000001 cycles: 175962802 heartbeat IPC: 0.563948 cumulative IPC: 0.805517 (Simulation time: 1 hr 9 min 42 sec) 
Heartbeat CPU 1 instructions: 240000001 cycles: 177266212 heartbeat IPC: 1.07421 cumulative IPC: 1.10755 (Simulation time: 1 hr 10 min 4 sec) 
Heartbeat CPU 0 instructions: 260000000 cycles: 181919414 heartbeat IPC: 1.14792 cumulative IPC: 1.13681 (Simulation time: 1 hr 11 min 16 sec) 
*** Reached end of trace for Core: 1 Repeating trace: ./traces/ligra/ligra_Components.com-lj.ungraph.gcc_6.3.0_O3.drop_5000M.length_250M.champsimtrace.xz
Heartbeat CPU 1 instructions: 250000002 cycles: 186322695 heartbeat IPC: 1.10418 cumulative IPC: 1.10736 (Simulation time: 1 hr 12 min 31 sec) 
Heartbeat CPU 0 instructions: 270000003 cycles: 190665751 heartbeat IPC: 1.14334 cumulative IPC: 1.13716 (Simulation time: 1 hr 13 min 38 sec) 
Heartbeat CPU 2 instructions: 220000000 cycles: 194928444 heartbeat IPC: 0.527269 cumulative IPC: 0.773719 (Simulation time: 1 hr 14 min 48 sec) 
Heartbeat CPU 1 instructions: 260000000 cycles: 194991909 heartbeat IPC: 1.15351 cumulative IPC: 1.10977 (Simulation time: 1 hr 14 min 49 sec) 
Heartbeat CPU 0 instructions: 280000001 cycles: 199387358 heartbeat IPC: 1.14658 cumulative IPC: 1.13765 (Simulation time: 1 hr 16 min 2 sec) 
Heartbeat CPU 1 instructions: 270000000 cycles: 203663919 heartbeat IPC: 1.15314 cumulative IPC: 1.11192 (Simulation time: 1 hr 17 min 7 sec) 
Finished CPU 0 instructions: 200000000 cycles: 175763122 cumulative IPC: 1.1379 (Simulation time: 1 hr 17 min 23 sec) 
Heartbeat CPU 0 instructions: 290000000 cycles: 208112236 heartbeat IPC: 1.14615 cumulative IPC: 1.13806 (Simulation time: 1 hr 18 min 17 sec) 
Finished CPU 1 instructions: 200000001 cycles: 179695065 cumulative IPC: 1.113 (Simulation time: 1 hr 18 min 26 sec) 
Heartbeat CPU 1 instructions: 280000002 cycles: 212363472 heartbeat IPC: 1.14948 cumulative IPC: 1.1137 (Simulation time: 1 hr 19 min 27 sec) 
Heartbeat CPU 0 instructions: 300000000 cycles: 216835414 heartbeat IPC: 1.14637 cumulative IPC: 1.13845 (Simulation time: 1 hr 20 min 37 sec) 
Heartbeat CPU 2 instructions: 230000001 cycles: 220342809 heartbeat IPC: 0.393478 cumulative IPC: 0.723223 (Simulation time: 1 hr 21 min 27 sec) 
Heartbeat CPU 1 instructions: 290000001 cycles: 221120379 heartbeat IPC: 1.14196 cumulative IPC: 1.11499 (Simulation time: 1 hr 21 min 38 sec) 
Heartbeat CPU 0 instructions: 310000002 cycles: 225552647 heartbeat IPC: 1.14715 cumulative IPC: 1.13883 (Simulation time: 1 hr 22 min 45 sec) 
Heartbeat CPU 1 instructions: 300000002 cycles: 229936529 heartbeat IPC: 1.13428 cumulative IPC: 1.11584 (Simulation time: 1 hr 23 min 53 sec) 
Heartbeat CPU 0 instructions: 320000002 cycles: 234309824 heartbeat IPC: 1.14192 cumulative IPC: 1.13896 (Simulation time: 1 hr 24 min 55 sec) 
Heartbeat CPU 1 instructions: 310000001 cycles: 238763935 heartbeat IPC: 1.13284 cumulative IPC: 1.11655 (Simulation time: 1 hr 26 min 1 sec) 
Heartbeat CPU 0 instructions: 330000000 cycles: 243021127 heartbeat IPC: 1.14793 cumulative IPC: 1.13933 (Simulation time: 1 hr 27 min 5 sec) 
Heartbeat CPU 2 instructions: 240000003 cycles: 246850283 heartbeat IPC: 0.377252 cumulative IPC: 0.681132 (Simulation time: 1 hr 28 min 6 sec) 
Heartbeat CPU 1 instructions: 320000001 cycles: 247615966 heartbeat IPC: 1.12968 cumulative IPC: 1.11708 (Simulation time: 1 hr 28 min 19 sec) 
Heartbeat CPU 0 instructions: 340000000 cycles: 251778085 heartbeat IPC: 1.14195 cumulative IPC: 1.13943 (Simulation time: 1 hr 29 min 31 sec) 
Heartbeat CPU 1 instructions: 330000000 cycles: 256468103 heartbeat IPC: 1.12967 cumulative IPC: 1.11757 (Simulation time: 1 hr 30 min 51 sec) 
Heartbeat CPU 0 instructions: 350000001 cycles: 260506939 heartbeat IPC: 1.14563 cumulative IPC: 1.13967 (Simulation time: 1 hr 31 min 58 sec) 
Heartbeat CPU 1 instructions: 340000000 cycles: 265350456 heartbeat IPC: 1.12583 cumulative IPC: 1.11788 (Simulation time: 1 hr 33 min 7 sec) 
Heartbeat CPU 0 instructions: 360000001 cycles: 269254858 heartbeat IPC: 1.14313 cumulative IPC: 1.13979 (Simulation time: 1 hr 34 min 4 sec) 
Heartbeat CPU 1 instructions: 350000001 cycles: 274291729 heartbeat IPC: 1.11841 cumulative IPC: 1.1179 (Simulation time: 1 hr 35 min 9 sec) 
*** Reached end of trace for Core: 2 Repeating trace: ./traces/ligra/ligra_PageRank.com-lj.ungraph.gcc_6.3.0_O3.drop_51000M.length_250M.champsimtrace.xz
Heartbeat CPU 2 instructions: 250000000 cycles: 276043316 heartbeat IPC: 0.342547 cumulative IPC: 0.641126 (Simulation time: 1 hr 35 min 38 sec) 
Heartbeat CPU 0 instructions: 370000003 cycles: 278021469 heartbeat IPC: 1.14069 cumulative IPC: 1.13982 (Simulation time: 1 hr 36 min 7 sec) 
Heartbeat CPU 1 instructions: 360000001 cycles: 283317298 heartbeat IPC: 1.10796 cumulative IPC: 1.11755 (Simulation time: 1 hr 37 min 17 sec) 
Heartbeat CPU 0 instructions: 380000000 cycles: 286856013 heartbeat IPC: 1.13192 cumulative IPC: 1.13955 (Simulation time: 1 hr 37 min 59 sec) 
Heartbeat CPU 1 instructions: 370000000 cycles: 292479901 heartbeat IPC: 1.09139 cumulative IPC: 1.11664 (Simulation time: 1 hr 39 min 13 sec) 
Heartbeat CPU 0 instructions: 390000003 cycles: 295706453 heartbeat IPC: 1.12989 cumulative IPC: 1.13923 (Simulation time: 1 hr 40 min 1 sec) 
Heartbeat CPU 1 instructions: 380000000 cycles: 301521990 heartbeat IPC: 1.10594 cumulative IPC: 1.11628 (Simulation time: 1 hr 41 min 21 sec) 
Heartbeat CPU 3 instructions: 60000000 cycles: 302117917 heartbeat IPC: 0.0366103 cumulative IPC: 0.0366103 (Simulation time: 1 hr 41 min 28 sec) 
Heartbeat CPU 0 instructions: 400000000 cycles: 304552700 heartbeat IPC: 1.13042 cumulative IPC: 1.13895 (Simulation time: 1 hr 42 min 1 sec) 
Heartbeat CPU 2 instructions: 260000001 cycles: 309916617 heartbeat IPC: 0.295218 cumulative IPC: 0.59942 (Simulation time: 1 hr 43 min 20 sec) 
Heartbeat CPU 1 instructions: 390000000 cycles: 310520491 heartbeat IPC: 1.1113 cumulative IPC: 1.11613 (Simulation time: 1 hr 43 min 27 sec) 
Heartbeat CPU 0 instructions: 410000002 cycles: 313393441 heartbeat IPC: 1.13113 cumulative IPC: 1.13871 (Simulation time: 1 hr 44 min 2 sec) 
Heartbeat CPU 1 instructions: 400000002 cycles: 319511690 heartbeat IPC: 1.1122 cumulative IPC: 1.116 (Simulation time: 1 hr 45 min 26 sec) 
Heartbeat CPU 0 instructions: 420000001 cycles: 322142100 heartbeat IPC: 1.14303 cumulative IPC: 1.13883 (Simulation time: 1 hr 46 min 6 sec) 
Heartbeat CPU 1 instructions: 410000002 cycles: 328657238 heartbeat IPC: 1.09343 cumulative IPC: 1.11531 (Simulation time: 1 hr 47 min 42 sec) 
Heartbeat CPU 0 instructions: 430000002 cycles: 330979217 heartbeat IPC: 1.13159 cumulative IPC: 1.13862 (Simulation time: 1 hr 48 min 16 sec) 
Heartbeat CPU 1 instructions: 420000001 cycles: 337806205 heartbeat IPC: 1.09302 cumulative IPC: 1.11465 (Simulation time: 1 hr 49 min 51 sec) 
Heartbeat CPU 0 instructions: 440000000 cycles: 339799535 heartbeat IPC: 1.13375 cumulative IPC: 1.13848 (Simulation time: 1 hr 50 min 18 sec) 
Heartbeat CPU 1 instructions: 430000001 cycles: 347026702 heartbeat IPC: 1.08454 cumulative IPC: 1.11378 (Simulation time: 1 hr 52 min 8 sec) 
Heartbeat CPU 0 instructions: 450000002 cycles: 348621476 heartbeat IPC: 1.13354 cumulative IPC: 1.13835 (Simulation time: 1 hr 52 min 29 sec) 
Heartbeat CPU 2 instructions: 270000001 cycles: 349916466 heartbeat IPC: 0.250001 cumulative IPC: 0.555872 (Simulation time: 1 hr 52 min 48 sec) 
Heartbeat CPU 1 instructions: 440000000 cycles: 356225451 heartbeat IPC: 1.0871 cumulative IPC: 1.11303 (Simulation time: 1 hr 54 min 21 sec) 
Heartbeat CPU 0 instructions: 460000002 cycles: 357420694 heartbeat IPC: 1.13646 cumulative IPC: 1.1383 (Simulation time: 1 hr 54 min 37 sec) 
Heartbeat CPU 1 instructions: 450000000 cycles: 365094008 heartbeat IPC: 1.12758 cumulative IPC: 1.11342 (Simulation time: 1 hr 56 min 23 sec) 
Heartbeat CPU 0 instructions: 470000002 cycles: 366290271 heartbeat IPC: 1.12745 cumulative IPC: 1.13801 (Simulation time: 1 hr 56 min 41 sec) 
Heartbeat CPU 1 instructions: 460000000 cycles: 373922032 heartbeat IPC: 1.13276 cumulative IPC: 1.11391 (Simulation time: 1 hr 58 min 37 sec) 
Heartbeat CPU 0 instructions: 480000000 cycles: 375062399 heartbeat IPC: 1.13997 cumulative IPC: 1.13806 (Simulation time: 1 hr 58 min 55 sec) 
Heartbeat CPU 1 instructions: 470000000 cycles: 382692510 heartbeat IPC: 1.14019 cumulative IPC: 1.11456 (Simulation time: 2 hr 0 min 37 sec) 
Heartbeat CPU 0 instructions: 490000002 cycles: 383821795 heartbeat IPC: 1.14163 cumulative IPC: 1.13815 (Simulation time: 2 hr 0 min 55 sec) 
Heartbeat CPU 1 instructions: 480000002 cycles: 391636760 heartbeat IPC: 1.11804 cumulative IPC: 1.11465 (Simulation time: 2 hr 2 min 45 sec) 
*** Reached end of trace for Core: 0 Repeating trace: ./traces/ligra/ligra_Triangle.com-lj.ungraph.gcc_6.3.0_O3.drop_3500M.length_250M.champsimtrace.xz
Heartbeat CPU 0 instructions: 500000001 cycles: 392537071 heartbeat IPC: 1.14741 cumulative IPC: 1.13837 (Simulation time: 2 hr 2 min 59 sec) 
Heartbeat CPU 2 instructions: 280000001 cycles: 392859895 heartbeat IPC: 0.232864 cumulative IPC: 0.517753 (Simulation time: 2 hr 3 min 4 sec) 
Heartbeat CPU 1 instructions: 490000001 cycles: 400848508 heartbeat IPC: 1.08557 cumulative IPC: 1.11393 (Simulation time: 2 hr 4 min 51 sec) 
Heartbeat CPU 0 instructions: 510000000 cycles: 401237886 heartbeat IPC: 1.14932 cumulative IPC: 1.13863 (Simulation time: 2 hr 4 min 57 sec) 
Heartbeat CPU 0 instructions: 520000003 cycles: 410169104 heartbeat IPC: 1.11967 cumulative IPC: 1.13818 (Simulation time: 2 hr 7 min 21 sec) 
*** Reached end of trace for Core: 1 Repeating trace: ./traces/ligra/ligra_Components.com-lj.ungraph.gcc_6.3.0_O3.drop_5000M.length_250M.champsimtrace.xz
Heartbeat CPU 1 instructions: 500000002 cycles: 410955224 heartbeat IPC: 0.989441 cumulative IPC: 1.11063 (Simulation time: 2 hr 7 min 34 sec) 
Heartbeat CPU 2 instructions: 290000002 cycles: 411241307 heartbeat IPC: 0.544028 cumulative IPC: 0.519016 (Simulation time: 2 hr 7 min 40 sec) 
Finished CPU 2 instructions: 200000000 cycles: 384220689 cumulative IPC: 0.520534 (Simulation time: 2 hr 8 min 17 sec) 
Heartbeat CPU 0 instructions: 530000000 cycles: 419317066 heartbeat IPC: 1.09314 cumulative IPC: 1.13713 (Simulation time: 2 hr 10 min 10 sec) 
Heartbeat CPU 1 instructions: 510000000 cycles: 422021311 heartbeat IPC: 0.903662 cumulative IPC: 1.10481 (Simulation time: 2 hr 11 min 0 sec) 
Heartbeat CPU 2 instructions: 300000003 cycles: 423872786 heartbeat IPC: 0.791673 cumulative IPC: 0.527738 (Simulation time: 2 hr 11 min 33 sec) 
Heartbeat CPU 0 instructions: 540000000 cycles: 429169326 heartbeat IPC: 1.015 cumulative IPC: 1.13412 (Simulation time: 2 hr 13 min 8 sec) 
Heartbeat CPU 1 instructions: 520000000 cycles: 432861490 heartbeat IPC: 0.922494 cumulative IPC: 1.09991 (Simulation time: 2 hr 14 min 15 sec) 
Heartbeat CPU 2 instructions: 310000000 cycles: 436756864 heartbeat IPC: 0.776152 cumulative IPC: 0.535586 (Simulation time: 2 hr 15 min 22 sec) 
Heartbeat CPU 0 instructions: 550000000 cycles: 438348461 heartbeat IPC: 1.08943 cumulative IPC: 1.13312 (Simulation time: 2 hr 15 min 52 sec) 
Heartbeat CPU 1 instructions: 530000002 cycles: 442570347 heartbeat IPC: 1.02999 cumulative IPC: 1.09827 (Simulation time: 2 hr 17 min 5 sec) 
Heartbeat CPU 2 instructions: 320000001 cycles: 445921815 heartbeat IPC: 1.09111 cumulative IPC: 0.547797 (Simulation time: 2 hr 18 min 5 sec) 
Heartbeat CPU 0 instructions: 560000001 cycles: 447095525 heartbeat IPC: 1.14324 cumulative IPC: 1.13333 (Simulation time: 2 hr 18 min 30 sec) 
Heartbeat CPU 1 instructions: 540000001 cycles: 451332953 heartbeat IPC: 1.14121 cumulative IPC: 1.09916 (Simulation time: 2 hr 19 min 55 sec) 
Heartbeat CPU 2 instructions: 330000000 cycles: 453106894 heartbeat IPC: 1.39177 cumulative IPC: 0.562095 (Simulation time: 2 hr 20 min 37 sec) 
Heartbeat CPU 0 instructions: 570000002 cycles: 455835178 heartbeat IPC: 1.14421 cumulative IPC: 1.13355 (Simulation time: 2 hr 21 min 39 sec) 
Heartbeat CPU 1 instructions: 550000000 cycles: 460105781 heartbeat IPC: 1.13988 cumulative IPC: 1.09999 (Simulation time: 2 hr 23 min 10 sec) 
Heartbeat CPU 2 instructions: 340000001 cycles: 460558460 heartbeat IPC: 1.342 cumulative IPC: 0.57556 (Simulation time: 2 hr 23 min 20 sec) 
Heartbeat CPU 0 instructions: 580000003 cycles: 464525336 heartbeat IPC: 1.15073 cumulative IPC: 1.1339 (Simulation time: 2 hr 24 min 44 sec) 
Heartbeat CPU 1 instructions: 560000001 cycles: 468888822 heartbeat IPC: 1.13856 cumulative IPC: 1.10076 (Simulation time: 2 hr 26 min 20 sec) 
Heartbeat CPU 2 instructions: 350000001 cycles: 469592406 heartbeat IPC: 1.10694 cumulative IPC: 0.586455 (Simulation time: 2 hr 26 min 34 sec) 
Heartbeat CPU 0 instructions: 590000001 cycles: 473257408 heartbeat IPC: 1.1452 cumulative IPC: 1.13412 (Simulation time: 2 hr 27 min 51 sec) 
Heartbeat CPU 1 instructions: 570000001 cycles: 477702658 heartbeat IPC: 1.13458 cumulative IPC: 1.10143 (Simulation time: 2 hr 29 min 30 sec) 
Heartbeat CPU 2 instructions: 360000002 cycles: 478397580 heartbeat IPC: 1.1357 cumulative IPC: 0.597215 (Simulation time: 2 hr 29 min 45 sec) 
Heartbeat CPU 0 instructions: 600000001 cycles: 481962687 heartbeat IPC: 1.14873 cumulative IPC: 1.1344 (Simulation time: 2 hr 30 min 58 sec) 
Heartbeat CPU 1 instructions: 580000001 cycles: 486502199 heartbeat IPC: 1.13642 cumulative IPC: 1.1021 (Simulation time: 2 hr 32 min 34 sec) 
Heartbeat CPU 2 instructions: 370000002 cycles: 487795906 heartbeat IPC: 1.06402 cumulative IPC: 0.606777 (Simulation time: 2 hr 32 min 59 sec) 
Heartbeat CPU 0 instructions: 610000000 cycles: 490686670 heartbeat IPC: 1.14627 cumulative IPC: 1.13462 (Simulation time: 2 hr 34 min 5 sec) 
Heartbeat CPU 1 instructions: 590000000 cycles: 495344740 heartbeat IPC: 1.1309 cumulative IPC: 1.10264 (Simulation time: 2 hr 35 min 40 sec) 
Heartbeat CPU 2 instructions: 380000002 cycles: 496848569 heartbeat IPC: 1.10465 cumulative IPC: 0.61641 (Simulation time: 2 hr 36 min 11 sec) 
Heartbeat CPU 0 instructions: 620000003 cycles: 499435422 heartbeat IPC: 1.14302 cumulative IPC: 1.13478 (Simulation time: 2 hr 37 min 6 sec) 
Heartbeat CPU 1 instructions: 600000001 cycles: 504242197 heartbeat IPC: 1.12392 cumulative IPC: 1.10304 (Simulation time: 2 hr 38 min 45 sec) 
Heartbeat CPU 2 instructions: 390000002 cycles: 506761106 heartbeat IPC: 1.00882 cumulative IPC: 0.624551 (Simulation time: 2 hr 39 min 36 sec) 
Heartbeat CPU 0 instructions: 630000002 cycles: 508197312 heartbeat IPC: 1.14131 cumulative IPC: 1.1349 (Simulation time: 2 hr 40 min 4 sec) 
Heartbeat CPU 1 instructions: 610000001 cycles: 513175833 heartbeat IPC: 1.11937 cumulative IPC: 1.10334 (Simulation time: 2 hr 41 min 26 sec) 
Heartbeat CPU 0 instructions: 640000003 cycles: 516956300 heartbeat IPC: 1.14168 cumulative IPC: 1.13502 (Simulation time: 2 hr 42 min 26 sec) 
Heartbeat CPU 2 instructions: 400000003 cycles: 517956319 heartbeat IPC: 0.893239 cumulative IPC: 0.630703 (Simulation time: 2 hr 42 min 43 sec) 
Heartbeat CPU 1 instructions: 620000000 cycles: 522164049 heartbeat IPC: 1.11257 cumulative IPC: 1.10351 (Simulation time: 2 hr 43 min 52 sec) 
Heartbeat CPU 3 instructions: 70000000 cycles: 525398425 heartbeat IPC: 0.0447867 cumulative IPC: 0.0402878 (Simulation time: 2 hr 44 min 58 sec) 
Heartbeat CPU 0 instructions: 650000000 cycles: 525708276 heartbeat IPC: 1.1426 cumulative IPC: 1.13515 (Simulation time: 2 hr 45 min 4 sec) 
Heartbeat CPU 2 instructions: 410000003 cycles: 531024241 heartbeat IPC: 0.765233 cumulative IPC: 0.634205 (Simulation time: 2 hr 46 min 36 sec) 
Heartbeat CPU 1 instructions: 630000000 cycles: 531054959 heartbeat IPC: 1.12474 cumulative IPC: 1.10389 (Simulation time: 2 hr 46 min 36 sec) 
Heartbeat CPU 0 instructions: 660000000 cycles: 534469482 heartbeat IPC: 1.1414 cumulative IPC: 1.13526 (Simulation time: 2 hr 47 min 37 sec) 
Heartbeat CPU 1 instructions: 640000000 cycles: 539896267 heartbeat IPC: 1.13105 cumulative IPC: 1.10436 (Simulation time: 2 hr 49 min 11 sec) 
Heartbeat CPU 0 instructions: 670000000 cycles: 543150184 heartbeat IPC: 1.15198 cumulative IPC: 1.13554 (Simulation time: 2 hr 50 min 1 sec) 
Heartbeat CPU 1 instructions: 650000002 cycles: 548709192 heartbeat IPC: 1.1347 cumulative IPC: 1.10487 (Simulation time: 2 hr 51 min 40 sec) 
Heartbeat CPU 2 instructions: 420000003 cycles: 549046840 heartbeat IPC: 0.554859 cumulative IPC: 0.631455 (Simulation time: 2 hr 51 min 45 sec) 
Heartbeat CPU 0 instructions: 680000002 cycles: 551907368 heartbeat IPC: 1.14192 cumulative IPC: 1.13565 (Simulation time: 2 hr 52 min 35 sec) 
Heartbeat CPU 1 instructions: 660000000 cycles: 557712371 heartbeat IPC: 1.11072 cumulative IPC: 1.10497 (Simulation time: 2 hr 54 min 4 sec) 
Heartbeat CPU 0 instructions: 690000002 cycles: 560720285 heartbeat IPC: 1.1347 cumulative IPC: 1.13564 (Simulation time: 2 hr 54 min 49 sec) 
Heartbeat CPU 1 instructions: 670000001 cycles: 566807174 heartbeat IPC: 1.09953 cumulative IPC: 1.10488 (Simulation time: 2 hr 56 min 34 sec) 
Heartbeat CPU 2 instructions: 430000000 cycles: 568779581 heartbeat IPC: 0.506772 cumulative IPC: 0.626897 (Simulation time: 2 hr 57 min 6 sec) 
Heartbeat CPU 0 instructions: 700000000 cycles: 569549719 heartbeat IPC: 1.13258 cumulative IPC: 1.13559 (Simulation time: 2 hr 57 min 21 sec) 
Heartbeat CPU 1 instructions: 680000001 cycles: 576021889 heartbeat IPC: 1.08522 cumulative IPC: 1.10455 (Simulation time: 2 hr 59 min 21 sec) 
Heartbeat CPU 0 instructions: 710000002 cycles: 578354895 heartbeat IPC: 1.1357 cumulative IPC: 1.13559 (Simulation time: 3 hr 0 min 3 sec) 
Heartbeat CPU 2 instructions: 440000000 cycles: 580721420 heartbeat IPC: 0.837392 cumulative IPC: 0.631453 (Simulation time: 3 hr 0 min 40 sec) 
Heartbeat CPU 1 instructions: 690000001 cycles: 585227960 heartbeat IPC: 1.08624 cumulative IPC: 1.10425 (Simulation time: 3 hr 1 min 55 sec) 
Heartbeat CPU 0 instructions: 720000002 cycles: 587241456 heartbeat IPC: 1.12529 cumulative IPC: 1.13542 (Simulation time: 3 hr 2 min 31 sec) 
Heartbeat CPU 1 instructions: 700000000 cycles: 594124275 heartbeat IPC: 1.12406 cumulative IPC: 1.10456 (Simulation time: 3 hr 4 min 40 sec) 
Heartbeat CPU 2 instructions: 450000003 cycles: 595259110 heartbeat IPC: 0.687867 cumulative IPC: 0.632901 (Simulation time: 3 hr 4 min 57 sec) 
Heartbeat CPU 0 instructions: 730000000 cycles: 596031449 heartbeat IPC: 1.13766 cumulative IPC: 1.13546 (Simulation time: 3 hr 5 min 8 sec) 
Heartbeat CPU 1 instructions: 710000000 cycles: 602987667 heartbeat IPC: 1.12824 cumulative IPC: 1.10492 (Simulation time: 3 hr 7 min 17 sec) 
Heartbeat CPU 0 instructions: 740000002 cycles: 604811444 heartbeat IPC: 1.13895 cumulative IPC: 1.13551 (Simulation time: 3 hr 7 min 47 sec) 
Heartbeat CPU 1 instructions: 720000000 cycles: 611771676 heartbeat IPC: 1.13843 cumulative IPC: 1.10543 (Simulation time: 3 hr 9 min 39 sec) 
*** Reached end of trace for Core: 0 Repeating trace: ./traces/ligra/ligra_Triangle.com-lj.ungraph.gcc_6.3.0_O3.drop_3500M.length_250M.champsimtrace.xz
Heartbeat CPU 0 instructions: 750000001 cycles: 613541397 heartbeat IPC: 1.14548 cumulative IPC: 1.13566 (Simulation time: 3 hr 10 min 8 sec) 
Heartbeat CPU 2 instructions: 460000002 cycles: 613873985 heartbeat IPC: 0.537205 cumulative IPC: 0.629856 (Simulation time: 3 hr 10 min 13 sec) 
Heartbeat CPU 1 instructions: 730000002 cycles: 620735216 heartbeat IPC: 1.11563 cumulative IPC: 1.10558 (Simulation time: 3 hr 12 min 6 sec) 
Heartbeat CPU 0 instructions: 760000000 cycles: 622261901 heartbeat IPC: 1.14672 cumulative IPC: 1.13582 (Simulation time: 3 hr 12 min 32 sec) 
Heartbeat CPU 1 instructions: 740000001 cycles: 629982862 heartbeat IPC: 1.08136 cumulative IPC: 1.10521 (Simulation time: 3 hr 14 min 47 sec) 
Heartbeat CPU 0 instructions: 770000000 cycles: 631013551 heartbeat IPC: 1.14264 cumulative IPC: 1.13592 (Simulation time: 3 hr 15 min 2 sec) 
Heartbeat CPU 2 instructions: 470000001 cycles: 632667439 heartbeat IPC: 0.5321 cumulative IPC: 0.626813 (Simulation time: 3 hr 15 min 29 sec) 
*** Reached end of trace for Core: 1 Repeating trace: ./traces/ligra/ligra_Components.com-lj.ungraph.gcc_6.3.0_O3.drop_5000M.length_250M.champsimtrace.xz
Heartbeat CPU 1 instructions: 750000002 cycles: 638954151 heartbeat IPC: 1.11467 cumulative IPC: 1.10535 (Simulation time: 3 hr 17 min 15 sec) 
Heartbeat CPU 0 instructions: 780000002 cycles: 639728942 heartbeat IPC: 1.1474 cumulative IPC: 1.13609 (Simulation time: 3 hr 17 min 26 sec) 
Heartbeat CPU 1 instructions: 760000000 cycles: 647614595 heartbeat IPC: 1.15468 cumulative IPC: 1.10604 (Simulation time: 3 hr 19 min 37 sec) 
Heartbeat CPU 0 instructions: 790000000 cycles: 648456418 heartbeat IPC: 1.14581 cumulative IPC: 1.13622 (Simulation time: 3 hr 19 min 52 sec) 
Heartbeat CPU 1 instructions: 770000000 cycles: 656299911 heartbeat IPC: 1.15137 cumulative IPC: 1.10667 (Simulation time: 3 hr 21 min 58 sec) 
Heartbeat CPU 0 instructions: 800000000 cycles: 657177448 heartbeat IPC: 1.14665 cumulative IPC: 1.13637 (Simulation time: 3 hr 22 min 13 sec) 
Heartbeat CPU 2 instructions: 480000001 cycles: 657615889 heartbeat IPC: 0.400827 cumulative IPC: 0.617844 (Simulation time: 3 hr 22 min 21 sec) 
Heartbeat CPU 1 instructions: 780000002 cycles: 664998100 heartbeat IPC: 1.14966 cumulative IPC: 1.10726 (Simulation time: 3 hr 24 min 29 sec) 
Heartbeat CPU 0 instructions: 810000001 cycles: 665898163 heartbeat IPC: 1.1467 cumulative IPC: 1.13651 (Simulation time: 3 hr 24 min 45 sec) 
Heartbeat CPU 1 instructions: 790000001 cycles: 673763980 heartbeat IPC: 1.14079 cumulative IPC: 1.10771 (Simulation time: 3 hr 26 min 53 sec) 
Heartbeat CPU 0 instructions: 820000002 cycles: 674654931 heartbeat IPC: 1.14197 cumulative IPC: 1.13658 (Simulation time: 3 hr 27 min 7 sec) 
Heartbeat CPU 1 instructions: 800000002 cycles: 682578471 heartbeat IPC: 1.1345 cumulative IPC: 1.10807 (Simulation time: 3 hr 29 min 16 sec) 
Heartbeat CPU 0 instructions: 830000003 cycles: 683366129 heartbeat IPC: 1.14795 cumulative IPC: 1.13673 (Simulation time: 3 hr 29 min 29 sec) 
Heartbeat CPU 2 instructions: 490000000 cycles: 684139750 heartbeat IPC: 0.377019 cumulative IPC: 0.608094 (Simulation time: 3 hr 29 min 42 sec) 
Heartbeat CPU 1 instructions: 810000001 cycles: 691408035 heartbeat IPC: 1.13256 cumulative IPC: 1.1084 (Simulation time: 3 hr 31 min 46 sec) 
Heartbeat CPU 0 instructions: 840000001 cycles: 692121865 heartbeat IPC: 1.14211 cumulative IPC: 1.13681 (Simulation time: 3 hr 31 min 58 sec) 
Heartbeat CPU 1 instructions: 820000001 cycles: 700274559 heartbeat IPC: 1.12784 cumulative IPC: 1.10866 (Simulation time: 3 hr 34 min 11 sec) 
Heartbeat CPU 0 instructions: 850000001 cycles: 700857001 heartbeat IPC: 1.1448 cumulative IPC: 1.13691 (Simulation time: 3 hr 34 min 21 sec) 
Heartbeat CPU 1 instructions: 830000001 cycles: 709128312 heartbeat IPC: 1.12946 cumulative IPC: 1.10893 (Simulation time: 3 hr 36 min 26 sec) 
Heartbeat CPU 0 instructions: 860000001 cycles: 709608408 heartbeat IPC: 1.14267 cumulative IPC: 1.13698 (Simulation time: 3 hr 36 min 34 sec) 
*** Reached end of trace for Core: 2 Repeating trace: ./traces/ligra/ligra_PageRank.com-lj.ungraph.gcc_6.3.0_O3.drop_51000M.length_250M.champsimtrace.xz
Heartbeat CPU 2 instructions: 500000000 cycles: 713723431 heartbeat IPC: 0.338024 cumulative IPC: 0.596426 (Simulation time: 3 hr 37 min 44 sec) 
Heartbeat CPU 1 instructions: 840000000 cycles: 718043091 heartbeat IPC: 1.12173 cumulative IPC: 1.10909 (Simulation time: 3 hr 38 min 47 sec) 
Heartbeat CPU 0 instructions: 870000001 cycles: 718395872 heartbeat IPC: 1.13798 cumulative IPC: 1.137 (Simulation time: 3 hr 38 min 53 sec) 
Heartbeat CPU 1 instructions: 850000001 cycles: 727098441 heartbeat IPC: 1.10432 cumulative IPC: 1.10903 (Simulation time: 3 hr 41 min 1 sec) 
Heartbeat CPU 0 instructions: 880000000 cycles: 727238979 heartbeat IPC: 1.13082 cumulative IPC: 1.13692 (Simulation time: 3 hr 41 min 3 sec) 
Heartbeat CPU 0 instructions: 890000001 cycles: 736099421 heartbeat IPC: 1.12861 cumulative IPC: 1.13681 (Simulation time: 3 hr 43 min 16 sec) 
Heartbeat CPU 1 instructions: 860000001 cycles: 736219672 heartbeat IPC: 1.09634 cumulative IPC: 1.10887 (Simulation time: 3 hr 43 min 18 sec) 
Heartbeat CPU 0 instructions: 900000000 cycles: 744941360 heartbeat IPC: 1.13097 cumulative IPC: 1.13674 (Simulation time: 3 hr 45 min 26 sec) 
Heartbeat CPU 1 instructions: 870000000 cycles: 745388006 heartbeat IPC: 1.09071 cumulative IPC: 1.10863 (Simulation time: 3 hr 45 min 32 sec) 
Heartbeat CPU 2 instructions: 510000002 cycles: 747792529 heartbeat IPC: 0.293521 cumulative IPC: 0.58207 (Simulation time: 3 hr 46 min 2 sec) 
Heartbeat CPU 0 instructions: 910000001 cycles: 753781818 heartbeat IPC: 1.13116 cumulative IPC: 1.13667 (Simulation time: 3 hr 47 min 31 sec) 
Heartbeat CPU 1 instructions: 880000000 cycles: 754462465 heartbeat IPC: 1.10199 cumulative IPC: 1.10855 (Simulation time: 3 hr 47 min 41 sec) 
Heartbeat CPU 0 instructions: 920000001 cycles: 762546453 heartbeat IPC: 1.14095 cumulative IPC: 1.13672 (Simulation time: 3 hr 49 min 48 sec) 
Heartbeat CPU 1 instructions: 890000000 cycles: 763467867 heartbeat IPC: 1.11044 cumulative IPC: 1.10857 (Simulation time: 3 hr 50 min 1 sec) 
Heartbeat CPU 0 instructions: 930000002 cycles: 771376666 heartbeat IPC: 1.13248 cumulative IPC: 1.13667 (Simulation time: 3 hr 52 min 3 sec) 
Heartbeat CPU 1 instructions: 900000002 cycles: 772407042 heartbeat IPC: 1.11867 cumulative IPC: 1.1087 (Simulation time: 3 hr 52 min 19 sec) 
Heartbeat CPU 0 instructions: 940000002 cycles: 780184163 heartbeat IPC: 1.1354 cumulative IPC: 1.13666 (Simulation time: 3 hr 54 min 18 sec) 
Heartbeat CPU 1 instructions: 910000002 cycles: 781410286 heartbeat IPC: 1.11071 cumulative IPC: 1.10872 (Simulation time: 3 hr 54 min 40 sec) 
Heartbeat CPU 0 instructions: 950000000 cycles: 789000737 heartbeat IPC: 1.13423 cumulative IPC: 1.13663 (Simulation time: 3 hr 56 min 34 sec) 
Heartbeat CPU 2 instructions: 520000002 cycles: 789424279 heartbeat IPC: 0.240201 cumulative IPC: 0.563354 (Simulation time: 3 hr 56 min 41 sec) 
Heartbeat CPU 1 instructions: 920000001 cycles: 790477672 heartbeat IPC: 1.10285 cumulative IPC: 1.10865 (Simulation time: 3 hr 56 min 58 sec) 
Heartbeat CPU 0 instructions: 960000002 cycles: 797796666 heartbeat IPC: 1.13689 cumulative IPC: 1.13663 (Simulation time: 3 hr 58 min 59 sec) 
Heartbeat CPU 1 instructions: 930000001 cycles: 799683109 heartbeat IPC: 1.08631 cumulative IPC: 1.10838 (Simulation time: 3 hr 59 min 27 sec) 
Heartbeat CPU 0 instructions: 970000002 cycles: 806669599 heartbeat IPC: 1.12702 cumulative IPC: 1.13652 (Simulation time: 4 hr 1 min 15 sec) 
Heartbeat CPU 1 instructions: 940000001 cycles: 808872031 heartbeat IPC: 1.08827 cumulative IPC: 1.10815 (Simulation time: 4 hr 1 min 51 sec) 
Heartbeat CPU 0 instructions: 980000003 cycles: 815441279 heartbeat IPC: 1.14003 cumulative IPC: 1.13656 (Simulation time: 4 hr 3 min 40 sec) 
Heartbeat CPU 1 instructions: 950000000 cycles: 817736414 heartbeat IPC: 1.12811 cumulative IPC: 1.10837 (Simulation time: 4 hr 4 min 19 sec) 
Heartbeat CPU 3 instructions: 80000001 cycles: 818186528 heartbeat IPC: 0.0341544 cumulative IPC: 0.0380124 (Simulation time: 4 hr 4 min 25 sec) 
Heartbeat CPU 0 instructions: 990000000 cycles: 824198511 heartbeat IPC: 1.14191 cumulative IPC: 1.13662 (Simulation time: 4 hr 6 min 1 sec) 
Heartbeat CPU 1 instructions: 960000000 cycles: 826565618 heartbeat IPC: 1.1326 cumulative IPC: 1.10864 (Simulation time: 4 hr 6 min 39 sec) 
Heartbeat CPU 2 instructions: 530000002 cycles: 831888762 heartbeat IPC: 0.235491 cumulative IPC: 0.546014 (Simulation time: 4 hr 7 min 57 sec) 
*** Reached end of trace for Core: 0 Repeating trace: ./traces/ligra/ligra_Triangle.com-lj.ungraph.gcc_6.3.0_O3.drop_3500M.length_250M.champsimtrace.xz
Heartbeat CPU 0 instructions: 1000000003 cycles: 832912358 heartbeat IPC: 1.1476 cumulative IPC: 1.13674 (Simulation time: 4 hr 8 min 11 sec) 
Heartbeat CPU 1 instructions: 970000000 cycles: 835335707 heartbeat IPC: 1.14024 cumulative IPC: 1.10898 (Simulation time: 4 hr 8 min 49 sec) 
Heartbeat CPU 0 instructions: 1010000000 cycles: 841614770 heartbeat IPC: 1.14911 cumulative IPC: 1.13687 (Simulation time: 4 hr 10 min 32 sec) 
Heartbeat CPU 1 instructions: 980000002 cycles: 844297323 heartbeat IPC: 1.11587 cumulative IPC: 1.10906 (Simulation time: 4 hr 11 min 18 sec) 
Heartbeat CPU 2 instructions: 540000000 cycles: 850493142 heartbeat IPC: 0.537508 cumulative IPC: 0.545822 (Simulation time: 4 hr 13 min 17 sec) 
Heartbeat CPU 0 instructions: 1020000003 cycles: 850598697 heartbeat IPC: 1.1131 cumulative IPC: 1.13661 (Simulation time: 4 hr 13 min 19 sec) 
Heartbeat CPU 1 instructions: 990000000 cycles: 856045201 heartbeat IPC: 0.851217 cumulative IPC: 1.1054 (Simulation time: 4 hr 14 min 54 sec) 
Heartbeat CPU 0 instructions: 1030000001 cycles: 859825165 heartbeat IPC: 1.08384 cumulative IPC: 1.13603 (Simulation time: 4 hr 16 min 1 sec) 
Heartbeat CPU 2 instructions: 550000000 cycles: 862407100 heartbeat IPC: 0.839352 cumulative IPC: 0.550018 (Simulation time: 4 hr 16 min 50 sec) 
Heartbeat CPU 0 instructions: 1040000000 cycles: 868900954 heartbeat IPC: 1.10183 cumulative IPC: 1.13566 (Simulation time: 4 hr 18 min 48 sec) 
*** Reached end of trace for Core: 1 Repeating trace: ./traces/ligra/ligra_Components.com-lj.ungraph.gcc_6.3.0_O3.drop_5000M.length_250M.champsimtrace.xz
Heartbeat CPU 1 instructions: 1000000002 cycles: 869413062 heartbeat IPC: 0.748063 cumulative IPC: 1.09971 (Simulation time: 4 hr 18 min 57 sec) 
Heartbeat CPU 2 instructions: 560000001 cycles: 874839542 heartbeat IPC: 0.804347 cumulative IPC: 0.553756 (Simulation time: 4 hr 20 min 39 sec) 
Heartbeat CPU 0 instructions: 1050000000 cycles: 878015735 heartbeat IPC: 1.09712 cumulative IPC: 1.13524 (Simulation time: 4 hr 21 min 39 sec) 
Heartbeat CPU 1 instructions: 1010000000 cycles: 879641048 heartbeat IPC: 0.977709 cumulative IPC: 1.09825 (Simulation time: 4 hr 22 min 10 sec) 
Heartbeat CPU 2 instructions: 570000002 cycles: 884012686 heartbeat IPC: 1.09014 cumulative IPC: 0.55951 (Simulation time: 4 hr 23 min 32 sec) 
Heartbeat CPU 0 instructions: 1060000002 cycles: 886754402 heartbeat IPC: 1.14434 cumulative IPC: 1.13534 (Simulation time: 4 hr 24 min 29 sec) 
Heartbeat CPU 1 instructions: 1020000000 cycles: 888328643 heartbeat IPC: 1.15107 cumulative IPC: 1.09878 (Simulation time: 4 hr 25 min 4 sec) 
Heartbeat CPU 2 instructions: 580000001 cycles: 891195600 heartbeat IPC: 1.39219 cumulative IPC: 0.566447 (Simulation time: 4 hr 26 min 6 sec) 
Heartbeat CPU 0 instructions: 1070000002 cycles: 895491955 heartbeat IPC: 1.14449 cumulative IPC: 1.13543 (Simulation time: 4 hr 27 min 40 sec) 
Heartbeat CPU 1 instructions: 1030000002 cycles: 897002586 heartbeat IPC: 1.15288 cumulative IPC: 1.09932 (Simulation time: 4 hr 28 min 16 sec) 
Heartbeat CPU 2 instructions: 590000002 cycles: 898665344 heartbeat IPC: 1.33873 cumulative IPC: 0.57308 (Simulation time: 4 hr 28 min 56 sec) 
Heartbeat CPU 0 instructions: 1080000003 cycles: 904185262 heartbeat IPC: 1.15031 cumulative IPC: 1.13558 (Simulation time: 4 hr 30 min 51 sec) 
Heartbeat CPU 1 instructions: 1040000001 cycles: 905733915 heartbeat IPC: 1.1453 cumulative IPC: 1.09978 (Simulation time: 4 hr 31 min 27 sec) 
Heartbeat CPU 2 instructions: 600000002 cycles: 907755221 heartbeat IPC: 1.10012 cumulative IPC: 0.578532 (Simulation time: 4 hr 32 min 13 sec) 
Heartbeat CPU 0 instructions: 1090000001 cycles: 912916977 heartbeat IPC: 1.14525 cumulative IPC: 1.13567 (Simulation time: 4 hr 34 min 11 sec) 
Heartbeat CPU 1 instructions: 1050000002 cycles: 914515764 heartbeat IPC: 1.13871 cumulative IPC: 1.10016 (Simulation time: 4 hr 34 min 47 sec) 
Heartbeat CPU 2 instructions: 610000001 cycles: 916566308 heartbeat IPC: 1.13493 cumulative IPC: 0.584055 (Simulation time: 4 hr 35 min 31 sec) 
Heartbeat CPU 0 instructions: 1100000000 cycles: 921629591 heartbeat IPC: 1.14776 cumulative IPC: 1.13579 (Simulation time: 4 hr 37 min 21 sec) 
Heartbeat CPU 1 instructions: 1060000001 cycles: 923294764 heartbeat IPC: 1.13908 cumulative IPC: 1.10055 (Simulation time: 4 hr 37 min 55 sec) 
Heartbeat CPU 2 instructions: 620000003 cycles: 925967081 heartbeat IPC: 1.06374 cumulative IPC: 0.589082 (Simulation time: 4 hr 38 min 51 sec) 
Heartbeat CPU 0 instructions: 1110000002 cycles: 930356637 heartbeat IPC: 1.14586 cumulative IPC: 1.13589 (Simulation time: 4 hr 40 min 17 sec) 
Heartbeat CPU 1 instructions: 1070000001 cycles: 932105863 heartbeat IPC: 1.13493 cumulative IPC: 1.10088 (Simulation time: 4 hr 40 min 52 sec) 
Heartbeat CPU 2 instructions: 630000000 cycles: 935052755 heartbeat IPC: 1.10063 cumulative IPC: 0.594212 (Simulation time: 4 hr 41 min 44 sec) 
Heartbeat CPU 0 instructions: 1120000000 cycles: 939103230 heartbeat IPC: 1.1433 cumulative IPC: 1.13596 (Simulation time: 4 hr 42 min 57 sec) 
Heartbeat CPU 1 instructions: 1080000001 cycles: 940911621 heartbeat IPC: 1.13562 cumulative IPC: 1.10122 (Simulation time: 4 hr 43 min 38 sec) 
Heartbeat CPU 2 instructions: 640000001 cycles: 944900705 heartbeat IPC: 1.01544 cumulative IPC: 0.598741 (Simulation time: 4 hr 45 min 2 sec) 
Heartbeat CPU 0 instructions: 1130000002 cycles: 947864385 heartbeat IPC: 1.1414 cumulative IPC: 1.13601 (Simulation time: 4 hr 45 min 59 sec) 
Heartbeat CPU 1 instructions: 1090000000 cycles: 949769113 heartbeat IPC: 1.12899 cumulative IPC: 1.10148 (Simulation time: 4 hr 46 min 37 sec) 
Heartbeat CPU 2 instructions: 650000001 cycles: 955903842 heartbeat IPC: 0.908832 cumulative IPC: 0.602422 (Simulation time: 4 hr 48 min 41 sec) 
Heartbeat CPU 0 instructions: 1140000003 cycles: 956625376 heartbeat IPC: 1.14142 cumulative IPC: 1.13606 (Simulation time: 4 hr 48 min 53 sec) 
Heartbeat CPU 1 instructions: 1100000000 cycles: 958672174 heartbeat IPC: 1.12321 cumulative IPC: 1.10169 (Simulation time: 4 hr 49 min 26 sec) 
Heartbeat CPU 0 instructions: 1150000001 cycles: 965376838 heartbeat IPC: 1.14267 cumulative IPC: 1.13612 (Simulation time: 4 hr 51 min 32 sec) 
Heartbeat CPU 1 instructions: 1110000001 cycles: 967608202 heartbeat IPC: 1.11907 cumulative IPC: 1.10186 (Simulation time: 4 hr 52 min 12 sec) 
Heartbeat CPU 2 instructions: 660000000 cycles: 968654972 heartbeat IPC: 0.784244 cumulative IPC: 0.604889 (Simulation time: 4 hr 52 min 29 sec) 
Heartbeat CPU 0 instructions: 1160000002 cycles: 974140220 heartbeat IPC: 1.14111 cumulative IPC: 1.13617 (Simulation time: 4 hr 53 min 56 sec) 
Heartbeat CPU 1 instructions: 1120000000 cycles: 976616299 heartbeat IPC: 1.11011 cumulative IPC: 1.10194 (Simulation time: 4 hr 54 min 31 sec) 
Heartbeat CPU 0 instructions: 1170000001 cycles: 982824840 heartbeat IPC: 1.15146 cumulative IPC: 1.13631 (Simulation time: 4 hr 56 min 4 sec) 
Heartbeat CPU 1 instructions: 1130000000 cycles: 985515233 heartbeat IPC: 1.12373 cumulative IPC: 1.10214 (Simulation time: 4 hr 56 min 48 sec) 
Heartbeat CPU 2 instructions: 670000002 cycles: 986287889 heartbeat IPC: 0.567121 cumulative IPC: 0.604193 (Simulation time: 4 hr 57 min 2 sec) 
Heartbeat CPU 0 instructions: 1180000002 cycles: 991581024 heartbeat IPC: 1.14205 cumulative IPC: 1.13636 (Simulation time: 4 hr 58 min 33 sec) 
Heartbeat CPU 1 instructions: 1140000000 cycles: 994348900 heartbeat IPC: 1.13203 cumulative IPC: 1.10241 (Simulation time: 4 hr 59 min 14 sec) 
Heartbeat CPU 0 instructions: 1190000002 cycles: 1000392812 heartbeat IPC: 1.13484 cumulative IPC: 1.13635 (Simulation time: 5 hr 0 min 50 sec) 
Heartbeat CPU 1 instructions: 1150000002 cycles: 1003169742 heartbeat IPC: 1.13368 cumulative IPC: 1.1027 (Simulation time: 5 hr 1 min 37 sec) 
Heartbeat CPU 2 instructions: 680000002 cycles: 1005569739 heartbeat IPC: 0.518622 cumulative IPC: 0.602504 (Simulation time: 5 hr 2 min 16 sec) 
Heartbeat CPU 0 instructions: 1200000000 cycles: 1009221301 heartbeat IPC: 1.1327 cumulative IPC: 1.13632 (Simulation time: 5 hr 3 min 11 sec) 
Heartbeat CPU 1 instructions: 1160000002 cycles: 1012157722 heartbeat IPC: 1.1126 cumulative IPC: 1.10279 (Simulation time: 5 hr 3 min 59 sec) 
Heartbeat CPU 2 instructions: 690000000 cycles: 1017398025 heartbeat IPC: 0.845431 cumulative IPC: 0.605411 (Simulation time: 5 hr 5 min 31 sec) 
Heartbeat CPU 0 instructions: 1210000000 cycles: 1018025626 heartbeat IPC: 1.13581 cumulative IPC: 1.13631 (Simulation time: 5 hr 5 min 40 sec) 
Heartbeat CPU 1 instructions: 1170000001 cycles: 1021222611 heartbeat IPC: 1.10316 cumulative IPC: 1.10279 (Simulation time: 5 hr 6 min 34 sec) 
Heartbeat CPU 0 instructions: 1220000002 cycles: 1026919243 heartbeat IPC: 1.1244 cumulative IPC: 1.1362 (Simulation time: 5 hr 8 min 17 sec) 
Heartbeat CPU 1 instructions: 1180000001 cycles: 1030449093 heartbeat IPC: 1.08384 cumulative IPC: 1.10261 (Simulation time: 5 hr 9 min 21 sec) 
Heartbeat CPU 2 instructions: 700000000 cycles: 1031426409 heartbeat IPC: 0.71284 cumulative IPC: 0.606914 (Simulation time: 5 hr 9 min 38 sec) 
Heartbeat CPU 0 instructions: 1230000000 cycles: 1035702000 heartbeat IPC: 1.13859 cumulative IPC: 1.13623 (Simulation time: 5 hr 10 min 49 sec) 
Heartbeat CPU 1 instructions: 1190000001 cycles: 1039658854 heartbeat IPC: 1.0858 cumulative IPC: 1.10246 (Simulation time: 5 hr 12 min 2 sec) 
Heartbeat CPU 0 instructions: 1240000002 cycles: 1044463887 heartbeat IPC: 1.14131 cumulative IPC: 1.13627 (Simulation time: 5 hr 13 min 22 sec) 
Heartbeat CPU 1 instructions: 1200000000 cycles: 1048548552 heartbeat IPC: 1.1249 cumulative IPC: 1.10266 (Simulation time: 5 hr 14 min 26 sec) 
Heartbeat CPU 2 instructions: 710000000 cycles: 1049241181 heartbeat IPC: 0.561332 cumulative IPC: 0.606118 (Simulation time: 5 hr 14 min 36 sec) 
*** Reached end of trace for Core: 0 Repeating trace: ./traces/ligra/ligra_Triangle.com-lj.ungraph.gcc_6.3.0_O3.drop_3500M.length_250M.champsimtrace.xz
Heartbeat CPU 0 instructions: 1250000001 cycles: 1053197582 heartbeat IPC: 1.14499 cumulative IPC: 1.13634 (Simulation time: 5 hr 15 min 50 sec) 
Heartbeat CPU 1 instructions: 1210000000 cycles: 1057403978 heartbeat IPC: 1.12925 cumulative IPC: 1.10289 (Simulation time: 5 hr 17 min 1 sec) 
Heartbeat CPU 0 instructions: 1260000000 cycles: 1061920183 heartbeat IPC: 1.14645 cumulative IPC: 1.13643 (Simulation time: 5 hr 18 min 18 sec) 
Heartbeat CPU 1 instructions: 1220000000 cycles: 1066203544 heartbeat IPC: 1.13642 cumulative IPC: 1.10317 (Simulation time: 5 hr 19 min 37 sec) 
Heartbeat CPU 3 instructions: 90000000 cycles: 1066866808 heartbeat IPC: 0.0402123 cumulative IPC: 0.0385395 (Simulation time: 5 hr 19 min 47 sec) 
Heartbeat CPU 2 instructions: 720000002 cycles: 1067600187 heartbeat IPC: 0.544692 cumulative IPC: 0.605033 (Simulation time: 5 hr 19 min 57 sec) 
Heartbeat CPU 0 instructions: 1270000003 cycles: 1070669031 heartbeat IPC: 1.14301 cumulative IPC: 1.13648 (Simulation time: 5 hr 20 min 48 sec) 
Heartbeat CPU 1 instructions: 1230000002 cycles: 1075168093 heartbeat IPC: 1.11551 cumulative IPC: 1.10328 (Simulation time: 5 hr 22 min 10 sec) 
Heartbeat CPU 0 instructions: 1280000001 cycles: 1079382171 heartbeat IPC: 1.14769 cumulative IPC: 1.13658 (Simulation time: 5 hr 23 min 20 sec) 
Heartbeat CPU 1 instructions: 1240000001 cycles: 1084402118 heartbeat IPC: 1.08295 cumulative IPC: 1.1031 (Simulation time: 5 hr 24 min 35 sec) 
Heartbeat CPU 0 instructions: 1290000000 cycles: 1088108195 heartbeat IPC: 1.146 cumulative IPC: 1.13665 (Simulation time: 5 hr 25 min 38 sec) 
Heartbeat CPU 2 instructions: 730000002 cycles: 1090794672 heartbeat IPC: 0.431137 cumulative IPC: 0.601234 (Simulation time: 5 hr 26 min 25 sec) 
*** Reached end of trace for Core: 1 Repeating trace: ./traces/ligra/ligra_Components.com-lj.ungraph.gcc_6.3.0_O3.drop_5000M.length_250M.champsimtrace.xz
Heartbeat CPU 1 instructions: 1250000002 cycles: 1093381952 heartbeat IPC: 1.11361 cumulative IPC: 1.10319 (Simulation time: 5 hr 27 min 14 sec) 
Heartbeat CPU 0 instructions: 1300000000 cycles: 1096827789 heartbeat IPC: 1.14684 cumulative IPC: 1.13674 (Simulation time: 5 hr 28 min 17 sec) 
Heartbeat CPU 1 instructions: 1260000000 cycles: 1102049018 heartbeat IPC: 1.15379 cumulative IPC: 1.1036 (Simulation time: 5 hr 29 min 43 sec) 
Heartbeat CPU 0 instructions: 1310000002 cycles: 1105551402 heartbeat IPC: 1.14631 cumulative IPC: 1.13682 (Simulation time: 5 hr 30 min 40 sec) 
Heartbeat CPU 1 instructions: 1270000000 cycles: 1110730204 heartbeat IPC: 1.15192 cumulative IPC: 1.10398 (Simulation time: 5 hr 32 min 10 sec) 
Heartbeat CPU 0 instructions: 1320000000 cycles: 1114304052 heartbeat IPC: 1.14251 cumulative IPC: 1.13686 (Simulation time: 5 hr 33 min 2 sec) 
Heartbeat CPU 2 instructions: 740000001 cycles: 1116589412 heartbeat IPC: 0.387676 cumulative IPC: 0.596169 (Simulation time: 5 hr 33 min 41 sec) 
Heartbeat CPU 1 instructions: 1280000002 cycles: 1119434347 heartbeat IPC: 1.14888 cumulative IPC: 1.10434 (Simulation time: 5 hr 34 min 27 sec) 
Heartbeat CPU 0 instructions: 1330000001 cycles: 1123020764 heartbeat IPC: 1.14722 cumulative IPC: 1.13694 (Simulation time: 5 hr 35 min 25 sec) 
Heartbeat CPU 1 instructions: 1290000001 cycles: 1128213393 heartbeat IPC: 1.13908 cumulative IPC: 1.10462 (Simulation time: 5 hr 36 min 53 sec) 
Heartbeat CPU 0 instructions: 1340000001 cycles: 1131775224 heartbeat IPC: 1.14227 cumulative IPC: 1.13699 (Simulation time: 5 hr 37 min 53 sec) 
Heartbeat CPU 1 instructions: 1300000002 cycles: 1137046361 heartbeat IPC: 1.13212 cumulative IPC: 1.10484 (Simulation time: 5 hr 39 min 10 sec) 
Heartbeat CPU 0 instructions: 1350000001 cycles: 1140522832 heartbeat IPC: 1.14317 cumulative IPC: 1.13704 (Simulation time: 5 hr 40 min 5 sec) 
*** Reached end of trace for Core: 2 Repeating trace: ./traces/ligra/ligra_PageRank.com-lj.ungraph.gcc_6.3.0_O3.drop_51000M.length_250M.champsimtrace.xz
Heartbeat CPU 2 instructions: 750000001 cycles: 1145440180 heartbeat IPC: 0.346611 cumulative IPC: 0.58972 (Simulation time: 5 hr 41 min 19 sec) 
Heartbeat CPU 1 instructions: 1310000001 cycles: 1145864172 heartbeat IPC: 1.13407 cumulative IPC: 1.10507 (Simulation time: 5 hr 41 min 26 sec) 
Heartbeat CPU 0 instructions: 1360000001 cycles: 1149286578 heartbeat IPC: 1.14106 cumulative IPC: 1.13707 (Simulation time: 5 hr 42 min 19 sec) 
Heartbeat CPU 1 instructions: 1320000000 cycles: 1154807496 heartbeat IPC: 1.11815 cumulative IPC: 1.10517 (Simulation time: 5 hr 43 min 44 sec) 
Heartbeat CPU 0 instructions: 1370000001 cycles: 1158107973 heartbeat IPC: 1.13361 cumulative IPC: 1.13704 (Simulation time: 5 hr 44 min 31 sec) 
Heartbeat CPU 1 instructions: 1330000001 cycles: 1163813692 heartbeat IPC: 1.11035 cumulative IPC: 1.10521 (Simulation time: 5 hr 45 min 59 sec) 
Heartbeat CPU 0 instructions: 1380000002 cycles: 1166983598 heartbeat IPC: 1.12668 cumulative IPC: 1.13696 (Simulation time: 5 hr 46 min 45 sec) 
Heartbeat CPU 1 instructions: 1340000000 cycles: 1172867388 heartbeat IPC: 1.10452 cumulative IPC: 1.10521 (Simulation time: 5 hr 48 min 5 sec) 
Heartbeat CPU 0 instructions: 1390000003 cycles: 1175851232 heartbeat IPC: 1.1277 cumulative IPC: 1.13689 (Simulation time: 5 hr 48 min 46 sec) 
Heartbeat CPU 2 instructions: 760000003 cycles: 1179764429 heartbeat IPC: 0.291339 cumulative IPC: 0.580821 (Simulation time: 5 hr 49 min 48 sec) 
Heartbeat CPU 1 instructions: 1350000001 cycles: 1181991267 heartbeat IPC: 1.09603 cumulative IPC: 1.10514 (Simulation time: 5 hr 50 min 18 sec) 
Heartbeat CPU 0 instructions: 1400000001 cycles: 1184701232 heartbeat IPC: 1.12994 cumulative IPC: 1.13683 (Simulation time: 5 hr 50 min 51 sec) 
Heartbeat CPU 1 instructions: 1360000001 cycles: 1191122683 heartbeat IPC: 1.09512 cumulative IPC: 1.10506 (Simulation time: 5 hr 52 min 29 sec) 
Heartbeat CPU 0 instructions: 1410000002 cycles: 1193539156 heartbeat IPC: 1.13149 cumulative IPC: 1.13679 (Simulation time: 5 hr 53 min 2 sec) 
Heartbeat CPU 1 instructions: 1370000000 cycles: 1200322635 heartbeat IPC: 1.08696 cumulative IPC: 1.10492 (Simulation time: 5 hr 54 min 50 sec) 
Heartbeat CPU 0 instructions: 1420000001 cycles: 1202302870 heartbeat IPC: 1.14107 cumulative IPC: 1.13683 (Simulation time: 5 hr 55 min 22 sec) 
Heartbeat CPU 1 instructions: 1380000000 cycles: 1209289692 heartbeat IPC: 1.11519 cumulative IPC: 1.10499 (Simulation time: 5 hr 57 min 10 sec) 
Heartbeat CPU 0 instructions: 1430000000 cycles: 1211070887 heartbeat IPC: 1.14051 cumulative IPC: 1.13685 (Simulation time: 5 hr 57 min 38 sec) 
Heartbeat CPU 1 instructions: 1390000000 cycles: 1218118822 heartbeat IPC: 1.13261 cumulative IPC: 1.1052 (Simulation time: 5 hr 59 min 34 sec) 
Heartbeat CPU 0 instructions: 1440000003 cycles: 1219873399 heartbeat IPC: 1.13604 cumulative IPC: 1.13685 (Simulation time: 6 hr 0 min 1 sec) 
Heartbeat CPU 2 instructions: 770000000 cycles: 1220544916 heartbeat IPC: 0.245215 cumulative IPC: 0.569335 (Simulation time: 6 hr 0 min 10 sec) 
Heartbeat CPU 1 instructions: 1400000002 cycles: 1226908136 heartbeat IPC: 1.13775 cumulative IPC: 1.10544 (Simulation time: 6 hr 1 min 51 sec) 
Heartbeat CPU 0 instructions: 1450000001 cycles: 1228693813 heartbeat IPC: 1.13373 cumulative IPC: 1.13682 (Simulation time: 6 hr 2 min 21 sec) 
Heartbeat CPU 1 instructions: 1410000002 cycles: 1235876547 heartbeat IPC: 1.11502 cumulative IPC: 1.10551 (Simulation time: 6 hr 4 min 12 sec) 
Heartbeat CPU 0 instructions: 1460000002 cycles: 1237486866 heartbeat IPC: 1.13726 cumulative IPC: 1.13683 (Simulation time: 6 hr 4 min 37 sec) 
Heartbeat CPU 1 instructions: 1420000001 cycles: 1244936587 heartbeat IPC: 1.10375 cumulative IPC: 1.1055 (Simulation time: 6 hr 6 min 34 sec) 
Heartbeat CPU 0 instructions: 1470000002 cycles: 1246360515 heartbeat IPC: 1.12693 cumulative IPC: 1.13675 (Simulation time: 6 hr 6 min 58 sec) 
Heartbeat CPU 1 instructions: 1430000000 cycles: 1254140206 heartbeat IPC: 1.08653 cumulative IPC: 1.10535 (Simulation time: 6 hr 9 min 6 sec) 
Heartbeat CPU 0 instructions: 1480000000 cycles: 1255133823 heartbeat IPC: 1.13982 cumulative IPC: 1.13678 (Simulation time: 6 hr 9 min 22 sec) 
Heartbeat CPU 2 instructions: 780000003 cycles: 1263116094 heartbeat IPC: 0.234901 cumulative IPC: 0.557799 (Simulation time: 6 hr 11 min 24 sec) 
Heartbeat CPU 1 instructions: 1440000001 cycles: 1263322956 heartbeat IPC: 1.089 cumulative IPC: 1.10523 (Simulation time: 6 hr 11 min 28 sec) 
Heartbeat CPU 0 instructions: 1490000002 cycles: 1263891957 heartbeat IPC: 1.1418 cumulative IPC: 1.13681 (Simulation time: 6 hr 11 min 37 sec) 
Heartbeat CPU 1 instructions: 1450000000 cycles: 1272190835 heartbeat IPC: 1.12767 cumulative IPC: 1.10539 (Simulation time: 6 hr 13 min 52 sec) 
*** Reached end of trace for Core: 0 Repeating trace: ./traces/ligra/ligra_Triangle.com-lj.ungraph.gcc_6.3.0_O3.drop_3500M.length_250M.champsimtrace.xz
Heartbeat CPU 0 instructions: 1500000001 cycles: 1272605835 heartbeat IPC: 1.14759 cumulative IPC: 1.13689 (Simulation time: 6 hr 13 min 59 sec) 
Heartbeat CPU 0 instructions: 1510000000 cycles: 1281638093 heartbeat IPC: 1.10714 cumulative IPC: 1.13667 (Simulation time: 6 hr 16 min 24 sec) 
Heartbeat CPU 2 instructions: 790000001 cycles: 1281720418 heartbeat IPC: 0.537509 cumulative IPC: 0.557497 (Simulation time: 6 hr 16 min 25 sec) 
Heartbeat CPU 1 instructions: 1460000000 cycles: 1281769297 heartbeat IPC: 1.04401 cumulative IPC: 1.10492 (Simulation time: 6 hr 16 min 26 sec) 
Heartbeat CPU 0 instructions: 1520000003 cycles: 1290850907 heartbeat IPC: 1.08545 cumulative IPC: 1.1363 (Simulation time: 6 hr 19 min 4 sec) 
Heartbeat CPU 1 instructions: 1470000000 cycles: 1293286590 heartbeat IPC: 0.86826 cumulative IPC: 1.10277 (Simulation time: 6 hr 19 min 50 sec) 
Heartbeat CPU 2 instructions: 800000001 cycles: 1293968406 heartbeat IPC: 0.816461 cumulative IPC: 0.560005 (Simulation time: 6 hr 20 min 3 sec) 
Heartbeat CPU 0 instructions: 1530000000 cycles: 1300002091 heartbeat IPC: 1.09275 cumulative IPC: 1.13599 (Simulation time: 6 hr 21 min 53 sec) 
Heartbeat CPU 1 instructions: 1480000002 cycles: 1305061841 heartbeat IPC: 0.849239 cumulative IPC: 1.10043 (Simulation time: 6 hr 23 min 31 sec) 
Heartbeat CPU 2 instructions: 810000002 cycles: 1306398596 heartbeat IPC: 0.804493 cumulative IPC: 0.562384 (Simulation time: 6 hr 23 min 51 sec) 
Heartbeat CPU 0 instructions: 1540000000 cycles: 1309107135 heartbeat IPC: 1.09829 cumulative IPC: 1.13572 (Simulation time: 6 hr 24 min 38 sec) 
Heartbeat CPU 1 instructions: 1490000001 cycles: 1315096130 heartbeat IPC: 0.996583 cumulative IPC: 1.09962 (Simulation time: 6 hr 26 min 32 sec) 
Heartbeat CPU 2 instructions: 820000003 cycles: 1315361525 heartbeat IPC: 1.11571 cumulative IPC: 0.566239 (Simulation time: 6 hr 26 min 38 sec) 
Heartbeat CPU 0 instructions: 1550000001 cycles: 1317848172 heartbeat IPC: 1.14403 cumulative IPC: 1.13577 (Simulation time: 6 hr 27 min 30 sec) 
Heartbeat CPU 2 instructions: 830000002 cycles: 1322471322 heartbeat IPC: 1.40651 cumulative IPC: 0.570858 (Simulation time: 6 hr 29 min 20 sec) 
*** Reached end of trace for Core: 1 Repeating trace: ./traces/ligra/ligra_Components.com-lj.ungraph.gcc_6.3.0_O3.drop_5000M.length_250M.champsimtrace.xz
Heartbeat CPU 1 instructions: 1500000002 cycles: 1324058039 heartbeat IPC: 1.11583 cumulative IPC: 1.09973 (Simulation time: 6 hr 29 min 57 sec) 
Heartbeat CPU 0 instructions: 1560000002 cycles: 1326556063 heartbeat IPC: 1.14838 cumulative IPC: 1.13586 (Simulation time: 6 hr 30 min 59 sec) 
Heartbeat CPU 3 instructions: 100000001 cycles: 1326650345 heartbeat IPC: 0.0384936 cumulative IPC: 0.0385303 (Simulation time: 6 hr 31 min 1 sec) 
Heartbeat CPU 2 instructions: 840000003 cycles: 1329900754 heartbeat IPC: 1.346 cumulative IPC: 0.575284 (Simulation time: 6 hr 32 min 23 sec) 
Heartbeat CPU 1 instructions: 1510000000 cycles: 1332681764 heartbeat IPC: 1.15959 cumulative IPC: 1.10012 (Simulation time: 6 hr 33 min 28 sec) 
Heartbeat CPU 0 instructions: 1570000002 cycles: 1335292167 heartbeat IPC: 1.14468 cumulative IPC: 1.13592 (Simulation time: 6 hr 34 min 28 sec) 
Heartbeat CPU 2 instructions: 850000003 cycles: 1338899688 heartbeat IPC: 1.11124 cumulative IPC: 0.578966 (Simulation time: 6 hr 35 min 46 sec) 
Heartbeat CPU 1 instructions: 1520000000 cycles: 1341328236 heartbeat IPC: 1.15654 cumulative IPC: 1.1005 (Simulation time: 6 hr 36 min 37 sec) 
Heartbeat CPU 0 instructions: 1580000003 cycles: 1343983688 heartbeat IPC: 1.15055 cumulative IPC: 1.13601 (Simulation time: 6 hr 37 min 30 sec) 
Heartbeat CPU 2 instructions: 860000000 cycles: 1347633180 heartbeat IPC: 1.14502 cumulative IPC: 0.582715 (Simulation time: 6 hr 38 min 56 sec) 
Heartbeat CPU 1 instructions: 1530000002 cycles: 1349993698 heartbeat IPC: 1.15401 cumulative IPC: 1.10085 (Simulation time: 6 hr 39 min 52 sec) 
Heartbeat CPU 0 instructions: 1590000001 cycles: 1352709765 heartbeat IPC: 1.14599 cumulative IPC: 1.13608 (Simulation time: 6 hr 40 min 53 sec) 
Heartbeat CPU 2 instructions: 870000000 cycles: 1356962983 heartbeat IPC: 1.07183 cumulative IPC: 0.586151 (Simulation time: 6 hr 42 min 31 sec) 
Heartbeat CPU 1 instructions: 1540000000 cycles: 1358720769 heartbeat IPC: 1.14586 cumulative IPC: 1.10114 (Simulation time: 6 hr 43 min 10 sec) 
Heartbeat CPU 0 instructions: 1600000001 cycles: 1361422995 heartbeat IPC: 1.14768 cumulative IPC: 1.13616 (Simulation time: 6 hr 44 min 11 sec) 
Heartbeat CPU 2 instructions: 880000000 cycles: 1366020680 heartbeat IPC: 1.10403 cumulative IPC: 0.58966 (Simulation time: 6 hr 45 min 56 sec) 
Heartbeat CPU 1 instructions: 1550000002 cycles: 1367491013 heartbeat IPC: 1.14022 cumulative IPC: 1.1014 (Simulation time: 6 hr 46 min 24 sec) 
Heartbeat CPU 0 instructions: 1610000000 cycles: 1370143500 heartbeat IPC: 1.14672 cumulative IPC: 1.13622 (Simulation time: 6 hr 47 min 20 sec) 
Heartbeat CPU 2 instructions: 890000002 cycles: 1375914248 heartbeat IPC: 1.01076 cumulative IPC: 0.592753 (Simulation time: 6 hr 49 min 19 sec) 
Heartbeat CPU 1 instructions: 1560000001 cycles: 1376275983 heartbeat IPC: 1.13831 cumulative IPC: 1.10164 (Simulation time: 6 hr 49 min 27 sec) 
Heartbeat CPU 0 instructions: 1620000003 cycles: 1378905833 heartbeat IPC: 1.14125 cumulative IPC: 1.13626 (Simulation time: 6 hr 50 min 18 sec) 
Heartbeat CPU 1 instructions: 1570000001 cycles: 1385095727 heartbeat IPC: 1.13382 cumulative IPC: 1.10185 (Simulation time: 6 hr 52 min 22 sec) 
Heartbeat CPU 2 instructions: 900000001 cycles: 1387006975 heartbeat IPC: 0.901491 cumulative IPC: 0.595275 (Simulation time: 6 hr 53 min 0 sec) 
Heartbeat CPU 0 instructions: 1630000002 cycles: 1387672161 heartbeat IPC: 1.14073 cumulative IPC: 1.13629 (Simulation time: 6 hr 53 min 15 sec) 
Heartbeat CPU 1 instructions: 1580000001 cycles: 1393903754 heartbeat IPC: 1.13533 cumulative IPC: 1.10206 (Simulation time: 6 hr 54 min 58 sec) 
Heartbeat CPU 0 instructions: 1640000003 cycles: 1396437694 heartbeat IPC: 1.14083 cumulative IPC: 1.13632 (Simulation time: 6 hr 55 min 40 sec) 
Heartbeat CPU 2 instructions: 910000001 cycles: 1399886561 heartbeat IPC: 0.776423 cumulative IPC: 0.596977 (Simulation time: 6 hr 56 min 45 sec) 
Heartbeat CPU 1 instructions: 1590000000 cycles: 1402766888 heartbeat IPC: 1.12827 cumulative IPC: 1.10223 (Simulation time: 6 hr 57 min 37 sec) 
Heartbeat CPU 0 instructions: 1650000000 cycles: 1405191386 heartbeat IPC: 1.14237 cumulative IPC: 1.13635 (Simulation time: 6 hr 58 min 21 sec) 
Heartbeat CPU 1 instructions: 1600000001 cycles: 1411701047 heartbeat IPC: 1.1193 cumulative IPC: 1.10234 (Simulation time: 7 hr 0 min 12 sec) 
Heartbeat CPU 0 instructions: 1660000002 cycles: 1413964595 heartbeat IPC: 1.13983 cumulative IPC: 1.13638 (Simulation time: 7 hr 0 min 45 sec) 
Heartbeat CPU 2 instructions: 920000003 cycles: 1417589014 heartbeat IPC: 0.564894 cumulative IPC: 0.596568 (Simulation time: 7 hr 1 min 50 sec) 
Heartbeat CPU 1 instructions: 1610000001 cycles: 1420650169 heartbeat IPC: 1.11743 cumulative IPC: 1.10244 (Simulation time: 7 hr 2 min 43 sec) 
Heartbeat CPU 0 instructions: 1670000002 cycles: 1422636403 heartbeat IPC: 1.15316 cumulative IPC: 1.13648 (Simulation time: 7 hr 3 min 12 sec) 
Heartbeat CPU 1 instructions: 1620000000 cycles: 1429662300 heartbeat IPC: 1.10962 cumulative IPC: 1.10249 (Simulation time: 7 hr 5 min 1 sec) 
Heartbeat CPU 0 instructions: 1680000002 cycles: 1431394156 heartbeat IPC: 1.14185 cumulative IPC: 1.13651 (Simulation time: 7 hr 5 min 29 sec) 
Heartbeat CPU 2 instructions: 930000001 cycles: 1436961728 heartbeat IPC: 0.51619 cumulative IPC: 0.595462 (Simulation time: 7 hr 7 min 12 sec) 
Heartbeat CPU 1 instructions: 1630000000 cycles: 1438544091 heartbeat IPC: 1.1259 cumulative IPC: 1.10263 (Simulation time: 7 hr 7 min 43 sec) 
Heartbeat CPU 0 instructions: 1690000002 cycles: 1440202431 heartbeat IPC: 1.1353 cumulative IPC: 1.13651 (Simulation time: 7 hr 8 min 14 sec) 
Heartbeat CPU 1 instructions: 1640000000 cycles: 1447367824 heartbeat IPC: 1.13331 cumulative IPC: 1.10283 (Simulation time: 7 hr 10 min 30 sec) 
Heartbeat CPU 2 instructions: 940000003 cycles: 1448770613 heartbeat IPC: 0.84682 cumulative IPC: 0.597552 (Simulation time: 7 hr 10 min 59 sec) 
Heartbeat CPU 0 instructions: 1700000000 cycles: 1449033633 heartbeat IPC: 1.13235 cumulative IPC: 1.13648 (Simulation time: 7 hr 11 min 4 sec) 
Heartbeat CPU 1 instructions: 1650000000 cycles: 1456172838 heartbeat IPC: 1.13572 cumulative IPC: 1.10303 (Simulation time: 7 hr 13 min 12 sec) 
Heartbeat CPU 0 instructions: 1710000002 cycles: 1457842011 heartbeat IPC: 1.13528 cumulative IPC: 1.13647 (Simulation time: 7 hr 13 min 37 sec) 
Heartbeat CPU 2 instructions: 950000001 cycles: 1463022741 heartbeat IPC: 0.701649 cumulative IPC: 0.598587 (Simulation time: 7 hr 15 min 3 sec) 
Heartbeat CPU 1 instructions: 1660000002 cycles: 1465168570 heartbeat IPC: 1.11164 cumulative IPC: 1.10308 (Simulation time: 7 hr 15 min 41 sec) 
Heartbeat CPU 0 instructions: 1720000002 cycles: 1466731456 heartbeat IPC: 1.12493 cumulative IPC: 1.1364 (Simulation time: 7 hr 16 min 8 sec) 
Heartbeat CPU 1 instructions: 1670000001 cycles: 1474258491 heartbeat IPC: 1.10012 cumulative IPC: 1.10306 (Simulation time: 7 hr 18 min 19 sec) 
Heartbeat CPU 0 instructions: 1730000000 cycles: 1475523399 heartbeat IPC: 1.1374 cumulative IPC: 1.13641 (Simulation time: 7 hr 18 min 40 sec) 
Heartbeat CPU 2 instructions: 960000001 cycles: 1480994786 heartbeat IPC: 0.55642 cumulative IPC: 0.598065 (Simulation time: 7 hr 20 min 0 sec) 
Heartbeat CPU 1 instructions: 1680000001 cycles: 1483475970 heartbeat IPC: 1.0849 cumulative IPC: 1.10295 (Simulation time: 7 hr 20 min 46 sec) 
Heartbeat CPU 0 instructions: 1740000002 cycles: 1484290886 heartbeat IPC: 1.14058 cumulative IPC: 1.13643 (Simulation time: 7 hr 21 min 0 sec) 
Heartbeat CPU 1 instructions: 1690000001 cycles: 1492692443 heartbeat IPC: 1.08501 cumulative IPC: 1.10284 (Simulation time: 7 hr 23 min 5 sec) 
*** Reached end of trace for Core: 0 Repeating trace: ./traces/ligra/ligra_Triangle.com-lj.ungraph.gcc_6.3.0_O3.drop_3500M.length_250M.champsimtrace.xz
Heartbeat CPU 0 instructions: 1750000001 cycles: 1493018051 heartbeat IPC: 1.14585 cumulative IPC: 1.13649 (Simulation time: 7 hr 23 min 11 sec) 
Heartbeat CPU 2 instructions: 970000003 cycles: 1499069944 heartbeat IPC: 0.553246 cumulative IPC: 0.597514 (Simulation time: 7 hr 24 min 42 sec) 
Heartbeat CPU 1 instructions: 1700000000 cycles: 1501597024 heartbeat IPC: 1.12302 cumulative IPC: 1.10296 (Simulation time: 7 hr 25 min 22 sec) 
Heartbeat CPU 0 instructions: 1760000000 cycles: 1501736431 heartbeat IPC: 1.147 cumulative IPC: 1.13655 (Simulation time: 7 hr 25 min 24 sec) 
Heartbeat CPU 1 instructions: 1710000000 cycles: 1510466017 heartbeat IPC: 1.12752 cumulative IPC: 1.1031 (Simulation time: 7 hr 27 min 48 sec) 
Heartbeat CPU 0 instructions: 1770000001 cycles: 1510482329 heartbeat IPC: 1.14339 cumulative IPC: 1.13659 (Simulation time: 7 hr 27 min 49 sec) 
Heartbeat CPU 0 instructions: 1780000001 cycles: 1519206529 heartbeat IPC: 1.14624 cumulative IPC: 1.13665 (Simulation time: 7 hr 30 min 5 sec) 
Heartbeat CPU 1 instructions: 1720000000 cycles: 1519265342 heartbeat IPC: 1.13645 cumulative IPC: 1.1033 (Simulation time: 7 hr 30 min 6 sec) 
Heartbeat CPU 2 instructions: 980000003 cycles: 1522445534 heartbeat IPC: 0.427797 cumulative IPC: 0.594857 (Simulation time: 7 hr 30 min 54 sec) 
Heartbeat CPU 0 instructions: 1790000000 cycles: 1527930403 heartbeat IPC: 1.14628 cumulative IPC: 1.1367 (Simulation time: 7 hr 32 min 25 sec) 
Heartbeat CPU 1 instructions: 1730000002 cycles: 1528241036 heartbeat IPC: 1.11412 cumulative IPC: 1.10337 (Simulation time: 7 hr 32 min 29 sec) 
Heartbeat CPU 0 instructions: 1800000000 cycles: 1536651269 heartbeat IPC: 1.14668 cumulative IPC: 1.13676 (Simulation time: 7 hr 34 min 43 sec) 
Heartbeat CPU 1 instructions: 1740000001 cycles: 1537498671 heartbeat IPC: 1.08019 cumulative IPC: 1.10322 (Simulation time: 7 hr 34 min 53 sec) 
Heartbeat CPU 0 instructions: 1810000001 cycles: 1545367550 heartbeat IPC: 1.14728 cumulative IPC: 1.13682 (Simulation time: 7 hr 36 min 45 sec) 
*** Reached end of trace for Core: 1 Repeating trace: ./traces/ligra/ligra_Components.com-lj.ungraph.gcc_6.3.0_O3.drop_5000M.length_250M.champsimtrace.xz
Heartbeat CPU 1 instructions: 1750000002 cycles: 1546477653 heartbeat IPC: 1.11371 cumulative IPC: 1.10329 (Simulation time: 7 hr 37 min 2 sec) 
Heartbeat CPU 2 instructions: 990000000 cycles: 1546870054 heartbeat IPC: 0.409425 cumulative IPC: 0.591874 (Simulation time: 7 hr 37 min 8 sec) 
Heartbeat CPU 0 instructions: 1820000002 cycles: 1554134291 heartbeat IPC: 1.14067 cumulative IPC: 1.13684 (Simulation time: 7 hr 38 min 50 sec) 
Heartbeat CPU 1 instructions: 1760000000 cycles: 1555142512 heartbeat IPC: 1.15409 cumulative IPC: 1.10357 (Simulation time: 7 hr 39 min 6 sec) 
Heartbeat CPU 0 instructions: 1830000003 cycles: 1562852022 heartbeat IPC: 1.14709 cumulative IPC: 1.1369 (Simulation time: 7 hr 40 min 53 sec) 
Heartbeat CPU 1 instructions: 1770000000 cycles: 1563840256 heartbeat IPC: 1.14972 cumulative IPC: 1.10384 (Simulation time: 7 hr 41 min 6 sec) 
Heartbeat CPU 0 instructions: 1840000001 cycles: 1571600885 heartbeat IPC: 1.14301 cumulative IPC: 1.13694 (Simulation time: 7 hr 42 min 46 sec) 
Heartbeat CPU 1 instructions: 1780000002 cycles: 1572552544 heartbeat IPC: 1.1478 cumulative IPC: 1.10408 (Simulation time: 7 hr 43 min 0 sec) 
*** Reached end of trace for Core: 2 Repeating trace: ./traces/ligra/ligra_PageRank.com-lj.ungraph.gcc_6.3.0_O3.drop_51000M.length_250M.champsimtrace.xz
Heartbeat CPU 2 instructions: 1000000002 cycles: 1576110983 heartbeat IPC: 0.341986 cumulative IPC: 0.587151 (Simulation time: 7 hr 43 min 55 sec) 
Heartbeat CPU 0 instructions: 1850000001 cycles: 1580344949 heartbeat IPC: 1.14363 cumulative IPC: 1.13698 (Simulation time: 7 hr 44 min 58 sec) 
Heartbeat CPU 1 instructions: 1790000001 cycles: 1581343120 heartbeat IPC: 1.13758 cumulative IPC: 1.10427 (Simulation time: 7 hr 45 min 13 sec) 
Heartbeat CPU 0 instructions: 1860000000 cycles: 1589145573 heartbeat IPC: 1.13628 cumulative IPC: 1.13697 (Simulation time: 7 hr 47 min 0 sec) 
Heartbeat CPU 1 instructions: 1800000002 cycles: 1590292088 heartbeat IPC: 1.11745 cumulative IPC: 1.10435 (Simulation time: 7 hr 47 min 17 sec) 
Heartbeat CPU 0 instructions: 1870000000 cycles: 1597996216 heartbeat IPC: 1.12986 cumulative IPC: 1.13693 (Simulation time: 7 hr 48 min 56 sec) 
Heartbeat CPU 1 instructions: 1810000001 cycles: 1599269941 heartbeat IPC: 1.11385 cumulative IPC: 1.1044 (Simulation time: 7 hr 49 min 10 sec) 
Heartbeat CPU 3 instructions: 110000000 cycles: 1602808593 heartbeat IPC: 0.0362111 cumulative IPC: 0.0381234 (Simulation time: 7 hr 49 min 57 sec) 
Heartbeat CPU 0 instructions: 1880000002 cycles: 1606872380 heartbeat IPC: 1.12661 cumulative IPC: 1.13687 (Simulation time: 7 hr 51 min 0 sec) 
Heartbeat CPU 1 instructions: 1820000001 cycles: 1608308167 heartbeat IPC: 1.10641 cumulative IPC: 1.10442 (Simulation time: 7 hr 51 min 22 sec) 
Heartbeat CPU 2 instructions: 1010000000 cycles: 1610766276 heartbeat IPC: 0.288556 cumulative IPC: 0.580609 (Simulation time: 7 hr 51 min 56 sec) 
Heartbeat CPU 0 instructions: 1890000003 cycles: 1615733294 heartbeat IPC: 1.12855 cumulative IPC: 1.13683 (Simulation time: 7 hr 53 min 6 sec) 
Heartbeat CPU 1 instructions: 1830000001 cycles: 1617325101 heartbeat IPC: 1.10902 cumulative IPC: 1.10444 (Simulation time: 7 hr 53 min 27 sec) 
Heartbeat CPU 0 instructions: 1900000000 cycles: 1624578300 heartbeat IPC: 1.13058 cumulative IPC: 1.13679 (Simulation time: 7 hr 55 min 4 sec) 
Heartbeat CPU 1 instructions: 1840000000 cycles: 1626365501 heartbeat IPC: 1.10615 cumulative IPC: 1.10445 (Simulation time: 7 hr 55 min 28 sec) 
Heartbeat CPU 0 instructions: 1910000001 cycles: 1633439227 heartbeat IPC: 1.12855 cumulative IPC: 1.13675 (Simulation time: 7 hr 56 min 53 sec) 
Heartbeat CPU 1 instructions: 1850000001 cycles: 1635428464 heartbeat IPC: 1.10339 cumulative IPC: 1.10445 (Simulation time: 7 hr 57 min 17 sec) 
Heartbeat CPU 0 instructions: 1920000001 cycles: 1642120997 heartbeat IPC: 1.15184 cumulative IPC: 1.13683 (Simulation time: 7 hr 58 min 52 sec) 
Heartbeat CPU 1 instructions: 1860000001 cycles: 1644397791 heartbeat IPC: 1.11491 cumulative IPC: 1.1045 (Simulation time: 7 hr 59 min 19 sec) 
Heartbeat CPU 0 instructions: 1930000002 cycles: 1650867074 heartbeat IPC: 1.14337 cumulative IPC: 1.13686 (Simulation time: 8 hr 0 min 59 sec) 
Heartbeat CPU 2 instructions: 1020000000 cycles: 1651415519 heartbeat IPC: 0.246007 cumulative IPC: 0.572226 (Simulation time: 8 hr 1 min 6 sec) 
Heartbeat CPU 1 instructions: 1870000000 cycles: 1653385045 heartbeat IPC: 1.11269 cumulative IPC: 1.10455 (Simulation time: 8 hr 1 min 30 sec) 
Heartbeat CPU 0 instructions: 1940000002 cycles: 1659660280 heartbeat IPC: 1.13724 cumulative IPC: 1.13686 (Simulation time: 8 hr 3 min 1 sec) 
Heartbeat CPU 1 instructions: 1880000000 cycles: 1662262627 heartbeat IPC: 1.12643 cumulative IPC: 1.10467 (Simulation time: 8 hr 3 min 41 sec) 
Heartbeat CPU 0 instructions: 1950000000 cycles: 1668477516 heartbeat IPC: 1.13414 cumulative IPC: 1.13685 (Simulation time: 8 hr 5 min 6 sec) 
Heartbeat CPU 1 instructions: 1890000000 cycles: 1671073029 heartbeat IPC: 1.13502 cumulative IPC: 1.10483 (Simulation time: 8 hr 5 min 41 sec) 
Heartbeat CPU 0 instructions: 1960000002 cycles: 1677271021 heartbeat IPC: 1.1372 cumulative IPC: 1.13685 (Simulation time: 8 hr 7 min 10 sec) 
Heartbeat CPU 1 instructions: 1900000002 cycles: 1679863948 heartbeat IPC: 1.13754 cumulative IPC: 1.105 (Simulation time: 8 hr 7 min 51 sec) 
Heartbeat CPU 0 instructions: 1970000002 cycles: 1686147042 heartbeat IPC: 1.12663 cumulative IPC: 1.1368 (Simulation time: 8 hr 9 min 28 sec) 
Heartbeat CPU 1 instructions: 1910000002 cycles: 1688829861 heartbeat IPC: 1.11534 cumulative IPC: 1.10506 (Simulation time: 8 hr 10 min 11 sec) 
Heartbeat CPU 2 instructions: 1030000000 cycles: 1693992186 heartbeat IPC: 0.23487 cumulative IPC: 0.563599 (Simulation time: 8 hr 11 min 26 sec) 
Heartbeat CPU 0 instructions: 1980000000 cycles: 1694920863 heartbeat IPC: 1.13975 cumulative IPC: 1.13681 (Simulation time: 8 hr 11 min 37 sec) 
Heartbeat CPU 1 instructions: 1920000001 cycles: 1697888302 heartbeat IPC: 1.10394 cumulative IPC: 1.10505 (Simulation time: 8 hr 12 min 21 sec) 
Heartbeat CPU 0 instructions: 1990000003 cycles: 1703676999 heartbeat IPC: 1.14206 cumulative IPC: 1.13684 (Simulation time: 8 hr 13 min 51 sec) 
Heartbeat CPU 1 instructions: 1930000001 cycles: 1707185782 heartbeat IPC: 1.07556 cumulative IPC: 1.10489 (Simulation time: 8 hr 14 min 54 sec) 
Heartbeat CPU 2 instructions: 1040000002 cycles: 1712396716 heartbeat IPC: 0.543345 cumulative IPC: 0.563378 (Simulation time: 8 hr 16 min 24 sec) 
*** Reached end of trace for Core: 0 Repeating trace: ./traces/ligra/ligra_Triangle.com-lj.ungraph.gcc_6.3.0_O3.drop_3500M.length_250M.champsimtrace.xz
Heartbeat CPU 0 instructions: 2000000001 cycles: 1712668837 heartbeat IPC: 1.11212 cumulative IPC: 1.13671 (Simulation time: 8 hr 16 min 29 sec) 
Heartbeat CPU 1 instructions: 1940000001 cycles: 1718768391 heartbeat IPC: 0.863363 cumulative IPC: 1.10324 (Simulation time: 8 hr 18 min 24 sec) 
Heartbeat CPU 0 instructions: 2010000000 cycles: 1721843811 heartbeat IPC: 1.08992 cumulative IPC: 1.13645 (Simulation time: 8 hr 19 min 15 sec) 
Heartbeat CPU 2 instructions: 1050000002 cycles: 1724377459 heartbeat IPC: 0.834673 cumulative IPC: 0.565295 (Simulation time: 8 hr 19 min 58 sec) 
Heartbeat CPU 0 instructions: 2020000003 cycles: 1731013247 heartbeat IPC: 1.09058 cumulative IPC: 1.13621 (Simulation time: 8 hr 21 min 51 sec) 
Heartbeat CPU 1 instructions: 1950000000 cycles: 1731911001 heartbeat IPC: 0.760884 cumulative IPC: 1.10059 (Simulation time: 8 hr 22 min 5 sec) 
Heartbeat CPU 2 instructions: 1060000003 cycles: 1736554371 heartbeat IPC: 0.821226 cumulative IPC: 0.56712 (Simulation time: 8 hr 23 min 28 sec) 
Heartbeat CPU 0 instructions: 2030000000 cycles: 1740046271 heartbeat IPC: 1.10705 cumulative IPC: 1.13605 (Simulation time: 8 hr 24 min 28 sec) 
[...]
LLC LOAD TRANSLATION ACCESS:     127410  HIT:     121755  MISS:       5655  HIT %:    95.5616  MISS %:    4.43843   MPKI: 0.028275
LLC PREFETCH  REQUESTED:          0  ISSUED:          0  USEFUL:    4607181  USELESS:   63991784
LLC USEFUL LOAD PREFETCHES:    4607181 PREFETCH ISSUED TO LOWER LEVEL:   68600913  ACCURACY: 6.71592
LLC TIMELY PREFETCHES:    4607181 LATE PREFETCHES: 0 DROPPED PREFETCHES: 0
LLC PREFETCHES SAME FILL-ORIGIN LEVEL: 0 DIFFERENT FILL-ORIGIN LEVEL: 0
LLC AVERAGE MISS LATENCY: 12036.1 cycles
LLC RQ	ACCESS:  146040987	FORWARD:          0	MERGED:          0	TO_CACHE:  146040987
LLC WQ	ACCESS:   38919618	FORWARD:          0	MERGED:          0	TO_CACHE:   38919618
LLC PQ	ACCESS:  161572764	FORWARD:          0	MERGED:          0	TO_CACHE:  161572764

LLC Dense regions hint to LLC: 0

RAW hits: 6216399
Loads Generated: 76208299
Loads sent to L1D: 69991909
Stores Generated: 11134815
Stores sent to L1D: 11134808
Major fault: 0 Minor fault: 29197
Allocated PAGES: 102990

CPU 3 cumulative IPC: 0.041888 instructions: 200000000 cycles: 4774636043
ITLB TOTAL     ACCESS:   59968951  HIT:   59968951  MISS:          0  HIT %:        100  MISS %:          0   MPKI: 0
ITLB LOAD TRANSLATION ACCESS:   59968951  HIT:   59968951  MISS:          0  HIT %:        100  MISS %:          0   MPKI: 0
ITLB PREFETCH  REQUESTED:          0  ISSUED:          0  USEFUL:          0  USELESS:          0
ITLB USEFUL LOAD PREFETCHES:          0 PREFETCH ISSUED TO LOWER LEVEL:          0  ACCURACY: -nan
ITLB TIMELY PREFETCHES:          0 LATE PREFETCHES: 0 DROPPED PREFETCHES: 0
ITLB PREFETCHES SAME FILL-ORIGIN LEVEL: 0 DIFFERENT FILL-ORIGIN LEVEL: 0
ITLB AVERAGE MISS LATENCY: -nan cycles
ITLB RQ	ACCESS:   61096959	FORWARD:          0	MERGED:    1128007	TO_CACHE:   59968952

DTLB TOTAL     ACCESS:   67016391  HIT:   44018925  MISS:   22997466  HIT %:    65.6838  MISS %:    34.3162   MPKI: 114.987
DTLB LOAD TRANSLATION ACCESS:   67016391  HIT:   44018925  MISS:   22997466  HIT %:    65.6838  MISS %:    34.3162   MPKI: 114.987
DTLB PREFETCH  REQUESTED:          0  ISSUED:          0  USEFUL:          0  USELESS:          0
DTLB USEFUL LOAD PREFETCHES:          0 PREFETCH ISSUED TO LOWER LEVEL:          0  ACCURACY: -nan
DTLB TIMELY PREFETCHES:          0 LATE PREFETCHES: 0 DROPPED PREFETCHES: 0
DTLB PREFETCHES SAME FILL-ORIGIN LEVEL: 0 DIFFERENT FILL-ORIGIN LEVEL: 0
DTLB AVERAGE MISS LATENCY: 9.24988 cycles
DTLB RQ	ACCESS:   67743103	FORWARD:          0	MERGED:     716121	TO_CACHE:   67026982

STLB TOTAL     ACCESS:   57284970  HIT:   57244152  MISS:      40818  HIT %:    99.9287  MISS %:  0.0712543   MPKI: 0.20409
STLB LOAD TRANSLATION ACCESS:   22997465  HIT:   22956647  MISS:      40818  HIT %:    99.8225  MISS %:   0.177489   MPKI: 0.20409
STLB TRANSLATION FROM L1D PREFETCHER ACCESS:   34287505  HIT:   34287505  MISS:          0  HIT %:        100  MISS %:          0   MPKI: 0
STLB PREFETCH  REQUESTED:          0  ISSUED:          0  USEFUL:          0  USELESS:          0
STLB USEFUL LOAD PREFETCHES:          0 PREFETCH ISSUED TO LOWER LEVEL:          0  ACCURACY: -nan
STLB TIMELY PREFETCHES:          0 LATE PREFETCHES: 0 DROPPED PREFETCHES: 0
STLB PREFETCHES SAME FILL-ORIGIN LEVEL: 0 DIFFERENT FILL-ORIGIN LEVEL: 0
STLB AVERAGE MISS LATENCY: 135.201 cycles
STLB RQ	ACCESS:   62733040	FORWARD:          0	MERGED:    5448070	TO_CACHE:   57284970

STLB Hit, L1D data hit: 0
STLB Hit, L2C data hit: 0
STLB Hit, LLC data hit: 0
STLB Hit, LLC data miss: 0
STLB STLB hints to L2: 0
L1D TOTAL     ACCESS:  105986970  HIT:   39790073  MISS:   66196897  HIT %:    37.5424  MISS %:    62.4576   MPKI: 330.984
L1D LOAD      ACCESS:   64227300  HIT:   32075720  MISS:   32151580  HIT %:    49.9409  MISS %:    50.0591   MPKI: 160.758
L1D RFO       ACCESS:    2488930  HIT:    2423371  MISS:      65559  HIT %:     97.366  MISS %:    2.63402   MPKI: 0.327795
L1D PREFETCH  ACCESS:   39270740  HIT:    5290982  MISS:   33979758  HIT %:    13.4731  MISS %:    86.5269   MPKI: 169.899
L1D PREFETCH  REQUESTED:   79471150  ISSUED:   79471150  USEFUL:    3030188  USELESS:   30949566
L1D USEFUL LOAD PREFETCHES:    3030188 PREFETCH ISSUED TO LOWER LEVEL:   34312430  ACCURACY: 8.83117
L1D TIMELY PREFETCHES:    3030188 LATE PREFETCHES: 332670 DROPPED PREFETCHES: 0
L1D PREFETCHES SAME FILL-ORIGIN LEVEL: 34312430 DIFFERENT FILL-ORIGIN LEVEL: 0
L1D AVERAGE MISS LATENCY: 142.03 cycles
L1D RQ	ACCESS:   77350914	FORWARD:          0	MERGED:   12913617	TO_CACHE:   64437288
L1D WQ	ACCESS:    3305817	FORWARD:          9	MERGED:          2	TO_CACHE:    3305815
L1D PQ	ACCESS:   39735575	FORWARD:          0	MERGED:          0	TO_CACHE:   39735575

L1D UNIQUE REGIONS ACCESSED: 0
L1D REGIONS CONFLICTS: 0
L1D Cross Page Prefetch Requests: 0
L1D Same Page Prefetch Requests: 48371360
L1D ROI Sum of L1D PQ occupancy: 441628565
L1D PREFETCHES PUSHED FROM L2C: 0
L1I TOTAL     ACCESS:   61096957  HIT:   61096936  MISS:         21  HIT %:        100  MISS %: 3.43716e-05   MPKI: 0.000105
L1I LOAD      ACCESS:   61096957  HIT:   61096936  MISS:         21  HIT %:        100  MISS %: 3.43716e-05   MPKI: 0.000105
L1I PREFETCH  REQUESTED:          0  ISSUED:          0  USEFUL:          0  USELESS:          0
L1I USEFUL LOAD PREFETCHES:          0 PREFETCH ISSUED TO LOWER LEVEL:          0  ACCURACY: -nan
L1I TIMELY PREFETCHES:          0 LATE PREFETCHES: 0 DROPPED PREFETCHES: 0
L1I PREFETCHES SAME FILL-ORIGIN LEVEL: 0 DIFFERENT FILL-ORIGIN LEVEL: 0
L1I AVERAGE MISS LATENCY: 360.524 cycles
L1I RQ	ACCESS:   72164120	FORWARD:          0	MERGED:   11067161	TO_CACHE:   61096959

BTB TOTAL     ACCESS:   37022761  HIT:   37022589  MISS:        172  HIT %:    99.9995  MISS %: 0.000464579   MPKI: 0.00086
BTB BRANCH_DIRECT_JUMP	ACCESS:         66  HIT:         33  MISS:         33
BTB BRANCH_INDIRECT	ACCESS:          4  HIT:          0  MISS:          4
BTB BRANCH_CONDITIONAL	ACCESS:   37022625  HIT:   37022536  MISS:         89
BTB BRANCH_DIRECT_CALL	ACCESS:         28  HIT:         10  MISS:         18
BTB BRANCH_INDIRECT_CALL	ACCESS:          5  HIT:          1  MISS:          4
BTB BRANCH_RETURN	ACCESS:         33  HIT:          9  MISS:         24
BTB BRANCH_OTHER ACCESS:          0  HIT:          0  MISS:          0

L2C TOTAL     ACCESS:   66409289  HIT:   14341619  MISS:   52067670  HIT %:    21.5958  MISS %:    78.4042   MPKI: 260.338
L2C LOAD      ACCESS:   31818907  HIT:    7437847  MISS:   24381060  HIT %:    23.3756  MISS %:    76.6244   MPKI: 121.905
L2C DATA LOAD MPKI: 121.905
L2C INSTRUCTION LOAD MPKI: 0.000105
L2C RFO       ACCESS:      65559  HIT:        316  MISS:      65243  HIT %:   0.482009  MISS %:     99.518   MPKI: 0.326215
L2C PREFETCH  ACCESS:   34312427  HIT:    6712899  MISS:   27599528  HIT %:     19.564  MISS %:     80.436   MPKI: 137.998
L2C DATA PREFETCH MPKI: 137.998
L2C INSTRUCTION PREFETCH MPKI: 0
L2C WRITEBACK ACCESS:     171540  HIT:     160009  MISS:      11531  HIT %:     93.278  MISS %:    6.72205   MPKI: 0.057655
L2C LOAD TRANSLATION ACCESS:      40856  HIT:      30548  MISS:      10308  HIT %:    74.7699  MISS %:    25.2301   MPKI: 0.05154
L2C PREFETCH  REQUESTED:          0  ISSUED:          0  USEFUL:    1148834  USELESS:   26450506
L2C USEFUL LOAD PREFETCHES:    1148834 PREFETCH ISSUED TO LOWER LEVEL:   27599530  ACCURACY: 4.16251
L2C TIMELY PREFETCHES:    1148834 LATE PREFETCHES: 0 DROPPED PREFETCHES: 0
L2C PREFETCHES SAME FILL-ORIGIN LEVEL: 0 DIFFERENT FILL-ORIGIN LEVEL: 0
L2C AVERAGE MISS LATENCY: 165.995 cycles
L2C RQ	ACCESS:   31925346	FORWARD:          0	MERGED:          0	TO_CACHE:   31925322
L2C WQ	ACCESS:     171540	FORWARD:         24	MERGED:          0	TO_CACHE:     171540
L2C PQ	ACCESS:   34312430	FORWARD:          0	MERGED:          0	TO_CACHE:   34312430

L2C Instructions Evicting Data 21
L2C Translations Evicting Data 10304
L2C Data Evicting Data 52035497
L2C Instructions Evicting Instructions 0
L2C Translations Evicting Instructions 0
L2C Data Evicting Instructions 21
L2C Instructions Evicting Translations 0
L2C Translations Evicting Translations 4
L2C Data Evicting Translations 10292
L2C Dense regions hint from L2: 0
PSCL5 TOTAL     ACCESS:      40818  HIT:      40818  MISS:          0  HIT %:        100  MISS %:          0   MPKI: 0
PSCL5 LOAD TRANSLATION ACCESS:      40818  HIT:      40818  MISS:          0  HIT %:        100  MISS %:          0   MPKI: 0
PSCL5 PREFETCH  REQUESTED:          0  ISSUED:          0  USEFUL:          0  USELESS:          0
PSCL5 USEFUL LOAD PREFETCHES:          0 PREFETCH ISSUED TO LOWER LEVEL:          0  ACCURACY: -nan
PSCL5 TIMELY PREFETCHES:          0 LATE PREFETCHES: 0 DROPPED PREFETCHES: 0
PSCL5 PREFETCHES SAME FILL-ORIGIN LEVEL: 0 DIFFERENT FILL-ORIGIN LEVEL: 0

PSCL4 TOTAL     ACCESS:      40818  HIT:      40818  MISS:          0  HIT %:        100  MISS %:          0   MPKI: 0
PSCL4 LOAD TRANSLATION ACCESS:      40818  HIT:      40818  MISS:          0  HIT %:        100  MISS %:          0   MPKI: 0
PSCL4 PREFETCH  REQUESTED:          0  ISSUED:          0  USEFUL:          0  USELESS:          0
PSCL4 USEFUL LOAD PREFETCHES:          0 PREFETCH ISSUED TO LOWER LEVEL:          0  ACCURACY: -nan
PSCL4 TIMELY PREFETCHES:          0 LATE PREFETCHES: 0 DROPPED PREFETCHES: 0
PSCL4 PREFETCHES SAME FILL-ORIGIN LEVEL: 0 DIFFERENT FILL-ORIGIN LEVEL: 0

PSCL3 TOTAL     ACCESS:      40818  HIT:      40818  MISS:          0  HIT %:        100  MISS %:          0   MPKI: 0
PSCL3 LOAD TRANSLATION ACCESS:      40818  HIT:      40818  MISS:          0  HIT %:        100  MISS %:          0   MPKI: 0
PSCL3 PREFETCH  REQUESTED:          0  ISSUED:          0  USEFUL:          0  USELESS:          0
PSCL3 USEFUL LOAD PREFETCHES:          0 PREFETCH ISSUED TO LOWER LEVEL:          0  ACCURACY: -nan
PSCL3 TIMELY PREFETCHES:          0 LATE PREFETCHES: 0 DROPPED PREFETCHES: 0
PSCL3 PREFETCHES SAME FILL-ORIGIN LEVEL: 0 DIFFERENT FILL-ORIGIN LEVEL: 0

PSCL2 TOTAL     ACCESS:      40818  HIT:      40733  MISS:         85  HIT %:    99.7918  MISS %:   0.208241   MPKI: 0.000425
PSCL2 LOAD TRANSLATION ACCESS:      40818  HIT:      40733  MISS:         85  HIT %:    99.7918  MISS %:   0.208241   MPKI: 0.000425
PSCL2 PREFETCH  REQUESTED:          0  ISSUED:          0  USEFUL:          0  USELESS:          0
PSCL2 USEFUL LOAD PREFETCHES:          0 PREFETCH ISSUED TO LOWER LEVEL:          0  ACCURACY: -nan
PSCL2 TIMELY PREFETCHES:          0 LATE PREFETCHES: 0 DROPPED PREFETCHES: 0
PSCL2 PREFETCHES SAME FILL-ORIGIN LEVEL: 0 DIFFERENT FILL-ORIGIN LEVEL: 0

LLC TOTAL     ACCESS:   52195619  HIT:   32828241  MISS:   19367378  HIT %:    62.8946  MISS %:    37.1054   MPKI: 96.8369
LLC LOAD      ACCESS:   24381060  HIT:   16376234  MISS:    8004826  HIT %:    67.1679  MISS %:    32.8321   MPKI: 40.0241
LLC RFO       ACCESS:      65243  HIT:      13726  MISS:      51517  HIT %:    21.0383  MISS %:    78.9617   MPKI: 0.257585
LLC PREFETCH  ACCESS:   27599528  HIT:   16302723  MISS:   11296805  HIT %:    59.0688  MISS %:    40.9312   MPKI: 56.484
LLC WRITEBACK ACCESS:     139480  HIT:     131360  MISS:       8120  HIT %:    94.1784  MISS %:    5.82162   MPKI: 0.0406
LLC LOAD TRANSLATION ACCESS:      10308  HIT:       4198  MISS:       6110  HIT %:    40.7256  MISS %:    59.2744   MPKI: 0.03055
LLC PREFETCH  REQUESTED:          0  ISSUED:          0  USEFUL:    4607181  USELESS:   63991784
LLC USEFUL LOAD PREFETCHES:    4607181 PREFETCH ISSUED TO LOWER LEVEL:   68600913  ACCURACY: 6.71592
LLC TIMELY PREFETCHES:    4607181 LATE PREFETCHES: 0 DROPPED PREFETCHES: 0
LLC PREFETCHES SAME FILL-ORIGIN LEVEL: 0 DIFFERENT FILL-ORIGIN LEVEL: 0
LLC AVERAGE MISS LATENCY: 2334 cycles
LLC RQ	ACCESS:  146040987	FORWARD:          0	MERGED:          0	TO_CACHE:  146040987
LLC WQ	ACCESS:   38919618	FORWARD:          0	MERGED:          0	TO_CACHE:   38919618
LLC PQ	ACCESS:  161572764	FORWARD:          0	MERGED:          0	TO_CACHE:  161572764

LLC Dense regions hint to LLC: 0

RAW hits: 27
Loads Generated: 77350942
Loads sent to L1D: 77350914
Stores Generated: 3305817
Stores sent to L1D: 3305817
Major fault: 0 Minor fault: 34901
Allocated PAGES: 102990

stream: 
stream:times selected: 18965722
stream:pref_filled: 9620837
stream:pref_useful: 9620699
stream:pref_late: 30979
stream:misses: 370
stream:misses_by_poll: 0

CS: 
CS:times selected: 17808948
CS:pref_filled: 42392
CS:pref_useful: 42389
CS:pref_late: 1290
CS:misses: 862222
CS:misses_by_poll: 97

CPLX: 
CPLX:times selected: 1156712
CPLX:pref_filled: 4931
CPLX:pref_useful: 4931
CPLX:pref_late: 22
CPLX:misses: 147
CPLX:misses_by_poll: 3

NL_L1: 
NL:times selected: 23
NL:pref_filled: 0
NL:pref_useful: 0
NL:pref_late: 0
NL:misses: 0
NL:misses_by_poll: 0

total selections: 37931405
total_filled: 9516494
total_useful: 9516359
total_late: 32385
total_polluted: 100
total_misses_after_warmup: 859975
conflicts: 170
Degree Incremented Times: 8813115
Degree Decremented Times: 69794671

L1 IP Table Write Accesses: 1407849298
L1 IP Table Read Accesses: 1407849128
L1 RST Write Accesses: 393868132
L1 RST Read Accesses: 787736264
L1 CSPT Write Accesses: 393868132
L1 CSPT Read Accesses: 714922336
L1 RR Filter Tag Write Accesses: 474299496
L1 RR Filter Tag Read Accesses: 22241934845
L1 IP Table Tag Write Accesses: 1407849511
L1 IP Table Tag Read Accesses: 1407849511
L1 RST Tag Write Accesses: 0
L1 RST Tag Read Accesses: 3558142679
L1 RR Filter Write Accesses: 0
L1 RR Filter Read Accesses: 802449093
test: 177764120

stream: 
stream:times selected: 19726479
stream:pref_filled: 15339030
stream:pref_useful: 15336112
stream:pref_late: 133699
stream:misses: 971
stream:misses_by_poll: 0

CS: 
CS:times selected: 19726472
CS:pref_filled: 56401
CS:pref_useful: 56401
CS:pref_late: 3750
CS:misses: 2569188
CS:misses_by_poll: 180

CPLX: 
CPLX:times selected: 7
CPLX:pref_filled: 1
CPLX:pref_useful: 1
CPLX:pref_late: 0
CPLX:misses: 1
CPLX:misses_by_poll: 0

NL_L1: 
NL:times selected: 0
NL:pref_filled: 0
NL:pref_useful: 0
NL:pref_late: 0
NL:misses: 0
NL:misses_by_poll: 0

total selections: 39452958
total_filled: 15175264
total_useful: 15172383
total_late: 138155
total_polluted: 180
total_misses_after_warmup: 2564440
conflicts: 170
Degree Incremented Times: 8813115
Degree Decremented Times: 69794671

L1 IP Table Write Accesses: 1407849298
L1 IP Table Read Accesses: 1407849128
L1 RST Write Accesses: 393868132
L1 RST Read Accesses: 787736264
L1 CSPT Write Accesses: 393868132
L1 CSPT Read Accesses: 714922336
L1 RR Filter Tag Write Accesses: 474299496
L1 RR Filter Tag Read Accesses: 22241934845
L1 IP Table Tag Write Accesses: 1407849511
L1 IP Table Tag Read Accesses: 1407849511
L1 RST Tag Write Accesses: 0
L1 RST Tag Read Accesses: 3558142679
L1 RR Filter Write Accesses: 0
L1 RR Filter Read Accesses: 802449093
test: 177764120

stream: 
stream:times selected: 317036361
stream:pref_filled: 180911990
stream:pref_useful: 11650811
stream:pref_late: 898238
stream:misses: 43746059
stream:misses_by_poll: 0

CS: 
CS:times selected: 33260438
CS:pref_filled: 19628582
CS:pref_useful: 17756428
CS:pref_late: 6828849
CS:misses: 14564306
CS:misses_by_poll: 40433

CPLX: 
CPLX:times selected: 281379124
CPLX:pref_filled: 4175286
CPLX:pref_useful: 248113
CPLX:pref_late: 20909
CPLX:misses: 149787366
CPLX:misses_by_poll: 1811

NL_L1: 
NL:times selected: 12463
NL:pref_filled: 5303
NL:pref_useful: 527
NL:pref_late: 29
NL:misses: 6327
NL:misses_by_poll: 0

total selections: 631688386
total_filled: 199545478
total_useful: 27691243
total_late: 7866840
total_polluted: 42244
total_misses_after_warmup: 208120963
conflicts: 170
Degree Incremented Times: 8813115
Degree Decremented Times: 69794671

L1 IP Table Write Accesses: 1407849298
L1 IP Table Read Accesses: 1407849128
L1 RST Write Accesses: 393868132
L1 RST Read Accesses: 787736264
L1 CSPT Write Accesses: 393868132
L1 CSPT Read Accesses: 714922336
L1 RR Filter Tag Write Accesses: 474299496
L1 RR Filter Tag Read Accesses: 22241934845
L1 IP Table Tag Write Accesses: 1407849511
L1 IP Table Tag Read Accesses: 1407849511
L1 RST Tag Write Accesses: 0
L1 RST Tag Read Accesses: 3558142679
L1 RR Filter Write Accesses: 0
L1 RR Filter Read Accesses: 802449093
test: 177764120

stream: 
stream:times selected: 43569772
stream:pref_filled: 37480936
stream:pref_useful: 967969
stream:pref_late: 256499
stream:misses: 9203285
stream:misses_by_poll: 0

CS: 
CS:times selected: 3930770
CS:pref_filled: 3112559
CS:pref_useful: 2818338
CS:pref_late: 91560
CS:misses: 509660
CS:misses_by_poll: 2806

CPLX: 
CPLX:times selected: 39271510
CPLX:pref_filled: 756384
CPLX:pref_useful: 29737
CPLX:pref_late: 13866
CPLX:misses: 29138804
CPLX:misses_by_poll: 292

NL_L1: 
NL:times selected: 59163
NL:pref_filled: 57600
NL:pref_useful: 631
NL:pref_late: 95
NL:misses: 58063
NL:misses_by_poll: 0

total selections: 86831215
total_filled: 33979758
total_useful: 3030188
total_late: 366848
total_polluted: 3098
total_misses_after_warmup: 32361569
conflicts: 170
Degree Incremented Times: 8813115
Degree Decremented Times: 69794671

L1 IP Table Write Accesses: 1407849298
L1 IP Table Read Accesses: 1407849128
L1 RST Write Accesses: 393868132
L1 RST Read Accesses: 787736264
L1 CSPT Write Accesses: 393868132
L1 CSPT Read Accesses: 714922336
L1 RR Filter Tag Write Accesses: 474299496
L1 RR Filter Tag Read Accesses: 22241934845
L1 IP Table Tag Write Accesses: 1407849511
L1 IP Table Tag Read Accesses: 1407849511
L1 RST Tag Write Accesses: 0
L1 RST Tag Read Accesses: 3558142679
L1 RR Filter Write Accesses: 0
L1 RR Filter Read Accesses: 802449093
test: 177764120

DRAM Statistics
 CHANNEL 0
 RQ ROW_BUFFER_HIT:   20075252  ROW_BUFFER_MISS:   98514764
 DBUS_CONGESTED:        160
 WQ ROW_BUFFER_HIT:    3131571  ROW_BUFFER_MISS:   35776944  FULL:       1583

 AVG_CONGESTED_CYCLE: 5
 All warmup complete: 5
Channel 0 Bank busy for read cycles: 0
Channel 0 Bank busy for write cycles: 0
Channel 0
Rank 0
0banks busy for read cycles: 821276
0banks busy for write cycles: 0
1banks busy for read cycles: 108837516
1banks busy for write cycles: 4283554
2banks busy for read cycles: 411836101
2banks busy for write cycles: 4283246
3banks busy for read cycles: 728153861
3banks busy for write cycles: 4282970
4banks busy for read cycles: 759305921
4banks busy for write cycles: 4283669
5banks busy for read cycles: 596629615
5banks busy for write cycles: 4419167
6banks busy for read cycles: 443145169
6banks busy for write cycles: 10597825
7banks busy for read cycles: 361787446
7banks busy for write cycles: 128304665
8banks busy for read cycles: 314306122
8banks busy for write cycles: 889357921

CPU 0 Branch Prediction Accuracy: 99.4263% MPKI: 1.30474 Average ROB Occupancy at Mispredict: 33.7638
Branch types
NOT_BRANCH: 4183263956 77.1079%
BRANCH_DIRECT_JUMP: 0 0%
BRANCH_INDIRECT: 0 0%
BRANCH_CONDITIONAL: 1241940679 22.8921%
BRANCH_DIRECT_CALL: 0 0%
BRANCH_INDIRECT_CALL: 0 0%
BRANCH_RETURN: 0 0%
BRANCH_OTHER: 0 0%


CPU 1 Branch Prediction Accuracy: 99.6759% MPKI: 1.21888 Average ROB Occupancy at Mispredict: 60.764
Branch types
NOT_BRANCH: 3275463112 62.2095%
BRANCH_DIRECT_JUMP: 0 0%
BRANCH_INDIRECT: 0 0%
BRANCH_CONDITIONAL: 1989749691 37.7905%
BRANCH_DIRECT_CALL: 0 0%
BRANCH_INDIRECT_CALL: 0 0%
BRANCH_RETURN: 0 0%
BRANCH_OTHER: 0 0%


CPU 2 Branch Prediction Accuracy: 98.5283% MPKI: 2.00528 Average ROB Occupancy at Mispredict: 204.686
Branch types
NOT_BRANCH: 2383365089 86.169%
BRANCH_DIRECT_JUMP: 484 1.74987e-05%
BRANCH_INDIRECT: 0 0%
BRANCH_CONDITIONAL: 382552130 13.8309%
BRANCH_DIRECT_CALL: 143 5.17007e-06%
BRANCH_INDIRECT_CALL: 0 0%
BRANCH_RETURN: 121 4.37468e-06%
BRANCH_OTHER: 0 0%


CPU 3 Branch Prediction Accuracy: 96.9509% MPKI: 5.6443 Average ROB Occupancy at Mispredict: 139.952
Branch types
NOT_BRANCH: 162977012 81.4885%
BRANCH_DIRECT_JUMP: 66 3.3e-05%
BRANCH_INDIRECT: 4 2e-06%
BRANCH_CONDITIONAL: 37022851 18.5114%
BRANCH_DIRECT_CALL: 28 1.4e-05%
BRANCH_INDIRECT_CALL: 5 2.5e-06%
BRANCH_RETURN: 33 1.65e-05%
BRANCH_OTHER: 0 0%

DRAM PAGES: 1048576
Allocated PAGES: 102990
