
*** ChampSim Multicore Out-of-Order Simulator ***

Warmup Instructions: 50000000
Simulation Instructions: 200000000
Number of CPUs: 4
LLC sets: 8192
LLC ways: 16
Off-chip DRAM Size: 4096 MB Channels: 1 Width: 64-bit Data Rate: 6400 MT/s
CPU 0 runs ./traces/ligra/ligra_PageRankDelta.com-lj.ungraph.gcc_6.3.0_O3.drop_24500M.length_250M.champsimtrace.xz
.xz
CPU 1 runs ./traces/ligra/ligra_PageRankDelta.com-lj.ungraph.gcc_6.3.0_O3.drop_24500M.length_250M.champsimtrace.xz
.xz
CPU 2 runs ./traces/ligra/ligra_PageRankDelta.com-lj.ungraph.gcc_6.3.0_O3.drop_24500M.length_250M.champsimtrace.xz
.xz
CPU 3 runs ./traces/ligra/ligra_PageRankDelta.com-lj.ungraph.gcc_6.3.0_O3.drop_24500M.length_250M.champsimtrace.xz
.xz
BTB has LRU replacement policy
ITLB has LRU replacement policy
DTLB has LRU replacement policy
STLB has LRU replacement policy
L1I has LRU replacement policy
IP Table Entries: 1024
CSPT Entries: 128
RR_ENTRIES: 32
RST_ENTRIES: 8
L1D has LRU replacement policy
Initialize SRRIP state for L2C
Initialize DRRIP state for LLC
BTB has LRU replacement policy
ITLB has LRU replacement policy
DTLB has LRU replacement policy
STLB has LRU replacement policy
L1I has LRU replacement policy
IP Table Entries: 1024
CSPT Entries: 128
RR_ENTRIES: 32
RST_ENTRIES: 8
L1D has LRU replacement policy
Initialize SRRIP state for L2C
Initialize DRRIP state for LLC
BTB has LRU replacement policy
ITLB has LRU replacement policy
DTLB has LRU replacement policy
STLB has LRU replacement policy
L1I has LRU replacement policy
IP Table Entries: 1024
CSPT Entries: 128
RR_ENTRIES: 32
RST_ENTRIES: 8
L1D has LRU replacement policy
Initialize SRRIP state for L2C
Initialize DRRIP state for LLC
BTB has LRU replacement policy
ITLB has LRU replacement policy
DTLB has LRU replacement policy
STLB has LRU replacement policy
L1I has LRU replacement policy
IP Table Entries: 1024
CSPT Entries: 128
RR_ENTRIES: 32
RST_ENTRIES: 8
L1D has LRU replacement policy
Initialize SRRIP state for L2C
Initialize DRRIP state for LLC
Heartbeat CPU 0 instructions: 10000002 cycles: 3154211 heartbeat IPC: 3.17037 cumulative IPC: 3.17037 (Simulation time: 0 hr 4 min 36 sec) 
Heartbeat CPU 1 instructions: 10000002 cycles: 3154289 heartbeat IPC: 3.17029 cumulative IPC: 3.17029 (Simulation time: 0 hr 4 min 36 sec) 
Heartbeat CPU 2 instructions: 10000002 cycles: 3154360 heartbeat IPC: 3.17022 cumulative IPC: 3.17022 (Simulation time: 0 hr 4 min 36 sec) 
Heartbeat CPU 3 instructions: 10000002 cycles: 3154568 heartbeat IPC: 3.17001 cumulative IPC: 3.17001 (Simulation time: 0 hr 4 min 36 sec) 
Heartbeat CPU 0 instructions: 20000003 cycles: 6303972 heartbeat IPC: 3.17484 cumulative IPC: 3.1726 (Simulation time: 0 hr 9 min 3 sec) 
Heartbeat CPU 1 instructions: 20000003 cycles: 6304142 heartbeat IPC: 3.17475 cumulative IPC: 3.17252 (Simulation time: 0 hr 9 min 3 sec) 
Heartbeat CPU 2 instructions: 20000003 cycles: 6304240 heartbeat IPC: 3.17472 cumulative IPC: 3.17247 (Simulation time: 0 hr 9 min 3 sec) 
Heartbeat CPU 3 instructions: 20000003 cycles: 6304336 heartbeat IPC: 3.17484 cumulative IPC: 3.17242 (Simulation time: 0 hr 9 min 3 sec) 
Heartbeat CPU 0 instructions: 30000000 cycles: 9447868 heartbeat IPC: 3.18077 cumulative IPC: 3.17532 (Simulation time: 0 hr 13 min 26 sec) 
Heartbeat CPU 1 instructions: 30000000 cycles: 9448284 heartbeat IPC: 3.18052 cumulative IPC: 3.17518 (Simulation time: 0 hr 13 min 26 sec) 
Heartbeat CPU 2 instructions: 30000000 cycles: 9448601 heartbeat IPC: 3.1803 cumulative IPC: 3.17507 (Simulation time: 0 hr 13 min 26 sec) 
Heartbeat CPU 3 instructions: 30000001 cycles: 9448699 heartbeat IPC: 3.18029 cumulative IPC: 3.17504 (Simulation time: 0 hr 13 min 26 sec) 
Heartbeat CPU 0 instructions: 40000003 cycles: 12593699 heartbeat IPC: 3.17881 cumulative IPC: 3.17619 (Simulation time: 0 hr 17 min 50 sec) 
Heartbeat CPU 1 instructions: 40000003 cycles: 12594324 heartbeat IPC: 3.1786 cumulative IPC: 3.17603 (Simulation time: 0 hr 17 min 50 sec) 
Heartbeat CPU 2 instructions: 40000003 cycles: 12594961 heartbeat IPC: 3.17828 cumulative IPC: 3.17587 (Simulation time: 0 hr 17 min 50 sec) 
Heartbeat CPU 3 instructions: 40000003 cycles: 12595382 heartbeat IPC: 3.17795 cumulative IPC: 3.17577 (Simulation time: 0 hr 17 min 50 sec) 
Heartbeat CPU 0 instructions: 50000001 cycles: 15749296 heartbeat IPC: 3.16897 cumulative IPC: 3.17475 (Simulation time: 0 hr 22 min 20 sec) 
Heartbeat CPU 1 instructions: 50000000 cycles: 15750347 heartbeat IPC: 3.16854 cumulative IPC: 3.17453 (Simulation time: 0 hr 22 min 20 sec) 
Heartbeat CPU 2 instructions: 50000000 cycles: 15751318 heartbeat IPC: 3.16821 cumulative IPC: 3.17434 (Simulation time: 0 hr 22 min 21 sec) 
Heartbeat CPU 3 instructions: 50000000 cycles: 15752036 heartbeat IPC: 3.16791 cumulative IPC: 3.17419 (Simulation time: 0 hr 22 min 21 sec) 

Warmup complete CPU 0 instructions: 50008296 cycles: 15752037 (Simulation time: 0 hr 22 min 21 sec) 
Warmup complete CPU 1 instructions: 50005257 cycles: 15752037 (Simulation time: 0 hr 22 min 21 sec) 
Warmup complete CPU 2 instructions: 50002255 cycles: 15752037 (Simulation time: 0 hr 22 min 21 sec) 
Warmup complete CPU 3 instructions: 50000004 cycles: 15752037 (Simulation time: 0 hr 22 min 21 sec) 

Heartbeat CPU 0 instructions: 60000001 cycles: 73512964 heartbeat IPC: 0.173119 cumulative IPC: 0.172984 (Simulation time: 0 hr 29 min 45 sec) 
Heartbeat CPU 1 instructions: 60000001 cycles: 73536588 heartbeat IPC: 0.173052 cumulative IPC: 0.172966 (Simulation time: 0 hr 29 min 45 sec) 
Heartbeat CPU 3 instructions: 60000001 cycles: 73706409 heartbeat IPC: 0.17255 cumulative IPC: 0.172549 (Simulation time: 0 hr 29 min 48 sec) 
Heartbeat CPU 2 instructions: 60000001 cycles: 73724040 heartbeat IPC: 0.172495 cumulative IPC: 0.172458 (Simulation time: 0 hr 29 min 48 sec) 
Heartbeat CPU 0 instructions: 70000001 cycles: 119256916 heartbeat IPC: 0.218608 cumulative IPC: 0.193147 (Simulation time: 0 hr 36 min 17 sec) 
Heartbeat CPU 1 instructions: 70000001 cycles: 119366715 heartbeat IPC: 0.218197 cumulative IPC: 0.192972 (Simulation time: 0 hr 36 min 18 sec) 
Heartbeat CPU 2 instructions: 70000001 cycles: 119482529 heartbeat IPC: 0.218539 cumulative IPC: 0.192786 (Simulation time: 0 hr 36 min 19 sec) 
Heartbeat CPU 3 instructions: 70000001 cycles: 119569720 heartbeat IPC: 0.218039 cumulative IPC: 0.192645 (Simulation time: 0 hr 36 min 19 sec) 
Heartbeat CPU 0 instructions: 80000001 cycles: 184593993 heartbeat IPC: 0.153052 cumulative IPC: 0.177632 (Simulation time: 0 hr 42 min 50 sec) 
Heartbeat CPU 2 instructions: 80000001 cycles: 184922132 heartbeat IPC: 0.152813 cumulative IPC: 0.177323 (Simulation time: 0 hr 42 min 52 sec) 
Heartbeat CPU 1 instructions: 80000001 cycles: 184948354 heartbeat IPC: 0.152482 cumulative IPC: 0.177278 (Simulation time: 0 hr 42 min 52 sec) 
Heartbeat CPU 3 instructions: 80000001 cycles: 185250392 heartbeat IPC: 0.152252 cumulative IPC: 0.176993 (Simulation time: 0 hr 42 min 54 sec) 
Heartbeat CPU 0 instructions: 90000001 cycles: 245597923 heartbeat IPC: 0.163924 cumulative IPC: 0.173994 (Simulation time: 0 hr 49 min 40 sec) 
Heartbeat CPU 2 instructions: 90000001 cycles: 245788640 heartbeat IPC: 0.164294 cumulative IPC: 0.173876 (Simulation time: 0 hr 49 min 41 sec) 
Heartbeat CPU 1 instructions: 90000001 cycles: 246136874 heartbeat IPC: 0.163429 cumulative IPC: 0.1736 (Simulation time: 0 hr 49 min 44 sec) 
Heartbeat CPU 3 instructions: 90000001 cycles: 246336959 heartbeat IPC: 0.163702 cumulative IPC: 0.173472 (Simulation time: 0 hr 49 min 45 sec) 
Heartbeat CPU 0 instructions: 100000001 cycles: 287929412 heartbeat IPC: 0.236231 cumulative IPC: 0.183673 (Simulation time: 0 hr 55 min 4 sec) 
Heartbeat CPU 2 instructions: 100000001 cycles: 288123343 heartbeat IPC: 0.236213 cumulative IPC: 0.183565 (Simulation time: 0 hr 55 min 5 sec) 
Heartbeat CPU 1 instructions: 100000001 cycles: 288404583 heartbeat IPC: 0.236587 cumulative IPC: 0.183364 (Simulation time: 0 hr 55 min 6 sec) 
Heartbeat CPU 3 instructions: 100000001 cycles: 288704070 heartbeat IPC: 0.236032 cumulative IPC: 0.183182 (Simulation time: 0 hr 55 min 8 sec) 
Heartbeat CPU 0 instructions: 110000000 cycles: 341855535 heartbeat IPC: 0.185439 cumulative IPC: 0.183965 (Simulation time: 1 hr 2 min 5 sec) 
Heartbeat CPU 2 instructions: 110000000 cycles: 342067144 heartbeat IPC: 0.185378 cumulative IPC: 0.183864 (Simulation time: 1 hr 2 min 7 sec) 
Heartbeat CPU 1 instructions: 110000000 cycles: 342399876 heartbeat IPC: 0.185201 cumulative IPC: 0.183668 (Simulation time: 1 hr 2 min 10 sec) 
Heartbeat CPU 3 instructions: 110000000 cycles: 342523499 heartbeat IPC: 0.185806 cumulative IPC: 0.183615 (Simulation time: 1 hr 2 min 12 sec) 
Heartbeat CPU 0 instructions: 120000001 cycles: 399924693 heartbeat IPC: 0.172208 cumulative IPC: 0.182188 (Simulation time: 1 hr 8 min 50 sec) 
Heartbeat CPU 2 instructions: 120000001 cycles: 400074881 heartbeat IPC: 0.172391 cumulative IPC: 0.182133 (Simulation time: 1 hr 8 min 51 sec) 
Heartbeat CPU 1 instructions: 120000001 cycles: 400139352 heartbeat IPC: 0.173192 cumulative IPC: 0.182094 (Simulation time: 1 hr 8 min 51 sec) 
Heartbeat CPU 3 instructions: 120000001 cycles: 401034820 heartbeat IPC: 0.170907 cumulative IPC: 0.181685 (Simulation time: 1 hr 8 min 56 sec) 
Heartbeat CPU 0 instructions: 130000001 cycles: 458174537 heartbeat IPC: 0.171674 cumulative IPC: 0.180804 (Simulation time: 1 hr 15 min 50 sec) 
Heartbeat CPU 2 instructions: 130000001 cycles: 458401598 heartbeat IPC: 0.171448 cumulative IPC: 0.180725 (Simulation time: 1 hr 15 min 52 sec) 
Heartbeat CPU 1 instructions: 130000001 cycles: 458457239 heartbeat IPC: 0.171474 cumulative IPC: 0.180695 (Simulation time: 1 hr 15 min 53 sec) 
Heartbeat CPU 3 instructions: 130000001 cycles: 459440692 heartbeat IPC: 0.171216 cumulative IPC: 0.180307 (Simulation time: 1 hr 16 min 0 sec) 
Heartbeat CPU 0 instructions: 140000001 cycles: 517113938 heartbeat IPC: 0.169666 cumulative IPC: 0.179495 (Simulation time: 1 hr 22 min 10 sec) 
Heartbeat CPU 2 instructions: 140000001 cycles: 517204268 heartbeat IPC: 0.17006 cumulative IPC: 0.179474 (Simulation time: 1 hr 22 min 11 sec) 
Heartbeat CPU 1 instructions: 140000001 cycles: 517265432 heartbeat IPC: 0.170044 cumulative IPC: 0.179446 (Simulation time: 1 hr 22 min 11 sec) 
Heartbeat CPU 3 instructions: 140000001 cycles: 518637300 heartbeat IPC: 0.168929 cumulative IPC: 0.178967 (Simulation time: 1 hr 22 min 18 sec) 
Heartbeat CPU 0 instructions: 150000000 cycles: 572657933 heartbeat IPC: 0.180037 cumulative IPC: 0.179549 (Simulation time: 1 hr 28 min 46 sec) 
Heartbeat CPU 2 instructions: 150000000 cycles: 572818724 heartbeat IPC: 0.179809 cumulative IPC: 0.179508 (Simulation time: 1 hr 28 min 46 sec) 
Heartbeat CPU 1 instructions: 150000000 cycles: 572899589 heartbeat IPC: 0.179746 cumulative IPC: 0.179476 (Simulation time: 1 hr 28 min 47 sec) 
Heartbeat CPU 3 instructions: 150000000 cycles: 576085073 heartbeat IPC: 0.174071 cumulative IPC: 0.178465 (Simulation time: 1 hr 29 min 8 sec) 
Heartbeat CPU 0 instructions: 160000003 cycles: 620348891 heartbeat IPC: 0.209683 cumulative IPC: 0.181926 (Simulation time: 1 hr 35 min 10 sec) 
Heartbeat CPU 2 instructions: 160000003 cycles: 620437749 heartbeat IPC: 0.21 cumulative IPC: 0.181909 (Simulation time: 1 hr 35 min 11 sec) 
Heartbeat CPU 1 instructions: 160000003 cycles: 620595165 heartbeat IPC: 0.209663 cumulative IPC: 0.181857 (Simulation time: 1 hr 35 min 12 sec) 
Heartbeat CPU 3 instructions: 160000003 cycles: 625247035 heartbeat IPC: 0.203409 cumulative IPC: 0.180477 (Simulation time: 1 hr 35 min 56 sec) 
Heartbeat CPU 0 instructions: 170000003 cycles: 665090445 heartbeat IPC: 0.223506 cumulative IPC: 0.184791 (Simulation time: 1 hr 41 min 7 sec) 
Heartbeat CPU 2 instructions: 170000003 cycles: 665208939 heartbeat IPC: 0.223358 cumulative IPC: 0.184766 (Simulation time: 1 hr 41 min 9 sec) 
Heartbeat CPU 1 instructions: 170000003 cycles: 665378571 heartbeat IPC: 0.223297 cumulative IPC: 0.184713 (Simulation time: 1 hr 41 min 11 sec) 
Heartbeat CPU 3 instructions: 170000003 cycles: 671761938 heartbeat IPC: 0.214985 cumulative IPC: 0.182924 (Simulation time: 1 hr 42 min 14 sec) 
Heartbeat CPU 0 instructions: 180000003 cycles: 709498669 heartbeat IPC: 0.225184 cumulative IPC: 0.187376 (Simulation time: 1 hr 47 min 17 sec) 
Heartbeat CPU 2 instructions: 180000003 cycles: 709754138 heartbeat IPC: 0.224491 cumulative IPC: 0.187316 (Simulation time: 1 hr 47 min 19 sec) 
Heartbeat CPU 1 instructions: 180000003 cycles: 709840901 heartbeat IPC: 0.224909 cumulative IPC: 0.187288 (Simulation time: 1 hr 47 min 20 sec) 
Heartbeat CPU 3 instructions: 180000003 cycles: 717965797 heartbeat IPC: 0.216432 cumulative IPC: 0.185129 (Simulation time: 1 hr 48 min 25 sec) 
Heartbeat CPU 0 instructions: 190000003 cycles: 764047372 heartbeat IPC: 0.183322 cumulative IPC: 0.187081 (Simulation time: 1 hr 54 min 2 sec) 
Heartbeat CPU 2 instructions: 190000003 cycles: 764380357 heartbeat IPC: 0.183062 cumulative IPC: 0.187006 (Simulation time: 1 hr 54 min 4 sec) 
Heartbeat CPU 1 instructions: 190000003 cycles: 764498917 heartbeat IPC: 0.182956 cumulative IPC: 0.186972 (Simulation time: 1 hr 54 min 4 sec) 
Heartbeat CPU 3 instructions: 190000003 cycles: 774558159 heartbeat IPC: 0.176702 cumulative IPC: 0.1845 (Simulation time: 1 hr 55 min 21 sec) 
Heartbeat CPU 0 instructions: 200000003 cycles: 814880082 heartbeat IPC: 0.196724 cumulative IPC: 0.187694 (Simulation time: 2 hr 0 min 22 sec) 
Heartbeat CPU 2 instructions: 200000003 cycles: 815535969 heartbeat IPC: 0.195482 cumulative IPC: 0.187548 (Simulation time: 2 hr 0 min 27 sec) 
Heartbeat CPU 1 instructions: 200000003 cycles: 815640415 heartbeat IPC: 0.195536 cumulative IPC: 0.18752 (Simulation time: 2 hr 0 min 27 sec) 
Heartbeat CPU 3 instructions: 200000003 cycles: 827703807 heartbeat IPC: 0.188162 cumulative IPC: 0.18474 (Simulation time: 2 hr 1 min 58 sec) 
Heartbeat CPU 0 instructions: 210000003 cycles: 869707634 heartbeat IPC: 0.18239 cumulative IPC: 0.187354 (Simulation time: 2 hr 6 min 39 sec) 
Heartbeat CPU 1 instructions: 210000003 cycles: 870514046 heartbeat IPC: 0.182237 cumulative IPC: 0.18718 (Simulation time: 2 hr 6 min 43 sec) 
Heartbeat CPU 2 instructions: 210000003 cycles: 870525240 heartbeat IPC: 0.181854 cumulative IPC: 0.187182 (Simulation time: 2 hr 6 min 43 sec) 
Heartbeat CPU 3 instructions: 210000003 cycles: 884519078 heartbeat IPC: 0.176009 cumulative IPC: 0.184169 (Simulation time: 2 hr 8 min 7 sec) 
Heartbeat CPU 0 instructions: 220000000 cycles: 923480316 heartbeat IPC: 0.185968 cumulative IPC: 0.187272 (Simulation time: 2 hr 12 min 36 sec) 
Heartbeat CPU 1 instructions: 220000000 cycles: 924348478 heartbeat IPC: 0.185755 cumulative IPC: 0.187096 (Simulation time: 2 hr 12 min 42 sec) 
Heartbeat CPU 2 instructions: 220000000 cycles: 924472463 heartbeat IPC: 0.185366 cumulative IPC: 0.187074 (Simulation time: 2 hr 12 min 43 sec) 
Heartbeat CPU 3 instructions: 220000000 cycles: 939954112 heartbeat IPC: 0.180391 cumulative IPC: 0.183942 (Simulation time: 2 hr 14 min 38 sec) 
Heartbeat CPU 0 instructions: 230000003 cycles: 971551879 heartbeat IPC: 0.208023 cumulative IPC: 0.188315 (Simulation time: 2 hr 18 min 39 sec) 
Heartbeat CPU 1 instructions: 230000003 cycles: 972305617 heartbeat IPC: 0.20852 cumulative IPC: 0.18817 (Simulation time: 2 hr 18 min 45 sec) 
Heartbeat CPU 2 instructions: 230000003 cycles: 972620570 heartbeat IPC: 0.207693 cumulative IPC: 0.188111 (Simulation time: 2 hr 18 min 47 sec) 
Heartbeat CPU 3 instructions: 230000003 cycles: 989576022 heartbeat IPC: 0.201524 cumulative IPC: 0.184838 (Simulation time: 2 hr 20 min 59 sec) 
Heartbeat CPU 0 instructions: 240000003 cycles: 1024763245 heartbeat IPC: 0.18793 cumulative IPC: 0.188295 (Simulation time: 2 hr 25 min 24 sec) 
Heartbeat CPU 1 instructions: 240000003 cycles: 1025595813 heartbeat IPC: 0.187652 cumulative IPC: 0.188143 (Simulation time: 2 hr 25 min 31 sec) 
Heartbeat CPU 2 instructions: 240000003 cycles: 1025832052 heartbeat IPC: 0.187929 cumulative IPC: 0.188102 (Simulation time: 2 hr 25 min 33 sec) 
Heartbeat CPU 3 instructions: 240000003 cycles: 1044347381 heartbeat IPC: 0.182577 cumulative IPC: 0.184718 (Simulation time: 2 hr 27 min 47 sec) 
Heartbeat CPU 0 instructions: 250000003 cycles: 1078511091 heartbeat IPC: 0.186054 cumulative IPC: 0.188182 (Simulation time: 2 hr 31 min 37 sec) 
*** Reached end of trace for Core: 0 Repeating trace: ./traces/ligra/ligra_PageRankDelta.com-lj.ungraph.gcc_6.3.0_O3.drop_24500M.length_250M.champsimtrace.xz
Finished CPU 0 instructions: 200000000 cycles: 1062833394 cumulative IPC: 0.188176 (Simulation time: 2 hr 31 min 37 sec) 
Heartbeat CPU 1 instructions: 250000003 cycles: 1079363350 heartbeat IPC: 0.185986 cumulative IPC: 0.188034 (Simulation time: 2 hr 31 min 43 sec) 
*** Reached end of trace for Core: 1 Repeating trace: ./traces/ligra/ligra_PageRankDelta.com-lj.ungraph.gcc_6.3.0_O3.drop_24500M.length_250M.champsimtrace.xz
Finished CPU 1 instructions: 200000000 cycles: 1063668643 cumulative IPC: 0.188028 (Simulation time: 2 hr 31 min 44 sec) 
Heartbeat CPU 2 instructions: 250000003 cycles: 1079559466 heartbeat IPC: 0.186125 cumulative IPC: 0.188002 (Simulation time: 2 hr 31 min 45 sec) 
*** Reached end of trace for Core: 2 Repeating trace: ./traces/ligra/ligra_PageRankDelta.com-lj.ungraph.gcc_6.3.0_O3.drop_24500M.length_250M.champsimtrace.xz
Finished CPU 2 instructions: 200000003 cycles: 1063838399 cumulative IPC: 0.187998 (Simulation time: 2 hr 31 min 45 sec) 
Heartbeat CPU 3 instructions: 250000003 cycles: 1102717553 heartbeat IPC: 0.17132 cumulative IPC: 0.183998 (Simulation time: 2 hr 34 min 29 sec) 
Finished CPU 3 instructions: 200000000 cycles: 1086965517 cumulative IPC: 0.183998 (Simulation time: 2 hr 34 min 29 sec) 

ChampSim completed all CPUs

Total Simulation Statistics (not including warmup)

CPU 0 cumulative IPC: 0.187586 instructions: 203899583 cycles: 1086965517
ITLB TOTAL     ACCESS:   25604763  HIT:   25604763  MISS:          0  HIT %:        100  MISS %:          0   MPKI: 0
ITLB LOAD      ACCESS:          0  HIT:          0  MISS:          0  HIT %:       -nan  MISS %:       -nan   MPKI: 0
ITLB RFO       ACCESS:          0  HIT:          0  MISS:          0  HIT %:       -nan  MISS %:       -nan   MPKI: 0
ITLB PREFETCH  ACCESS:          0  HIT:          0  MISS:          0  HIT %:       -nan  MISS %:       -nan   MPKI: 0
ITLB WRITEBACK ACCESS:          0  HIT:          0  MISS:          0  HIT %:       -nan  MISS %:       -nan   MPKI: 0
DTLB TOTAL     ACCESS:   61857101  HIT:   58932738  MISS:    2924363  HIT %:    95.2724  MISS %:    4.72761   MPKI: 14.3422
DTLB LOAD      ACCESS:          0  HIT:          0  MISS:          0  HIT %:       -nan  MISS %:       -nan   MPKI: 0
DTLB RFO       ACCESS:          0  HIT:          0  MISS:          0  HIT %:       -nan  MISS %:       -nan   MPKI: 0
DTLB PREFETCH  ACCESS:          0  HIT:          0  MISS:          0  HIT %:       -nan  MISS %:       -nan   MPKI: 0
DTLB WRITEBACK ACCESS:          0  HIT:          0  MISS:          0  HIT %:       -nan  MISS %:       -nan   MPKI: 0
STLB TOTAL     ACCESS:   10059152  HIT:    8686094  MISS:    1373058  HIT %:    86.3502  MISS %:    13.6498   MPKI: 6.73399
STLB LOAD      ACCESS:          0  HIT:          0  MISS:          0  HIT %:       -nan  MISS %:       -nan   MPKI: 0
STLB RFO       ACCESS:          0  HIT:          0  MISS:          0  HIT %:       -nan  MISS %:       -nan   MPKI: 0
STLB PREFETCH  ACCESS:          0  HIT:          0  MISS:          0  HIT %:       -nan  MISS %:       -nan   MPKI: 0
STLB WRITEBACK ACCESS:          0  HIT:          0  MISS:          0  HIT %:       -nan  MISS %:       -nan   MPKI: 0
L1D TOTAL     ACCESS:   79295590  HIT:   70409467  MISS:    8886123  HIT %:    88.7937  MISS %:    11.2063   MPKI: 43.5809
L1D LOAD      ACCESS:   47375561  HIT:   43844432  MISS:    3531129  HIT %:    92.5465  MISS %:    7.45348   MPKI: 17.318
L1D RFO       ACCESS:   22014070  HIT:   22014070  MISS:          0  HIT %:        100  MISS %:          0   MPKI: 0
L1D PREFETCH  ACCESS:    9905959  HIT:    4550965  MISS:    5354994  HIT %:    45.9417  MISS %:    54.0583   MPKI: 26.2629
L1D WRITEBACK ACCESS:          0  HIT:          0  MISS:          0  HIT %:       -nan  MISS %:       -nan   MPKI: 0
L1I TOTAL     ACCESS:   33620928  HIT:   33620928  MISS:          0  HIT %:        100  MISS %:          0   MPKI: 0
L1I LOAD      ACCESS:   33620928  HIT:   33620928  MISS:          0  HIT %:        100  MISS %:          0   MPKI: 0
L1I RFO       ACCESS:          0  HIT:          0  MISS:          0  HIT %:       -nan  MISS %:       -nan   MPKI: 0
L1I PREFETCH  ACCESS:          0  HIT:          0  MISS:          0  HIT %:       -nan  MISS %:       -nan   MPKI: 0
L1I WRITEBACK ACCESS:          0  HIT:          0  MISS:          0  HIT %:       -nan  MISS %:       -nan   MPKI: 0
L2C TOTAL     ACCESS:   14004643  HIT:    5373176  MISS:    8631467  HIT %:    38.3671  MISS %:    61.6329   MPKI: 42.332
L2C LOAD      ACCESS:    3439065  HIT:     403545  MISS:    3035520  HIT %:    11.7341  MISS %:    88.2659   MPKI: 14.8873
L2C RFO       ACCESS:          0  HIT:          0  MISS:          0  HIT %:       -nan  MISS %:       -nan   MPKI: 0
L2C PREFETCH  ACCESS:    5446982  HIT:     502760  MISS:    4944222  HIT %:    9.23007  MISS %:    90.7699   MPKI: 24.2483
L2C WRITEBACK ACCESS:    3745519  HIT:    3482883  MISS:     262636  HIT %:     92.988  MISS %:    7.01201   MPKI: 1.28807
PSCL5 TOTAL     ACCESS:    1373058  HIT:    1373058  MISS:          0  HIT %:        100  MISS %:          0   MPKI: 0
PSCL5 LOAD      ACCESS:          0  HIT:          0  MISS:          0  HIT %:       -nan  MISS %:       -nan   MPKI: 0
PSCL5 RFO       ACCESS:          0  HIT:          0  MISS:          0  HIT %:       -nan  MISS %:       -nan   MPKI: 0
PSCL5 PREFETCH  ACCESS:          0  HIT:          0  MISS:          0  HIT %:       -nan  MISS %:       -nan   MPKI: 0
PSCL5 WRITEBACK ACCESS:          0  HIT:          0  MISS:          0  HIT %:       -nan  MISS %:       -nan   MPKI: 0
PSCL4 TOTAL     ACCESS:    1373058  HIT:    1373058  MISS:          0  HIT %:        100  MISS %:          0   MPKI: 0
PSCL4 LOAD      ACCESS:          0  HIT:          0  MISS:          0  HIT %:       -nan  MISS %:       -nan   MPKI: 0
PSCL4 RFO       ACCESS:          0  HIT:          0  MISS:          0  HIT %:       -nan  MISS %:       -nan   MPKI: 0
PSCL4 PREFETCH  ACCESS:          0  HIT:          0  MISS:          0  HIT %:       -nan  MISS %:       -nan   MPKI: 0
PSCL4 WRITEBACK ACCESS:          0  HIT:          0  MISS:          0  HIT %:       -nan  MISS %:       -nan   MPKI: 0
PSCL3 TOTAL     ACCESS:    1373058  HIT:    1373058  MISS:          0  HIT %:        100  MISS %:          0   MPKI: 0
PSCL3 LOAD      ACCESS:          0  HIT:          0  MISS:          0  HIT %:       -nan  MISS %:       -nan   MPKI: 0
PSCL3 RFO       ACCESS:          0  HIT:          0  MISS:          0  HIT %:       -nan  MISS %:       -nan   MPKI: 0
PSCL3 PREFETCH  ACCESS:          0  HIT:          0  MISS:          0  HIT %:       -nan  MISS %:       -nan   MPKI: 0
PSCL3 WRITEBACK ACCESS:          0  HIT:          0  MISS:          0  HIT %:       -nan  MISS %:       -nan   MPKI: 0
PSCL2 TOTAL     ACCESS:    1373058  HIT:    1373013  MISS:         45  HIT %:    99.9967  MISS %: 0.00327736   MPKI: 0.000220697
PSCL2 LOAD      ACCESS:          0  HIT:          0  MISS:          0  HIT %:       -nan  MISS %:       -nan   MPKI: 0
PSCL2 RFO       ACCESS:          0  HIT:          0  MISS:          0  HIT %:       -nan  MISS %:       -nan   MPKI: 0
PSCL2 PREFETCH  ACCESS:          0  HIT:          0  MISS:          0  HIT %:       -nan  MISS %:       -nan   MPKI: 0
PSCL2 WRITEBACK ACCESS:          0  HIT:          0  MISS:          0  HIT %:       -nan  MISS %:       -nan   MPKI: 0

stream: 
stream:times selected: 15269303
stream:pref_filled: 4251831
stream:pref_useful: 252432
stream:pref_late: 77124
stream:misses: 1029139
stream:misses_by_poll: 0

CS: 
CS:times selected: 2086900
CS:pref_filled: 1154644
CS:pref_useful: 1019089
CS:pref_late: 12844
CS:misses: 115957
CS:misses_by_poll: 2635

CPLX: 
CPLX:times selected: 13067168
CPLX:pref_filled: 1584860
CPLX:pref_useful: 50534
CPLX:pref_late: 6296
CPLX:misses: 3686469
CPLX:misses_by_poll: 3829

NL_L1: 
NL:times selected: 79253
NL:pref_filled: 45007
NL:pref_useful: 3075
NL:pref_late: 981
NL:misses: 40333
NL:misses_by_poll: 5

total selections: 30502624
total_filled: 5354994
total_useful: 1073362
total_late: 98465
total_polluted: 6469
total_misses_after_warmup: 3859760
conflicts: 8
Degree Incremented Times: 905405
Degree Decremented Times: 2637127

L1 IP Table Write Accesses: 189830232
L1 IP Table Read Accesses: 189830224
L1 RST Write Accesses: 48515309
L1 RST Read Accesses: 97030618
L1 CSPT Write Accesses: 48515309
L1 CSPT Read Accesses: 89670296
L1 RR Filter Tag Write Accesses: 40930252
L1 RR Filter Tag Read Accesses: 2112502963
L1 IP Table Tag Write Accesses: 189830232
L1 IP Table Tag Read Accesses: 189830232
L1 RST Tag Write Accesses: 0
L1 RST Tag Read Accesses: 436869882
L1 RR Filter Write Accesses: 0
L1 RR Filter Read Accesses: 75909970
test: 31190147
LLC TOTAL     ACCESS:   11743165  HIT:    4888622  MISS:    6854543  HIT %:    41.6295  MISS %:    58.3705   MPKI: 33.6172
LLC LOAD      ACCESS:    3035518  HIT:     535112  MISS:    2500406  HIT %:    17.6284  MISS %:    82.3716   MPKI: 12.2629
LLC RFO       ACCESS:          0  HIT:          0  MISS:          0  HIT %:       -nan  MISS %:       -nan   MPKI: 0
LLC PREFETCH  ACCESS:    4944215  HIT:     709267  MISS:    4234948  HIT %:    14.3454  MISS %:    85.6546   MPKI: 20.7698
LLC WRITEBACK ACCESS:    3374343  HIT:    3260055  MISS:     114288  HIT %:     96.613  MISS %:    3.38697   MPKI: 0.560511

RAW hits: 28967832
Loads Generated: 97769630
Loads sent to L1D: 68801806
Stores Generated: 22040106
Stores sent to L1D: 22040106

CPU 1 cumulative IPC: 0.187435 instructions: 203734944 cycles: 1086965517
ITLB TOTAL     ACCESS:   25582613  HIT:   25582613  MISS:          0  HIT %:        100  MISS %:          0   MPKI: 0
ITLB LOAD      ACCESS:          0  HIT:          0  MISS:          0  HIT %:       -nan  MISS %:       -nan   MPKI: 0
ITLB RFO       ACCESS:          0  HIT:          0  MISS:          0  HIT %:       -nan  MISS %:       -nan   MPKI: 0
ITLB PREFETCH  ACCESS:          0  HIT:          0  MISS:          0  HIT %:       -nan  MISS %:       -nan   MPKI: 0
ITLB WRITEBACK ACCESS:          0  HIT:          0  MISS:          0  HIT %:       -nan  MISS %:       -nan   MPKI: 0
DTLB TOTAL     ACCESS:   61805356  HIT:   58884139  MISS:    2921217  HIT %:    95.2735  MISS %:    4.72648   MPKI: 14.3383
DTLB LOAD      ACCESS:          0  HIT:          0  MISS:          0  HIT %:       -nan  MISS %:       -nan   MPKI: 0
DTLB RFO       ACCESS:          0  HIT:          0  MISS:          0  HIT %:       -nan  MISS %:       -nan   MPKI: 0
DTLB PREFETCH  ACCESS:          0  HIT:          0  MISS:          0  HIT %:       -nan  MISS %:       -nan   MPKI: 0
DTLB WRITEBACK ACCESS:          0  HIT:          0  MISS:          0  HIT %:       -nan  MISS %:       -nan   MPKI: 0
STLB TOTAL     ACCESS:   10038526  HIT:    8667080  MISS:    1371446  HIT %:    86.3382  MISS %:    13.6618   MPKI: 6.73152
STLB LOAD      ACCESS:          0  HIT:          0  MISS:          0  HIT %:       -nan  MISS %:       -nan   MPKI: 0
STLB RFO       ACCESS:          0  HIT:          0  MISS:          0  HIT %:       -nan  MISS %:       -nan   MPKI: 0
STLB PREFETCH  ACCESS:          0  HIT:          0  MISS:          0  HIT %:       -nan  MISS %:       -nan   MPKI: 0
STLB WRITEBACK ACCESS:          0  HIT:          0  MISS:          0  HIT %:       -nan  MISS %:       -nan   MPKI: 0
L1D TOTAL     ACCESS:   79208077  HIT:   70335679  MISS:    8872398  HIT %:    88.7986  MISS %:    11.2014   MPKI: 43.5487
L1D LOAD      ACCESS:   47335335  HIT:   43806830  MISS:    3528505  HIT %:    92.5457  MISS %:    7.45427   MPKI: 17.3191
L1D RFO       ACCESS:   21996081  HIT:   21996081  MISS:          0  HIT %:        100  MISS %:          0   MPKI: 0
L1D PREFETCH  ACCESS:    9876661  HIT:    4532768  MISS:    5343893  HIT %:    45.8937  MISS %:    54.1063   MPKI: 26.2296
L1D WRITEBACK ACCESS:          0  HIT:          0  MISS:          0  HIT %:       -nan  MISS %:       -nan   MPKI: 0
L1I TOTAL     ACCESS:   33592386  HIT:   33592386  MISS:          0  HIT %:        100  MISS %:          0   MPKI: 0
L1I LOAD      ACCESS:   33592386  HIT:   33592386  MISS:          0  HIT %:        100  MISS %:          0   MPKI: 0
L1I RFO       ACCESS:          0  HIT:          0  MISS:          0  HIT %:       -nan  MISS %:       -nan   MPKI: 0
L1I PREFETCH  ACCESS:          0  HIT:          0  MISS:          0  HIT %:       -nan  MISS %:       -nan   MPKI: 0
L1I WRITEBACK ACCESS:          0  HIT:          0  MISS:          0  HIT %:       -nan  MISS %:       -nan   MPKI: 0
L2C TOTAL     ACCESS:   13985454  HIT:    5362629  MISS:    8622825  HIT %:    38.3443  MISS %:    61.6557   MPKI: 42.3237
L2C LOAD      ACCESS:    3437023  HIT:     402941  MISS:    3034082  HIT %:    11.7235  MISS %:    88.2765   MPKI: 14.8923
L2C RFO       ACCESS:          0  HIT:          0  MISS:          0  HIT %:       -nan  MISS %:       -nan   MPKI: 0
L2C PREFETCH  ACCESS:    5435312  HIT:     502083  MISS:    4933229  HIT %:    9.23743  MISS %:    90.7626   MPKI: 24.214
L2C WRITEBACK ACCESS:    3741654  HIT:    3479416  MISS:     262238  HIT %:    92.9914  MISS %:    7.00861   MPKI: 1.28715
PSCL5 TOTAL     ACCESS:    1371446  HIT:    1371446  MISS:          0  HIT %:        100  MISS %:          0   MPKI: 0
PSCL5 LOAD      ACCESS:          0  HIT:          0  MISS:          0  HIT %:       -nan  MISS %:       -nan   MPKI: 0
PSCL5 RFO       ACCESS:          0  HIT:          0  MISS:          0  HIT %:       -nan  MISS %:       -nan   MPKI: 0
PSCL5 PREFETCH  ACCESS:          0  HIT:          0  MISS:          0  HIT %:       -nan  MISS %:       -nan   MPKI: 0
PSCL5 WRITEBACK ACCESS:          0  HIT:          0  MISS:          0  HIT %:       -nan  MISS %:       -nan   MPKI: 0
PSCL4 TOTAL     ACCESS:    1371446  HIT:    1371446  MISS:          0  HIT %:        100  MISS %:          0   MPKI: 0
PSCL4 LOAD      ACCESS:          0  HIT:          0  MISS:          0  HIT %:       -nan  MISS %:       -nan   MPKI: 0
PSCL4 RFO       ACCESS:          0  HIT:          0  MISS:          0  HIT %:       -nan  MISS %:       -nan   MPKI: 0
PSCL4 PREFETCH  ACCESS:          0  HIT:          0  MISS:          0  HIT %:       -nan  MISS %:       -nan   MPKI: 0
PSCL4 WRITEBACK ACCESS:          0  HIT:          0  MISS:          0  HIT %:       -nan  MISS %:       -nan   MPKI: 0
PSCL3 TOTAL     ACCESS:    1371446  HIT:    1371446  MISS:          0  HIT %:        100  MISS %:          0   MPKI: 0
PSCL3 LOAD      ACCESS:          0  HIT:          0  MISS:          0  HIT %:       -nan  MISS %:       -nan   MPKI: 0
PSCL3 RFO       ACCESS:          0  HIT:          0  MISS:          0  HIT %:       -nan  MISS %:       -nan   MPKI: 0
PSCL3 PREFETCH  ACCESS:          0  HIT:          0  MISS:          0  HIT %:       -nan  MISS %:       -nan   MPKI: 0
PSCL3 WRITEBACK ACCESS:          0  HIT:          0  MISS:          0  HIT %:       -nan  MISS %:       -nan   MPKI: 0
PSCL2 TOTAL     ACCESS:    1371446  HIT:    1371401  MISS:         45  HIT %:    99.9967  MISS %: 0.00328121   MPKI: 0.000220875
PSCL2 LOAD      ACCESS:          0  HIT:          0  MISS:          0  HIT %:       -nan  MISS %:       -nan   MPKI: 0
PSCL2 RFO       ACCESS:          0  HIT:          0  MISS:          0  HIT %:       -nan  MISS %:       -nan   MPKI: 0
PSCL2 PREFETCH  ACCESS:          0  HIT:          0  MISS:          0  HIT %:       -nan  MISS %:       -nan   MPKI: 0
PSCL2 WRITEBACK ACCESS:          0  HIT:          0  MISS:          0  HIT %:       -nan  MISS %:       -nan   MPKI: 0

stream: 
stream:times selected: 15258444
stream:pref_filled: 4231397
stream:pref_useful: 252261
stream:pref_late: 76803
stream:misses: 1028307
stream:misses_by_poll: 0

CS: 
CS:times selected: 2085435
CS:pref_filled: 1141593
CS:pref_useful: 1008270
CS:pref_late: 12557
CS:misses: 123354
CS:misses_by_poll: 2525

CPLX: 
CPLX:times selected: 13057822
CPLX:pref_filled: 1571524
CPLX:pref_useful: 49510
CPLX:pref_late: 6210
CPLX:misses: 3686822
CPLX:misses_by_poll: 3796

NL_L1: 
NL:times selected: 79351
NL:pref_filled: 44870
NL:pref_useful: 2988
NL:pref_late: 1016
NL:misses: 40684
NL:misses_by_poll: 4

total selections: 30481052
total_filled: 5343893
total_useful: 1071587
total_late: 97792
total_polluted: 6325
total_misses_after_warmup: 3857217
conflicts: 8
Degree Incremented Times: 905405
Degree Decremented Times: 2637127

L1 IP Table Write Accesses: 189830232
L1 IP Table Read Accesses: 189830224
L1 RST Write Accesses: 48515309
L1 RST Read Accesses: 97030618
L1 CSPT Write Accesses: 48515309
L1 CSPT Read Accesses: 89670296
L1 RR Filter Tag Write Accesses: 40930252
L1 RR Filter Tag Read Accesses: 2112502963
L1 IP Table Tag Write Accesses: 189830232
L1 IP Table Tag Read Accesses: 189830232
L1 RST Tag Write Accesses: 0
L1 RST Tag Read Accesses: 436869882
L1 RR Filter Write Accesses: 0
L1 RR Filter Read Accesses: 75909970
test: 31190147
LLC TOTAL     ACCESS:   11731645  HIT:    4885139  MISS:    6846506  HIT %:    41.6407  MISS %:    58.3593   MPKI: 33.605
LLC LOAD      ACCESS:    3034075  HIT:     534773  MISS:    2499302  HIT %:    17.6256  MISS %:    82.3744   MPKI: 12.2674
LLC RFO       ACCESS:          0  HIT:          0  MISS:          0  HIT %:       -nan  MISS %:       -nan   MPKI: 0
LLC PREFETCH  ACCESS:    4933225  HIT:     706664  MISS:    4226561  HIT %:    14.3246  MISS %:    85.6754   MPKI: 20.7454
LLC WRITEBACK ACCESS:    3371069  HIT:    3255241  MISS:     115828  HIT %:    96.5641  MISS %:    3.43594   MPKI: 0.568523

RAW hits: 28943797
Loads Generated: 97689175
Loads sent to L1D: 68745374
Stores Generated: 22021758
Stores sent to L1D: 22021764

CPU 2 cumulative IPC: 0.187422 instructions: 203720750 cycles: 1086965517
ITLB TOTAL     ACCESS:   25578928  HIT:   25578928  MISS:          0  HIT %:        100  MISS %:          0   MPKI: 0
ITLB LOAD      ACCESS:          0  HIT:          0  MISS:          0  HIT %:       -nan  MISS %:       -nan   MPKI: 0
ITLB RFO       ACCESS:          0  HIT:          0  MISS:          0  HIT %:       -nan  MISS %:       -nan   MPKI: 0
ITLB PREFETCH  ACCESS:          0  HIT:          0  MISS:          0  HIT %:       -nan  MISS %:       -nan   MPKI: 0
ITLB WRITEBACK ACCESS:          0  HIT:          0  MISS:          0  HIT %:       -nan  MISS %:       -nan   MPKI: 0
DTLB TOTAL     ACCESS:   61800778  HIT:   58879910  MISS:    2920868  HIT %:    95.2737  MISS %:    4.72626   MPKI: 14.3376
DTLB LOAD      ACCESS:          0  HIT:          0  MISS:          0  HIT %:       -nan  MISS %:       -nan   MPKI: 0
DTLB RFO       ACCESS:          0  HIT:          0  MISS:          0  HIT %:       -nan  MISS %:       -nan   MPKI: 0
DTLB PREFETCH  ACCESS:          0  HIT:          0  MISS:          0  HIT %:       -nan  MISS %:       -nan   MPKI: 0
DTLB WRITEBACK ACCESS:          0  HIT:          0  MISS:          0  HIT %:       -nan  MISS %:       -nan   MPKI: 0
STLB TOTAL     ACCESS:   10032693  HIT:    8661381  MISS:    1371312  HIT %:    86.3316  MISS %:    13.6684   MPKI: 6.73133
STLB LOAD      ACCESS:          0  HIT:          0  MISS:          0  HIT %:       -nan  MISS %:       -nan   MPKI: 0
STLB RFO       ACCESS:          0  HIT:          0  MISS:          0  HIT %:       -nan  MISS %:       -nan   MPKI: 0
STLB PREFETCH  ACCESS:          0  HIT:          0  MISS:          0  HIT %:       -nan  MISS %:       -nan   MPKI: 0
STLB WRITEBACK ACCESS:          0  HIT:          0  MISS:          0  HIT %:       -nan  MISS %:       -nan   MPKI: 0
L1D TOTAL     ACCESS:   79194196  HIT:   70323267  MISS:    8870929  HIT %:    88.7985  MISS %:    11.2015   MPKI: 43.5446
L1D LOAD      ACCESS:   47332937  HIT:   43804868  MISS:    3528069  HIT %:    92.5463  MISS %:    7.45373   MPKI: 17.3182
L1D RFO       ACCESS:   21994896  HIT:   21994896  MISS:          0  HIT %:        100  MISS %:          0   MPKI: 0
L1D PREFETCH  ACCESS:    9866363  HIT:    4523503  MISS:    5342860  HIT %:    45.8477  MISS %:    54.1523   MPKI: 26.2264
L1D WRITEBACK ACCESS:          0  HIT:          0  MISS:          0  HIT %:       -nan  MISS %:       -nan   MPKI: 0
L1I TOTAL     ACCESS:   33588136  HIT:   33588136  MISS:          0  HIT %:        100  MISS %:          0   MPKI: 0
L1I LOAD      ACCESS:   33588136  HIT:   33588136  MISS:          0  HIT %:        100  MISS %:          0   MPKI: 0
L1I RFO       ACCESS:          0  HIT:          0  MISS:          0  HIT %:       -nan  MISS %:       -nan   MPKI: 0
L1I PREFETCH  ACCESS:          0  HIT:          0  MISS:          0  HIT %:       -nan  MISS %:       -nan   MPKI: 0
L1I WRITEBACK ACCESS:          0  HIT:          0  MISS:          0  HIT %:       -nan  MISS %:       -nan   MPKI: 0
L2C TOTAL     ACCESS:   13983532  HIT:    5355169  MISS:    8628363  HIT %:    38.2963  MISS %:    61.7037   MPKI: 42.3539
L2C LOAD      ACCESS:    3436462  HIT:     403174  MISS:    3033288  HIT %:    11.7322  MISS %:    88.2678   MPKI: 14.8894
L2C RFO       ACCESS:          0  HIT:          0  MISS:          0  HIT %:       -nan  MISS %:       -nan   MPKI: 0
L2C PREFETCH  ACCESS:    5434383  HIT:     500345  MISS:    4934038  HIT %:    9.20702  MISS %:     90.793   MPKI: 24.2196
L2C WRITEBACK ACCESS:    3741356  HIT:    3477493  MISS:     263863  HIT %:    92.9474  MISS %:     7.0526   MPKI: 1.29522
PSCL5 TOTAL     ACCESS:    1371312  HIT:    1371312  MISS:          0  HIT %:        100  MISS %:          0   MPKI: 0
PSCL5 LOAD      ACCESS:          0  HIT:          0  MISS:          0  HIT %:       -nan  MISS %:       -nan   MPKI: 0
PSCL5 RFO       ACCESS:          0  HIT:          0  MISS:          0  HIT %:       -nan  MISS %:       -nan   MPKI: 0
PSCL5 PREFETCH  ACCESS:          0  HIT:          0  MISS:          0  HIT %:       -nan  MISS %:       -nan   MPKI: 0
PSCL5 WRITEBACK ACCESS:          0  HIT:          0  MISS:          0  HIT %:       -nan  MISS %:       -nan   MPKI: 0
PSCL4 TOTAL     ACCESS:    1371312  HIT:    1371312  MISS:          0  HIT %:        100  MISS %:          0   MPKI: 0
PSCL4 LOAD      ACCESS:          0  HIT:          0  MISS:          0  HIT %:       -nan  MISS %:       -nan   MPKI: 0
PSCL4 RFO       ACCESS:          0  HIT:          0  MISS:          0  HIT %:       -nan  MISS %:       -nan   MPKI: 0
PSCL4 PREFETCH  ACCESS:          0  HIT:          0  MISS:          0  HIT %:       -nan  MISS %:       -nan   MPKI: 0
PSCL4 WRITEBACK ACCESS:          0  HIT:          0  MISS:          0  HIT %:       -nan  MISS %:       -nan   MPKI: 0
PSCL3 TOTAL     ACCESS:    1371312  HIT:    1371312  MISS:          0  HIT %:        100  MISS %:          0   MPKI: 0
PSCL3 LOAD      ACCESS:          0  HIT:          0  MISS:          0  HIT %:       -nan  MISS %:       -nan   MPKI: 0
PSCL3 RFO       ACCESS:          0  HIT:          0  MISS:          0  HIT %:       -nan  MISS %:       -nan   MPKI: 0
PSCL3 PREFETCH  ACCESS:          0  HIT:          0  MISS:          0  HIT %:       -nan  MISS %:       -nan   MPKI: 0
PSCL3 WRITEBACK ACCESS:          0  HIT:          0  MISS:          0  HIT %:       -nan  MISS %:       -nan   MPKI: 0
PSCL2 TOTAL     ACCESS:    1371312  HIT:    1371267  MISS:         45  HIT %:    99.9967  MISS %: 0.00328153   MPKI: 0.000220891
PSCL2 LOAD      ACCESS:          0  HIT:          0  MISS:          0  HIT %:       -nan  MISS %:       -nan   MPKI: 0
PSCL2 RFO       ACCESS:          0  HIT:          0  MISS:          0  HIT %:       -nan  MISS %:       -nan   MPKI: 0
PSCL2 PREFETCH  ACCESS:          0  HIT:          0  MISS:          0  HIT %:       -nan  MISS %:       -nan   MPKI: 0
PSCL2 WRITEBACK ACCESS:          0  HIT:          0  MISS:          0  HIT %:       -nan  MISS %:       -nan   MPKI: 0

stream: 
stream:times selected: 15257141
stream:pref_filled: 4222787
stream:pref_useful: 256690
stream:pref_late: 76776
stream:misses: 1028326
stream:misses_by_poll: 0

CS: 
CS:times selected: 2085356
CS:pref_filled: 1128532
CS:pref_useful: 995407
CS:pref_late: 12558
CS:misses: 129604
CS:misses_by_poll: 2430

CPLX: 
CPLX:times selected: 13056698
CPLX:pref_filled: 1560614
CPLX:pref_useful: 49263
CPLX:pref_late: 6296
CPLX:misses: 3688049
CPLX:misses_by_poll: 3893

NL_L1: 
NL:times selected: 79196
NL:pref_filled: 44533
NL:pref_useful: 2962
NL:pref_late: 954
NL:misses: 40513
NL:misses_by_poll: 5

total selections: 30478391
total_filled: 5342860
total_useful: 1071651
total_late: 97769
total_polluted: 6328
total_misses_after_warmup: 3855925
conflicts: 8
Degree Incremented Times: 905405
Degree Decremented Times: 2637127

L1 IP Table Write Accesses: 189830232
L1 IP Table Read Accesses: 189830224
L1 RST Write Accesses: 48515309
L1 RST Read Accesses: 97030618
L1 CSPT Write Accesses: 48515309
L1 CSPT Read Accesses: 89670296
L1 RR Filter Tag Write Accesses: 40930252
L1 RR Filter Tag Read Accesses: 2112502963
L1 IP Table Tag Write Accesses: 189830232
L1 IP Table Tag Read Accesses: 189830232
L1 RST Tag Write Accesses: 0
L1 RST Tag Read Accesses: 436869882
L1 RR Filter Write Accesses: 0
L1 RR Filter Read Accesses: 75909970
test: 31190147
LLC TOTAL     ACCESS:   11735142  HIT:    4889753  MISS:    6845389  HIT %:    41.6676  MISS %:    58.3324   MPKI: 33.6018
LLC LOAD      ACCESS:    3033283  HIT:     534974  MISS:    2498309  HIT %:    17.6368  MISS %:    82.3632   MPKI: 12.2634
LLC RFO       ACCESS:          0  HIT:          0  MISS:          0  HIT %:       -nan  MISS %:       -nan   MPKI: 0
LLC PREFETCH  ACCESS:    4934035  HIT:     707616  MISS:    4226419  HIT %:    14.3415  MISS %:    85.6585   MPKI: 20.7461
LLC WRITEBACK ACCESS:    3370650  HIT:    3254961  MISS:     115689  HIT %:    96.5678  MISS %:    3.43225   MPKI: 0.56788

RAW hits: 28941706
Loads Generated: 97682213
Loads sent to L1D: 68740507
Stores Generated: 22020172
Stores sent to L1D: 22020177

CPU 3 cumulative IPC: 0.183998 instructions: 200000000 cycles: 1086965517
ITLB TOTAL     ACCESS:   25113173  HIT:   25113173  MISS:          0  HIT %:        100  MISS %:          0   MPKI: 0
ITLB LOAD      ACCESS:          0  HIT:          0  MISS:          0  HIT %:       -nan  MISS %:       -nan   MPKI: 0
ITLB RFO       ACCESS:          0  HIT:          0  MISS:          0  HIT %:       -nan  MISS %:       -nan   MPKI: 0
ITLB PREFETCH  ACCESS:          0  HIT:          0  MISS:          0  HIT %:       -nan  MISS %:       -nan   MPKI: 0
ITLB WRITEBACK ACCESS:          0  HIT:          0  MISS:          0  HIT %:       -nan  MISS %:       -nan   MPKI: 0
DTLB TOTAL     ACCESS:   60684533  HIT:   57838330  MISS:    2846203  HIT %:    95.3098  MISS %:    4.69016   MPKI: 14.231
DTLB LOAD      ACCESS:          0  HIT:          0  MISS:          0  HIT %:       -nan  MISS %:       -nan   MPKI: 0
DTLB RFO       ACCESS:          0  HIT:          0  MISS:          0  HIT %:       -nan  MISS %:       -nan   MPKI: 0
DTLB PREFETCH  ACCESS:          0  HIT:          0  MISS:          0  HIT %:       -nan  MISS %:       -nan   MPKI: 0
DTLB WRITEBACK ACCESS:          0  HIT:          0  MISS:          0  HIT %:       -nan  MISS %:       -nan   MPKI: 0
STLB TOTAL     ACCESS:    9870119  HIT:    8533428  MISS:    1336691  HIT %:    86.4572  MISS %:    13.5428   MPKI: 6.68346
STLB LOAD      ACCESS:          0  HIT:          0  MISS:          0  HIT %:       -nan  MISS %:       -nan   MPKI: 0
STLB RFO       ACCESS:          0  HIT:          0  MISS:          0  HIT %:       -nan  MISS %:       -nan   MPKI: 0
STLB PREFETCH  ACCESS:          0  HIT:          0  MISS:          0  HIT %:       -nan  MISS %:       -nan   MPKI: 0
STLB WRITEBACK ACCESS:          0  HIT:          0  MISS:          0  HIT %:       -nan  MISS %:       -nan   MPKI: 0
L1D TOTAL     ACCESS:   77794627  HIT:   69116756  MISS:    8677871  HIT %:    88.8452  MISS %:    11.1548   MPKI: 43.3894
L1D LOAD      ACCESS:   46468093  HIT:   43022427  MISS:    3445666  HIT %:    92.5849  MISS %:    7.41512   MPKI: 17.2283
L1D RFO       ACCESS:   21579217  HIT:   21579217  MISS:          0  HIT %:        100  MISS %:          0   MPKI: 0
L1D PREFETCH  ACCESS:    9747317  HIT:    4515112  MISS:    5232205  HIT %:    46.3216  MISS %:    53.6784   MPKI: 26.161
L1D WRITEBACK ACCESS:          0  HIT:          0  MISS:          0  HIT %:       -nan  MISS %:       -nan   MPKI: 0
L1I TOTAL     ACCESS:   32976984  HIT:   32976984  MISS:          0  HIT %:        100  MISS %:          0   MPKI: 0
L1I LOAD      ACCESS:   32976984  HIT:   32976984  MISS:          0  HIT %:        100  MISS %:          0   MPKI: 0
L1I RFO       ACCESS:          0  HIT:          0  MISS:          0  HIT %:       -nan  MISS %:       -nan   MPKI: 0
L1I PREFETCH  ACCESS:          0  HIT:          0  MISS:          0  HIT %:       -nan  MISS %:       -nan   MPKI: 0
L1I WRITEBACK ACCESS:          0  HIT:          0  MISS:          0  HIT %:       -nan  MISS %:       -nan   MPKI: 0
L2C TOTAL     ACCESS:   13669631  HIT:    5232392  MISS:    8437239  HIT %:    38.2775  MISS %:    61.7225   MPKI: 42.1862
L2C LOAD      ACCESS:    3353769  HIT:     395133  MISS:    2958636  HIT %:    11.7818  MISS %:    88.2182   MPKI: 14.7932
L2C RFO       ACCESS:          0  HIT:          0  MISS:          0  HIT %:       -nan  MISS %:       -nan   MPKI: 0
L2C PREFETCH  ACCESS:    5324032  HIT:     493716  MISS:    4830316  HIT %:    9.27335  MISS %:    90.7267   MPKI: 24.1516
L2C WRITEBACK ACCESS:    3655124  HIT:    3396249  MISS:     258875  HIT %:    92.9175  MISS %:    7.08252   MPKI: 1.29438
PSCL5 TOTAL     ACCESS:    1336691  HIT:    1336691  MISS:          0  HIT %:        100  MISS %:          0   MPKI: 0
PSCL5 LOAD      ACCESS:          0  HIT:          0  MISS:          0  HIT %:       -nan  MISS %:       -nan   MPKI: 0
PSCL5 RFO       ACCESS:          0  HIT:          0  MISS:          0  HIT %:       -nan  MISS %:       -nan   MPKI: 0
PSCL5 PREFETCH  ACCESS:          0  HIT:          0  MISS:          0  HIT %:       -nan  MISS %:       -nan   MPKI: 0
PSCL5 WRITEBACK ACCESS:          0  HIT:          0  MISS:          0  HIT %:       -nan  MISS %:       -nan   MPKI: 0
PSCL4 TOTAL     ACCESS:    1336691  HIT:    1336691  MISS:          0  HIT %:        100  MISS %:          0   MPKI: 0
PSCL4 LOAD      ACCESS:          0  HIT:          0  MISS:          0  HIT %:       -nan  MISS %:       -nan   MPKI: 0
PSCL4 RFO       ACCESS:          0  HIT:          0  MISS:          0  HIT %:       -nan  MISS %:       -nan   MPKI: 0
PSCL4 PREFETCH  ACCESS:          0  HIT:          0  MISS:          0  HIT %:       -nan  MISS %:       -nan   MPKI: 0
PSCL4 WRITEBACK ACCESS:          0  HIT:          0  MISS:          0  HIT %:       -nan  MISS %:       -nan   MPKI: 0
PSCL3 TOTAL     ACCESS:    1336691  HIT:    1336691  MISS:          0  HIT %:        100  MISS %:          0   MPKI: 0
PSCL3 LOAD      ACCESS:          0  HIT:          0  MISS:          0  HIT %:       -nan  MISS %:       -nan   MPKI: 0
PSCL3 RFO       ACCESS:          0  HIT:          0  MISS:          0  HIT %:       -nan  MISS %:       -nan   MPKI: 0
PSCL3 PREFETCH  ACCESS:          0  HIT:          0  MISS:          0  HIT %:       -nan  MISS %:       -nan   MPKI: 0
PSCL3 WRITEBACK ACCESS:          0  HIT:          0  MISS:          0  HIT %:       -nan  MISS %:       -nan   MPKI: 0
PSCL2 TOTAL     ACCESS:    1336691  HIT:    1336650  MISS:         41  HIT %:    99.9969  MISS %: 0.00306728   MPKI: 0.000205
PSCL2 LOAD      ACCESS:          0  HIT:          0  MISS:          0  HIT %:       -nan  MISS %:       -nan   MPKI: 0
PSCL2 RFO       ACCESS:          0  HIT:          0  MISS:          0  HIT %:       -nan  MISS %:       -nan   MPKI: 0
PSCL2 PREFETCH  ACCESS:          0  HIT:          0  MISS:          0  HIT %:       -nan  MISS %:       -nan   MPKI: 0
PSCL2 WRITEBACK ACCESS:          0  HIT:          0  MISS:          0  HIT %:       -nan  MISS %:       -nan   MPKI: 0

stream: 
stream:times selected: 15018036
stream:pref_filled: 4151785
stream:pref_useful: 256989
stream:pref_late: 76891
stream:misses: 1010214
stream:misses_by_poll: 0

CS: 
CS:times selected: 2061874
CS:pref_filled: 1111711
CS:pref_useful: 980855
CS:pref_late: 12994
CS:misses: 126300
CS:misses_by_poll: 2416

CPLX: 
CPLX:times selected: 12843083
CPLX:pref_filled: 1539350
CPLX:pref_useful: 48730
CPLX:pref_late: 6209
CPLX:misses: 3624297
CPLX:misses_by_poll: 3611

NL_L1: 
NL:times selected: 77829
NL:pref_filled: 43636
NL:pref_useful: 2887
NL:pref_late: 953
NL:misses: 39668
NL:misses_by_poll: 3

total selections: 30000822
total_filled: 5232205
total_useful: 1055316
total_late: 98154
total_polluted: 6030
total_misses_after_warmup: 3772042
conflicts: 8
Degree Incremented Times: 905405
Degree Decremented Times: 2637127

L1 IP Table Write Accesses: 189830232
L1 IP Table Read Accesses: 189830224
L1 RST Write Accesses: 48515309
L1 RST Read Accesses: 97030618
L1 CSPT Write Accesses: 48515309
L1 CSPT Read Accesses: 89670296
L1 RR Filter Tag Write Accesses: 40930252
L1 RR Filter Tag Read Accesses: 2112502963
L1 IP Table Tag Write Accesses: 189830232
L1 IP Table Tag Read Accesses: 189830232
L1 RST Tag Write Accesses: 0
L1 RST Tag Read Accesses: 436869882
L1 RR Filter Write Accesses: 0
L1 RR Filter Read Accesses: 75909970
test: 31190147
LLC TOTAL     ACCESS:   11469808  HIT:    3137144  MISS:    8332664  HIT %:    27.3513  MISS %:    72.6487   MPKI: 41.6633
LLC LOAD      ACCESS:    2958631  HIT:     424377  MISS:    2534254  HIT %:    14.3437  MISS %:    85.6563   MPKI: 12.6713
LLC RFO       ACCESS:          0  HIT:          0  MISS:          0  HIT %:       -nan  MISS %:       -nan   MPKI: 0
LLC PREFETCH  ACCESS:    4830311  HIT:     521789  MISS:    4308522  HIT %:    10.8024  MISS %:    89.1976   MPKI: 21.5426
LLC WRITEBACK ACCESS:    3291454  HIT:    1812817  MISS:    1478637  HIT %:    55.0765  MISS %:    44.9235   MPKI: 7.39318

RAW hits: 28396675
Loads Generated: 95862030
Loads sent to L1D: 67465371
Stores Generated: 21604983
Stores sent to L1D: 21604987

Region of Interest Statistics

CPU 0 cumulative IPC: 0.188176 instructions: 200000000 cycles: 1062833394
ITLB TOTAL     ACCESS:   25071508  HIT:   25071508  MISS:          0  HIT %:        100  MISS %:          0   MPKI: 0
ITLB LOAD TRANSLATION ACCESS:   25071508  HIT:   25071508  MISS:          0  HIT %:        100  MISS %:          0   MPKI: 0
ITLB PREFETCH  REQUESTED:          0  ISSUED:          0  USEFUL:          0  USELESS:          0
ITLB USEFUL LOAD PREFETCHES:          0 PREFETCH ISSUED TO LOWER LEVEL:          0  ACCURACY: -nan
ITLB TIMELY PREFETCHES:          0 LATE PREFETCHES: 0 DROPPED PREFETCHES: 0
ITLB PREFETCHES SAME FILL-ORIGIN LEVEL: 0 DIFFERENT FILL-ORIGIN LEVEL: 0
ITLB AVERAGE MISS LATENCY: -nan cycles
ITLB RQ	ACCESS:   33620927	FORWARD:          0	MERGED:    8016165	TO_CACHE:   25604762

DTLB TOTAL     ACCESS:   60666410  HIT:   57820097  MISS:    2846313  HIT %:    95.3083  MISS %:    4.69174   MPKI: 14.2316
DTLB LOAD TRANSLATION ACCESS:   60666410  HIT:   57820097  MISS:    2846313  HIT %:    95.3083  MISS %:    4.69174   MPKI: 14.2316
DTLB PREFETCH  REQUESTED:          0  ISSUED:          0  USEFUL:          0  USELESS:          0
DTLB USEFUL LOAD PREFETCHES:          0 PREFETCH ISSUED TO LOWER LEVEL:          0  ACCURACY: -nan
DTLB TIMELY PREFETCHES:          0 LATE PREFETCHES: 0 DROPPED PREFETCHES: 0
DTLB PREFETCHES SAME FILL-ORIGIN LEVEL: 0 DIFFERENT FILL-ORIGIN LEVEL: 0
DTLB AVERAGE MISS LATENCY: 27.1485 cycles
DTLB RQ	ACCESS:   69718168	FORWARD:          0	MERGED:    7799831	TO_CACHE:   61918337

STLB TOTAL     ACCESS:    9828203  HIT:    8491445  MISS:    1336758  HIT %:    86.3988  MISS %:    13.6012   MPKI: 6.68379
STLB LOAD TRANSLATION ACCESS:    2846313  HIT:    1509555  MISS:    1336758  HIT %:    53.0355  MISS %:    46.9645   MPKI: 6.68379
STLB TRANSLATION FROM L1D PREFETCHER ACCESS:    6981890  HIT:    6981890  MISS:          0  HIT %:        100  MISS %:          0   MPKI: 0
STLB PREFETCH  REQUESTED:          0  ISSUED:          0  USEFUL:          0  USELESS:          0
STLB USEFUL LOAD PREFETCHES:          0 PREFETCH ISSUED TO LOWER LEVEL:          0  ACCURACY: -nan
STLB TIMELY PREFETCHES:          0 LATE PREFETCHES: 0 DROPPED PREFETCHES: 0
STLB PREFETCHES SAME FILL-ORIGIN LEVEL: 0 DIFFERENT FILL-ORIGIN LEVEL: 0
STLB AVERAGE MISS LATENCY: 37.7255 cycles
STLB RQ	ACCESS:   13213316	FORWARD:          0	MERGED:    3154164	TO_CACHE:   10059152

STLB Hit, L1D data hit: 0
STLB Hit, L2C data hit: 0
STLB Hit, LLC data hit: 0
STLB Hit, LLC data miss: 0
STLB STLB hints to L2: 0
L1D TOTAL     ACCESS:   77744104  HIT:   69065760  MISS:    8678344  HIT %:    88.8373  MISS %:    11.1627   MPKI: 43.3917
L1D LOAD      ACCESS:   46461481  HIT:   43017318  MISS:    3444163  HIT %:    92.5871  MISS %:    7.41294   MPKI: 17.2208
L1D RFO       ACCESS:   21579335  HIT:   21579335  MISS:          0  HIT %:        100  MISS %:          0   MPKI: 0
L1D PREFETCH  ACCESS:    9703288  HIT:    4469107  MISS:    5234181  HIT %:    46.0577  MISS %:    53.9423   MPKI: 26.1709
L1D PREFETCH  REQUESTED:   20578370  ISSUED:   20578368  USEFUL:    1073362  USELESS:    4281638
L1D USEFUL LOAD PREFETCHES:    1073362 PREFETCH ISSUED TO LOWER LEVEL:    5447010  ACCURACY: 19.7055
L1D TIMELY PREFETCHES:    1073362 LATE PREFETCHES: 92011 DROPPED PREFETCHES: 0
L1D PREFETCHES SAME FILL-ORIGIN LEVEL: 5447010 DIFFERENT FILL-ORIGIN LEVEL: 0
L1D AVERAGE MISS LATENCY: 550.817 cycles
L1D RQ	ACCESS:   68801806	FORWARD:          0	MERGED:   20979161	TO_CACHE:   47704098
L1D WQ	ACCESS:   22040106	FORWARD:     119009	MERGED:      26036	TO_CACHE:   22014070
L1D PQ	ACCESS:   10289415	FORWARD:          0	MERGED:          0	TO_CACHE:   10288953

L1D UNIQUE REGIONS ACCESSED: 0
L1D REGIONS CONFLICTS: 0
L1D Cross Page Prefetch Requests: 0
L1D Same Page Prefetch Requests: 12716633
L1D ROI Sum of L1D PQ occupancy: 116198577
L1D PREFETCHES PUSHED FROM L2C: 0
L1I TOTAL     ACCESS:   32935419  HIT:   32935419  MISS:          0  HIT %:        100  MISS %:          0   MPKI: 0
L1I LOAD      ACCESS:   32935419  HIT:   32935419  MISS:          0  HIT %:        100  MISS %:          0   MPKI: 0
L1I PREFETCH  REQUESTED:          0  ISSUED:          0  USEFUL:          0  USELESS:          0
L1I USEFUL LOAD PREFETCHES:          0 PREFETCH ISSUED TO LOWER LEVEL:          0  ACCURACY: -nan
L1I TIMELY PREFETCHES:          0 LATE PREFETCHES: 0 DROPPED PREFETCHES: 0
L1I PREFETCHES SAME FILL-ORIGIN LEVEL: 0 DIFFERENT FILL-ORIGIN LEVEL: 0
L1I AVERAGE MISS LATENCY: -nan cycles
L1I RQ	ACCESS:   49090869	FORWARD:          0	MERGED:   15469942	TO_CACHE:   33620927

BTB TOTAL     ACCESS:    9270576  HIT:    9270574  MISS:          2  HIT %:        100  MISS %: 2.15736e-05   MPKI: 1e-05
BTB BRANCH_DIRECT_JUMP	ACCESS:          0  HIT:          0  MISS:          0
BTB BRANCH_INDIRECT	ACCESS:          0  HIT:          0  MISS:          0
BTB BRANCH_CONDITIONAL	ACCESS:    9270576  HIT:    9270574  MISS:          2
BTB BRANCH_DIRECT_CALL	ACCESS:          0  HIT:          0  MISS:          0
BTB BRANCH_INDIRECT_CALL	ACCESS:          0  HIT:          0  MISS:          0
BTB BRANCH_RETURN	ACCESS:          0  HIT:          0  MISS:          0
BTB BRANCH_OTHER ACCESS:          0  HIT:          0  MISS:          0

L2C TOTAL     ACCESS:   13670128  HIT:    5246964  MISS:    8423164  HIT %:    38.3827  MISS %:    61.6173   MPKI: 42.1158
L2C LOAD      ACCESS:    3353811  HIT:     396145  MISS:    2957666  HIT %:    11.8118  MISS %:    88.1882   MPKI: 14.7883
L2C DATA LOAD MPKI: 14.7883
L2C INSTRUCTION LOAD MPKI: 0
L2C PREFETCH  ACCESS:    5324458  HIT:     494342  MISS:    4830116  HIT %:    9.28436  MISS %:    90.7156   MPKI: 24.1506
L2C DATA PREFETCH MPKI: 24.1506
L2C INSTRUCTION PREFETCH MPKI: 0
L2C WRITEBACK ACCESS:    3655082  HIT:    3398976  MISS:     256106  HIT %:    92.9932  MISS %:    7.00685   MPKI: 1.28053
L2C LOAD TRANSLATION ACCESS:    1336777  HIT:     957501  MISS:     379276  HIT %:    71.6276  MISS %:    28.3724   MPKI: 1.89638
L2C PREFETCH  REQUESTED:          0  ISSUED:          0  USEFUL:     115185  USELESS:    4829301
L2C USEFUL LOAD PREFETCHES:     115185 PREFETCH ISSUED TO LOWER LEVEL:    4944227  ACCURACY: 2.32969
L2C TIMELY PREFETCHES:     115185 LATE PREFETCHES: 0 DROPPED PREFETCHES: 0
L2C PREFETCHES SAME FILL-ORIGIN LEVEL: 0 DIFFERENT FILL-ORIGIN LEVEL: 0
L2C AVERAGE MISS LATENCY: 562.5 cycles
L2C RQ	ACCESS:    4812198	FORWARD:          0	MERGED:          0	TO_CACHE:    4812145
L2C WQ	ACCESS:    3745519	FORWARD:         76	MERGED:          0	TO_CACHE:    3745519
L2C PQ	ACCESS:    5447010	FORWARD:          0	MERGED:          0	TO_CACHE:    5446987

L2C Instructions Evicting Data 0
L2C Translations Evicting Data 376211
L2C Data Evicting Data 7616590
L2C Instructions Evicting Instructions 0
L2C Translations Evicting Instructions 0
L2C Data Evicting Instructions 0
L2C Instructions Evicting Translations 0
L2C Translations Evicting Translations 12878
L2C Data Evicting Translations 363152
L2C Dense regions hint from L2: 0
PSCL5 TOTAL     ACCESS:    1336758  HIT:    1336758  MISS:          0  HIT %:        100  MISS %:          0   MPKI: 0
PSCL5 LOAD TRANSLATION ACCESS:    1336758  HIT:    1336758  MISS:          0  HIT %:        100  MISS %:          0   MPKI: 0
PSCL5 PREFETCH  REQUESTED:          0  ISSUED:          0  USEFUL:          0  USELESS:          0
PSCL5 USEFUL LOAD PREFETCHES:          0 PREFETCH ISSUED TO LOWER LEVEL:          0  ACCURACY: -nan
PSCL5 TIMELY PREFETCHES:          0 LATE PREFETCHES: 0 DROPPED PREFETCHES: 0
PSCL5 PREFETCHES SAME FILL-ORIGIN LEVEL: 0 DIFFERENT FILL-ORIGIN LEVEL: 0

PSCL4 TOTAL     ACCESS:    1336758  HIT:    1336758  MISS:          0  HIT %:        100  MISS %:          0   MPKI: 0
PSCL4 LOAD TRANSLATION ACCESS:    1336758  HIT:    1336758  MISS:          0  HIT %:        100  MISS %:          0   MPKI: 0
PSCL4 PREFETCH  REQUESTED:          0  ISSUED:          0  USEFUL:          0  USELESS:          0
PSCL4 USEFUL LOAD PREFETCHES:          0 PREFETCH ISSUED TO LOWER LEVEL:          0  ACCURACY: -nan
PSCL4 TIMELY PREFETCHES:          0 LATE PREFETCHES: 0 DROPPED PREFETCHES: 0
PSCL4 PREFETCHES SAME FILL-ORIGIN LEVEL: 0 DIFFERENT FILL-ORIGIN LEVEL: 0

PSCL3 TOTAL     ACCESS:    1336758  HIT:    1336758  MISS:          0  HIT %:        100  MISS %:          0   MPKI: 0
PSCL3 LOAD TRANSLATION ACCESS:    1336758  HIT:    1336758  MISS:          0  HIT %:        100  MISS %:          0   MPKI: 0
PSCL3 PREFETCH  REQUESTED:          0  ISSUED:          0  USEFUL:          0  USELESS:          0
PSCL3 USEFUL LOAD PREFETCHES:          0 PREFETCH ISSUED TO LOWER LEVEL:          0  ACCURACY: -nan
PSCL3 TIMELY PREFETCHES:          0 LATE PREFETCHES: 0 DROPPED PREFETCHES: 0
PSCL3 PREFETCHES SAME FILL-ORIGIN LEVEL: 0 DIFFERENT FILL-ORIGIN LEVEL: 0

PSCL2 TOTAL     ACCESS:    1336758  HIT:    1336713  MISS:         45  HIT %:    99.9966  MISS %: 0.00336635   MPKI: 0.000225
PSCL2 LOAD TRANSLATION ACCESS:    1336758  HIT:    1336713  MISS:         45  HIT %:    99.9966  MISS %: 0.00336635   MPKI: 0.000225
PSCL2 PREFETCH  REQUESTED:          0  ISSUED:          0  USEFUL:          0  USELESS:          0
PSCL2 USEFUL LOAD PREFETCHES:          0 PREFETCH ISSUED TO LOWER LEVEL:          0  ACCURACY: -nan
PSCL2 TIMELY PREFETCHES:          0 LATE PREFETCHES: 0 DROPPED PREFETCHES: 0
PSCL2 PREFETCHES SAME FILL-ORIGIN LEVEL: 0 DIFFERENT FILL-ORIGIN LEVEL: 0

LLC TOTAL     ACCESS:   11457113  HIT:    4761043  MISS:    6696070  HIT %:    41.5553  MISS %:    58.4447   MPKI: 33.4804
LLC LOAD      ACCESS:    2957664  HIT:     519130  MISS:    2438534  HIT %:     17.552  MISS %:     82.448   MPKI: 12.1927
LLC PREFETCH  ACCESS:    4830109  HIT:     689495  MISS:    4140614  HIT %:    14.2749  MISS %:    85.7251   MPKI: 20.7031
LLC WRITEBACK ACCESS:    3290064  HIT:    3177768  MISS:     112296  HIT %:    96.5868  MISS %:    3.41319   MPKI: 0.56148
LLC LOAD TRANSLATION ACCESS:     379276  HIT:     374650  MISS:       4626  HIT %:    98.7803  MISS %:    1.21969   MPKI: 0.02313
LLC PREFETCH  REQUESTED:          0  ISSUED:          0  USEFUL:     722547  USELESS:   16282495
LLC USEFUL LOAD PREFETCHES:     722547 PREFETCH ISSUED TO LOWER LEVEL:   16996462  ACCURACY: 4.25116
LLC TIMELY PREFETCHES:     722547 LATE PREFETCHES: 0 DROPPED PREFETCHES: 0
LLC PREFETCHES SAME FILL-ORIGIN LEVEL: 0 DIFFERENT FILL-ORIGIN LEVEL: 0
LLC AVERAGE MISS LATENCY: 2692.01 cycles
LLC RQ	ACCESS:   13630482	FORWARD:          0	MERGED:          0	TO_CACHE:   13630463
LLC WQ	ACCESS:   13407515	FORWARD:         38	MERGED:          0	TO_CACHE:   13407515
LLC PQ	ACCESS:   19641817	FORWARD:          0	MERGED:          0	TO_CACHE:   19641798

LLC Dense regions hint to LLC: 0

RAW hits: 28396731
Loads Generated: 95862164
Loads sent to L1D: 67465456
Stores Generated: 21605028
Stores sent to L1D: 21605025
Major fault: 0 Minor fault: 22896
Allocated PAGES: 91584

CPU 1 cumulative IPC: 0.188028 instructions: 200000000 cycles: 1063668643
ITLB TOTAL     ACCESS:   25071585  HIT:   25071585  MISS:          0  HIT %:        100  MISS %:          0   MPKI: 0
ITLB LOAD TRANSLATION ACCESS:   25071585  HIT:   25071585  MISS:          0  HIT %:        100  MISS %:          0   MPKI: 0
ITLB PREFETCH  REQUESTED:          0  ISSUED:          0  USEFUL:          0  USELESS:          0
ITLB USEFUL LOAD PREFETCHES:          0 PREFETCH ISSUED TO LOWER LEVEL:          0  ACCURACY: -nan
ITLB TIMELY PREFETCHES:          0 LATE PREFETCHES: 0 DROPPED PREFETCHES: 0
ITLB PREFETCHES SAME FILL-ORIGIN LEVEL: 0 DIFFERENT FILL-ORIGIN LEVEL: 0
ITLB AVERAGE MISS LATENCY: -nan cycles
ITLB RQ	ACCESS:   33592386	FORWARD:          0	MERGED:    8009773	TO_CACHE:   25582613

DTLB TOTAL     ACCESS:   60664970  HIT:   57818684  MISS:    2846286  HIT %:    95.3082  MISS %:    4.69181   MPKI: 14.2314
DTLB LOAD TRANSLATION ACCESS:   60664970  HIT:   57818684  MISS:    2846286  HIT %:    95.3082  MISS %:    4.69181   MPKI: 14.2314
DTLB PREFETCH  REQUESTED:          0  ISSUED:          0  USEFUL:          0  USELESS:          0
DTLB USEFUL LOAD PREFETCHES:          0 PREFETCH ISSUED TO LOWER LEVEL:          0  ACCURACY: -nan
DTLB TIMELY PREFETCHES:          0 LATE PREFETCHES: 0 DROPPED PREFETCHES: 0
DTLB PREFETCHES SAME FILL-ORIGIN LEVEL: 0 DIFFERENT FILL-ORIGIN LEVEL: 0
DTLB AVERAGE MISS LATENCY: 27.1786 cycles
DTLB RQ	ACCESS:   69660080	FORWARD:          0	MERGED:    7793388	TO_CACHE:   61866692

STLB TOTAL     ACCESS:    9816886  HIT:    8480134  MISS:    1336752  HIT %:    86.3831  MISS %:    13.6169   MPKI: 6.68376
STLB LOAD TRANSLATION ACCESS:    2846286  HIT:    1509534  MISS:    1336752  HIT %:    53.0352  MISS %:    46.9648   MPKI: 6.68376
STLB TRANSLATION FROM L1D PREFETCHER ACCESS:    6970600  HIT:    6970600  MISS:          0  HIT %:        100  MISS %:          0   MPKI: 0
STLB PREFETCH  REQUESTED:          0  ISSUED:          0  USEFUL:          0  USELESS:          0
STLB USEFUL LOAD PREFETCHES:          0 PREFETCH ISSUED TO LOWER LEVEL:          0  ACCURACY: -nan
STLB TIMELY PREFETCHES:          0 LATE PREFETCHES: 0 DROPPED PREFETCHES: 0
STLB PREFETCHES SAME FILL-ORIGIN LEVEL: 0 DIFFERENT FILL-ORIGIN LEVEL: 0
STLB AVERAGE MISS LATENCY: 37.8086 cycles
STLB RQ	ACCESS:   13180600	FORWARD:          0	MERGED:    3142074	TO_CACHE:   10038526

STLB Hit, L1D data hit: 0
STLB Hit, L2C data hit: 0
STLB Hit, LLC data hit: 0
STLB Hit, LLC data miss: 0
STLB STLB hints to L2: 0
L1D TOTAL     ACCESS:   77721754  HIT:   69048403  MISS:    8673351  HIT %:    88.8405  MISS %:    11.1595   MPKI: 43.3668
L1D LOAD      ACCESS:   46459919  HIT:   43014881  MISS:    3445038  HIT %:    92.5849  MISS %:    7.41508   MPKI: 17.2252
L1D RFO       ACCESS:   21579608  HIT:   21579608  MISS:          0  HIT %:        100  MISS %:          0   MPKI: 0
L1D PREFETCH  ACCESS:    9682227  HIT:    4453914  MISS:    5228313  HIT %:    46.0009  MISS %:    53.9991   MPKI: 26.1416
L1D PREFETCH  REQUESTED:   20519261  ISSUED:   20519260  USEFUL:    1071587  USELESS:    4272342
L1D USEFUL LOAD PREFETCHES:    1071587 PREFETCH ISSUED TO LOWER LEVEL:    5435336  ACCURACY: 19.7152
L1D TIMELY PREFETCHES:    1071587 LATE PREFETCHES: 91440 DROPPED PREFETCHES: 0
L1D PREFETCHES SAME FILL-ORIGIN LEVEL: 5435336 DIFFERENT FILL-ORIGIN LEVEL: 0
L1D AVERAGE MISS LATENCY: 550.709 cycles
L1D RQ	ACCESS:   68745374	FORWARD:          0	MERGED:   20962998	TO_CACHE:   47664000
L1D WQ	ACCESS:   22021764	FORWARD:     118870	MERGED:      25684	TO_CACHE:   21996080
L1D PQ	ACCESS:   10259877	FORWARD:          0	MERGED:          0	TO_CACHE:   10259383

L1D UNIQUE REGIONS ACCESSED: 0
L1D REGIONS CONFLICTS: 0
L1D Cross Page Prefetch Requests: 0
L1D Same Page Prefetch Requests: 12634845
L1D ROI Sum of L1D PQ occupancy: 115867161
L1D PREFETCHES PUSHED FROM L2C: 0
L1I TOTAL     ACCESS:   32935530  HIT:   32935530  MISS:          0  HIT %:        100  MISS %:          0   MPKI: 0
L1I LOAD      ACCESS:   32935530  HIT:   32935530  MISS:          0  HIT %:        100  MISS %:          0   MPKI: 0
L1I PREFETCH  REQUESTED:          0  ISSUED:          0  USEFUL:          0  USELESS:          0
L1I USEFUL LOAD PREFETCHES:          0 PREFETCH ISSUED TO LOWER LEVEL:          0  ACCURACY: -nan
L1I TIMELY PREFETCHES:          0 LATE PREFETCHES: 0 DROPPED PREFETCHES: 0
L1I PREFETCHES SAME FILL-ORIGIN LEVEL: 0 DIFFERENT FILL-ORIGIN LEVEL: 0
L1I AVERAGE MISS LATENCY: -nan cycles
L1I RQ	ACCESS:   49049731	FORWARD:          0	MERGED:   15457345	TO_CACHE:   33592386

BTB TOTAL     ACCESS:    9270581  HIT:    9270579  MISS:          2  HIT %:        100  MISS %: 2.15736e-05   MPKI: 1e-05
BTB BRANCH_DIRECT_JUMP	ACCESS:          0  HIT:          0  MISS:          0
BTB BRANCH_INDIRECT	ACCESS:          0  HIT:          0  MISS:          0
BTB BRANCH_CONDITIONAL	ACCESS:    9270581  HIT:    9270579  MISS:          2
BTB BRANCH_DIRECT_CALL	ACCESS:          0  HIT:          0  MISS:          0
BTB BRANCH_INDIRECT_CALL	ACCESS:          0  HIT:          0  MISS:          0
BTB BRANCH_RETURN	ACCESS:          0  HIT:          0  MISS:          0
BTB BRANCH_OTHER ACCESS:          0  HIT:          0  MISS:          0

L2C TOTAL     ACCESS:   13665008  HIT:    5241381  MISS:    8423627  HIT %:    38.3562  MISS %:    61.6438   MPKI: 42.1181
L2C LOAD      ACCESS:    3355211  HIT:     395675  MISS:    2959536  HIT %:    11.7928  MISS %:    88.2072   MPKI: 14.7977
L2C DATA LOAD MPKI: 14.7977
L2C INSTRUCTION LOAD MPKI: 0
L2C PREFETCH  ACCESS:    5318078  HIT:     493819  MISS:    4824259  HIT %:    9.28567  MISS %:    90.7143   MPKI: 24.1213
L2C DATA PREFETCH MPKI: 24.1213
L2C INSTRUCTION PREFETCH MPKI: 0
L2C WRITEBACK ACCESS:    3654947  HIT:    3398985  MISS:     255962  HIT %:    92.9968  MISS %:    7.00317   MPKI: 1.27981
L2C LOAD TRANSLATION ACCESS:    1336772  HIT:     952902  MISS:     383870  HIT %:    71.2838  MISS %:    28.7162   MPKI: 1.91935
L2C PREFETCH  REQUESTED:          0  ISSUED:          0  USEFUL:     115135  USELESS:    4818406
L2C USEFUL LOAD PREFETCHES:     115135 PREFETCH ISSUED TO LOWER LEVEL:    4933232  ACCURACY: 2.33387
L2C TIMELY PREFETCHES:     115135 LATE PREFETCHES: 0 DROPPED PREFETCHES: 0
L2C PREFETCHES SAME FILL-ORIGIN LEVEL: 0 DIFFERENT FILL-ORIGIN LEVEL: 0
L2C AVERAGE MISS LATENCY: 562.025 cycles
L2C RQ	ACCESS:    4808531	FORWARD:          0	MERGED:          0	TO_CACHE:    4808489
L2C WQ	ACCESS:    3741654	FORWARD:         63	MERGED:          0	TO_CACHE:    3741654
L2C PQ	ACCESS:    5435336	FORWARD:          0	MERGED:          0	TO_CACHE:    5435315

L2C Instructions Evicting Data 0
L2C Translations Evicting Data 375831
L2C Data Evicting Data 7604821
L2C Instructions Evicting Instructions 0
L2C Translations Evicting Instructions 0
L2C Data Evicting Instructions 0
L2C Instructions Evicting Translations 0
L2C Translations Evicting Translations 17445
L2C Data Evicting Translations 362490
L2C Dense regions hint from L2: 0
PSCL5 TOTAL     ACCESS:    1336753  HIT:    1336753  MISS:          0  HIT %:        100  MISS %:          0   MPKI: 0
PSCL5 LOAD TRANSLATION ACCESS:    1336753  HIT:    1336753  MISS:          0  HIT %:        100  MISS %:          0   MPKI: 0
PSCL5 PREFETCH  REQUESTED:          0  ISSUED:          0  USEFUL:          0  USELESS:          0
PSCL5 USEFUL LOAD PREFETCHES:          0 PREFETCH ISSUED TO LOWER LEVEL:          0  ACCURACY: -nan
PSCL5 TIMELY PREFETCHES:          0 LATE PREFETCHES: 0 DROPPED PREFETCHES: 0
PSCL5 PREFETCHES SAME FILL-ORIGIN LEVEL: 0 DIFFERENT FILL-ORIGIN LEVEL: 0

PSCL4 TOTAL     ACCESS:    1336753  HIT:    1336753  MISS:          0  HIT %:        100  MISS %:          0   MPKI: 0
PSCL4 LOAD TRANSLATION ACCESS:    1336753  HIT:    1336753  MISS:          0  HIT %:        100  MISS %:          0   MPKI: 0
PSCL4 PREFETCH  REQUESTED:          0  ISSUED:          0  USEFUL:          0  USELESS:          0
PSCL4 USEFUL LOAD PREFETCHES:          0 PREFETCH ISSUED TO LOWER LEVEL:          0  ACCURACY: -nan
PSCL4 TIMELY PREFETCHES:          0 LATE PREFETCHES: 0 DROPPED PREFETCHES: 0
PSCL4 PREFETCHES SAME FILL-ORIGIN LEVEL: 0 DIFFERENT FILL-ORIGIN LEVEL: 0

PSCL3 TOTAL     ACCESS:    1336753  HIT:    1336753  MISS:          0  HIT %:        100  MISS %:          0   MPKI: 0
PSCL3 LOAD TRANSLATION ACCESS:    1336753  HIT:    1336753  MISS:          0  HIT %:        100  MISS %:          0   MPKI: 0
PSCL3 PREFETCH  REQUESTED:          0  ISSUED:          0  USEFUL:          0  USELESS:          0
PSCL3 USEFUL LOAD PREFETCHES:          0 PREFETCH ISSUED TO LOWER LEVEL:          0  ACCURACY: -nan
PSCL3 TIMELY PREFETCHES:          0 LATE PREFETCHES: 0 DROPPED PREFETCHES: 0
PSCL3 PREFETCHES SAME FILL-ORIGIN LEVEL: 0 DIFFERENT FILL-ORIGIN LEVEL: 0

PSCL2 TOTAL     ACCESS:    1336753  HIT:    1336708  MISS:         45  HIT %:    99.9966  MISS %: 0.00336637   MPKI: 0.000225
PSCL2 LOAD TRANSLATION ACCESS:    1336753  HIT:    1336708  MISS:         45  HIT %:    99.9966  MISS %: 0.00336637   MPKI: 0.000225
PSCL2 PREFETCH  REQUESTED:          0  ISSUED:          0  USEFUL:          0  USELESS:          0
PSCL2 USEFUL LOAD PREFETCHES:          0 PREFETCH ISSUED TO LOWER LEVEL:          0  ACCURACY: -nan
PSCL2 TIMELY PREFETCHES:          0 LATE PREFETCHES: 0 DROPPED PREFETCHES: 0
PSCL2 PREFETCHES SAME FILL-ORIGIN LEVEL: 0 DIFFERENT FILL-ORIGIN LEVEL: 0

LLC TOTAL     ACCESS:   11458111  HIT:    4763821  MISS:    6694290  HIT %:     41.576  MISS %:     58.424   MPKI: 33.4714
LLC LOAD      ACCESS:    2959529  HIT:     519745  MISS:    2439784  HIT %:    17.5617  MISS %:    82.4383   MPKI: 12.1989
LLC PREFETCH  ACCESS:    4824255  HIT:     688106  MISS:    4136149  HIT %:    14.2635  MISS %:    85.7365   MPKI: 20.6807
LLC WRITEBACK ACCESS:    3290457  HIT:    3176625  MISS:     113832  HIT %:    96.5405  MISS %:    3.45946   MPKI: 0.56916
LLC LOAD TRANSLATION ACCESS:     383870  HIT:     379345  MISS:       4525  HIT %:    98.8212  MISS %:    1.17878   MPKI: 0.022625
LLC PREFETCH  REQUESTED:          0  ISSUED:          0  USEFUL:     722547  USELESS:   16282495
LLC USEFUL LOAD PREFETCHES:     722547 PREFETCH ISSUED TO LOWER LEVEL:   16996462  ACCURACY: 4.25116
LLC TIMELY PREFETCHES:     722547 LATE PREFETCHES: 0 DROPPED PREFETCHES: 0
LLC PREFETCHES SAME FILL-ORIGIN LEVEL: 0 DIFFERENT FILL-ORIGIN LEVEL: 0
LLC AVERAGE MISS LATENCY: 2692.72 cycles
LLC RQ	ACCESS:   13630482	FORWARD:          0	MERGED:          0	TO_CACHE:   13630463
LLC WQ	ACCESS:   13407515	FORWARD:         38	MERGED:          0	TO_CACHE:   13407515
LLC PQ	ACCESS:   19641817	FORWARD:          0	MERGED:          0	TO_CACHE:   19641798

LLC Dense regions hint to LLC: 0

RAW hits: 28396699
Loads Generated: 95862153
Loads sent to L1D: 67465438
Stores Generated: 21604998
Stores sent to L1D: 21605003
Major fault: 0 Minor fault: 22896
Allocated PAGES: 91584

CPU 2 cumulative IPC: 0.187998 instructions: 200000003 cycles: 1063838399
ITLB TOTAL     ACCESS:   25069613  HIT:   25069613  MISS:          0  HIT %:        100  MISS %:          0   MPKI: 0
ITLB LOAD TRANSLATION ACCESS:   25069613  HIT:   25069613  MISS:          0  HIT %:        100  MISS %:          0   MPKI: 0
ITLB PREFETCH  REQUESTED:          0  ISSUED:          0  USEFUL:          0  USELESS:          0
ITLB USEFUL LOAD PREFETCHES:          0 PREFETCH ISSUED TO LOWER LEVEL:          0  ACCURACY: -nan
ITLB TIMELY PREFETCHES:          0 LATE PREFETCHES: 0 DROPPED PREFETCHES: 0
ITLB PREFETCHES SAME FILL-ORIGIN LEVEL: 0 DIFFERENT FILL-ORIGIN LEVEL: 0
ITLB AVERAGE MISS LATENCY: -nan cycles
ITLB RQ	ACCESS:   33588136	FORWARD:          0	MERGED:    8009208	TO_CACHE:   25578928

DTLB TOTAL     ACCESS:   60665000  HIT:   57818753  MISS:    2846247  HIT %:    95.3083  MISS %:    4.69174   MPKI: 14.2312
DTLB LOAD TRANSLATION ACCESS:   60665000  HIT:   57818753  MISS:    2846247  HIT %:    95.3083  MISS %:    4.69174   MPKI: 14.2312
DTLB PREFETCH  REQUESTED:          0  ISSUED:          0  USEFUL:          0  USELESS:          0
DTLB USEFUL LOAD PREFETCHES:          0 PREFETCH ISSUED TO LOWER LEVEL:          0  ACCURACY: -nan
DTLB TIMELY PREFETCHES:          0 LATE PREFETCHES: 0 DROPPED PREFETCHES: 0
DTLB PREFETCHES SAME FILL-ORIGIN LEVEL: 0 DIFFERENT FILL-ORIGIN LEVEL: 0
DTLB AVERAGE MISS LATENCY: 27.2705 cycles
DTLB RQ	ACCESS:   69655653	FORWARD:          0	MERGED:    7793484	TO_CACHE:   61862169

STLB TOTAL     ACCESS:    9812164  HIT:    8475428  MISS:    1336736  HIT %:    86.3767  MISS %:    13.6233   MPKI: 6.68368
STLB LOAD TRANSLATION ACCESS:    2846247  HIT:    1509511  MISS:    1336736  HIT %:    53.0351  MISS %:    46.9649   MPKI: 6.68368
STLB TRANSLATION FROM L1D PREFETCHER ACCESS:    6965917  HIT:    6965917  MISS:          0  HIT %:        100  MISS %:          0   MPKI: 0
STLB PREFETCH  REQUESTED:          0  ISSUED:          0  USEFUL:          0  USELESS:          0
STLB USEFUL LOAD PREFETCHES:          0 PREFETCH ISSUED TO LOWER LEVEL:          0  ACCURACY: -nan
STLB TIMELY PREFETCHES:          0 LATE PREFETCHES: 0 DROPPED PREFETCHES: 0
STLB PREFETCHES SAME FILL-ORIGIN LEVEL: 0 DIFFERENT FILL-ORIGIN LEVEL: 0
STLB AVERAGE MISS LATENCY: 38.0081 cycles
STLB RQ	ACCESS:   13169011	FORWARD:          0	MERGED:    3136318	TO_CACHE:   10032693

STLB Hit, L1D data hit: 0
STLB Hit, L2C data hit: 0
STLB Hit, LLC data hit: 0
STLB Hit, LLC data miss: 0
STLB STLB hints to L2: 0
L1D TOTAL     ACCESS:   77713872  HIT:   69041493  MISS:    8672379  HIT %:    88.8406  MISS %:    11.1594   MPKI: 43.3619
L1D LOAD      ACCESS:   46460968  HIT:   43016067  MISS:    3444901  HIT %:    92.5854  MISS %:    7.41461   MPKI: 17.2245
L1D RFO       ACCESS:   21580036  HIT:   21580036  MISS:          0  HIT %:        100  MISS %:          0   MPKI: 0
L1D PREFETCH  ACCESS:    9672868  HIT:    4445390  MISS:    5227478  HIT %:    45.9573  MISS %:    54.0427   MPKI: 26.1374
L1D PREFETCH  REQUESTED:   20496751  ISSUED:   20496750  USEFUL:    1071651  USELESS:    4271211
L1D USEFUL LOAD PREFETCHES:    1071651 PREFETCH ISSUED TO LOWER LEVEL:    5434414  ACCURACY: 19.7197
L1D TIMELY PREFETCHES:    1071651 LATE PREFETCHES: 91552 DROPPED PREFETCHES: 0
L1D PREFETCHES SAME FILL-ORIGIN LEVEL: 5434414 DIFFERENT FILL-ORIGIN LEVEL: 0
L1D AVERAGE MISS LATENCY: 550.695 cycles
L1D RQ	ACCESS:   68740507	FORWARD:          0	MERGED:   20961395	TO_CACHE:   47660758
L1D WQ	ACCESS:   22020177	FORWARD:     118818	MERGED:      25282	TO_CACHE:   21994895
L1D PQ	ACCESS:   10248607	FORWARD:          0	MERGED:          0	TO_CACHE:   10248143

L1D UNIQUE REGIONS ACCESSED: 0
L1D REGIONS CONFLICTS: 0
L1D Cross Page Prefetch Requests: 0
L1D Same Page Prefetch Requests: 12544642
L1D ROI Sum of L1D PQ occupancy: 115753525
L1D PREFETCHES PUSHED FROM L2C: 0
L1I TOTAL     ACCESS:   32933550  HIT:   32933550  MISS:          0  HIT %:        100  MISS %:          0   MPKI: 0
L1I LOAD      ACCESS:   32933550  HIT:   32933550  MISS:          0  HIT %:        100  MISS %:          0   MPKI: 0
L1I PREFETCH  REQUESTED:          0  ISSUED:          0  USEFUL:          0  USELESS:          0
L1I USEFUL LOAD PREFETCHES:          0 PREFETCH ISSUED TO LOWER LEVEL:          0  ACCURACY: -nan
L1I TIMELY PREFETCHES:          0 LATE PREFETCHES: 0 DROPPED PREFETCHES: 0
L1I PREFETCHES SAME FILL-ORIGIN LEVEL: 0 DIFFERENT FILL-ORIGIN LEVEL: 0
L1I AVERAGE MISS LATENCY: -nan cycles
L1I RQ	ACCESS:   49044280	FORWARD:          0	MERGED:   15456144	TO_CACHE:   33588136

BTB TOTAL     ACCESS:    9270582  HIT:    9270580  MISS:          2  HIT %:        100  MISS %: 2.15736e-05   MPKI: 1e-05
BTB BRANCH_DIRECT_JUMP	ACCESS:          0  HIT:          0  MISS:          0
BTB BRANCH_INDIRECT	ACCESS:          0  HIT:          0  MISS:          0
BTB BRANCH_CONDITIONAL	ACCESS:    9270582  HIT:    9270580  MISS:          2
BTB BRANCH_DIRECT_CALL	ACCESS:          0  HIT:          0  MISS:          0
BTB BRANCH_INDIRECT_CALL	ACCESS:          0  HIT:          0  MISS:          0
BTB BRANCH_RETURN	ACCESS:          0  HIT:          0  MISS:          0
BTB BRANCH_OTHER ACCESS:          0  HIT:          0  MISS:          0

L2C TOTAL     ACCESS:   13664006  HIT:    5235003  MISS:    8429003  HIT %:    38.3124  MISS %:    61.6876   MPKI: 42.145
L2C LOAD      ACCESS:    3354941  HIT:     395891  MISS:    2959050  HIT %:    11.8002  MISS %:    88.1998   MPKI: 14.7952
L2C DATA LOAD MPKI: 14.7952
L2C INSTRUCTION LOAD MPKI: 0
L2C PREFETCH  ACCESS:    5317356  HIT:     492200  MISS:    4825156  HIT %:    9.25648  MISS %:    90.7435   MPKI: 24.1258
L2C DATA PREFETCH MPKI: 24.1258
L2C INSTRUCTION PREFETCH MPKI: 0
L2C WRITEBACK ACCESS:    3654954  HIT:    3397535  MISS:     257419  HIT %:     92.957  MISS %:    7.04302   MPKI: 1.28709
L2C LOAD TRANSLATION ACCESS:    1336755  HIT:     949377  MISS:     387378  HIT %:     71.021  MISS %:     28.979   MPKI: 1.93689
L2C PREFETCH  REQUESTED:          0  ISSUED:          0  USEFUL:     115210  USELESS:    4819088
L2C USEFUL LOAD PREFETCHES:     115210 PREFETCH ISSUED TO LOWER LEVEL:    4934040  ACCURACY: 2.335
L2C TIMELY PREFETCHES:     115210 LATE PREFETCHES: 0 DROPPED PREFETCHES: 0
L2C PREFETCHES SAME FILL-ORIGIN LEVEL: 0 DIFFERENT FILL-ORIGIN LEVEL: 0
L2C AVERAGE MISS LATENCY: 561.589 cycles
L2C RQ	ACCESS:    4807849	FORWARD:          0	MERGED:          0	TO_CACHE:    4807794
L2C WQ	ACCESS:    3741356	FORWARD:         84	MERGED:          0	TO_CACHE:    3741356
L2C PQ	ACCESS:    5434414	FORWARD:          0	MERGED:          0	TO_CACHE:    5434385

L2C Instructions Evicting Data 0
L2C Translations Evicting Data 381085
L2C Data Evicting Data 7599995
L2C Instructions Evicting Instructions 0
L2C Translations Evicting Instructions 0
L2C Data Evicting Instructions 0
L2C Instructions Evicting Translations 0
L2C Translations Evicting Translations 16089
L2C Data Evicting Translations 367331
L2C Dense regions hint from L2: 0
PSCL5 TOTAL     ACCESS:    1336737  HIT:    1336737  MISS:          0  HIT %:        100  MISS %:          0   MPKI: 0
PSCL5 LOAD TRANSLATION ACCESS:    1336737  HIT:    1336737  MISS:          0  HIT %:        100  MISS %:          0   MPKI: 0
PSCL5 PREFETCH  REQUESTED:          0  ISSUED:          0  USEFUL:          0  USELESS:          0
PSCL5 USEFUL LOAD PREFETCHES:          0 PREFETCH ISSUED TO LOWER LEVEL:          0  ACCURACY: -nan
PSCL5 TIMELY PREFETCHES:          0 LATE PREFETCHES: 0 DROPPED PREFETCHES: 0
PSCL5 PREFETCHES SAME FILL-ORIGIN LEVEL: 0 DIFFERENT FILL-ORIGIN LEVEL: 0

PSCL4 TOTAL     ACCESS:    1336737  HIT:    1336737  MISS:          0  HIT %:        100  MISS %:          0   MPKI: 0
[...]
LLC LOAD      ACCESS:    2959045  HIT:     519927  MISS:    2439118  HIT %:    17.5708  MISS %:    82.4292   MPKI: 12.1956
LLC PREFETCH  ACCESS:    4825153  HIT:     689005  MISS:    4136148  HIT %:    14.2794  MISS %:    85.7206   MPKI: 20.6807
LLC WRITEBACK ACCESS:    3290267  HIT:    3176557  MISS:     113710  HIT %:     96.544  MISS %:    3.45595   MPKI: 0.56855
LLC LOAD TRANSLATION ACCESS:     387378  HIT:     382703  MISS:       4675  HIT %:    98.7932  MISS %:    1.20683   MPKI: 0.023375
LLC PREFETCH  REQUESTED:          0  ISSUED:          0  USEFUL:     722547  USELESS:   16282495
LLC USEFUL LOAD PREFETCHES:     722547 PREFETCH ISSUED TO LOWER LEVEL:   16996462  ACCURACY: 4.25116
LLC TIMELY PREFETCHES:     722547 LATE PREFETCHES: 0 DROPPED PREFETCHES: 0
LLC PREFETCHES SAME FILL-ORIGIN LEVEL: 0 DIFFERENT FILL-ORIGIN LEVEL: 0
LLC AVERAGE MISS LATENCY: 2692.98 cycles
LLC RQ	ACCESS:   13630482	FORWARD:          0	MERGED:          0	TO_CACHE:   13630463
LLC WQ	ACCESS:   13407515	FORWARD:         38	MERGED:          0	TO_CACHE:   13407515
LLC PQ	ACCESS:   19641817	FORWARD:          0	MERGED:          0	TO_CACHE:   19641798

LLC Dense regions hint to LLC: 0

RAW hits: 28396669
Loads Generated: 95862115
Loads sent to L1D: 67465432
Stores Generated: 21604984
Stores sent to L1D: 21604986
Major fault: 0 Minor fault: 22896
Allocated PAGES: 91584

CPU 3 cumulative IPC: 0.183998 instructions: 200000000 cycles: 1086965517
ITLB TOTAL     ACCESS:   25113173  HIT:   25113173  MISS:          0  HIT %:        100  MISS %:          0   MPKI: 0
ITLB LOAD TRANSLATION ACCESS:   25113173  HIT:   25113173  MISS:          0  HIT %:        100  MISS %:          0   MPKI: 0
ITLB PREFETCH  REQUESTED:          0  ISSUED:          0  USEFUL:          0  USELESS:          0
ITLB USEFUL LOAD PREFETCHES:          0 PREFETCH ISSUED TO LOWER LEVEL:          0  ACCURACY: -nan
ITLB TIMELY PREFETCHES:          0 LATE PREFETCHES: 0 DROPPED PREFETCHES: 0
ITLB PREFETCHES SAME FILL-ORIGIN LEVEL: 0 DIFFERENT FILL-ORIGIN LEVEL: 0
ITLB AVERAGE MISS LATENCY: -nan cycles
ITLB RQ	ACCESS:   32976983	FORWARD:          0	MERGED:    7863811	TO_CACHE:   25113172

DTLB TOTAL     ACCESS:   60684533  HIT:   57838330  MISS:    2846203  HIT %:    95.3098  MISS %:    4.69016   MPKI: 14.231
DTLB LOAD TRANSLATION ACCESS:   60684533  HIT:   57838330  MISS:    2846203  HIT %:    95.3098  MISS %:    4.69016   MPKI: 14.231
DTLB PREFETCH  REQUESTED:          0  ISSUED:          0  USEFUL:          0  USELESS:          0
DTLB USEFUL LOAD PREFETCHES:          0 PREFETCH ISSUED TO LOWER LEVEL:          0  ACCURACY: -nan
DTLB TIMELY PREFETCHES:          0 LATE PREFETCHES: 0 DROPPED PREFETCHES: 0
DTLB PREFETCHES SAME FILL-ORIGIN LEVEL: 0 DIFFERENT FILL-ORIGIN LEVEL: 0
DTLB AVERAGE MISS LATENCY: 28.5653 cycles
DTLB RQ	ACCESS:   68373681	FORWARD:          0	MERGED:    7629616	TO_CACHE:   60744065

STLB TOTAL     ACCESS:    9870119  HIT:    8533428  MISS:    1336691  HIT %:    86.4572  MISS %:    13.5428   MPKI: 6.68346
STLB LOAD TRANSLATION ACCESS:    2846203  HIT:    1509512  MISS:    1336691  HIT %:     53.036  MISS %:     46.964   MPKI: 6.68346
STLB TRANSLATION FROM L1D PREFETCHER ACCESS:    7023916  HIT:    7023916  MISS:          0  HIT %:        100  MISS %:          0   MPKI: 0
STLB PREFETCH  REQUESTED:          0  ISSUED:          0  USEFUL:          0  USELESS:          0
STLB USEFUL LOAD PREFETCHES:          0 PREFETCH ISSUED TO LOWER LEVEL:          0  ACCURACY: -nan
STLB TIMELY PREFETCHES:          0 LATE PREFETCHES: 0 DROPPED PREFETCHES: 0
STLB PREFETCHES SAME FILL-ORIGIN LEVEL: 0 DIFFERENT FILL-ORIGIN LEVEL: 0
STLB AVERAGE MISS LATENCY: 41.2854 cycles
STLB RQ	ACCESS:   12976623	FORWARD:          0	MERGED:    3106504	TO_CACHE:    9870119

STLB Hit, L1D data hit: 0
STLB Hit, L2C data hit: 0
STLB Hit, LLC data hit: 0
STLB Hit, LLC data miss: 0
STLB STLB hints to L2: 0
L1D TOTAL     ACCESS:   77794627  HIT:   69116756  MISS:    8677871  HIT %:    88.8452  MISS %:    11.1548   MPKI: 43.3894
L1D LOAD      ACCESS:   46468093  HIT:   43022427  MISS:    3445666  HIT %:    92.5849  MISS %:    7.41512   MPKI: 17.2283
L1D RFO       ACCESS:   21579217  HIT:   21579217  MISS:          0  HIT %:        100  MISS %:          0   MPKI: 0
L1D PREFETCH  ACCESS:    9747317  HIT:    4515112  MISS:    5232205  HIT %:    46.3216  MISS %:    53.6784   MPKI: 26.161
L1D PREFETCH  REQUESTED:   20261296  ISSUED:   20261296  USEFUL:    1055316  USELESS:    4176919
L1D USEFUL LOAD PREFETCHES:    1055316 PREFETCH ISSUED TO LOWER LEVEL:    5324067  ACCURACY: 19.8216
L1D TIMELY PREFETCHES:    1055316 LATE PREFETCHES: 91861 DROPPED PREFETCHES: 0
L1D PREFETCHES SAME FILL-ORIGIN LEVEL: 5324067 DIFFERENT FILL-ORIGIN LEVEL: 0
L1D AVERAGE MISS LATENCY: 559.234 cycles
L1D RQ	ACCESS:   67465371	FORWARD:          0	MERGED:   20554496	TO_CACHE:   46794466
L1D WQ	ACCESS:   21604987	FORWARD:     116865	MERGED:      25772	TO_CACHE:   21579215
L1D PQ	ACCESS:   10130876	FORWARD:          0	MERGED:          0	TO_CACHE:   10130420

L1D UNIQUE REGIONS ACCESSED: 0
L1D REGIONS CONFLICTS: 0
L1D Cross Page Prefetch Requests: 0
L1D Same Page Prefetch Requests: 12440440
L1D ROI Sum of L1D PQ occupancy: 114542048
L1D PREFETCHES PUSHED FROM L2C: 0
L1I TOTAL     ACCESS:   32976984  HIT:   32976984  MISS:          0  HIT %:        100  MISS %:          0   MPKI: 0
L1I LOAD      ACCESS:   32976984  HIT:   32976984  MISS:          0  HIT %:        100  MISS %:          0   MPKI: 0
L1I PREFETCH  REQUESTED:          0  ISSUED:          0  USEFUL:          0  USELESS:          0
L1I USEFUL LOAD PREFETCHES:          0 PREFETCH ISSUED TO LOWER LEVEL:          0  ACCURACY: -nan
L1I TIMELY PREFETCHES:          0 LATE PREFETCHES: 0 DROPPED PREFETCHES: 0
L1I PREFETCHES SAME FILL-ORIGIN LEVEL: 0 DIFFERENT FILL-ORIGIN LEVEL: 0
L1I AVERAGE MISS LATENCY: -nan cycles
L1I RQ	ACCESS:   48148446	FORWARD:          0	MERGED:   15171463	TO_CACHE:   32976983

BTB TOTAL     ACCESS:    9270553  HIT:    9270549  MISS:          4  HIT %:        100  MISS %: 4.31474e-05   MPKI: 2e-05
BTB BRANCH_DIRECT_JUMP	ACCESS:          0  HIT:          0  MISS:          0
BTB BRANCH_INDIRECT	ACCESS:          0  HIT:          0  MISS:          0
BTB BRANCH_CONDITIONAL	ACCESS:    9270553  HIT:    9270549  MISS:          4
BTB BRANCH_DIRECT_CALL	ACCESS:          0  HIT:          0  MISS:          0
BTB BRANCH_INDIRECT_CALL	ACCESS:          0  HIT:          0  MISS:          0
BTB BRANCH_RETURN	ACCESS:          0  HIT:          0  MISS:          0
BTB BRANCH_OTHER ACCESS:          0  HIT:          0  MISS:          0

L2C TOTAL     ACCESS:   13669631  HIT:    5232392  MISS:    8437239  HIT %:    38.2775  MISS %:    61.7225   MPKI: 42.1862
L2C LOAD      ACCESS:    3353769  HIT:     395133  MISS:    2958636  HIT %:    11.7818  MISS %:    88.2182   MPKI: 14.7932
L2C DATA LOAD MPKI: 14.7932
L2C INSTRUCTION LOAD MPKI: 0
L2C PREFETCH  ACCESS:    5324032  HIT:     493716  MISS:    4830316  HIT %:    9.27335  MISS %:    90.7267   MPKI: 24.1516
L2C DATA PREFETCH MPKI: 24.1516
L2C INSTRUCTION PREFETCH MPKI: 0
L2C WRITEBACK ACCESS:    3655124  HIT:    3396249  MISS:     258875  HIT %:    92.9175  MISS %:    7.08252   MPKI: 1.29438
L2C LOAD TRANSLATION ACCESS:    1336706  HIT:     947294  MISS:     389412  HIT %:    70.8678  MISS %:    29.1322   MPKI: 1.94706
L2C PREFETCH  REQUESTED:          0  ISSUED:          0  USEFUL:     113017  USELESS:    4716957
L2C USEFUL LOAD PREFETCHES:     113017 PREFETCH ISSUED TO LOWER LEVEL:    4830318  ACCURACY: 2.33974
L2C TIMELY PREFETCHES:     113017 LATE PREFETCHES: 0 DROPPED PREFETCHES: 0
L2C PREFETCHES SAME FILL-ORIGIN LEVEL: 0 DIFFERENT FILL-ORIGIN LEVEL: 0
L2C AVERAGE MISS LATENCY: 571.198 cycles
L2C RQ	ACCESS:    4690511	FORWARD:          0	MERGED:          0	TO_CACHE:    4690475
L2C WQ	ACCESS:    3655124	FORWARD:         69	MERGED:          0	TO_CACHE:    3655124
L2C PQ	ACCESS:    5324067	FORWARD:          0	MERGED:          0	TO_CACHE:    5324034

L2C Instructions Evicting Data 0
L2C Translations Evicting Data 371781
L2C Data Evicting Data 7430428
L2C Instructions Evicting Instructions 0
L2C Translations Evicting Instructions 0
L2C Data Evicting Instructions 0
L2C Instructions Evicting Translations 0
L2C Translations Evicting Translations 17631
L2C Data Evicting Translations 358524
L2C Dense regions hint from L2: 0
PSCL5 TOTAL     ACCESS:    1336691  HIT:    1336691  MISS:          0  HIT %:        100  MISS %:          0   MPKI: 0
PSCL5 LOAD TRANSLATION ACCESS:    1336691  HIT:    1336691  MISS:          0  HIT %:        100  MISS %:          0   MPKI: 0
PSCL5 PREFETCH  REQUESTED:          0  ISSUED:          0  USEFUL:          0  USELESS:          0
PSCL5 USEFUL LOAD PREFETCHES:          0 PREFETCH ISSUED TO LOWER LEVEL:          0  ACCURACY: -nan
PSCL5 TIMELY PREFETCHES:          0 LATE PREFETCHES: 0 DROPPED PREFETCHES: 0
PSCL5 PREFETCHES SAME FILL-ORIGIN LEVEL: 0 DIFFERENT FILL-ORIGIN LEVEL: 0

PSCL4 TOTAL     ACCESS:    1336691  HIT:    1336691  MISS:          0  HIT %:        100  MISS %:          0   MPKI: 0
PSCL4 LOAD TRANSLATION ACCESS:    1336691  HIT:    1336691  MISS:          0  HIT %:        100  MISS %:          0   MPKI: 0
PSCL4 PREFETCH  REQUESTED:          0  ISSUED:          0  USEFUL:          0  USELESS:          0
PSCL4 USEFUL LOAD PREFETCHES:          0 PREFETCH ISSUED TO LOWER LEVEL:          0  ACCURACY: -nan
PSCL4 TIMELY PREFETCHES:          0 LATE PREFETCHES: 0 DROPPED PREFETCHES: 0
PSCL4 PREFETCHES SAME FILL-ORIGIN LEVEL: 0 DIFFERENT FILL-ORIGIN LEVEL: 0

PSCL3 TOTAL     ACCESS:    1336691  HIT:    1336691  MISS:          0  HIT %:        100  MISS %:          0   MPKI: 0
PSCL3 LOAD TRANSLATION ACCESS:    1336691  HIT:    1336691  MISS:          0  HIT %:        100  MISS %:          0   MPKI: 0
PSCL3 PREFETCH  REQUESTED:          0  ISSUED:          0  USEFUL:          0  USELESS:          0
PSCL3 USEFUL LOAD PREFETCHES:          0 PREFETCH ISSUED TO LOWER LEVEL:          0  ACCURACY: -nan
PSCL3 TIMELY PREFETCHES:          0 LATE PREFETCHES: 0 DROPPED PREFETCHES: 0
PSCL3 PREFETCHES SAME FILL-ORIGIN LEVEL: 0 DIFFERENT FILL-ORIGIN LEVEL: 0

PSCL2 TOTAL     ACCESS:    1336691  HIT:    1336650  MISS:         41  HIT %:    99.9969  MISS %: 0.00306728   MPKI: 0.000205
PSCL2 LOAD TRANSLATION ACCESS:    1336691  HIT:    1336650  MISS:         41  HIT %:    99.9969  MISS %: 0.00306728   MPKI: 0.000205
PSCL2 PREFETCH  REQUESTED:          0  ISSUED:          0  USEFUL:          0  USELESS:          0
PSCL2 USEFUL LOAD PREFETCHES:          0 PREFETCH ISSUED TO LOWER LEVEL:          0  ACCURACY: -nan
PSCL2 TIMELY PREFETCHES:          0 LATE PREFETCHES: 0 DROPPED PREFETCHES: 0
PSCL2 PREFETCHES SAME FILL-ORIGIN LEVEL: 0 DIFFERENT FILL-ORIGIN LEVEL: 0

LLC TOTAL     ACCESS:   11469808  HIT:    3137144  MISS:    8332664  HIT %:    27.3513  MISS %:    72.6487   MPKI: 41.6633
LLC LOAD      ACCESS:    2958631  HIT:     424377  MISS:    2534254  HIT %:    14.3437  MISS %:    85.6563   MPKI: 12.6713
LLC PREFETCH  ACCESS:    4830311  HIT:     521789  MISS:    4308522  HIT %:    10.8024  MISS %:    89.1976   MPKI: 21.5426
LLC WRITEBACK ACCESS:    3291454  HIT:    1812817  MISS:    1478637  HIT %:    55.0765  MISS %:    44.9235   MPKI: 7.39318
LLC LOAD TRANSLATION ACCESS:     389412  HIT:     378161  MISS:      11251  HIT %:    97.1108  MISS %:    2.88923   MPKI: 0.056255
LLC PREFETCH  REQUESTED:          0  ISSUED:          0  USEFUL:     722547  USELESS:   16282495
LLC USEFUL LOAD PREFETCHES:     722547 PREFETCH ISSUED TO LOWER LEVEL:   16996462  ACCURACY: 4.25116
LLC TIMELY PREFETCHES:     722547 LATE PREFETCHES: 0 DROPPED PREFETCHES: 0
LLC PREFETCHES SAME FILL-ORIGIN LEVEL: 0 DIFFERENT FILL-ORIGIN LEVEL: 0
LLC AVERAGE MISS LATENCY: 2163.28 cycles
LLC RQ	ACCESS:   13630482	FORWARD:          0	MERGED:          0	TO_CACHE:   13630463
LLC WQ	ACCESS:   13407515	FORWARD:         38	MERGED:          0	TO_CACHE:   13407515
LLC PQ	ACCESS:   19641817	FORWARD:          0	MERGED:          0	TO_CACHE:   19641798

LLC Dense regions hint to LLC: 0

RAW hits: 28396675
Loads Generated: 95862030
Loads sent to L1D: 67465371
Stores Generated: 21604983
Stores sent to L1D: 21604987
Major fault: 0 Minor fault: 22896
Allocated PAGES: 91584

stream: 
stream:times selected: 15269303
stream:pref_filled: 4251831
stream:pref_useful: 252432
stream:pref_late: 77124
stream:misses: 1029139
stream:misses_by_poll: 0

CS: 
CS:times selected: 2086900
CS:pref_filled: 1154644
CS:pref_useful: 1019089
CS:pref_late: 12844
CS:misses: 115957
CS:misses_by_poll: 2635

CPLX: 
CPLX:times selected: 13067168
CPLX:pref_filled: 1584860
CPLX:pref_useful: 50534
CPLX:pref_late: 6296
CPLX:misses: 3686469
CPLX:misses_by_poll: 3829

NL_L1: 
NL:times selected: 79253
NL:pref_filled: 45007
NL:pref_useful: 3075
NL:pref_late: 981
NL:misses: 40333
NL:misses_by_poll: 5

total selections: 30502624
total_filled: 5354994
total_useful: 1073362
total_late: 98465
total_polluted: 6469
total_misses_after_warmup: 3859760
conflicts: 8
Degree Incremented Times: 905405
Degree Decremented Times: 2637127

L1 IP Table Write Accesses: 189830232
L1 IP Table Read Accesses: 189830224
L1 RST Write Accesses: 48515309
L1 RST Read Accesses: 97030618
L1 CSPT Write Accesses: 48515309
L1 CSPT Read Accesses: 89670296
L1 RR Filter Tag Write Accesses: 40930252
L1 RR Filter Tag Read Accesses: 2112502963
L1 IP Table Tag Write Accesses: 189830232
L1 IP Table Tag Read Accesses: 189830232
L1 RST Tag Write Accesses: 0
L1 RST Tag Read Accesses: 436869882
L1 RR Filter Write Accesses: 0
L1 RR Filter Read Accesses: 75909970
test: 31190147

stream: 
stream:times selected: 15258444
stream:pref_filled: 4231397
stream:pref_useful: 252261
stream:pref_late: 76803
stream:misses: 1028307
stream:misses_by_poll: 0

CS: 
CS:times selected: 2085435
CS:pref_filled: 1141593
CS:pref_useful: 1008270
CS:pref_late: 12557
CS:misses: 123354
CS:misses_by_poll: 2525

CPLX: 
CPLX:times selected: 13057822
CPLX:pref_filled: 1571524
CPLX:pref_useful: 49510
CPLX:pref_late: 6210
CPLX:misses: 3686822
CPLX:misses_by_poll: 3796

NL_L1: 
NL:times selected: 79351
NL:pref_filled: 44870
NL:pref_useful: 2988
NL:pref_late: 1016
NL:misses: 40684
NL:misses_by_poll: 4

total selections: 30481052
total_filled: 5343893
total_useful: 1071587
total_late: 97792
total_polluted: 6325
total_misses_after_warmup: 3857217
conflicts: 8
Degree Incremented Times: 905405
Degree Decremented Times: 2637127

L1 IP Table Write Accesses: 189830232
L1 IP Table Read Accesses: 189830224
L1 RST Write Accesses: 48515309
L1 RST Read Accesses: 97030618
L1 CSPT Write Accesses: 48515309
L1 CSPT Read Accesses: 89670296
L1 RR Filter Tag Write Accesses: 40930252
L1 RR Filter Tag Read Accesses: 2112502963
L1 IP Table Tag Write Accesses: 189830232
L1 IP Table Tag Read Accesses: 189830232
L1 RST Tag Write Accesses: 0
L1 RST Tag Read Accesses: 436869882
L1 RR Filter Write Accesses: 0
L1 RR Filter Read Accesses: 75909970
test: 31190147

stream: 
stream:times selected: 15257141
stream:pref_filled: 4222787
stream:pref_useful: 256690
stream:pref_late: 76776
stream:misses: 1028326
stream:misses_by_poll: 0

CS: 
CS:times selected: 2085356
CS:pref_filled: 1128532
CS:pref_useful: 995407
CS:pref_late: 12558
CS:misses: 129604
CS:misses_by_poll: 2430

CPLX: 
CPLX:times selected: 13056698
CPLX:pref_filled: 1560614
CPLX:pref_useful: 49263
CPLX:pref_late: 6296
CPLX:misses: 3688049
CPLX:misses_by_poll: 3893

NL_L1: 
NL:times selected: 79196
NL:pref_filled: 44533
NL:pref_useful: 2962
NL:pref_late: 954
NL:misses: 40513
NL:misses_by_poll: 5

total selections: 30478391
total_filled: 5342860
total_useful: 1071651
total_late: 97769
total_polluted: 6328
total_misses_after_warmup: 3855925
conflicts: 8
Degree Incremented Times: 905405
Degree Decremented Times: 2637127

L1 IP Table Write Accesses: 189830232
L1 IP Table Read Accesses: 189830224
L1 RST Write Accesses: 48515309
L1 RST Read Accesses: 97030618
L1 CSPT Write Accesses: 48515309
L1 CSPT Read Accesses: 89670296
L1 RR Filter Tag Write Accesses: 40930252
L1 RR Filter Tag Read Accesses: 2112502963
L1 IP Table Tag Write Accesses: 189830232
L1 IP Table Tag Read Accesses: 189830232
L1 RST Tag Write Accesses: 0
L1 RST Tag Read Accesses: 436869882
L1 RR Filter Write Accesses: 0
L1 RR Filter Read Accesses: 75909970
test: 31190147

stream: 
stream:times selected: 15018036
stream:pref_filled: 4151785
stream:pref_useful: 256989
stream:pref_late: 76891
stream:misses: 1010214
stream:misses_by_poll: 0

CS: 
CS:times selected: 2061874
CS:pref_filled: 1111711
CS:pref_useful: 980855
CS:pref_late: 12994
CS:misses: 126300
CS:misses_by_poll: 2416

CPLX: 
CPLX:times selected: 12843083
CPLX:pref_filled: 1539350
CPLX:pref_useful: 48730
CPLX:pref_late: 6209
CPLX:misses: 3624297
CPLX:misses_by_poll: 3611

NL_L1: 
NL:times selected: 77829
NL:pref_filled: 43636
NL:pref_useful: 2887
NL:pref_late: 953
NL:misses: 39668
NL:misses_by_poll: 3

total selections: 30000822
total_filled: 5232205
total_useful: 1055316
total_late: 98154
total_polluted: 6030
total_misses_after_warmup: 3772042
conflicts: 8
Degree Incremented Times: 905405
Degree Decremented Times: 2637127

L1 IP Table Write Accesses: 189830232
L1 IP Table Read Accesses: 189830224
L1 RST Write Accesses: 48515309
L1 RST Read Accesses: 97030618
L1 CSPT Write Accesses: 48515309
L1 CSPT Read Accesses: 89670296
L1 RR Filter Tag Write Accesses: 40930252
L1 RR Filter Tag Read Accesses: 2112502963
L1 IP Table Tag Write Accesses: 189830232
L1 IP Table Tag Read Accesses: 189830232
L1 RST Tag Write Accesses: 0
L1 RST Tag Read Accesses: 436869882
L1 RR Filter Write Accesses: 0
L1 RR Filter Read Accesses: 75909970
test: 31190147

DRAM Statistics
 CHANNEL 0
 RQ ROW_BUFFER_HIT:     938992  ROW_BUFFER_MISS:   26113521
 DBUS_CONGESTED:          4
 WQ ROW_BUFFER_HIT:     190193  ROW_BUFFER_MISS:   11579028  FULL:        116

 AVG_CONGESTED_CYCLE: 5
 All warmup complete: 5
Channel 0 Bank busy for read cycles: 0
Channel 0 Bank busy for write cycles: 0
Channel 0
Rank 0
0banks busy for read cycles: 21009
0banks busy for write cycles: 0
1banks busy for read cycles: 5405487
1banks busy for write cycles: 1221840
2banks busy for read cycles: 20226607
2banks busy for write cycles: 1221834
3banks busy for read cycles: 45387325
3banks busy for write cycles: 1221828
4banks busy for read cycles: 78731490
4banks busy for write cycles: 1223443
5banks busy for read cycles: 114714065
5banks busy for write cycles: 1369848
6banks busy for read cycles: 146912611
6banks busy for write cycles: 6076659
7banks busy for read cycles: 165421389
7banks busy for write cycles: 64811890
8banks busy for read cycles: 150744184
8banks busy for write cycles: 282254009

CPU 0 Branch Prediction Accuracy: 95.7023% MPKI: 3.72468 Average ROB Occupancy at Mispredict: 131.118
Branch types
NOT_BRANCH: 186227414 91.3329%
BRANCH_DIRECT_JUMP: 0 0%
BRANCH_INDIRECT: 0 0%
BRANCH_CONDITIONAL: 17672155 8.66709%
BRANCH_DIRECT_CALL: 0 0%
BRANCH_INDIRECT_CALL: 0 0%
BRANCH_RETURN: 0 0%
BRANCH_OTHER: 0 0%


CPU 1 Branch Prediction Accuracy: 95.7009% MPKI: 3.72614 Average ROB Occupancy at Mispredict: 131.113
Branch types
NOT_BRANCH: 186076582 91.3327%
BRANCH_DIRECT_JUMP: 0 0%
BRANCH_INDIRECT: 0 0%
BRANCH_CONDITIONAL: 17658669 8.66747%
BRANCH_DIRECT_CALL: 0 0%
BRANCH_INDIRECT_CALL: 0 0%
BRANCH_RETURN: 0 0%
BRANCH_OTHER: 0 0%


CPU 2 Branch Prediction Accuracy: 95.7008% MPKI: 3.72633 Average ROB Occupancy at Mispredict: 131.091
Branch types
NOT_BRANCH: 186063540 91.3326%
BRANCH_DIRECT_JUMP: 0 0%
BRANCH_INDIRECT: 0 0%
BRANCH_CONDITIONAL: 17657511 8.66751%
BRANCH_DIRECT_CALL: 0 0%
BRANCH_INDIRECT_CALL: 0 0%
BRANCH_RETURN: 0 0%
BRANCH_OTHER: 0 0%


CPU 3 Branch Prediction Accuracy: 95.6668% MPKI: 3.75974 Average ROB Occupancy at Mispredict: 130.681
Branch types
NOT_BRANCH: 182646529 91.3233%
BRANCH_DIRECT_JUMP: 0 0%
BRANCH_INDIRECT: 0 0%
BRANCH_CONDITIONAL: 17353093 8.67655%
BRANCH_DIRECT_CALL: 0 0%
BRANCH_INDIRECT_CALL: 0 0%
BRANCH_RETURN: 0 0%
BRANCH_OTHER: 0 0%

DRAM PAGES: 1048576
Allocated PAGES: 91584
