
*** ChampSim Multicore Out-of-Order Simulator ***

Warmup Instructions: 50000000
Simulation Instructions: 200000000
Number of CPUs: 4
LLC sets: 8192
LLC ways: 16
Off-chip DRAM Size: 4096 MB Channels: 1 Width: 64-bit Data Rate: 6400 MT/s
CPU 0 runs ./traces/spec/436.cactusADM-1804B.champsimtrace.xz
.xz
CPU 1 runs ./traces/ligra/ligra_Triangle.com-lj.ungraph.gcc_6.3.0_O3.drop_25000M.length_250M.champsimtrace.xz
.xz
CPU 2 runs ./traces/ligra/ligra_MIS.com-lj.ungraph.gcc_6.3.0_O3.drop_21250M.length_250M.champsimtrace.xz
.xz
CPU 3 runs ./traces/spec/603.bwaves_s-1740B.champsimtrace.xz
.xz
BTB has LRU replacement policy
ITLB has LRU replacement policy
DTLB has LRU replacement policy
STLB has LRU replacement policy
L1I has LRU replacement policy
IP Table Entries: 1024
CSPT Entries: 128
RR_ENTRIES: 32
RST_ENTRIES: 8
L1D has LRU replacement policy
Initialize SRRIP state for L2C
Initialize DRRIP state for LLC
BTB has LRU replacement policy
ITLB has LRU replacement policy
DTLB has LRU replacement policy
STLB has LRU replacement policy
L1I has LRU replacement policy
IP Table Entries: 1024
CSPT Entries: 128
RR_ENTRIES: 32
RST_ENTRIES: 8
L1D has LRU replacement policy
Initialize SRRIP state for L2C
Initialize DRRIP state for LLC
BTB has LRU replacement policy
ITLB has LRU replacement policy
DTLB has LRU replacement policy
STLB has LRU replacement policy
L1I has LRU replacement policy
IP Table Entries: 1024
CSPT Entries: 128
RR_ENTRIES: 32
RST_ENTRIES: 8
L1D has LRU replacement policy
Initialize SRRIP state for L2C
Initialize DRRIP state for LLC
BTB has LRU replacement policy
ITLB has LRU replacement policy
DTLB has LRU replacement policy
STLB has LRU replacement policy
L1I has LRU replacement policy
IP Table Entries: 1024
CSPT Entries: 128
RR_ENTRIES: 32
RST_ENTRIES: 8
L1D has LRU replacement policy
Initialize SRRIP state for L2C
Initialize DRRIP state for LLC
Heartbeat CPU 2 instructions: 10000001 cycles: 2941180 heartbeat IPC: 3.4 cumulative IPC: 3.4 (Simulation time: 0 hr 4 min 13 sec) 
Heartbeat CPU 1 instructions: 10000003 cycles: 3178360 heartbeat IPC: 3.14628 cumulative IPC: 3.14628 (Simulation time: 0 hr 4 min 31 sec) 
Heartbeat CPU 3 instructions: 10000000 cycles: 3311229 heartbeat IPC: 3.02003 cumulative IPC: 3.02003 (Simulation time: 0 hr 4 min 41 sec) 
Heartbeat CPU 0 instructions: 10000000 cycles: 3895485 heartbeat IPC: 2.56707 cumulative IPC: 2.56707 (Simulation time: 0 hr 5 min 34 sec) 
Heartbeat CPU 2 instructions: 20000001 cycles: 5882354 heartbeat IPC: 3.4 cumulative IPC: 3.4 (Simulation time: 0 hr 8 min 30 sec) 
Heartbeat CPU 1 instructions: 20000000 cycles: 6354509 heartbeat IPC: 3.14847 cumulative IPC: 3.14737 (Simulation time: 0 hr 9 min 12 sec) 
Heartbeat CPU 3 instructions: 20000002 cycles: 6620701 heartbeat IPC: 3.02163 cumulative IPC: 3.02083 (Simulation time: 0 hr 9 min 36 sec) 
Heartbeat CPU 0 instructions: 20000002 cycles: 7880709 heartbeat IPC: 2.50927 cumulative IPC: 2.53784 (Simulation time: 0 hr 11 min 29 sec) 
Heartbeat CPU 2 instructions: 30000000 cycles: 8823530 heartbeat IPC: 3.4 cumulative IPC: 3.4 (Simulation time: 0 hr 12 min 55 sec) 
Heartbeat CPU 1 instructions: 30000002 cycles: 9538326 heartbeat IPC: 3.14088 cumulative IPC: 3.14521 (Simulation time: 0 hr 13 min 55 sec) 
Heartbeat CPU 3 instructions: 30000003 cycles: 9931102 heartbeat IPC: 3.02078 cumulative IPC: 3.02081 (Simulation time: 0 hr 14 min 27 sec) 
Heartbeat CPU 2 instructions: 40000003 cycles: 11764707 heartbeat IPC: 3.4 cumulative IPC: 3.4 (Simulation time: 0 hr 16 min 59 sec) 
Heartbeat CPU 0 instructions: 30000003 cycles: 11775398 heartbeat IPC: 2.5676 cumulative IPC: 2.54768 (Simulation time: 0 hr 17 min 0 sec) 
Heartbeat CPU 1 instructions: 40000002 cycles: 12708338 heartbeat IPC: 3.15456 cumulative IPC: 3.14754 (Simulation time: 0 hr 18 min 14 sec) 
Heartbeat CPU 3 instructions: 40000001 cycles: 13241787 heartbeat IPC: 3.02052 cumulative IPC: 3.02074 (Simulation time: 0 hr 18 min 54 sec) 
Heartbeat CPU 2 instructions: 50000001 cycles: 15436015 heartbeat IPC: 2.72382 cumulative IPC: 3.23918 (Simulation time: 0 hr 21 min 42 sec) 
Heartbeat CPU 0 instructions: 40000002 cycles: 15668694 heartbeat IPC: 2.56852 cumulative IPC: 2.55286 (Simulation time: 0 hr 21 min 57 sec) 
Heartbeat CPU 1 instructions: 50000003 cycles: 15858582 heartbeat IPC: 3.17436 cumulative IPC: 3.15287 (Simulation time: 0 hr 22 min 9 sec) 
Heartbeat CPU 3 instructions: 50000003 cycles: 16552133 heartbeat IPC: 3.02083 cumulative IPC: 3.02076 (Simulation time: 0 hr 22 min 50 sec) 
Heartbeat CPU 2 instructions: 60000003 cycles: 19260025 heartbeat IPC: 2.61506 cumulative IPC: 0.51921 (Simulation time: 0 hr 24 min 54 sec) 
Heartbeat CPU 0 instructions: 50000000 cycles: 19654296 heartbeat IPC: 2.50903 cumulative IPC: 2.54397 (Simulation time: 0 hr 25 min 15 sec) 

Warmup complete CPU 0 instructions: 50000004 cycles: 19654297 (Simulation time: 0 hr 25 min 15 sec) 
Warmup complete CPU 1 instructions: 58821946 cycles: 19654296 (Simulation time: 0 hr 25 min 15 sec) 
Warmup complete CPU 2 instructions: 61082501 cycles: 19654296 (Simulation time: 0 hr 25 min 15 sec) 
Warmup complete CPU 3 instructions: 59371855 cycles: 19654296 (Simulation time: 0 hr 25 min 15 sec) 

Heartbeat CPU 3 instructions: 60000000 cycles: 20034475 heartbeat IPC: 2.87163 cumulative IPC: 1.65223 (Simulation time: 0 hr 25 min 26 sec) 
Heartbeat CPU 1 instructions: 60000002 cycles: 21252537 heartbeat IPC: 1.85393 cumulative IPC: 0.737095 (Simulation time: 0 hr 26 min 0 sec) 
Heartbeat CPU 3 instructions: 70000000 cycles: 26142605 heartbeat IPC: 1.63716 cumulative IPC: 1.63805 (Simulation time: 0 hr 28 min 4 sec) 
Heartbeat CPU 2 instructions: 70000000 cycles: 27831046 heartbeat IPC: 1.16672 cumulative IPC: 1.09059 (Simulation time: 0 hr 28 min 44 sec) 
Heartbeat CPU 0 instructions: 60000001 cycles: 29755996 heartbeat IPC: 0.989932 cumulative IPC: 0.989932 (Simulation time: 0 hr 29 min 33 sec) 
Heartbeat CPU 3 instructions: 80000001 cycles: 32245036 heartbeat IPC: 1.63869 cumulative IPC: 1.63836 (Simulation time: 0 hr 30 min 36 sec) 
Heartbeat CPU 1 instructions: 70000001 cycles: 35868525 heartbeat IPC: 0.684182 cumulative IPC: 0.689398 (Simulation time: 0 hr 32 min 0 sec) 
Heartbeat CPU 2 instructions: 80000000 cycles: 37241162 heartbeat IPC: 1.06269 cumulative IPC: 1.07566 (Simulation time: 0 hr 32 min 36 sec) 
Heartbeat CPU 3 instructions: 90000001 cycles: 38991086 heartbeat IPC: 1.48235 cumulative IPC: 1.58393 (Simulation time: 0 hr 33 min 21 sec) 
Heartbeat CPU 0 instructions: 70000001 cycles: 41586441 heartbeat IPC: 0.845277 cumulative IPC: 0.911903 (Simulation time: 0 hr 34 min 32 sec) 
Heartbeat CPU 3 instructions: 100000002 cycles: 45121613 heartbeat IPC: 1.63118 cumulative IPC: 1.59531 (Simulation time: 0 hr 36 min 3 sec) 
Heartbeat CPU 2 instructions: 90000003 cycles: 46616510 heartbeat IPC: 1.06663 cumulative IPC: 1.07252 (Simulation time: 0 hr 36 min 44 sec) 
Heartbeat CPU 1 instructions: 80000002 cycles: 49964472 heartbeat IPC: 0.709424 cumulative IPC: 0.698711 (Simulation time: 0 hr 38 min 19 sec) 
Heartbeat CPU 3 instructions: 110000000 cycles: 51230306 heartbeat IPC: 1.63701 cumulative IPC: 1.60337 (Simulation time: 0 hr 38 min 51 sec) 
Heartbeat CPU 0 instructions: 80000001 cycles: 51714322 heartbeat IPC: 0.987373 cumulative IPC: 0.935745 (Simulation time: 0 hr 39 min 2 sec) 
Heartbeat CPU 2 instructions: 100000001 cycles: 56143590 heartbeat IPC: 1.04964 cumulative IPC: 1.06655 (Simulation time: 0 hr 40 min 41 sec) 
Heartbeat CPU 3 instructions: 120000002 cycles: 57436348 heartbeat IPC: 1.61133 cumulative IPC: 1.60468 (Simulation time: 0 hr 41 min 10 sec) 
Heartbeat CPU 0 instructions: 90000000 cycles: 63501237 heartbeat IPC: 0.848398 cumulative IPC: 0.912264 (Simulation time: 0 hr 43 min 31 sec) 
Heartbeat CPU 3 instructions: 130000001 cycles: 64091543 heartbeat IPC: 1.50259 cumulative IPC: 1.58939 (Simulation time: 0 hr 43 min 48 sec) 
Heartbeat CPU 1 instructions: 90000002 cycles: 64800233 heartbeat IPC: 0.674047 cumulative IPC: 0.690606 (Simulation time: 0 hr 44 min 9 sec) 
Heartbeat CPU 2 instructions: 110000000 cycles: 66373999 heartbeat IPC: 0.977478 cumulative IPC: 1.04704 (Simulation time: 0 hr 44 min 50 sec) 
Heartbeat CPU 3 instructions: 140000001 cycles: 70231922 heartbeat IPC: 1.62856 cumulative IPC: 1.59415 (Simulation time: 0 hr 46 min 30 sec) 
Heartbeat CPU 0 instructions: 100000002 cycles: 73643370 heartbeat IPC: 0.985986 cumulative IPC: 0.926113 (Simulation time: 0 hr 47 min 57 sec) 
Heartbeat CPU 3 instructions: 150000002 cycles: 76356022 heartbeat IPC: 1.63289 cumulative IPC: 1.59833 (Simulation time: 0 hr 49 min 11 sec) 
Heartbeat CPU 2 instructions: 120000001 cycles: 77162028 heartbeat IPC: 0.926953 cumulative IPC: 1.02451 (Simulation time: 0 hr 49 min 33 sec) 
Heartbeat CPU 1 instructions: 100000000 cycles: 79808404 heartbeat IPC: 0.666304 cumulative IPC: 0.684543 (Simulation time: 0 hr 50 min 41 sec) 
Heartbeat CPU 3 instructions: 160000000 cycles: 82696688 heartbeat IPC: 1.57712 cumulative IPC: 1.5962 (Simulation time: 0 hr 51 min 50 sec) 
Heartbeat CPU 0 instructions: 110000000 cycles: 85484338 heartbeat IPC: 0.844525 cumulative IPC: 0.911438 (Simulation time: 0 hr 52 min 55 sec) 
Heartbeat CPU 2 instructions: 130000000 cycles: 88243983 heartbeat IPC: 0.902368 cumulative IPC: 1.00478 (Simulation time: 0 hr 54 min 3 sec) 
Heartbeat CPU 3 instructions: 170000001 cycles: 89298437 heartbeat IPC: 1.51475 cumulative IPC: 1.58848 (Simulation time: 0 hr 54 min 31 sec) 
Heartbeat CPU 1 instructions: 110000000 cycles: 95358707 heartbeat IPC: 0.643074 cumulative IPC: 0.676025 (Simulation time: 0 hr 57 min 8 sec) 
Heartbeat CPU 3 instructions: 180000003 cycles: 95416743 heartbeat IPC: 1.63444 cumulative IPC: 1.59219 (Simulation time: 0 hr 57 min 10 sec) 
Heartbeat CPU 0 instructions: 120000000 cycles: 95690828 heartbeat IPC: 0.979769 cumulative IPC: 0.92061 (Simulation time: 0 hr 57 min 17 sec) 
Heartbeat CPU 2 instructions: 140000000 cycles: 98985283 heartbeat IPC: 0.930986 cumulative IPC: 0.994788 (Simulation time: 0 hr 58 min 38 sec) 
Heartbeat CPU 3 instructions: 190000003 cycles: 101549575 heartbeat IPC: 1.63057 cumulative IPC: 1.59506 (Simulation time: 0 hr 59 min 44 sec) 
Heartbeat CPU 0 instructions: 130000001 cycles: 106294435 heartbeat IPC: 0.943075 cumulative IPC: 0.92336 (Simulation time: 1 hr 1 min 51 sec) 
Heartbeat CPU 3 instructions: 200000002 cycles: 108084061 heartbeat IPC: 1.53034 cumulative IPC: 1.59028 (Simulation time: 1 hr 2 min 30 sec) 
Heartbeat CPU 2 instructions: 150000000 cycles: 110147978 heartbeat IPC: 0.895841 cumulative IPC: 0.982582 (Simulation time: 1 hr 3 min 20 sec) 
Heartbeat CPU 1 instructions: 120000000 cycles: 112022533 heartbeat IPC: 0.600102 cumulative IPC: 0.662328 (Simulation time: 1 hr 4 min 11 sec) 
Heartbeat CPU 3 instructions: 210000003 cycles: 114511085 heartbeat IPC: 1.55593 cumulative IPC: 1.58795 (Simulation time: 1 hr 5 min 21 sec) 
Heartbeat CPU 0 instructions: 140000001 cycles: 117790257 heartbeat IPC: 0.869881 cumulative IPC: 0.917095 (Simulation time: 1 hr 6 min 52 sec) 
Heartbeat CPU 3 instructions: 220000000 cycles: 120665570 heartbeat IPC: 1.62483 cumulative IPC: 1.5902 (Simulation time: 1 hr 8 min 10 sec) 
Heartbeat CPU 2 instructions: 160000003 cycles: 120789296 heartbeat IPC: 0.939734 cumulative IPC: 0.978074 (Simulation time: 1 hr 8 min 13 sec) 
Heartbeat CPU 3 instructions: 230000000 cycles: 126809518 heartbeat IPC: 1.62762 cumulative IPC: 1.59235 (Simulation time: 1 hr 11 min 1 sec) 
Heartbeat CPU 0 instructions: 150000000 cycles: 128003241 heartbeat IPC: 0.979146 cumulative IPC: 0.922944 (Simulation time: 1 hr 11 min 34 sec) 
Heartbeat CPU 1 instructions: 130000000 cycles: 128595425 heartbeat IPC: 0.603395 cumulative IPC: 0.653363 (Simulation time: 1 hr 11 min 50 sec) 
Heartbeat CPU 2 instructions: 170000000 cycles: 131681256 heartbeat IPC: 0.918108 cumulative IPC: 0.972244 (Simulation time: 1 hr 12 min 59 sec) 
Heartbeat CPU 3 instructions: 240000000 cycles: 133470101 heartbeat IPC: 1.50137 cumulative IPC: 1.58702 (Simulation time: 1 hr 13 min 32 sec) 
Heartbeat CPU 3 instructions: 250000000 cycles: 139807364 heartbeat IPC: 1.57797 cumulative IPC: 1.58654 (Simulation time: 1 hr 16 min 14 sec) 
Heartbeat CPU 0 instructions: 160000000 cycles: 139875647 heartbeat IPC: 0.842289 cumulative IPC: 0.914979 (Simulation time: 1 hr 16 min 16 sec) 
Heartbeat CPU 2 instructions: 180000000 cycles: 142912055 heartbeat IPC: 0.890409 cumulative IPC: 0.964787 (Simulation time: 1 hr 17 min 33 sec) 
Finished CPU 3 instructions: 200000002 cycles: 125917389 cumulative IPC: 1.58834 (Simulation time: 1 hr 18 min 40 sec) 
Heartbeat CPU 3 instructions: 260000001 cycles: 145953331 heartbeat IPC: 1.62708 cumulative IPC: 1.58852 (Simulation time: 1 hr 18 min 49 sec) 
Heartbeat CPU 1 instructions: 140000000 cycles: 147185088 heartbeat IPC: 0.537933 cumulative IPC: 0.636537 (Simulation time: 1 hr 19 min 18 sec) 
Heartbeat CPU 0 instructions: 170000001 cycles: 150080962 heartbeat IPC: 0.979882 cumulative IPC: 0.920057 (Simulation time: 1 hr 20 min 33 sec) 
Heartbeat CPU 3 instructions: 270000002 cycles: 152105210 heartbeat IPC: 1.62552 cumulative IPC: 1.59024 (Simulation time: 1 hr 21 min 26 sec) 
Heartbeat CPU 2 instructions: 190000001 cycles: 153565435 heartbeat IPC: 0.938669 cumulative IPC: 0.962709 (Simulation time: 1 hr 22 min 6 sec) 
Heartbeat CPU 3 instructions: 280000000 cycles: 158900740 heartbeat IPC: 1.47156 cumulative IPC: 1.58444 (Simulation time: 1 hr 23 min 57 sec) 
Heartbeat CPU 0 instructions: 180000003 cycles: 161982745 heartbeat IPC: 0.84021 cumulative IPC: 0.91338 (Simulation time: 1 hr 25 min 1 sec) 
Heartbeat CPU 2 instructions: 200000000 cycles: 165107699 heartbeat IPC: 0.866381 cumulative IPC: 0.955065 (Simulation time: 1 hr 26 min 12 sec) 
Heartbeat CPU 3 instructions: 290000000 cycles: 165162034 heartbeat IPC: 1.59711 cumulative IPC: 1.58499 (Simulation time: 1 hr 26 min 14 sec) 
Heartbeat CPU 1 instructions: 150000000 cycles: 167959949 heartbeat IPC: 0.481351 cumulative IPC: 0.614798 (Simulation time: 1 hr 27 min 27 sec) 
Heartbeat CPU 3 instructions: 300000000 cycles: 171321983 heartbeat IPC: 1.62339 cumulative IPC: 1.58655 (Simulation time: 1 hr 28 min 52 sec) 
Heartbeat CPU 0 instructions: 190000001 cycles: 172166311 heartbeat IPC: 0.981974 cumulative IPC: 0.91796 (Simulation time: 1 hr 29 min 14 sec) 
Heartbeat CPU 2 instructions: 210000000 cycles: 176282396 heartbeat IPC: 0.894879 cumulative IPC: 0.950771 (Simulation time: 1 hr 30 min 40 sec) 
Heartbeat CPU 3 instructions: 310000000 cycles: 177475750 heartbeat IPC: 1.62502 cumulative IPC: 1.58805 (Simulation time: 1 hr 31 min 5 sec) 
Heartbeat CPU 0 instructions: 200000002 cycles: 184035960 heartbeat IPC: 0.842485 cumulative IPC: 0.912511 (Simulation time: 1 hr 33 min 37 sec) 
Heartbeat CPU 3 instructions: 320000001 cycles: 184313748 heartbeat IPC: 1.46242 cumulative IPC: 1.58283 (Simulation time: 1 hr 33 min 43 sec) 
Heartbeat CPU 2 instructions: 220000000 cycles: 188211964 heartbeat IPC: 0.838253 cumulative IPC: 0.942808 (Simulation time: 1 hr 35 min 10 sec) 
Heartbeat CPU 1 instructions: 160000000 cycles: 188471681 heartbeat IPC: 0.487526 cumulative IPC: 0.599334 (Simulation time: 1 hr 35 min 17 sec) 
Heartbeat CPU 3 instructions: 330000000 cycles: 190567505 heartbeat IPC: 1.59904 cumulative IPC: 1.58342 (Simulation time: 1 hr 36 min 7 sec) 
Heartbeat CPU 0 instructions: 210000000 cycles: 194281666 heartbeat IPC: 0.976018 cumulative IPC: 0.916237 (Simulation time: 1 hr 37 min 41 sec) 
Heartbeat CPU 3 instructions: 340000001 cycles: 196764033 heartbeat IPC: 1.61381 cumulative IPC: 1.58449 (Simulation time: 1 hr 38 min 43 sec) 
Heartbeat CPU 2 instructions: 230000002 cycles: 199763401 heartbeat IPC: 0.865693 cumulative IPC: 0.937862 (Simulation time: 1 hr 39 min 53 sec) 
Heartbeat CPU 3 instructions: 350000000 cycles: 202936580 heartbeat IPC: 1.62008 cumulative IPC: 1.58569 (Simulation time: 1 hr 41 min 9 sec) 
Heartbeat CPU 0 instructions: 220000000 cycles: 205270407 heartbeat IPC: 0.910022 cumulative IPC: 0.915869 (Simulation time: 1 hr 41 min 59 sec) 
Heartbeat CPU 3 instructions: 360000002 cycles: 209811752 heartbeat IPC: 1.45451 cumulative IPC: 1.58094 (Simulation time: 1 hr 43 min 41 sec) 
Heartbeat CPU 2 instructions: 240000003 cycles: 211749875 heartbeat IPC: 0.834274 cumulative IPC: 0.931398 (Simulation time: 1 hr 44 min 21 sec) 
Heartbeat CPU 1 instructions: 170000002 cycles: 214086787 heartbeat IPC: 0.390395 cumulative IPC: 0.571808 (Simulation time: 1 hr 45 min 13 sec) 
Heartbeat CPU 3 instructions: 370000001 cycles: 216046274 heartbeat IPC: 1.60397 cumulative IPC: 1.58167 (Simulation time: 1 hr 45 min 58 sec) 
Heartbeat CPU 0 instructions: 230000000 cycles: 216406982 heartbeat IPC: 0.897942 cumulative IPC: 0.914854 (Simulation time: 1 hr 46 min 8 sec) 
Heartbeat CPU 3 instructions: 380000003 cycles: 222235466 heartbeat IPC: 1.61572 cumulative IPC: 1.58271 (Simulation time: 1 hr 48 min 26 sec) 
*** Reached end of trace for Core: 2 Repeating trace: ./traces/ligra/ligra_MIS.com-lj.ungraph.gcc_6.3.0_O3.drop_21250M.length_250M.champsimtrace.xz
Heartbeat CPU 2 instructions: 250000002 cycles: 223313219 heartbeat IPC: 0.864802 cumulative IPC: 0.927617 (Simulation time: 1 hr 48 min 52 sec) 
Heartbeat CPU 0 instructions: 240000000 cycles: 226832319 heartbeat IPC: 0.959202 cumulative IPC: 0.917086 (Simulation time: 1 hr 50 min 7 sec) 
Heartbeat CPU 3 instructions: 390000002 cycles: 230500891 heartbeat IPC: 1.20986 cumulative IPC: 1.5681 (Simulation time: 1 hr 51 min 11 sec) 
Heartbeat CPU 0 instructions: 250000000 cycles: 240374153 heartbeat IPC: 0.738452 cumulative IPC: 0.906126 (Simulation time: 1 hr 54 min 6 sec) 
Finished CPU 0 instructions: 200000000 cycles: 220719857 cumulative IPC: 0.906126 (Simulation time: 1 hr 54 min 6 sec) 
Heartbeat CPU 3 instructions: 400000002 cycles: 240546405 heartbeat IPC: 0.995469 cumulative IPC: 1.54206 (Simulation time: 1 hr 54 min 9 sec) 
Heartbeat CPU 3 instructions: 410000001 cycles: 249792679 heartbeat IPC: 1.08152 cumulative IPC: 1.52355 (Simulation time: 1 hr 56 min 56 sec) 
Heartbeat CPU 0 instructions: 260000000 cycles: 251539871 heartbeat IPC: 0.895598 cumulative IPC: 0.905619 (Simulation time: 1 hr 57 min 29 sec) 
Heartbeat CPU 2 instructions: 260000001 cycles: 255466521 heartbeat IPC: 0.31101 cumulative IPC: 0.843542 (Simulation time: 1 hr 58 min 44 sec) 
Heartbeat CPU 3 instructions: 420000002 cycles: 259892017 heartbeat IPC: 0.990164 cumulative IPC: 1.50113 (Simulation time: 1 hr 59 min 49 sec) 
Finished CPU 2 instructions: 200000000 cycles: 240295227 cumulative IPC: 0.832309 (Simulation time: 1 hr 59 min 50 sec) 
Heartbeat CPU 1 instructions: 180000000 cycles: 263142438 heartbeat IPC: 0.20385 cumulative IPC: 0.497675 (Simulation time: 2 hr 0 min 46 sec) 
Heartbeat CPU 0 instructions: 270000003 cycles: 265001473 heartbeat IPC: 0.742854 cumulative IPC: 0.896689 (Simulation time: 2 hr 1 min 21 sec) 
Heartbeat CPU 3 instructions: 430000003 cycles: 269610664 heartbeat IPC: 1.02895 cumulative IPC: 1.48277 (Simulation time: 2 hr 2 min 46 sec) 
Heartbeat CPU 0 instructions: 280000000 cycles: 276195336 heartbeat IPC: 0.893346 cumulative IPC: 0.896543 (Simulation time: 2 hr 4 min 42 sec) 
Heartbeat CPU 3 instructions: 440000000 cycles: 278870979 heartbeat IPC: 1.07988 cumulative IPC: 1.46838 (Simulation time: 2 hr 5 min 27 sec) 
Heartbeat CPU 3 instructions: 450000002 cycles: 289230932 heartbeat IPC: 0.965256 cumulative IPC: 1.44904 (Simulation time: 2 hr 8 min 19 sec) 
Heartbeat CPU 0 instructions: 290000000 cycles: 289685702 heartbeat IPC: 0.74127 cumulative IPC: 0.888785 (Simulation time: 2 hr 8 min 27 sec) 
Heartbeat CPU 2 instructions: 270000001 cycles: 289996934 heartbeat IPC: 0.2896 cumulative IPC: 0.772788 (Simulation time: 2 hr 8 min 33 sec) 
Heartbeat CPU 3 instructions: 460000003 cycles: 298667713 heartbeat IPC: 1.05968 cumulative IPC: 1.43587 (Simulation time: 2 hr 11 min 9 sec) 
Heartbeat CPU 0 instructions: 300000003 cycles: 300891709 heartbeat IPC: 0.892379 cumulative IPC: 0.888929 (Simulation time: 2 hr 11 min 50 sec) 
Heartbeat CPU 3 instructions: 470000002 cycles: 307877911 heartbeat IPC: 1.08575 cumulative IPC: 1.42469 (Simulation time: 2 hr 14 min 2 sec) 
Heartbeat CPU 0 instructions: 310000000 cycles: 313722414 heartbeat IPC: 0.77938 cumulative IPC: 0.884149 (Simulation time: 2 hr 15 min 38 sec) 
Heartbeat CPU 3 instructions: 480000002 cycles: 318334692 heartbeat IPC: 0.956317 cumulative IPC: 1.40829 (Simulation time: 2 hr 16 min 56 sec) 
Heartbeat CPU 2 instructions: 280000000 cycles: 323438206 heartbeat IPC: 0.299032 cumulative IPC: 0.720636 (Simulation time: 2 hr 18 min 29 sec) 
Heartbeat CPU 0 instructions: 320000002 cycles: 325485533 heartbeat IPC: 0.850115 cumulative IPC: 0.88284 (Simulation time: 2 hr 19 min 7 sec) 
Heartbeat CPU 3 instructions: 490000001 cycles: 327672012 heartbeat IPC: 1.07097 cumulative IPC: 1.39806 (Simulation time: 2 hr 19 min 47 sec) 
Heartbeat CPU 0 instructions: 330000000 cycles: 336628953 heartbeat IPC: 0.89739 cumulative IPC: 0.883351 (Simulation time: 2 hr 22 min 32 sec) 
Heartbeat CPU 3 instructions: 500000003 cycles: 336823557 heartbeat IPC: 1.09271 cumulative IPC: 1.38925 (Simulation time: 2 hr 22 min 36 sec) 
Heartbeat CPU 1 instructions: 190000001 cycles: 337885246 heartbeat IPC: 0.133792 cumulative IPC: 0.41221 (Simulation time: 2 hr 22 min 55 sec) 
Heartbeat CPU 3 instructions: 510000003 cycles: 347350692 heartbeat IPC: 0.949926 cumulative IPC: 1.37514 (Simulation time: 2 hr 25 min 21 sec) 
Heartbeat CPU 0 instructions: 340000003 cycles: 349988017 heartbeat IPC: 0.748556 cumulative IPC: 0.8779 (Simulation time: 2 hr 26 min 9 sec) 
Heartbeat CPU 3 instructions: 520000002 cycles: 356624895 heartbeat IPC: 1.07826 cumulative IPC: 1.36697 (Simulation time: 2 hr 28 min 19 sec) 
Heartbeat CPU 2 instructions: 290000001 cycles: 356641971 heartbeat IPC: 0.301171 cumulative IPC: 0.679305 (Simulation time: 2 hr 28 min 19 sec) 
Heartbeat CPU 0 instructions: 350000000 cycles: 361152001 heartbeat IPC: 0.895737 cumulative IPC: 0.878483 (Simulation time: 2 hr 29 min 45 sec) 
Heartbeat CPU 3 instructions: 530000000 cycles: 365007781 heartbeat IPC: 1.19291 cumulative IPC: 1.36274 (Simulation time: 2 hr 30 min 58 sec) 
Heartbeat CPU 3 instructions: 540000001 cycles: 372292000 heartbeat IPC: 1.37283 cumulative IPC: 1.36295 (Simulation time: 2 hr 33 min 1 sec) 
Heartbeat CPU 0 instructions: 360000000 cycles: 373370742 heartbeat IPC: 0.818415 cumulative IPC: 0.876408 (Simulation time: 2 hr 33 min 23 sec) 
Heartbeat CPU 3 instructions: 550000000 cycles: 378710198 heartbeat IPC: 1.55807 cumulative IPC: 1.36644 (Simulation time: 2 hr 35 min 13 sec) 
Heartbeat CPU 0 instructions: 370000001 cycles: 383715454 heartbeat IPC: 0.966678 cumulative IPC: 0.878973 (Simulation time: 2 hr 36 min 54 sec) 
Heartbeat CPU 3 instructions: 560000001 cycles: 385090290 heartbeat IPC: 1.56738 cumulative IPC: 1.36995 (Simulation time: 2 hr 37 min 20 sec) 
Heartbeat CPU 1 instructions: 200000001 cycles: 391066130 heartbeat IPC: 0.188037 cumulative IPC: 0.380112 (Simulation time: 2 hr 39 min 9 sec) 
Heartbeat CPU 3 instructions: 570000000 cycles: 391618399 heartbeat IPC: 1.53184 cumulative IPC: 1.37279 (Simulation time: 2 hr 39 min 18 sec) 
Heartbeat CPU 0 instructions: 380000002 cycles: 395704291 heartbeat IPC: 0.834109 cumulative IPC: 0.877543 (Simulation time: 2 hr 40 min 34 sec) 
Heartbeat CPU 3 instructions: 580000000 cycles: 398601286 heartbeat IPC: 1.43207 cumulative IPC: 1.37388 (Simulation time: 2 hr 41 min 35 sec) 
Heartbeat CPU 2 instructions: 300000000 cycles: 401129491 heartbeat IPC: 0.224782 cumulative IPC: 0.626299 (Simulation time: 2 hr 42 min 36 sec) 
Heartbeat CPU 3 instructions: 590000002 cycles: 404977829 heartbeat IPC: 1.56825 cumulative IPC: 1.3771 (Simulation time: 2 hr 43 min 59 sec) 
Heartbeat CPU 0 instructions: 390000000 cycles: 406077414 heartbeat IPC: 0.96403 cumulative IPC: 0.879865 (Simulation time: 2 hr 44 min 25 sec) 
Heartbeat CPU 3 instructions: 600000001 cycles: 411298323 heartbeat IPC: 1.58215 cumulative IPC: 1.38041 (Simulation time: 2 hr 46 min 29 sec) 
Heartbeat CPU 2 instructions: 310000001 cycles: 411537284 heartbeat IPC: 0.960819 cumulative IPC: 0.635183 (Simulation time: 2 hr 46 min 35 sec) 
Heartbeat CPU 0 instructions: 400000002 cycles: 417959555 heartbeat IPC: 0.841599 cumulative IPC: 0.878723 (Simulation time: 2 hr 48 min 58 sec) 
Heartbeat CPU 3 instructions: 610000001 cycles: 418093080 heartbeat IPC: 1.47172 cumulative IPC: 1.38196 (Simulation time: 2 hr 49 min 1 sec) 
Heartbeat CPU 2 instructions: 320000002 cycles: 422073417 heartbeat IPC: 0.949115 cumulative IPC: 0.643403 (Simulation time: 2 hr 50 min 34 sec) 
Heartbeat CPU 3 instructions: 620000001 cycles: 424728301 heartbeat IPC: 1.50711 cumulative IPC: 1.38401 (Simulation time: 2 hr 51 min 31 sec) 
Heartbeat CPU 0 instructions: 410000002 cycles: 428339101 heartbeat IPC: 0.963433 cumulative IPC: 0.880874 (Simulation time: 2 hr 52 min 57 sec) 
Heartbeat CPU 3 instructions: 630000001 cycles: 431059405 heartbeat IPC: 1.5795 cumulative IPC: 1.38702 (Simulation time: 2 hr 54 min 4 sec) 
Heartbeat CPU 2 instructions: 330000000 cycles: 431878299 heartbeat IPC: 1.0199 cumulative IPC: 0.652358 (Simulation time: 2 hr 54 min 24 sec) 
Heartbeat CPU 1 instructions: 210000001 cycles: 433468129 heartbeat IPC: 0.235838 cumulative IPC: 0.365329 (Simulation time: 2 hr 55 min 4 sec) 
Heartbeat CPU 3 instructions: 640000001 cycles: 437418279 heartbeat IPC: 1.57261 cumulative IPC: 1.38985 (Simulation time: 2 hr 56 min 31 sec) 
Heartbeat CPU 0 instructions: 420000003 cycles: 438622288 heartbeat IPC: 0.972461 cumulative IPC: 0.883122 (Simulation time: 2 hr 57 min 0 sec) 
Heartbeat CPU 2 instructions: 340000003 cycles: 442020363 heartbeat IPC: 0.985993 cumulative IPC: 0.660369 (Simulation time: 2 hr 58 min 3 sec) 
Heartbeat CPU 3 instructions: 650000003 cycles: 444357534 heartbeat IPC: 1.44108 cumulative IPC: 1.39068 (Simulation time: 2 hr 58 min 54 sec) 
Heartbeat CPU 0 instructions: 430000001 cycles: 450587097 heartbeat IPC: 0.835784 cumulative IPC: 0.881808 (Simulation time: 3 hr 1 min 22 sec) 
Heartbeat CPU 3 instructions: 660000000 cycles: 450844787 heartbeat IPC: 1.54148 cumulative IPC: 1.39295 (Simulation time: 3 hr 1 min 28 sec) 
Heartbeat CPU 2 instructions: 350000001 cycles: 452524347 heartbeat IPC: 0.95202 cumulative IPC: 0.667446 (Simulation time: 3 hr 2 min 9 sec) 
Heartbeat CPU 3 instructions: 670000002 cycles: 457210943 heartbeat IPC: 1.57081 cumulative IPC: 1.39554 (Simulation time: 3 hr 4 min 5 sec) 
Heartbeat CPU 0 instructions: 440000000 cycles: 460888075 heartbeat IPC: 0.970782 cumulative IPC: 0.883885 (Simulation time: 3 hr 5 min 31 sec) 
Heartbeat CPU 2 instructions: 360000002 cycles: 462829030 heartbeat IPC: 0.970433 cumulative IPC: 0.674491 (Simulation time: 3 hr 6 min 19 sec) 
Heartbeat CPU 3 instructions: 680000002 cycles: 463534791 heartbeat IPC: 1.58132 cumulative IPC: 1.39819 (Simulation time: 3 hr 6 min 35 sec) 
Heartbeat CPU 3 instructions: 690000000 cycles: 470621229 heartbeat IPC: 1.41115 cumulative IPC: 1.39839 (Simulation time: 3 hr 8 min 59 sec) 
Heartbeat CPU 0 instructions: 450000001 cycles: 472913036 heartbeat IPC: 0.831604 cumulative IPC: 0.882498 (Simulation time: 3 hr 9 min 50 sec) 
Heartbeat CPU 2 instructions: 370000001 cycles: 474952624 heartbeat IPC: 0.824838 cumulative IPC: 0.678495 (Simulation time: 3 hr 10 min 32 sec) 
Heartbeat CPU 3 instructions: 700000001 cycles: 477052971 heartbeat IPC: 1.55479 cumulative IPC: 1.40059 (Simulation time: 3 hr 11 min 13 sec) 
Heartbeat CPU 1 instructions: 220000000 cycles: 478177186 heartbeat IPC: 0.223668 cumulative IPC: 0.351516 (Simulation time: 3 hr 11 min 39 sec) 
Heartbeat CPU 0 instructions: 460000001 cycles: 483189154 heartbeat IPC: 0.97313 cumulative IPC: 0.884507 (Simulation time: 3 hr 13 min 33 sec) 
Heartbeat CPU 3 instructions: 710000003 cycles: 483418315 heartbeat IPC: 1.57101 cumulative IPC: 1.40293 (Simulation time: 3 hr 13 min 38 sec) 
Heartbeat CPU 2 instructions: 380000000 cycles: 485913841 heartbeat IPC: 0.912307 cumulative IPC: 0.683991 (Simulation time: 3 hr 14 min 38 sec) 
Heartbeat CPU 3 instructions: 720000003 cycles: 489835115 heartbeat IPC: 1.55841 cumulative IPC: 1.40505 (Simulation time: 3 hr 16 min 10 sec) 
Heartbeat CPU 0 instructions: 470000001 cycles: 495149775 heartbeat IPC: 0.836077 cumulative IPC: 0.883289 (Simulation time: 3 hr 17 min 59 sec) 
Heartbeat CPU 3 instructions: 730000000 cycles: 496902998 heartbeat IPC: 1.41485 cumulative IPC: 1.4052 (Simulation time: 3 hr 18 min 41 sec) 
Heartbeat CPU 2 instructions: 390000001 cycles: 497913740 heartbeat IPC: 0.83334 cumulative IPC: 0.687739 (Simulation time: 3 hr 19 min 4 sec) 
Heartbeat CPU 3 instructions: 740000000 cycles: 503314393 heartbeat IPC: 1.55972 cumulative IPC: 1.40724 (Simulation time: 3 hr 21 min 1 sec) 
Heartbeat CPU 0 instructions: 480000001 cycles: 505415554 heartbeat IPC: 0.97411 cumulative IPC: 0.885208 (Simulation time: 3 hr 21 min 49 sec) 
Heartbeat CPU 2 instructions: 400000000 cycles: 509038274 heartbeat IPC: 0.898914 cumulative IPC: 0.692539 (Simulation time: 3 hr 23 min 6 sec) 
Heartbeat CPU 3 instructions: 750000002 cycles: 509683708 heartbeat IPC: 1.57003 cumulative IPC: 1.40936 (Simulation time: 3 hr 23 min 22 sec) 
Heartbeat CPU 3 instructions: 760000003 cycles: 516406759 heartbeat IPC: 1.48742 cumulative IPC: 1.41042 (Simulation time: 3 hr 25 min 43 sec) 
Heartbeat CPU 0 instructions: 490000000 cycles: 517316550 heartbeat IPC: 0.840266 cumulative IPC: 0.884134 (Simulation time: 3 hr 25 min 58 sec) 
Heartbeat CPU 2 instructions: 410000003 cycles: 520890838 heartbeat IPC: 0.8437 cumulative IPC: 0.696113 (Simulation time: 3 hr 27 min 14 sec) 
Heartbeat CPU 3 instructions: 770000000 cycles: 523224393 heartbeat IPC: 1.46678 cumulative IPC: 1.41118 (Simulation time: 3 hr 28 min 8 sec) 
Heartbeat CPU 1 instructions: 230000001 cycles: 524560518 heartbeat IPC: 0.215595 cumulative IPC: 0.339029 (Simulation time: 3 hr 28 min 41 sec) 
Heartbeat CPU 0 instructions: 500000003 cycles: 527651151 heartbeat IPC: 0.967624 cumulative IPC: 0.885832 (Simulation time: 3 hr 29 min 55 sec) 
Heartbeat CPU 3 instructions: 780000003 cycles: 529638947 heartbeat IPC: 1.55896 cumulative IPC: 1.41304 (Simulation time: 3 hr 30 min 39 sec) 
Heartbeat CPU 2 instructions: 420000000 cycles: 532108743 heartbeat IPC: 0.891432 cumulative IPC: 0.700389 (Simulation time: 3 hr 31 min 27 sec) 
Heartbeat CPU 3 instructions: 790000001 cycles: 536029003 heartbeat IPC: 1.56493 cumulative IPC: 1.41492 (Simulation time: 3 hr 32 min 58 sec) 
Heartbeat CPU 0 instructions: 510000000 cycles: 537937356 heartbeat IPC: 0.972176 cumulative IPC: 0.887546 (Simulation time: 3 hr 33 min 45 sec) 
Heartbeat CPU 3 instructions: 800000000 cycles: 543048154 heartbeat IPC: 1.42467 cumulative IPC: 1.41505 (Simulation time: 3 hr 35 min 30 sec) 
Heartbeat CPU 2 instructions: 430000000 cycles: 544099630 heartbeat IPC: 0.833967 cumulative IPC: 0.703443 (Simulation time: 3 hr 35 min 52 sec) 
Heartbeat CPU 3 instructions: 810000001 cycles: 549631985 heartbeat IPC: 1.51887 cumulative IPC: 1.41634 (Simulation time: 3 hr 38 min 4 sec) 
Heartbeat CPU 0 instructions: 520000003 cycles: 549940758 heartbeat IPC: 0.833097 cumulative IPC: 0.886313 (Simulation time: 3 hr 38 min 11 sec) 
Heartbeat CPU 2 instructions: 440000000 cycles: 555209721 heartbeat IPC: 0.900083 cumulative IPC: 0.707522 (Simulation time: 3 hr 40 min 7 sec) 
Heartbeat CPU 3 instructions: 820000003 cycles: 555995471 heartbeat IPC: 1.57147 cumulative IPC: 1.41818 (Simulation time: 3 hr 40 min 26 sec) 
Heartbeat CPU 0 instructions: 530000002 cycles: 560206764 heartbeat IPC: 0.974089 cumulative IPC: 0.88798 (Simulation time: 3 hr 42 min 14 sec) 
Heartbeat CPU 3 instructions: 830000000 cycles: 562239756 heartbeat IPC: 1.60146 cumulative IPC: 1.42029 (Simulation time: 3 hr 42 min 58 sec) 
Heartbeat CPU 1 instructions: 240000002 cycles: 563998704 heartbeat IPC: 0.253561 cumulative IPC: 0.332837 (Simulation time: 3 hr 43 min 35 sec) 
Heartbeat CPU 2 instructions: 450000000 cycles: 566679437 heartbeat IPC: 0.871861 cumulative IPC: 0.710968 (Simulation time: 3 hr 44 min 32 sec) 
Heartbeat CPU 3 instructions: 840000000 cycles: 569053369 heartbeat IPC: 1.46765 cumulative IPC: 1.42088 (Simulation time: 3 hr 45 min 31 sec) 
Heartbeat CPU 0 instructions: 540000002 cycles: 572073995 heartbeat IPC: 0.842657 cumulative IPC: 0.887007 (Simulation time: 3 hr 46 min 39 sec) 
Heartbeat CPU 3 instructions: 850000002 cycles: 575313969 heartbeat IPC: 1.59729 cumulative IPC: 1.42286 (Simulation time: 3 hr 47 min 53 sec) 
Heartbeat CPU 2 instructions: 460000000 cycles: 578114267 heartbeat IPC: 0.874521 cumulative IPC: 0.714317 (Simulation time: 3 hr 49 min 8 sec) 
Heartbeat CPU 3 instructions: 860000001 cycles: 581517268 heartbeat IPC: 1.61205 cumulative IPC: 1.42495 (Simulation time: 3 hr 50 min 34 sec) 
Heartbeat CPU 0 instructions: 550000000 cycles: 582298782 heartbeat IPC: 0.978015 cumulative IPC: 0.888661 (Simulation time: 3 hr 50 min 53 sec) 
Heartbeat CPU 3 instructions: 870000002 cycles: 587715882 heartbeat IPC: 1.61326 cumulative IPC: 1.42701 (Simulation time: 3 hr 52 min 57 sec) 
Heartbeat CPU 2 instructions: 470000002 cycles: 589597414 heartbeat IPC: 0.870842 cumulative IPC: 0.717471 (Simulation time: 3 hr 53 min 38 sec) 
Heartbeat CPU 0 instructions: 560000001 cycles: 594186615 heartbeat IPC: 0.841196 cumulative IPC: 0.887679 (Simulation time: 3 hr 55 min 6 sec) 
Heartbeat CPU 3 instructions: 880000000 cycles: 594571132 heartbeat IPC: 1.45874 cumulative IPC: 1.42739 (Simulation time: 3 hr 55 min 15 sec) 
*** Reached end of trace for Core: 1 Repeating trace: ./traces/ligra/ligra_Triangle.com-lj.ungraph.gcc_6.3.0_O3.drop_25000M.length_250M.champsimtrace.xz
Heartbeat CPU 1 instructions: 250000002 cycles: 599167060 heartbeat IPC: 0.284347 cumulative IPC: 0.329894 (Simulation time: 3 hr 57 min 6 sec) 
Heartbeat CPU 3 instructions: 890000000 cycles: 600914049 heartbeat IPC: 1.57656 cumulative IPC: 1.42901 (Simulation time: 3 hr 57 min 48 sec) 
Heartbeat CPU 2 instructions: 480000001 cycles: 601695232 heartbeat IPC: 0.826595 cumulative IPC: 0.719739 (Simulation time: 3 hr 58 min 6 sec) 
Heartbeat CPU 0 instructions: 570000000 cycles: 604481059 heartbeat IPC: 0.971398 cumulative IPC: 0.889152 (Simulation time: 3 hr 59 min 7 sec) 
Heartbeat CPU 3 instructions: 900000001 cycles: 607274973 heartbeat IPC: 1.5721 cumulative IPC: 1.43056 (Simulation time: 4 hr 0 min 23 sec) 
Finished CPU 1 instructions: 200000000 cycles: 592718684 cumulative IPC: 0.337428 (Simulation time: 4 hr 2 min 41 sec) 

ChampSim completed all CPUs

Total Simulation Statistics (not including warmup)

CPU 0 cumulative IPC: 0.890237 instructions: 527659963 cycles: 592718683
ITLB TOTAL     ACCESS:   87285227  HIT:   87285227  MISS:          0  HIT %:        100  MISS %:          0   MPKI: 0
ITLB LOAD      ACCESS:          0  HIT:          0  MISS:          0  HIT %:       -nan  MISS %:       -nan   MPKI: 0
ITLB RFO       ACCESS:          0  HIT:          0  MISS:          0  HIT %:       -nan  MISS %:       -nan   MPKI: 0
ITLB PREFETCH  ACCESS:          0  HIT:          0  MISS:          0  HIT %:       -nan  MISS %:       -nan   MPKI: 0
ITLB WRITEBACK ACCESS:          0  HIT:          0  MISS:          0  HIT %:       -nan  MISS %:       -nan   MPKI: 0
DTLB TOTAL     ACCESS:  157197612  HIT:  143367598  MISS:   13830014  HIT %:    91.2021  MISS %:    8.79785   MPKI: 26.2101
DTLB LOAD      ACCESS:          0  HIT:          0  MISS:          0  HIT %:       -nan  MISS %:       -nan   MPKI: 0
DTLB RFO       ACCESS:          0  HIT:          0  MISS:          0  HIT %:       -nan  MISS %:       -nan   MPKI: 0
DTLB PREFETCH  ACCESS:          0  HIT:          0  MISS:          0  HIT %:       -nan  MISS %:       -nan   MPKI: 0
DTLB WRITEBACK ACCESS:          0  HIT:          0  MISS:          0  HIT %:       -nan  MISS %:       -nan   MPKI: 0
STLB TOTAL     ACCESS:   17783865  HIT:   12684053  MISS:    5099812  HIT %:    71.3234  MISS %:    28.6766   MPKI: 9.66496
STLB LOAD      ACCESS:          0  HIT:          0  MISS:          0  HIT %:       -nan  MISS %:       -nan   MPKI: 0
STLB RFO       ACCESS:          0  HIT:          0  MISS:          0  HIT %:       -nan  MISS %:       -nan   MPKI: 0
STLB PREFETCH  ACCESS:          0  HIT:          0  MISS:          0  HIT %:       -nan  MISS %:       -nan   MPKI: 0
STLB WRITEBACK ACCESS:          0  HIT:          0  MISS:          0  HIT %:       -nan  MISS %:       -nan   MPKI: 0
L1D TOTAL     ACCESS:  278271839  HIT:  274208623  MISS:    4063216  HIT %:    98.5398  MISS %:    1.46016   MPKI: 7.70044
L1D LOAD      ACCESS:  172917631  HIT:  172519767  MISS:     397864  HIT %:    99.7699  MISS %:   0.230089   MPKI: 0.754016
L1D RFO       ACCESS:   83174537  HIT:   82385848  MISS:     788689  HIT %:    99.0518  MISS %:   0.948234   MPKI: 1.49469
L1D PREFETCH  ACCESS:   22179671  HIT:   19303008  MISS:    2876663  HIT %:    87.0302  MISS %:    12.9698   MPKI: 5.45174
L1D WRITEBACK ACCESS:          0  HIT:          0  MISS:          0  HIT %:       -nan  MISS %:       -nan   MPKI: 0
L1I TOTAL     ACCESS:  106083127  HIT:  106083127  MISS:          0  HIT %:        100  MISS %:          0   MPKI: 0
L1I LOAD      ACCESS:  106083127  HIT:  106083127  MISS:          0  HIT %:        100  MISS %:          0   MPKI: 0
L1I RFO       ACCESS:          0  HIT:          0  MISS:          0  HIT %:       -nan  MISS %:       -nan   MPKI: 0
L1I PREFETCH  ACCESS:          0  HIT:          0  MISS:          0  HIT %:       -nan  MISS %:       -nan   MPKI: 0
L1I WRITEBACK ACCESS:          0  HIT:          0  MISS:          0  HIT %:       -nan  MISS %:       -nan   MPKI: 0
L2C TOTAL     ACCESS:   14612395  HIT:   11764222  MISS:    2848173  HIT %:    80.5085  MISS %:    19.4915   MPKI: 5.39774
L2C LOAD      ACCESS:     396918  HIT:     213438  MISS:     183480  HIT %:    53.7738  MISS %:    46.2262   MPKI: 0.347724
L2C RFO       ACCESS:     788689  HIT:       1485  MISS:     787204  HIT %:   0.188287  MISS %:    99.8117   MPKI: 1.49188
L2C PREFETCH  ACCESS:    2877607  HIT:    1038515  MISS:    1839092  HIT %:    36.0895  MISS %:    63.9105   MPKI: 3.48537
L2C WRITEBACK ACCESS:     820172  HIT:     789974  MISS:      30198  HIT %:    96.3181  MISS %:    3.68191   MPKI: 0.05723
PSCL5 TOTAL     ACCESS:    5099812  HIT:    5099812  MISS:          0  HIT %:        100  MISS %:          0   MPKI: 0
PSCL5 LOAD      ACCESS:          0  HIT:          0  MISS:          0  HIT %:       -nan  MISS %:       -nan   MPKI: 0
PSCL5 RFO       ACCESS:          0  HIT:          0  MISS:          0  HIT %:       -nan  MISS %:       -nan   MPKI: 0
PSCL5 PREFETCH  ACCESS:          0  HIT:          0  MISS:          0  HIT %:       -nan  MISS %:       -nan   MPKI: 0
PSCL5 WRITEBACK ACCESS:          0  HIT:          0  MISS:          0  HIT %:       -nan  MISS %:       -nan   MPKI: 0
PSCL4 TOTAL     ACCESS:    5099812  HIT:    5099812  MISS:          0  HIT %:        100  MISS %:          0   MPKI: 0
PSCL4 LOAD      ACCESS:          0  HIT:          0  MISS:          0  HIT %:       -nan  MISS %:       -nan   MPKI: 0
PSCL4 RFO       ACCESS:          0  HIT:          0  MISS:          0  HIT %:       -nan  MISS %:       -nan   MPKI: 0
PSCL4 PREFETCH  ACCESS:          0  HIT:          0  MISS:          0  HIT %:       -nan  MISS %:       -nan   MPKI: 0
PSCL4 WRITEBACK ACCESS:          0  HIT:          0  MISS:          0  HIT %:       -nan  MISS %:       -nan   MPKI: 0
PSCL3 TOTAL     ACCESS:    5099812  HIT:    5099812  MISS:          0  HIT %:        100  MISS %:          0   MPKI: 0
PSCL3 LOAD      ACCESS:          0  HIT:          0  MISS:          0  HIT %:       -nan  MISS %:       -nan   MPKI: 0
PSCL3 RFO       ACCESS:          0  HIT:          0  MISS:          0  HIT %:       -nan  MISS %:       -nan   MPKI: 0
PSCL3 PREFETCH  ACCESS:          0  HIT:          0  MISS:          0  HIT %:       -nan  MISS %:       -nan   MPKI: 0
PSCL3 WRITEBACK ACCESS:          0  HIT:          0  MISS:          0  HIT %:       -nan  MISS %:       -nan   MPKI: 0
PSCL2 TOTAL     ACCESS:    5099812  HIT:     470584  MISS:    4629228  HIT %:    9.22748  MISS %:    90.7725   MPKI: 8.77313
PSCL2 LOAD      ACCESS:          0  HIT:          0  MISS:          0  HIT %:       -nan  MISS %:       -nan   MPKI: 0
PSCL2 RFO       ACCESS:          0  HIT:          0  MISS:          0  HIT %:       -nan  MISS %:       -nan   MPKI: 0
PSCL2 PREFETCH  ACCESS:          0  HIT:          0  MISS:          0  HIT %:       -nan  MISS %:       -nan   MPKI: 0
PSCL2 WRITEBACK ACCESS:          0  HIT:          0  MISS:          0  HIT %:       -nan  MISS %:       -nan   MPKI: 0

stream: 
stream:times selected: 4854933
stream:pref_filled: 3145807
stream:pref_useful: 3039403
stream:pref_late: 925
stream:misses: 134
stream:misses_by_poll: 0

CS: 
CS:times selected: 4652203
CS:pref_filled: 14342
CS:pref_useful: 6612
CS:pref_late: 11
CS:misses: 100627
CS:misses_by_poll: 14

CPLX: 
CPLX:times selected: 202517
CPLX:pref_filled: 865
CPLX:pref_useful: 397
CPLX:pref_late: 1
CPLX:misses: 1135
CPLX:misses_by_poll: 0

NL_L1: 
NL:times selected: 6
NL:pref_filled: 6
NL:pref_useful: 6
NL:pref_late: 0
NL:misses: 0
NL:misses_by_poll: 0

total selections: 9709659
total_filled: 2876663
total_useful: 2776286
total_late: 944
total_polluted: 14
total_misses_after_warmup: 421913
conflicts: 8758671
Degree Incremented Times: 4094960
Degree Decremented Times: 2201104

L1 IP Table Write Accesses: 548568562
L1 IP Table Read Accesses: 539809891
L1 RST Write Accesses: 145897351
L1 RST Read Accesses: 291794702
L1 CSPT Write Accesses: 145897351
L1 CSPT Read Accesses: 205298698
L1 RR Filter Tag Write Accesses: 610469778
L1 RR Filter Tag Read Accesses: 28376374888
L1 IP Table Tag Write Accesses: 582515780
L1 IP Table Tag Read Accesses: 582515780
L1 RST Tag Write Accesses: 0
L1 RST Tag Read Accesses: 1311497209
L1 RR Filter Write Accesses: 0
L1 RR Filter Read Accesses: 963198997
test: 23852007
LLC TOTAL     ACCESS:    3607965  HIT:     747098  MISS:    2860867  HIT %:    20.7069  MISS %:    79.2931   MPKI: 5.4218
LLC LOAD      ACCESS:     183480  HIT:      13110  MISS:     170370  HIT %:    7.14519  MISS %:    92.8548   MPKI: 0.322878
LLC RFO       ACCESS:     787204  HIT:       3960  MISS:     783244  HIT %:   0.503046  MISS %:     99.497   MPKI: 1.48437
LLC PREFETCH  ACCESS:    1839092  HIT:      86627  MISS:    1752465  HIT %:    4.71031  MISS %:    95.2897   MPKI: 3.3212
LLC WRITEBACK ACCESS:     789990  HIT:     641353  MISS:     148637  HIT %:     81.185  MISS %:     18.815   MPKI: 0.281691

RAW hits: 37334092
Loads Generated: 306224262
Loads sent to L1D: 268890163
Stores Generated: 89108697
Stores sent to L1D: 89108702

CPU 1 cumulative IPC: 0.337428 instructions: 200000000 cycles: 592718684
ITLB TOTAL     ACCESS:   36476660  HIT:   36476653  MISS:          7  HIT %:        100  MISS %: 1.91904e-05   MPKI: 3.5e-05
ITLB LOAD      ACCESS:          0  HIT:          0  MISS:          0  HIT %:       -nan  MISS %:       -nan   MPKI: 0
ITLB RFO       ACCESS:          0  HIT:          0  MISS:          0  HIT %:       -nan  MISS %:       -nan   MPKI: 0
ITLB PREFETCH  ACCESS:          0  HIT:          0  MISS:          0  HIT %:       -nan  MISS %:       -nan   MPKI: 0
ITLB WRITEBACK ACCESS:          0  HIT:          0  MISS:          0  HIT %:       -nan  MISS %:       -nan   MPKI: 0
DTLB TOTAL     ACCESS:   45870702  HIT:   41706389  MISS:    4164313  HIT %:    90.9216  MISS %:    9.07837   MPKI: 20.8216
DTLB LOAD      ACCESS:          0  HIT:          0  MISS:          0  HIT %:       -nan  MISS %:       -nan   MPKI: 0
DTLB RFO       ACCESS:          0  HIT:          0  MISS:          0  HIT %:       -nan  MISS %:       -nan   MPKI: 0
DTLB PREFETCH  ACCESS:          0  HIT:          0  MISS:          0  HIT %:       -nan  MISS %:       -nan   MPKI: 0
DTLB WRITEBACK ACCESS:          0  HIT:          0  MISS:          0  HIT %:       -nan  MISS %:       -nan   MPKI: 0
STLB TOTAL     ACCESS:   15461337  HIT:   15427963  MISS:      33374  HIT %:    99.7841  MISS %:   0.215855   MPKI: 0.16687
STLB LOAD      ACCESS:          0  HIT:          0  MISS:          0  HIT %:       -nan  MISS %:       -nan   MPKI: 0
STLB RFO       ACCESS:          0  HIT:          0  MISS:          0  HIT %:       -nan  MISS %:       -nan   MPKI: 0
STLB PREFETCH  ACCESS:          0  HIT:          0  MISS:          0  HIT %:       -nan  MISS %:       -nan   MPKI: 0
STLB WRITEBACK ACCESS:          0  HIT:          0  MISS:          0  HIT %:       -nan  MISS %:       -nan   MPKI: 0
L1D TOTAL     ACCESS:   65056991  HIT:   53335609  MISS:   11721382  HIT %:    81.9829  MISS %:    18.0171   MPKI: 58.6069
L1D LOAD      ACCESS:   44112920  HIT:   39191982  MISS:    4920938  HIT %:    88.8447  MISS %:    11.1553   MPKI: 24.6047
L1D RFO       ACCESS:    5046876  HIT:    5046557  MISS:        319  HIT %:    99.9937  MISS %: 0.00632074   MPKI: 0.001595
L1D PREFETCH  ACCESS:   15897195  HIT:    9097070  MISS:    6800125  HIT %:    57.2244  MISS %:    42.7756   MPKI: 34.0006
L1D WRITEBACK ACCESS:          0  HIT:          0  MISS:          0  HIT %:       -nan  MISS %:       -nan   MPKI: 0
L1I TOTAL     ACCESS:   39000916  HIT:   39000872  MISS:         44  HIT %:    99.9999  MISS %: 0.000112818   MPKI: 0.00022
L1I LOAD      ACCESS:   39000916  HIT:   39000872  MISS:         44  HIT %:    99.9999  MISS %: 0.000112818   MPKI: 0.00022
L1I RFO       ACCESS:          0  HIT:          0  MISS:          0  HIT %:       -nan  MISS %:       -nan   MPKI: 0
L1I PREFETCH  ACCESS:          0  HIT:          0  MISS:          0  HIT %:       -nan  MISS %:       -nan   MPKI: 0
L1I WRITEBACK ACCESS:          0  HIT:          0  MISS:          0  HIT %:       -nan  MISS %:       -nan   MPKI: 0
L2C TOTAL     ACCESS:   11755166  HIT:    2669209  MISS:    9085957  HIT %:    22.7067  MISS %:    77.2933   MPKI: 45.4298
L2C LOAD      ACCESS:    4807874  HIT:    1323018  MISS:    3484856  HIT %:    27.5177  MISS %:    72.4823   MPKI: 17.4243
L2C RFO       ACCESS:        319  HIT:         27  MISS:        292  HIT %:    8.46395  MISS %:    91.5361   MPKI: 0.00146
L2C PREFETCH  ACCESS:    6913233  HIT:    1317453  MISS:    5595780  HIT %:     19.057  MISS %:     80.943   MPKI: 27.9789
L2C WRITEBACK ACCESS:        357  HIT:        211  MISS:        146  HIT %:    59.1036  MISS %:    40.8964   MPKI: 0.00073
PSCL5 TOTAL     ACCESS:      33374  HIT:      33374  MISS:          0  HIT %:        100  MISS %:          0   MPKI: 0
PSCL5 LOAD      ACCESS:          0  HIT:          0  MISS:          0  HIT %:       -nan  MISS %:       -nan   MPKI: 0
PSCL5 RFO       ACCESS:          0  HIT:          0  MISS:          0  HIT %:       -nan  MISS %:       -nan   MPKI: 0
PSCL5 PREFETCH  ACCESS:          0  HIT:          0  MISS:          0  HIT %:       -nan  MISS %:       -nan   MPKI: 0
PSCL5 WRITEBACK ACCESS:          0  HIT:          0  MISS:          0  HIT %:       -nan  MISS %:       -nan   MPKI: 0
PSCL4 TOTAL     ACCESS:      33374  HIT:      33374  MISS:          0  HIT %:        100  MISS %:          0   MPKI: 0
PSCL4 LOAD      ACCESS:          0  HIT:          0  MISS:          0  HIT %:       -nan  MISS %:       -nan   MPKI: 0
PSCL4 RFO       ACCESS:          0  HIT:          0  MISS:          0  HIT %:       -nan  MISS %:       -nan   MPKI: 0
PSCL4 PREFETCH  ACCESS:          0  HIT:          0  MISS:          0  HIT %:       -nan  MISS %:       -nan   MPKI: 0
PSCL4 WRITEBACK ACCESS:          0  HIT:          0  MISS:          0  HIT %:       -nan  MISS %:       -nan   MPKI: 0
PSCL3 TOTAL     ACCESS:      33374  HIT:      33374  MISS:          0  HIT %:        100  MISS %:          0   MPKI: 0
PSCL3 LOAD      ACCESS:          0  HIT:          0  MISS:          0  HIT %:       -nan  MISS %:       -nan   MPKI: 0
PSCL3 RFO       ACCESS:          0  HIT:          0  MISS:          0  HIT %:       -nan  MISS %:       -nan   MPKI: 0
PSCL3 PREFETCH  ACCESS:          0  HIT:          0  MISS:          0  HIT %:       -nan  MISS %:       -nan   MPKI: 0
PSCL3 WRITEBACK ACCESS:          0  HIT:          0  MISS:          0  HIT %:       -nan  MISS %:       -nan   MPKI: 0
PSCL2 TOTAL     ACCESS:      33374  HIT:      33294  MISS:         80  HIT %:    99.7603  MISS %:   0.239708   MPKI: 0.0004
PSCL2 LOAD      ACCESS:          0  HIT:          0  MISS:          0  HIT %:       -nan  MISS %:       -nan   MPKI: 0
PSCL2 RFO       ACCESS:          0  HIT:          0  MISS:          0  HIT %:       -nan  MISS %:       -nan   MPKI: 0
PSCL2 PREFETCH  ACCESS:          0  HIT:          0  MISS:          0  HIT %:       -nan  MISS %:       -nan   MPKI: 0
PSCL2 WRITEBACK ACCESS:          0  HIT:          0  MISS:          0  HIT %:       -nan  MISS %:       -nan   MPKI: 0

stream: 
stream:times selected: 17227489
stream:pref_filled: 6472970
stream:pref_useful: 303260
stream:pref_late: 15876
stream:misses: 1692914
stream:misses_by_poll: 0

CS: 
CS:times selected: 4008985
CS:pref_filled: 2397080
CS:pref_useful: 2386008
CS:pref_late: 96746
CS:misses: 246617
CS:misses_by_poll: 6391

CPLX: 
CPLX:times selected: 13081417
CPLX:pref_filled: 284616
CPLX:pref_useful: 15085
CPLX:pref_late: 506
CPLX:misses: 5139395
CPLX:misses_by_poll: 186

NL_L1: 
NL:times selected: 107061
NL:pref_filled: 61304
NL:pref_useful: 3276
NL:pref_late: 182
NL:misses: 57836
NL:misses_by_poll: 13

total selections: 34424952
total_filled: 6800125
total_useful: 2136195
total_late: 115645
total_polluted: 6590
total_misses_after_warmup: 5489387
conflicts: 8758671
Degree Incremented Times: 4094960
Degree Decremented Times: 2201104

L1 IP Table Write Accesses: 548568562
L1 IP Table Read Accesses: 539809891
L1 RST Write Accesses: 145897351
L1 RST Read Accesses: 291794702
L1 CSPT Write Accesses: 145897351
L1 CSPT Read Accesses: 205298698
L1 RR Filter Tag Write Accesses: 610469778
L1 RR Filter Tag Read Accesses: 28376374888
L1 IP Table Tag Write Accesses: 582515780
L1 IP Table Tag Read Accesses: 582515780
L1 RST Tag Write Accesses: 0
L1 RST Tag Read Accesses: 1311497209
L1 RR Filter Write Accesses: 0
L1 RR Filter Read Accesses: 963198997
test: 23852007
LLC TOTAL     ACCESS:    9086167  HIT:    5367528  MISS:    3718639  HIT %:    59.0736  MISS %:    40.9264   MPKI: 18.5932
LLC LOAD      ACCESS:    3484856  HIT:    2657379  MISS:     827477  HIT %:    76.2551  MISS %:    23.7449   MPKI: 4.13739
LLC RFO       ACCESS:        292  HIT:          0  MISS:        292  HIT %:          0  MISS %:        100   MPKI: 0.00146
LLC PREFETCH  ACCESS:    5595780  HIT:    2709292  MISS:    2886488  HIT %:    48.4167  MISS %:    51.5833   MPKI: 14.4324
LLC WRITEBACK ACCESS:        356  HIT:        258  MISS:         98  HIT %:    72.4719  MISS %:    27.5281   MPKI: 0.00049

RAW hits: 2
Loads Generated: 60201743
Loads sent to L1D: 60201741
Stores Generated: 5046881
Stores sent to L1D: 5046881

CPU 2 cumulative IPC: 0.722288 instructions: 428113774 cycles: 592718684
ITLB TOTAL     ACCESS:  102051488  HIT:  102051488  MISS:          0  HIT %:        100  MISS %:          0   MPKI: 0
ITLB LOAD      ACCESS:          0  HIT:          0  MISS:          0  HIT %:       -nan  MISS %:       -nan   MPKI: 0
ITLB RFO       ACCESS:          0  HIT:          0  MISS:          0  HIT %:       -nan  MISS %:       -nan   MPKI: 0
ITLB PREFETCH  ACCESS:          0  HIT:          0  MISS:          0  HIT %:       -nan  MISS %:       -nan   MPKI: 0
ITLB WRITEBACK ACCESS:          0  HIT:          0  MISS:          0  HIT %:       -nan  MISS %:       -nan   MPKI: 0
DTLB TOTAL     ACCESS:   95213548  HIT:   91846239  MISS:    3367309  HIT %:    96.4634  MISS %:    3.53659   MPKI: 7.86545
DTLB LOAD      ACCESS:          0  HIT:          0  MISS:          0  HIT %:       -nan  MISS %:       -nan   MPKI: 0
DTLB RFO       ACCESS:          0  HIT:          0  MISS:          0  HIT %:       -nan  MISS %:       -nan   MPKI: 0
DTLB PREFETCH  ACCESS:          0  HIT:          0  MISS:          0  HIT %:       -nan  MISS %:       -nan   MPKI: 0
DTLB WRITEBACK ACCESS:          0  HIT:          0  MISS:          0  HIT %:       -nan  MISS %:       -nan   MPKI: 0
STLB TOTAL     ACCESS:   26197375  HIT:   26118588  MISS:      78787  HIT %:    99.6993  MISS %:   0.300744   MPKI: 0.184033
STLB LOAD      ACCESS:          0  HIT:          0  MISS:          0  HIT %:       -nan  MISS %:       -nan   MPKI: 0
STLB RFO       ACCESS:          0  HIT:          0  MISS:          0  HIT %:       -nan  MISS %:       -nan   MPKI: 0
STLB PREFETCH  ACCESS:          0  HIT:          0  MISS:          0  HIT %:       -nan  MISS %:       -nan   MPKI: 0
STLB WRITEBACK ACCESS:          0  HIT:          0  MISS:          0  HIT %:       -nan  MISS %:       -nan   MPKI: 0
L1D TOTAL     ACCESS:  136534792  HIT:  110212348  MISS:   26322444  HIT %:    80.7211  MISS %:    19.2789   MPKI: 61.4847
L1D LOAD      ACCESS:   90479175  HIT:   80509297  MISS:    9969878  HIT %:     88.981  MISS %:     11.019   MPKI: 23.2879
L1D RFO       ACCESS:    2120389  HIT:    1049759  MISS:    1070630  HIT %:    49.5078  MISS %:    50.4922   MPKI: 2.50081
L1D PREFETCH  ACCESS:   43935228  HIT:   28653292  MISS:   15281936  HIT %:    65.2171  MISS %:    34.7829   MPKI: 35.696
L1D WRITEBACK ACCESS:          0  HIT:          0  MISS:          0  HIT %:       -nan  MISS %:       -nan   MPKI: 0
L1I TOTAL     ACCESS:  102079024  HIT:  102079024  MISS:          0  HIT %:        100  MISS %:          0   MPKI: 0
L1I LOAD      ACCESS:  102079024  HIT:  102079024  MISS:          0  HIT %:        100  MISS %:          0   MPKI: 0
L1I RFO       ACCESS:          0  HIT:          0  MISS:          0  HIT %:       -nan  MISS %:       -nan   MPKI: 0
L1I PREFETCH  ACCESS:          0  HIT:          0  MISS:          0  HIT %:       -nan  MISS %:       -nan   MPKI: 0
L1I WRITEBACK ACCESS:          0  HIT:          0  MISS:          0  HIT %:       -nan  MISS %:       -nan   MPKI: 0
L2C TOTAL     ACCESS:   27472013  HIT:   19999304  MISS:    7472709  HIT %:    72.7988  MISS %:    27.2012   MPKI: 17.455
L2C LOAD      ACCESS:    9075944  HIT:    7833517  MISS:    1242427  HIT %:    86.3108  MISS %:    13.6892   MPKI: 2.9021
L2C RFO       ACCESS:    1070630  HIT:          1  MISS:    1070629  HIT %: 9.34029e-05  MISS %:    99.9999   MPKI: 2.5008
L2C PREFETCH  ACCESS:   16175870  HIT:   11039337  MISS:    5136533  HIT %:    68.2457  MISS %:    31.7543   MPKI: 11.9981
L2C WRITEBACK ACCESS:    1070652  HIT:    1058674  MISS:      11978  HIT %:    98.8812  MISS %:    1.11876   MPKI: 0.0279785
PSCL5 TOTAL     ACCESS:      78787  HIT:      78787  MISS:          0  HIT %:        100  MISS %:          0   MPKI: 0
PSCL5 LOAD      ACCESS:          0  HIT:          0  MISS:          0  HIT %:       -nan  MISS %:       -nan   MPKI: 0
PSCL5 RFO       ACCESS:          0  HIT:          0  MISS:          0  HIT %:       -nan  MISS %:       -nan   MPKI: 0
PSCL5 PREFETCH  ACCESS:          0  HIT:          0  MISS:          0  HIT %:       -nan  MISS %:       -nan   MPKI: 0
PSCL5 WRITEBACK ACCESS:          0  HIT:          0  MISS:          0  HIT %:       -nan  MISS %:       -nan   MPKI: 0
PSCL4 TOTAL     ACCESS:      78787  HIT:      78787  MISS:          0  HIT %:        100  MISS %:          0   MPKI: 0
PSCL4 LOAD      ACCESS:          0  HIT:          0  MISS:          0  HIT %:       -nan  MISS %:       -nan   MPKI: 0
PSCL4 RFO       ACCESS:          0  HIT:          0  MISS:          0  HIT %:       -nan  MISS %:       -nan   MPKI: 0
PSCL4 PREFETCH  ACCESS:          0  HIT:          0  MISS:          0  HIT %:       -nan  MISS %:       -nan   MPKI: 0
PSCL4 WRITEBACK ACCESS:          0  HIT:          0  MISS:          0  HIT %:       -nan  MISS %:       -nan   MPKI: 0
PSCL3 TOTAL     ACCESS:      78787  HIT:      78787  MISS:          0  HIT %:        100  MISS %:          0   MPKI: 0
PSCL3 LOAD      ACCESS:          0  HIT:          0  MISS:          0  HIT %:       -nan  MISS %:       -nan   MPKI: 0
PSCL3 RFO       ACCESS:          0  HIT:          0  MISS:          0  HIT %:       -nan  MISS %:       -nan   MPKI: 0
PSCL3 PREFETCH  ACCESS:          0  HIT:          0  MISS:          0  HIT %:       -nan  MISS %:       -nan   MPKI: 0
PSCL3 WRITEBACK ACCESS:          0  HIT:          0  MISS:          0  HIT %:       -nan  MISS %:       -nan   MPKI: 0
PSCL2 TOTAL     ACCESS:      78787  HIT:      78618  MISS:        169  HIT %:    99.7855  MISS %:   0.214502   MPKI: 0.000394755
PSCL2 LOAD      ACCESS:          0  HIT:          0  MISS:          0  HIT %:       -nan  MISS %:       -nan   MPKI: 0
PSCL2 RFO       ACCESS:          0  HIT:          0  MISS:          0  HIT %:       -nan  MISS %:       -nan   MPKI: 0
PSCL2 PREFETCH  ACCESS:          0  HIT:          0  MISS:          0  HIT %:       -nan  MISS %:       -nan   MPKI: 0
PSCL2 WRITEBACK ACCESS:          0  HIT:          0  MISS:          0  HIT %:       -nan  MISS %:       -nan   MPKI: 0

stream: 
stream:times selected: 31549061
stream:pref_filled: 13028617
stream:pref_useful: 3072484
stream:pref_late: 120166
stream:misses: 2174289
stream:misses_by_poll: 0

CS: 
CS:times selected: 6526707
CS:pref_filled: 2829928
CS:pref_useful: 2780879
CS:pref_late: 758759
CS:misses: 1634942
CS:misses_by_poll: 10043

CPLX: 
CPLX:times selected: 24833818
CPLX:pref_filled: 765368
CPLX:pref_useful: 242925
CPLX:pref_late: 8135
CPLX:misses: 7413904
CPLX:misses_by_poll: 1096

NL_L1: 
NL:times selected: 207366
NL:pref_filled: 89389
NL:pref_useful: 10891
NL:pref_late: 1061
NL:misses: 95667
NL:misses_by_poll: 2

total selections: 63116952
total_filled: 15281936
total_useful: 4703967
total_late: 896812
total_polluted: 11141
total_misses_after_warmup: 11293755
conflicts: 8758671
Degree Incremented Times: 4094960
Degree Decremented Times: 2201104

L1 IP Table Write Accesses: 548568562
L1 IP Table Read Accesses: 539809891
L1 RST Write Accesses: 145897351
L1 RST Read Accesses: 291794702
L1 CSPT Write Accesses: 145897351
L1 CSPT Read Accesses: 205298698
L1 RR Filter Tag Write Accesses: 610469778
L1 RR Filter Tag Read Accesses: 28376374888
L1 IP Table Tag Write Accesses: 582515780
L1 IP Table Tag Read Accesses: 582515780
L1 RST Tag Write Accesses: 0
L1 RST Tag Read Accesses: 1311497209
L1 RR Filter Write Accesses: 0
L1 RR Filter Read Accesses: 963198997
test: 23852007
LLC TOTAL     ACCESS:    8531383  HIT:    3371179  MISS:    5160204  HIT %:     39.515  MISS %:     60.485   MPKI: 12.0533
LLC LOAD      ACCESS:    1242427  HIT:    1109911  MISS:     132516  HIT %:    89.3341  MISS %:    10.6659   MPKI: 0.309535
LLC RFO       ACCESS:    1070629  HIT:          0  MISS:    1070629  HIT %:          0  MISS %:        100   MPKI: 2.5008
LLC PREFETCH  ACCESS:    5136533  HIT:    1201317  MISS:    3935216  HIT %:    23.3877  MISS %:    76.6123   MPKI: 9.19199
LLC WRITEBACK ACCESS:    1070652  HIT:    1058886  MISS:      11766  HIT %:     98.901  MISS %:    1.09896   MPKI: 0.0274833

RAW hits: 3866
Loads Generated: 136804559
Loads sent to L1D: 136800691
Stores Generated: 12240949
Stores sent to L1D: 12240949

CPU 3 cumulative IPC: 1.43187 instructions: 848694879 cycles: 592718684
ITLB TOTAL     ACCESS:  108503466  HIT:  108503466  MISS:          0  HIT %:        100  MISS %:          0   MPKI: 0
ITLB LOAD      ACCESS:          0  HIT:          0  MISS:          0  HIT %:       -nan  MISS %:       -nan   MPKI: 0
ITLB RFO       ACCESS:          0  HIT:          0  MISS:          0  HIT %:       -nan  MISS %:       -nan   MPKI: 0
ITLB PREFETCH  ACCESS:          0  HIT:          0  MISS:          0  HIT %:       -nan  MISS %:       -nan   MPKI: 0
ITLB WRITEBACK ACCESS:          0  HIT:          0  MISS:          0  HIT %:       -nan  MISS %:       -nan   MPKI: 0
DTLB TOTAL     ACCESS:  247259511  HIT:  246046048  MISS:    1213463  HIT %:    99.5092  MISS %:   0.490765   MPKI: 1.4298
DTLB LOAD      ACCESS:          0  HIT:          0  MISS:          0  HIT %:       -nan  MISS %:       -nan   MPKI: 0
DTLB RFO       ACCESS:          0  HIT:          0  MISS:          0  HIT %:       -nan  MISS %:       -nan   MPKI: 0
DTLB PREFETCH  ACCESS:          0  HIT:          0  MISS:          0  HIT %:       -nan  MISS %:       -nan   MPKI: 0
DTLB WRITEBACK ACCESS:          0  HIT:          0  MISS:          0  HIT %:       -nan  MISS %:       -nan   MPKI: 0
STLB TOTAL     ACCESS:   51988757  HIT:   51736769  MISS:     251988  HIT %:    99.5153  MISS %:   0.484697   MPKI: 0.296912
STLB LOAD      ACCESS:          0  HIT:          0  MISS:          0  HIT %:       -nan  MISS %:       -nan   MPKI: 0
STLB RFO       ACCESS:          0  HIT:          0  MISS:          0  HIT %:       -nan  MISS %:       -nan   MPKI: 0
STLB PREFETCH  ACCESS:          0  HIT:          0  MISS:          0  HIT %:       -nan  MISS %:       -nan   MPKI: 0
STLB WRITEBACK ACCESS:          0  HIT:          0  MISS:          0  HIT %:       -nan  MISS %:       -nan   MPKI: 0
L1D TOTAL     ACCESS:  468317328  HIT:  451290353  MISS:   17026975  HIT %:    96.3642  MISS %:    3.63578   MPKI: 20.0625
L1D LOAD      ACCESS:  259525759  HIT:  258273400  MISS:    1252359  HIT %:    99.5174  MISS %:   0.482557   MPKI: 1.47563
L1D RFO       ACCESS:   46029459  HIT:   45615938  MISS:     413521  HIT %:    99.1016  MISS %:   0.898383   MPKI: 0.487243
L1D PREFETCH  ACCESS:  162762110  HIT:  147401015  MISS:   15361095  HIT %:    90.5622  MISS %:    9.43776   MPKI: 18.0997
L1D WRITEBACK ACCESS:          0  HIT:          0  MISS:          0  HIT %:       -nan  MISS %:       -nan   MPKI: 0
L1I TOTAL     ACCESS:  159891911  HIT:  159891911  MISS:          0  HIT %:        100  MISS %:          0   MPKI: 0
L1I LOAD      ACCESS:  159891911  HIT:  159891911  MISS:          0  HIT %:        100  MISS %:          0   MPKI: 0
L1I RFO       ACCESS:          0  HIT:          0  MISS:          0  HIT %:       -nan  MISS %:       -nan   MPKI: 0
L1I PREFETCH  ACCESS:          0  HIT:          0  MISS:          0  HIT %:       -nan  MISS %:       -nan   MPKI: 0
L1I WRITEBACK ACCESS:          0  HIT:          0  MISS:          0  HIT %:       -nan  MISS %:       -nan   MPKI: 0
L2C TOTAL     ACCESS:   17698763  HIT:    1376141  MISS:   16322622  HIT %:    7.77535  MISS %:    92.2246   MPKI: 19.2326
L2C LOAD      ACCESS:     584267  HIT:      22847  MISS:     561420  HIT %:    3.91037  MISS %:    96.0896   MPKI: 0.66151
L2C RFO       ACCESS:     413521  HIT:          0  MISS:     413521  HIT %:          0  MISS %:        100   MPKI: 0.487243
L2C PREFETCH  ACCESS:   16029187  HIT:     720250  MISS:   15308937  HIT %:    4.49337  MISS %:    95.5066   MPKI: 18.0382
L2C WRITEBACK ACCESS:     419787  HIT:     414760  MISS:       5027  HIT %:    98.8025  MISS %:    1.19751   MPKI: 0.00592321
PSCL5 TOTAL     ACCESS:     251988  HIT:     251988  MISS:          0  HIT %:        100  MISS %:          0   MPKI: 0
PSCL5 LOAD      ACCESS:          0  HIT:          0  MISS:          0  HIT %:       -nan  MISS %:       -nan   MPKI: 0
PSCL5 RFO       ACCESS:          0  HIT:          0  MISS:          0  HIT %:       -nan  MISS %:       -nan   MPKI: 0
PSCL5 PREFETCH  ACCESS:          0  HIT:          0  MISS:          0  HIT %:       -nan  MISS %:       -nan   MPKI: 0
PSCL5 WRITEBACK ACCESS:          0  HIT:          0  MISS:          0  HIT %:       -nan  MISS %:       -nan   MPKI: 0
PSCL4 TOTAL     ACCESS:     251988  HIT:     251988  MISS:          0  HIT %:        100  MISS %:          0   MPKI: 0
PSCL4 LOAD      ACCESS:          0  HIT:          0  MISS:          0  HIT %:       -nan  MISS %:       -nan   MPKI: 0
PSCL4 RFO       ACCESS:          0  HIT:          0  MISS:          0  HIT %:       -nan  MISS %:       -nan   MPKI: 0
PSCL4 PREFETCH  ACCESS:          0  HIT:          0  MISS:          0  HIT %:       -nan  MISS %:       -nan   MPKI: 0
PSCL4 WRITEBACK ACCESS:          0  HIT:          0  MISS:          0  HIT %:       -nan  MISS %:       -nan   MPKI: 0
PSCL3 TOTAL     ACCESS:     251988  HIT:     251988  MISS:          0  HIT %:        100  MISS %:          0   MPKI: 0
PSCL3 LOAD      ACCESS:          0  HIT:          0  MISS:          0  HIT %:       -nan  MISS %:       -nan   MPKI: 0
PSCL3 RFO       ACCESS:          0  HIT:          0  MISS:          0  HIT %:       -nan  MISS %:       -nan   MPKI: 0
PSCL3 PREFETCH  ACCESS:          0  HIT:          0  MISS:          0  HIT %:       -nan  MISS %:       -nan   MPKI: 0
PSCL3 WRITEBACK ACCESS:          0  HIT:          0  MISS:          0  HIT %:       -nan  MISS %:       -nan   MPKI: 0
PSCL2 TOTAL     ACCESS:     251988  HIT:     251507  MISS:        481  HIT %:    99.8091  MISS %:   0.190882   MPKI: 0.000566753
PSCL2 LOAD      ACCESS:          0  HIT:          0  MISS:          0  HIT %:       -nan  MISS %:       -nan   MPKI: 0
PSCL2 RFO       ACCESS:          0  HIT:          0  MISS:          0  HIT %:       -nan  MISS %:       -nan   MPKI: 0
PSCL2 PREFETCH  ACCESS:          0  HIT:          0  MISS:          0  HIT %:       -nan  MISS %:       -nan   MPKI: 0
PSCL2 WRITEBACK ACCESS:          0  HIT:          0  MISS:          0  HIT %:       -nan  MISS %:       -nan   MPKI: 0

stream: 
stream:times selected: 103438662
stream:pref_filled: 16113885
stream:pref_useful: 16112323
stream:pref_late: 644587
stream:misses: 4576
stream:misses_by_poll: 0

CS: 
CS:times selected: 98034869
CS:pref_filled: 133908
CS:pref_useful: 133878
CS:pref_late: 15400
CS:misses: 1415145
CS:misses_by_poll: 1110

CPLX: 
CPLX:times selected: 5403574
CPLX:pref_filled: 246285
CPLX:pref_useful: 183134
CPLX:pref_late: 6150
CPLX:misses: 74217
CPLX:misses_by_poll: 923

NL_L1: 
NL:times selected: 33867
NL:pref_filled: 1285
NL:pref_useful: 1284
NL:pref_late: 165
NL:misses: 407
NL:misses_by_poll: 0

total selections: 206910972
total_filled: 15361095
total_useful: 15301137
total_late: 671561
total_polluted: 2033
total_misses_after_warmup: 1488559
conflicts: 8758671
Degree Incremented Times: 4094960
Degree Decremented Times: 2201104

L1 IP Table Write Accesses: 548568562
L1 IP Table Read Accesses: 539809891
L1 RST Write Accesses: 145897351
L1 RST Read Accesses: 291794702
L1 CSPT Write Accesses: 145897351
L1 CSPT Read Accesses: 205298698
L1 RR Filter Tag Write Accesses: 610469778
L1 RR Filter Tag Read Accesses: 28376374888
L1 IP Table Tag Write Accesses: 582515780
L1 IP Table Tag Read Accesses: 582515780
L1 RST Tag Write Accesses: 0
L1 RST Tag Read Accesses: 1311497209
L1 RR Filter Write Accesses: 0
L1 RR Filter Read Accesses: 963198997
test: 23852007
LLC TOTAL     ACCESS:   16731228  HIT:     567111  MISS:   16164117  HIT %:    3.38954  MISS %:    96.6105   MPKI: 19.0459
LLC LOAD      ACCESS:     561420  HIT:       3130  MISS:     558290  HIT %:   0.557515  MISS %:    99.4425   MPKI: 0.657822
LLC RFO       ACCESS:     413521  HIT:          0  MISS:     413521  HIT %:          0  MISS %:        100   MPKI: 0.487243
LLC PREFETCH  ACCESS:   15308937  HIT:     153534  MISS:   15155403  HIT %:     1.0029  MISS %:    98.9971   MPKI: 17.8573
LLC WRITEBACK ACCESS:     413633  HIT:     408706  MISS:       4927  HIT %:    98.8088  MISS %:    1.19115   MPKI: 0.00580538

RAW hits: 10647093
Loads Generated: 364770045
Loads sent to L1D: 354122976
Stores Generated: 47810434
Stores sent to L1D: 47810434

Region of Interest Statistics

CPU 0 cumulative IPC: 0.906126 instructions: 200000000 cycles: 220719857
ITLB TOTAL     ACCESS:   33105366  HIT:   33105366  MISS:          0  HIT %:        100  MISS %:          0   MPKI: 0
ITLB LOAD TRANSLATION ACCESS:   33105366  HIT:   33105366  MISS:          0  HIT %:        100  MISS %:          0   MPKI: 0
ITLB PREFETCH  REQUESTED:          0  ISSUED:          0  USEFUL:          0  USELESS:          0
ITLB USEFUL LOAD PREFETCHES:          0 PREFETCH ISSUED TO LOWER LEVEL:          0  ACCURACY: -nan
ITLB TIMELY PREFETCHES:          0 LATE PREFETCHES: 0 DROPPED PREFETCHES: 0
ITLB PREFETCHES SAME FILL-ORIGIN LEVEL: 0 DIFFERENT FILL-ORIGIN LEVEL: 0
ITLB AVERAGE MISS LATENCY: -nan cycles
ITLB RQ	ACCESS:  106083129	FORWARD:          0	MERGED:   18797902	TO_CACHE:   87285227

DTLB TOTAL     ACCESS:   59634555  HIT:   54505936  MISS:    5128619  HIT %:    91.3999  MISS %:    8.60008   MPKI: 25.6431
DTLB LOAD TRANSLATION ACCESS:   59634555  HIT:   54505936  MISS:    5128619  HIT %:    91.3999  MISS %:    8.60008   MPKI: 25.6431
DTLB PREFETCH  REQUESTED:          0  ISSUED:          0  USEFUL:          0  USELESS:          0
DTLB USEFUL LOAD PREFETCHES:          0 PREFETCH ISSUED TO LOWER LEVEL:          0  ACCURACY: -nan
DTLB TIMELY PREFETCHES:          0 LATE PREFETCHES: 0 DROPPED PREFETCHES: 0
DTLB PREFETCHES SAME FILL-ORIGIN LEVEL: 0 DIFFERENT FILL-ORIGIN LEVEL: 0
DTLB AVERAGE MISS LATENCY: 72.7304 cycles
DTLB RQ	ACCESS:  257969716	FORWARD:          0	MERGED:  100660529	TO_CACHE:  157309187

STLB TOTAL     ACCESS:    6633159  HIT:    4691010  MISS:    1942149  HIT %:    70.7206  MISS %:    29.2794   MPKI: 9.71074
STLB LOAD TRANSLATION ACCESS:    5128619  HIT:    3186470  MISS:    1942149  HIT %:    62.1312  MISS %:    37.8688   MPKI: 9.71074
STLB TRANSLATION FROM L1D PREFETCHER ACCESS:    1504540  HIT:    1504540  MISS:          0  HIT %:        100  MISS %:          0   MPKI: 0
STLB PREFETCH  REQUESTED:          0  ISSUED:          0  USEFUL:          0  USELESS:          0
STLB USEFUL LOAD PREFETCHES:          0 PREFETCH ISSUED TO LOWER LEVEL:          0  ACCURACY: -nan
STLB TIMELY PREFETCHES:          0 LATE PREFETCHES: 0 DROPPED PREFETCHES: 0
STLB PREFETCHES SAME FILL-ORIGIN LEVEL: 0 DIFFERENT FILL-ORIGIN LEVEL: 0
STLB AVERAGE MISS LATENCY: 125.719 cycles
STLB RQ	ACCESS:   36026458	FORWARD:          0	MERGED:   18242593	TO_CACHE:   17783865

STLB Hit, L1D data hit: 0
STLB Hit, L2C data hit: 0
STLB Hit, LLC data hit: 0
STLB Hit, LLC data miss: 0
STLB STLB hints to L2: 0
L1D TOTAL     ACCESS:  105554664  HIT:  104004441  MISS:    1550223  HIT %:    98.5314  MISS %:    1.46864   MPKI: 7.75112
L1D LOAD      ACCESS:   65509676  HIT:   65359817  MISS:     149859  HIT %:    99.7712  MISS %:   0.228759   MPKI: 0.749295
L1D RFO       ACCESS:   31605874  HIT:   31300481  MISS:     305393  HIT %:    99.0337  MISS %:   0.966254   MPKI: 1.52696
L1D PREFETCH  ACCESS:    8439114  HIT:    7344143  MISS:    1094971  HIT %:     87.025  MISS %:     12.975   MPKI: 5.47485
L1D PREFETCH  REQUESTED:   46178110  ISSUED:   44395565  USEFUL:    2776286  USELESS:     100430
L1D USEFUL LOAD PREFETCHES:    2776286 PREFETCH ISSUED TO LOWER LEVEL:    2877607  ACCURACY: 96.479
L1D TIMELY PREFETCHES:    2776286 LATE PREFETCHES: 944 DROPPED PREFETCHES: 0
L1D PREFETCHES SAME FILL-ORIGIN LEVEL: 2877607 DIFFERENT FILL-ORIGIN LEVEL: 0
L1D AVERAGE MISS LATENCY: 977.431 cycles
L1D RQ	ACCESS:  268890163	FORWARD:          0	MERGED:   94823408	TO_CACHE:  172941683
L1D WQ	ACCESS:   89108702	FORWARD:    1125072	MERGED:    4080669	TO_CACHE:   85028033
L1D PQ	ACCESS:   22199121	FORWARD:          0	MERGED:       2677	TO_CACHE:   22196444

L1D UNIQUE REGIONS ACCESSED: 0
L1D REGIONS CONFLICTS: 0
L1D Cross Page Prefetch Requests: 0
L1D Same Page Prefetch Requests: 24248405
L1D ROI Sum of L1D PQ occupancy: 419145004
L1D PREFETCHES PUSHED FROM L2C: 0
L1I TOTAL     ACCESS:   40227786  HIT:   40227786  MISS:          0  HIT %:        100  MISS %:          0   MPKI: 0
L1I LOAD      ACCESS:   40227786  HIT:   40227786  MISS:          0  HIT %:        100  MISS %:          0   MPKI: 0
L1I PREFETCH  REQUESTED:          0  ISSUED:          0  USEFUL:          0  USELESS:          0
L1I USEFUL LOAD PREFETCHES:          0 PREFETCH ISSUED TO LOWER LEVEL:          0  ACCURACY: -nan
L1I TIMELY PREFETCHES:          0 LATE PREFETCHES: 0 DROPPED PREFETCHES: 0
L1I PREFETCHES SAME FILL-ORIGIN LEVEL: 0 DIFFERENT FILL-ORIGIN LEVEL: 0
L1I AVERAGE MISS LATENCY: -nan cycles
L1I RQ	ACCESS:  171010488	FORWARD:          0	MERGED:   64927359	TO_CACHE:  106083129

BTB TOTAL     ACCESS:     257850  HIT:     257843  MISS:          7  HIT %:    99.9973  MISS %: 0.00271476   MPKI: 3.5e-05
BTB BRANCH_DIRECT_JUMP	ACCESS:       2122  HIT:       2120  MISS:          2
BTB BRANCH_INDIRECT	ACCESS:          0  HIT:          0  MISS:          0
BTB BRANCH_CONDITIONAL	ACCESS:     255728  HIT:     255723  MISS:          5
BTB BRANCH_DIRECT_CALL	ACCESS:          0  HIT:          0  MISS:          0
BTB BRANCH_INDIRECT_CALL	ACCESS:          0  HIT:          0  MISS:          0
BTB BRANCH_RETURN	ACCESS:          0  HIT:          0  MISS:          0
BTB BRANCH_OTHER ACCESS:          0  HIT:          0  MISS:          0

L2C TOTAL     ACCESS:    5578574  HIT:    4479979  MISS:    1098595  HIT %:    80.3069  MISS %:    19.6931   MPKI: 5.49298
L2C LOAD      ACCESS:     149561  HIT:      79754  MISS:      69807  HIT %:    53.3254  MISS %:    46.6746   MPKI: 0.349035
L2C DATA LOAD MPKI: 0.349035
L2C INSTRUCTION LOAD MPKI: 0
L2C RFO       ACCESS:     305393  HIT:        719  MISS:     304674  HIT %:   0.235434  MISS %:    99.7646   MPKI: 1.52337
L2C PREFETCH  ACCESS:    1095268  HIT:     390201  MISS:     705067  HIT %:    35.6261  MISS %:    64.3739   MPKI: 3.52534
L2C DATA PREFETCH MPKI: 3.52534
L2C INSTRUCTION PREFETCH MPKI: 0
L2C WRITEBACK ACCESS:     317331  HIT:     301609  MISS:      15722  HIT %:    95.0456  MISS %:    4.95445   MPKI: 0.07861
L2C LOAD TRANSLATION ACCESS:    3711021  HIT:    3707696  MISS:       3325  HIT %:    99.9104  MISS %:   0.089598   MPKI: 0.016625
L2C PREFETCH  REQUESTED:          0  ISSUED:          0  USEFUL:     133797  USELESS:    1705393
L2C USEFUL LOAD PREFETCHES:     133797 PREFETCH ISSUED TO LOWER LEVEL:    1839092  ACCURACY: 7.27517
L2C TIMELY PREFETCHES:     133797 LATE PREFETCHES: 0 DROPPED PREFETCHES: 0
L2C PREFETCHES SAME FILL-ORIGIN LEVEL: 0 DIFFERENT FILL-ORIGIN LEVEL: 0
L2C AVERAGE MISS LATENCY: 1333.39 cycles
L2C RQ	ACCESS:   10914618	FORWARD:          0	MERGED:          0	TO_CACHE:   10914616
L2C WQ	ACCESS:     820172	FORWARD:          2	MERGED:          0	TO_CACHE:     820172
L2C PQ	ACCESS:    2877607	FORWARD:          0	MERGED:          0	TO_CACHE:    2877607

L2C Instructions Evicting Data 0
L2C Translations Evicting Data 7985
L2C Data Evicting Data 2801879
L2C Instructions Evicting Instructions 0
L2C Translations Evicting Instructions 0
L2C Data Evicting Instructions 0
L2C Instructions Evicting Translations 0
L2C Translations Evicting Translations 214
L2C Data Evicting Translations 7897
L2C Dense regions hint from L2: 0
PSCL5 TOTAL     ACCESS:    1942149  HIT:    1942149  MISS:          0  HIT %:        100  MISS %:          0   MPKI: 0
PSCL5 LOAD TRANSLATION ACCESS:    1942149  HIT:    1942149  MISS:          0  HIT %:        100  MISS %:          0   MPKI: 0
PSCL5 PREFETCH  REQUESTED:          0  ISSUED:          0  USEFUL:          0  USELESS:          0
PSCL5 USEFUL LOAD PREFETCHES:          0 PREFETCH ISSUED TO LOWER LEVEL:          0  ACCURACY: -nan
PSCL5 TIMELY PREFETCHES:          0 LATE PREFETCHES: 0 DROPPED PREFETCHES: 0
PSCL5 PREFETCHES SAME FILL-ORIGIN LEVEL: 0 DIFFERENT FILL-ORIGIN LEVEL: 0

PSCL4 TOTAL     ACCESS:    1942149  HIT:    1942149  MISS:          0  HIT %:        100  MISS %:          0   MPKI: 0
PSCL4 LOAD TRANSLATION ACCESS:    1942149  HIT:    1942149  MISS:          0  HIT %:        100  MISS %:          0   MPKI: 0
PSCL4 PREFETCH  REQUESTED:          0  ISSUED:          0  USEFUL:          0  USELESS:          0
PSCL4 USEFUL LOAD PREFETCHES:          0 PREFETCH ISSUED TO LOWER LEVEL:          0  ACCURACY: -nan
PSCL4 TIMELY PREFETCHES:          0 LATE PREFETCHES: 0 DROPPED PREFETCHES: 0
PSCL4 PREFETCHES SAME FILL-ORIGIN LEVEL: 0 DIFFERENT FILL-ORIGIN LEVEL: 0

PSCL3 TOTAL     ACCESS:    1942149  HIT:    1942149  MISS:          0  HIT %:        100  MISS %:          0   MPKI: 0
PSCL3 LOAD TRANSLATION ACCESS:    1942149  HIT:    1942149  MISS:          0  HIT %:        100  MISS %:          0   MPKI: 0
PSCL3 PREFETCH  REQUESTED:          0  ISSUED:          0  USEFUL:          0  USELESS:          0
PSCL3 USEFUL LOAD PREFETCHES:          0 PREFETCH ISSUED TO LOWER LEVEL:          0  ACCURACY: -nan
PSCL3 TIMELY PREFETCHES:          0 LATE PREFETCHES: 0 DROPPED PREFETCHES: 0
PSCL3 PREFETCHES SAME FILL-ORIGIN LEVEL: 0 DIFFERENT FILL-ORIGIN LEVEL: 0

PSCL2 TOTAL     ACCESS:    1942149  HIT:     173277  MISS:    1768872  HIT %:    8.92192  MISS %:    91.0781   MPKI: 8.84436
PSCL2 LOAD TRANSLATION ACCESS:    1942149  HIT:     173277  MISS:    1768872  HIT %:    8.92192  MISS %:    91.0781   MPKI: 8.84436
PSCL2 PREFETCH  REQUESTED:          0  ISSUED:          0  USEFUL:          0  USELESS:          0
PSCL2 USEFUL LOAD PREFETCHES:          0 PREFETCH ISSUED TO LOWER LEVEL:          0  ACCURACY: -nan
PSCL2 TIMELY PREFETCHES:          0 LATE PREFETCHES: 0 DROPPED PREFETCHES: 0
PSCL2 PREFETCHES SAME FILL-ORIGIN LEVEL: 0 DIFFERENT FILL-ORIGIN LEVEL: 0

LLC TOTAL     ACCESS:    1388766  HIT:     286458  MISS:    1102308  HIT %:    20.6268  MISS %:    79.3732   MPKI: 5.51154
LLC LOAD      ACCESS:      69807  HIT:       5316  MISS:      64491  HIT %:    7.61528  MISS %:    92.3847   MPKI: 0.322455
LLC RFO       ACCESS:     304674  HIT:       1367  MISS:     303307  HIT %:   0.448676  MISS %:    99.5513   MPKI: 1.51653
LLC PREFETCH  ACCESS:     705067  HIT:      34533  MISS:     670534  HIT %:    4.89783  MISS %:    95.1022   MPKI: 3.35267
LLC WRITEBACK ACCESS:     305893  HIT:     244371  MISS:      61522  HIT %:    79.8877  MISS %:    20.1123   MPKI: 0.30761
LLC LOAD TRANSLATION ACCESS:       3325  HIT:        871  MISS:       2454  HIT %:    26.1955  MISS %:    73.8045   MPKI: 0.01227
LLC PREFETCH  REQUESTED:          0  ISSUED:          0  USEFUL:     224109  USELESS:   23510704
LLC USEFUL LOAD PREFETCHES:     224109 PREFETCH ISSUED TO LOWER LEVEL:   23729583  ACCURACY: 0.944429
LLC TIMELY PREFETCHES:     224109 LATE PREFETCHES: 0 DROPPED PREFETCHES: 0
LLC PREFETCHES SAME FILL-ORIGIN LEVEL: 0 DIFFERENT FILL-ORIGIN LEVEL: 0
LLC AVERAGE MISS LATENCY: 8830.57 cycles
LLC RQ	ACCESS:    7801771	FORWARD:          0	MERGED:          0	TO_CACHE:    7801771
LLC WQ	ACCESS:    2274631	FORWARD:          0	MERGED:          0	TO_CACHE:    2274631
LLC PQ	ACCESS:   27880354	FORWARD:          0	MERGED:          0	TO_CACHE:   27880354

LLC Dense regions hint to LLC: 0

RAW hits: 14225465
Loads Generated: 116047522
Loads sent to L1D: 101822057
Stores Generated: 33831803
Stores sent to L1D: 33831803
Major fault: 0 Minor fault: 23075
Allocated PAGES: 376582

CPU 1 cumulative IPC: 0.337428 instructions: 200000000 cycles: 592718684
ITLB TOTAL     ACCESS:   36476660  HIT:   36476653  MISS:          7  HIT %:        100  MISS %: 1.91904e-05   MPKI: 3.5e-05
ITLB LOAD TRANSLATION ACCESS:   36476660  HIT:   36476653  MISS:          7  HIT %:        100  MISS %: 1.91904e-05   MPKI: 3.5e-05
ITLB PREFETCH  REQUESTED:          0  ISSUED:          0  USEFUL:          0  USELESS:          0
ITLB USEFUL LOAD PREFETCHES:          0 PREFETCH ISSUED TO LOWER LEVEL:          0  ACCURACY: -nan
ITLB TIMELY PREFETCHES:          0 LATE PREFETCHES: 0 DROPPED PREFETCHES: 0
ITLB PREFETCHES SAME FILL-ORIGIN LEVEL: 0 DIFFERENT FILL-ORIGIN LEVEL: 0
ITLB AVERAGE MISS LATENCY: 544.429 cycles
ITLB RQ	ACCESS:   39000921	FORWARD:          0	MERGED:    2524260	TO_CACHE:   36476661

DTLB TOTAL     ACCESS:   45870702  HIT:   41706389  MISS:    4164313  HIT %:    90.9216  MISS %:    9.07837   MPKI: 20.8216
DTLB LOAD TRANSLATION ACCESS:   45870702  HIT:   41706389  MISS:    4164313  HIT %:    90.9216  MISS %:    9.07837   MPKI: 20.8216
DTLB PREFETCH  REQUESTED:          0  ISSUED:          0  USEFUL:          0  USELESS:          0
DTLB USEFUL LOAD PREFETCHES:          0 PREFETCH ISSUED TO LOWER LEVEL:          0  ACCURACY: -nan
DTLB TIMELY PREFETCHES:          0 LATE PREFETCHES: 0 DROPPED PREFETCHES: 0
DTLB PREFETCHES SAME FILL-ORIGIN LEVEL: 0 DIFFERENT FILL-ORIGIN LEVEL: 0
[...]
LLC LOAD TRANSLATION ACCESS:       4319  HIT:        556  MISS:       3763  HIT %:    12.8734  MISS %:    87.1266   MPKI: 0.018815
LLC PREFETCH  REQUESTED:          0  ISSUED:          0  USEFUL:     224109  USELESS:   23510704
LLC USEFUL LOAD PREFETCHES:     224109 PREFETCH ISSUED TO LOWER LEVEL:   23729583  ACCURACY: 0.944429
LLC TIMELY PREFETCHES:     224109 LATE PREFETCHES: 0 DROPPED PREFETCHES: 0
LLC PREFETCHES SAME FILL-ORIGIN LEVEL: 0 DIFFERENT FILL-ORIGIN LEVEL: 0
LLC AVERAGE MISS LATENCY: 5001.57 cycles
LLC RQ	ACCESS:    7801771	FORWARD:          0	MERGED:          0	TO_CACHE:    7801771
LLC WQ	ACCESS:    2274631	FORWARD:          0	MERGED:          0	TO_CACHE:    2274631
LLC PQ	ACCESS:   27880354	FORWARD:          0	MERGED:          0	TO_CACHE:   27880354

LLC Dense regions hint to LLC: 0

RAW hits: 0
Loads Generated: 64472191
Loads sent to L1D: 64472191
Stores Generated: 3259590
Stores sent to L1D: 3259560
Major fault: 0 Minor fault: 57223
Allocated PAGES: 376582

CPU 3 cumulative IPC: 1.58834 instructions: 200000002 cycles: 125917389
ITLB TOTAL     ACCESS:   25485920  HIT:   25485920  MISS:          0  HIT %:        100  MISS %:          0   MPKI: 0
ITLB LOAD TRANSLATION ACCESS:   25485920  HIT:   25485920  MISS:          0  HIT %:        100  MISS %:          0   MPKI: 0
ITLB PREFETCH  REQUESTED:          0  ISSUED:          0  USEFUL:          0  USELESS:          0
ITLB USEFUL LOAD PREFETCHES:          0 PREFETCH ISSUED TO LOWER LEVEL:          0  ACCURACY: -nan
ITLB TIMELY PREFETCHES:          0 LATE PREFETCHES: 0 DROPPED PREFETCHES: 0
ITLB PREFETCHES SAME FILL-ORIGIN LEVEL: 0 DIFFERENT FILL-ORIGIN LEVEL: 0
ITLB AVERAGE MISS LATENCY: -nan cycles
ITLB RQ	ACCESS:  159891912	FORWARD:          0	MERGED:   51388447	TO_CACHE:  108503465

DTLB TOTAL     ACCESS:   59155077  HIT:   58866016  MISS:     289061  HIT %:    99.5114  MISS %:    0.48865   MPKI: 1.4453
DTLB LOAD TRANSLATION ACCESS:   59155077  HIT:   58866016  MISS:     289061  HIT %:    99.5114  MISS %:    0.48865   MPKI: 1.4453
DTLB PREFETCH  REQUESTED:          0  ISSUED:          0  USEFUL:          0  USELESS:          0
DTLB USEFUL LOAD PREFETCHES:          0 PREFETCH ISSUED TO LOWER LEVEL:          0  ACCURACY: -nan
DTLB TIMELY PREFETCHES:          0 LATE PREFETCHES: 0 DROPPED PREFETCHES: 0
DTLB PREFETCHES SAME FILL-ORIGIN LEVEL: 0 DIFFERENT FILL-ORIGIN LEVEL: 0
DTLB AVERAGE MISS LATENCY: 527.228 cycles
DTLB RQ	ACCESS:  307505222	FORWARD:          0	MERGED:   59871323	TO_CACHE:  247633899

STLB TOTAL     ACCESS:   12857145  HIT:   12797764  MISS:      59381  HIT %:    99.5381  MISS %:   0.461852   MPKI: 0.296905
STLB LOAD TRANSLATION ACCESS:     289061  HIT:     229680  MISS:      59381  HIT %:    79.4573  MISS %:    20.5427   MPKI: 0.296905
STLB TRANSLATION FROM L1D PREFETCHER ACCESS:   12568084  HIT:   12568084  MISS:          0  HIT %:        100  MISS %:          0   MPKI: 0
STLB PREFETCH  REQUESTED:          0  ISSUED:          0  USEFUL:          0  USELESS:          0
STLB USEFUL LOAD PREFETCHES:          0 PREFETCH ISSUED TO LOWER LEVEL:          0  ACCURACY: -nan
STLB TIMELY PREFETCHES:          0 LATE PREFETCHES: 0 DROPPED PREFETCHES: 0
STLB PREFETCHES SAME FILL-ORIGIN LEVEL: 0 DIFFERENT FILL-ORIGIN LEVEL: 0
STLB AVERAGE MISS LATENCY: 2372.34 cycles
STLB RQ	ACCESS:  178838048	FORWARD:          0	MERGED:  126849291	TO_CACHE:   51988757

STLB Hit, L1D data hit: 0
STLB Hit, L2C data hit: 0
STLB Hit, LLC data hit: 0
STLB Hit, LLC data miss: 0
STLB STLB hints to L2: 0
L1D TOTAL     ACCESS:  115047720  HIT:  111034195  MISS:    4013525  HIT %:    96.5114  MISS %:    3.48857   MPKI: 20.0676
L1D LOAD      ACCESS:   62184548  HIT:   61956287  MISS:     228261  HIT %:    99.6329  MISS %:    0.36707   MPKI: 1.1413
L1D RFO       ACCESS:   10906069  HIT:   10808620  MISS:      97449  HIT %:    99.1065  MISS %:    0.89353   MPKI: 0.487245
L1D PREFETCH  ACCESS:   41957103  HIT:   38269288  MISS:    3687815  HIT %:    91.2105  MISS %:    8.78949   MPKI: 18.4391
L1D PREFETCH  REQUESTED:  685656551  ISSUED:  363060699  USEFUL:   15301137  USELESS:      59956
L1D USEFUL LOAD PREFETCHES:   15301137 PREFETCH ISSUED TO LOWER LEVEL:   16029195  ACCURACY: 95.4579
L1D TIMELY PREFETCHES:   15301137 LATE PREFETCHES: 668092 DROPPED PREFETCHES: 0
L1D PREFETCHES SAME FILL-ORIGIN LEVEL: 16029195 DIFFERENT FILL-ORIGIN LEVEL: 0
L1D AVERAGE MISS LATENCY: 1335.73 cycles
L1D RQ	ACCESS:  354122976	FORWARD:          0	MERGED:   94063363	TO_CACHE:  259757460
L1D WQ	ACCESS:   47810434	FORWARD:     302153	MERGED:      62672	TO_CACHE:   47747762
L1D PQ	ACCESS:  185436114	FORWARD:          0	MERGED:    7811529	TO_CACHE:  177624585

L1D UNIQUE REGIONS ACCESSED: 0
L1D REGIONS CONFLICTS: 0
L1D Cross Page Prefetch Requests: 0
L1D Same Page Prefetch Requests: 202353730
L1D ROI Sum of L1D PQ occupancy: 3873070990
L1D PREFETCHES PUSHED FROM L2C: 0
L1I TOTAL     ACCESS:   37615654  HIT:   37615654  MISS:          0  HIT %:        100  MISS %:          0   MPKI: 0
L1I LOAD      ACCESS:   37615654  HIT:   37615654  MISS:          0  HIT %:        100  MISS %:          0   MPKI: 0
L1I PREFETCH  REQUESTED:          0  ISSUED:          0  USEFUL:          0  USELESS:          0
L1I USEFUL LOAD PREFETCHES:          0 PREFETCH ISSUED TO LOWER LEVEL:          0  ACCURACY: -nan
L1I TIMELY PREFETCHES:          0 LATE PREFETCHES: 0 DROPPED PREFETCHES: 0
L1I PREFETCHES SAME FILL-ORIGIN LEVEL: 0 DIFFERENT FILL-ORIGIN LEVEL: 0
L1I AVERAGE MISS LATENCY: -nan cycles
L1I RQ	ACCESS:  195700246	FORWARD:          0	MERGED:   35808334	TO_CACHE:  159891912

BTB TOTAL     ACCESS:    4834907  HIT:    4834906  MISS:          1  HIT %:        100  MISS %: 2.06829e-05   MPKI: 5e-06
BTB BRANCH_DIRECT_JUMP	ACCESS:          0  HIT:          0  MISS:          0
BTB BRANCH_INDIRECT	ACCESS:          0  HIT:          0  MISS:          0
BTB BRANCH_CONDITIONAL	ACCESS:    4834907  HIT:    4834906  MISS:          1
BTB BRANCH_DIRECT_CALL	ACCESS:          0  HIT:          0  MISS:          0
BTB BRANCH_INDIRECT_CALL	ACCESS:          0  HIT:          0  MISS:          0
BTB BRANCH_RETURN	ACCESS:          0  HIT:          0  MISS:          0
BTB BRANCH_OTHER ACCESS:          0  HIT:          0  MISS:          0

L2C TOTAL     ACCESS:    4171830  HIT:     317075  MISS:    3854755  HIT %:    7.60038  MISS %:    92.3996   MPKI: 19.2738
L2C LOAD      ACCESS:     133242  HIT:       5259  MISS:     127983  HIT %:    3.94695  MISS %:     96.053   MPKI: 0.639915
L2C DATA LOAD MPKI: 0.639915
L2C INSTRUCTION LOAD MPKI: 0
L2C RFO       ACCESS:      97449  HIT:          0  MISS:      97449  HIT %:          0  MISS %:        100   MPKI: 0.487245
L2C PREFETCH  ACCESS:    3782834  HIT:     163582  MISS:    3619252  HIT %:    4.32432  MISS %:    95.6757   MPKI: 18.0963
L2C DATA PREFETCH MPKI: 18.0963
L2C INSTRUCTION PREFETCH MPKI: 0
L2C WRITEBACK ACCESS:      98921  HIT:      96919  MISS:       2002  HIT %:    97.9762  MISS %:    2.02384   MPKI: 0.01001
L2C LOAD TRANSLATION ACCESS:      59384  HIT:      51315  MISS:       8069  HIT %:    86.4122  MISS %:    13.5878   MPKI: 0.040345
L2C PREFETCH  REQUESTED:          0  ISSUED:          0  USEFUL:        564  USELESS:   15308501
L2C USEFUL LOAD PREFETCHES:        564 PREFETCH ISSUED TO LOWER LEVEL:   15308945  ACCURACY: 0.00368412
L2C TIMELY PREFETCHES:        564 LATE PREFETCHES: 0 DROPPED PREFETCHES: 0
L2C PREFETCHES SAME FILL-ORIGIN LEVEL: 0 DIFFERENT FILL-ORIGIN LEVEL: 0
L2C AVERAGE MISS LATENCY: 1432.5 cycles
L2C RQ	ACCESS:    1249790	FORWARD:          0	MERGED:          0	TO_CACHE:    1249790
L2C WQ	ACCESS:     419787	FORWARD:          0	MERGED:          0	TO_CACHE:     419787
L2C PQ	ACCESS:   16029195	FORWARD:          0	MERGED:          0	TO_CACHE:   16029195

L2C Instructions Evicting Data 0
L2C Translations Evicting Data 33696
L2C Data Evicting Data 16250210
L2C Instructions Evicting Instructions 0
L2C Translations Evicting Instructions 0
L2C Data Evicting Instructions 0
L2C Instructions Evicting Translations 0
L2C Translations Evicting Translations 21
L2C Data Evicting Translations 33668
L2C Dense regions hint from L2: 0
PSCL5 TOTAL     ACCESS:      59381  HIT:      59381  MISS:          0  HIT %:        100  MISS %:          0   MPKI: 0
PSCL5 LOAD TRANSLATION ACCESS:      59381  HIT:      59381  MISS:          0  HIT %:        100  MISS %:          0   MPKI: 0
PSCL5 PREFETCH  REQUESTED:          0  ISSUED:          0  USEFUL:          0  USELESS:          0
PSCL5 USEFUL LOAD PREFETCHES:          0 PREFETCH ISSUED TO LOWER LEVEL:          0  ACCURACY: -nan
PSCL5 TIMELY PREFETCHES:          0 LATE PREFETCHES: 0 DROPPED PREFETCHES: 0
PSCL5 PREFETCHES SAME FILL-ORIGIN LEVEL: 0 DIFFERENT FILL-ORIGIN LEVEL: 0

PSCL4 TOTAL     ACCESS:      59381  HIT:      59381  MISS:          0  HIT %:        100  MISS %:          0   MPKI: 0
PSCL4 LOAD TRANSLATION ACCESS:      59381  HIT:      59381  MISS:          0  HIT %:        100  MISS %:          0   MPKI: 0
PSCL4 PREFETCH  REQUESTED:          0  ISSUED:          0  USEFUL:          0  USELESS:          0
PSCL4 USEFUL LOAD PREFETCHES:          0 PREFETCH ISSUED TO LOWER LEVEL:          0  ACCURACY: -nan
PSCL4 TIMELY PREFETCHES:          0 LATE PREFETCHES: 0 DROPPED PREFETCHES: 0
PSCL4 PREFETCHES SAME FILL-ORIGIN LEVEL: 0 DIFFERENT FILL-ORIGIN LEVEL: 0

PSCL3 TOTAL     ACCESS:      59381  HIT:      59381  MISS:          0  HIT %:        100  MISS %:          0   MPKI: 0
PSCL3 LOAD TRANSLATION ACCESS:      59381  HIT:      59381  MISS:          0  HIT %:        100  MISS %:          0   MPKI: 0
PSCL3 PREFETCH  REQUESTED:          0  ISSUED:          0  USEFUL:          0  USELESS:          0
PSCL3 USEFUL LOAD PREFETCHES:          0 PREFETCH ISSUED TO LOWER LEVEL:          0  ACCURACY: -nan
PSCL3 TIMELY PREFETCHES:          0 LATE PREFETCHES: 0 DROPPED PREFETCHES: 0
PSCL3 PREFETCHES SAME FILL-ORIGIN LEVEL: 0 DIFFERENT FILL-ORIGIN LEVEL: 0

PSCL2 TOTAL     ACCESS:      59381  HIT:      59267  MISS:        114  HIT %:     99.808  MISS %:   0.191981   MPKI: 0.00057
PSCL2 LOAD TRANSLATION ACCESS:      59381  HIT:      59267  MISS:        114  HIT %:     99.808  MISS %:   0.191981   MPKI: 0.00057
PSCL2 PREFETCH  REQUESTED:          0  ISSUED:          0  USEFUL:          0  USELESS:          0
PSCL2 USEFUL LOAD PREFETCHES:          0 PREFETCH ISSUED TO LOWER LEVEL:          0  ACCURACY: -nan
PSCL2 TIMELY PREFETCHES:          0 LATE PREFETCHES: 0 DROPPED PREFETCHES: 0
PSCL2 PREFETCHES SAME FILL-ORIGIN LEVEL: 0 DIFFERENT FILL-ORIGIN LEVEL: 0

LLC TOTAL     ACCESS:    3950208  HIT:     140897  MISS:    3809311  HIT %:    3.56682  MISS %:    96.4332   MPKI: 19.0466
LLC LOAD      ACCESS:     127983  HIT:        828  MISS:     127155  HIT %:   0.646961  MISS %:     99.353   MPKI: 0.635775
LLC RFO       ACCESS:      97449  HIT:          0  MISS:      97449  HIT %:          0  MISS %:        100   MPKI: 0.487245
LLC PREFETCH  ACCESS:    3619252  HIT:      43485  MISS:    3575767  HIT %:    1.20149  MISS %:    98.7985   MPKI: 17.8788
LLC WRITEBACK ACCESS:      97455  HIT:      96049  MISS:       1406  HIT %:    98.5573  MISS %:    1.44272   MPKI: 0.00703
LLC LOAD TRANSLATION ACCESS:       8069  HIT:        535  MISS:       7534  HIT %:    6.63031  MISS %:    93.3697   MPKI: 0.03767
LLC PREFETCH  REQUESTED:          0  ISSUED:          0  USEFUL:     224109  USELESS:   23510704
LLC USEFUL LOAD PREFETCHES:     224109 PREFETCH ISSUED TO LOWER LEVEL:   23729583  ACCURACY: 0.944429
LLC TIMELY PREFETCHES:     224109 LATE PREFETCHES: 0 DROPPED PREFETCHES: 0
LLC PREFETCHES SAME FILL-ORIGIN LEVEL: 0 DIFFERENT FILL-ORIGIN LEVEL: 0
LLC AVERAGE MISS LATENCY: 2555.32 cycles
LLC RQ	ACCESS:    7801771	FORWARD:          0	MERGED:          0	TO_CACHE:    7801771
LLC WQ	ACCESS:    2274631	FORWARD:          0	MERGED:          0	TO_CACHE:    2274631
LLC PQ	ACCESS:   27880354	FORWARD:          0	MERGED:          0	TO_CACHE:   27880354

LLC Dense regions hint to LLC: 0

RAW hits: 2395043
Loads Generated: 85960212
Loads sent to L1D: 83565199
Stores Generated: 11266797
Stores sent to L1D: 11266797
Major fault: 0 Minor fault: 256610
Allocated PAGES: 376582

stream: 
stream:times selected: 4854933
stream:pref_filled: 3145807
stream:pref_useful: 3039403
stream:pref_late: 925
stream:misses: 134
stream:misses_by_poll: 0

CS: 
CS:times selected: 4652203
CS:pref_filled: 14342
CS:pref_useful: 6612
CS:pref_late: 11
CS:misses: 100627
CS:misses_by_poll: 14

CPLX: 
CPLX:times selected: 202517
CPLX:pref_filled: 865
CPLX:pref_useful: 397
CPLX:pref_late: 1
CPLX:misses: 1135
CPLX:misses_by_poll: 0

NL_L1: 
NL:times selected: 6
NL:pref_filled: 6
NL:pref_useful: 6
NL:pref_late: 0
NL:misses: 0
NL:misses_by_poll: 0

total selections: 9709659
total_filled: 2876663
total_useful: 2776286
total_late: 944
total_polluted: 14
total_misses_after_warmup: 421913
conflicts: 8758671
Degree Incremented Times: 4094960
Degree Decremented Times: 2201104

L1 IP Table Write Accesses: 548568562
L1 IP Table Read Accesses: 539809891
L1 RST Write Accesses: 145897351
L1 RST Read Accesses: 291794702
L1 CSPT Write Accesses: 145897351
L1 CSPT Read Accesses: 205298698
L1 RR Filter Tag Write Accesses: 610469778
L1 RR Filter Tag Read Accesses: 28376374888
L1 IP Table Tag Write Accesses: 582515780
L1 IP Table Tag Read Accesses: 582515780
L1 RST Tag Write Accesses: 0
L1 RST Tag Read Accesses: 1311497209
L1 RR Filter Write Accesses: 0
L1 RR Filter Read Accesses: 963198997
test: 23852007

stream: 
stream:times selected: 17227489
stream:pref_filled: 6472970
stream:pref_useful: 303260
stream:pref_late: 15876
stream:misses: 1692914
stream:misses_by_poll: 0

CS: 
CS:times selected: 4008985
CS:pref_filled: 2397080
CS:pref_useful: 2386008
CS:pref_late: 96746
CS:misses: 246617
CS:misses_by_poll: 6391

CPLX: 
CPLX:times selected: 13081417
CPLX:pref_filled: 284616
CPLX:pref_useful: 15085
CPLX:pref_late: 506
CPLX:misses: 5139395
CPLX:misses_by_poll: 186

NL_L1: 
NL:times selected: 107061
NL:pref_filled: 61304
NL:pref_useful: 3276
NL:pref_late: 182
NL:misses: 57836
NL:misses_by_poll: 13

total selections: 34424952
total_filled: 6800125
total_useful: 2136195
total_late: 115645
total_polluted: 6590
total_misses_after_warmup: 5489387
conflicts: 8758671
Degree Incremented Times: 4094960
Degree Decremented Times: 2201104

L1 IP Table Write Accesses: 548568562
L1 IP Table Read Accesses: 539809891
L1 RST Write Accesses: 145897351
L1 RST Read Accesses: 291794702
L1 CSPT Write Accesses: 145897351
L1 CSPT Read Accesses: 205298698
L1 RR Filter Tag Write Accesses: 610469778
L1 RR Filter Tag Read Accesses: 28376374888
L1 IP Table Tag Write Accesses: 582515780
L1 IP Table Tag Read Accesses: 582515780
L1 RST Tag Write Accesses: 0
L1 RST Tag Read Accesses: 1311497209
L1 RR Filter Write Accesses: 0
L1 RR Filter Read Accesses: 963198997
test: 23852007

stream: 
stream:times selected: 31549061
stream:pref_filled: 13028617
stream:pref_useful: 3072484
stream:pref_late: 120166
stream:misses: 2174289
stream:misses_by_poll: 0

CS: 
CS:times selected: 6526707
CS:pref_filled: 2829928
CS:pref_useful: 2780879
CS:pref_late: 758759
CS:misses: 1634942
CS:misses_by_poll: 10043

CPLX: 
CPLX:times selected: 24833818
CPLX:pref_filled: 765368
CPLX:pref_useful: 242925
CPLX:pref_late: 8135
CPLX:misses: 7413904
CPLX:misses_by_poll: 1096

NL_L1: 
NL:times selected: 207366
NL:pref_filled: 89389
NL:pref_useful: 10891
NL:pref_late: 1061
NL:misses: 95667
NL:misses_by_poll: 2

total selections: 63116952
total_filled: 15281936
total_useful: 4703967
total_late: 896812
total_polluted: 11141
total_misses_after_warmup: 11293755
conflicts: 8758671
Degree Incremented Times: 4094960
Degree Decremented Times: 2201104

L1 IP Table Write Accesses: 548568562
L1 IP Table Read Accesses: 539809891
L1 RST Write Accesses: 145897351
L1 RST Read Accesses: 291794702
L1 CSPT Write Accesses: 145897351
L1 CSPT Read Accesses: 205298698
L1 RR Filter Tag Write Accesses: 610469778
L1 RR Filter Tag Read Accesses: 28376374888
L1 IP Table Tag Write Accesses: 582515780
L1 IP Table Tag Read Accesses: 582515780
L1 RST Tag Write Accesses: 0
L1 RST Tag Read Accesses: 1311497209
L1 RR Filter Write Accesses: 0
L1 RR Filter Read Accesses: 963198997
test: 23852007

stream: 
stream:times selected: 103438662
stream:pref_filled: 16113885
stream:pref_useful: 16112323
stream:pref_late: 644587
stream:misses: 4576
stream:misses_by_poll: 0

CS: 
CS:times selected: 98034869
CS:pref_filled: 133908
CS:pref_useful: 133878
CS:pref_late: 15400
CS:misses: 1415145
CS:misses_by_poll: 1110

CPLX: 
CPLX:times selected: 5403574
CPLX:pref_filled: 246285
CPLX:pref_useful: 183134
CPLX:pref_late: 6150
CPLX:misses: 74217
CPLX:misses_by_poll: 923

NL_L1: 
NL:times selected: 33867
NL:pref_filled: 1285
NL:pref_useful: 1284
NL:pref_late: 165
NL:misses: 407
NL:misses_by_poll: 0

total selections: 206910972
total_filled: 15361095
total_useful: 15301137
total_late: 671561
total_polluted: 2033
total_misses_after_warmup: 1488559
conflicts: 8758671
Degree Incremented Times: 4094960
Degree Decremented Times: 2201104

L1 IP Table Write Accesses: 548568562
L1 IP Table Read Accesses: 539809891
L1 RST Write Accesses: 145897351
L1 RST Read Accesses: 291794702
L1 CSPT Write Accesses: 145897351
L1 CSPT Read Accesses: 205298698
L1 RR Filter Tag Write Accesses: 610469778
L1 RR Filter Tag Read Accesses: 28376374888
L1 IP Table Tag Write Accesses: 582515780
L1 IP Table Tag Read Accesses: 582515780
L1 RST Tag Write Accesses: 0
L1 RST Tag Read Accesses: 1311497209
L1 RR Filter Write Accesses: 0
L1 RR Filter Read Accesses: 963198997
test: 23852007

DRAM Statistics
 CHANNEL 0
 RQ ROW_BUFFER_HIT:   12574288  ROW_BUFFER_MISS:   15164057
 DBUS_CONGESTED:        404
 WQ ROW_BUFFER_HIT:     237289  ROW_BUFFER_MISS:    2037819  FULL:          0

 AVG_CONGESTED_CYCLE: 5
 All warmup complete: 5
Channel 0 Bank busy for read cycles: 0
Channel 0 Bank busy for write cycles: 0
Channel 0
Rank 0
0banks busy for read cycles: 67114
0banks busy for write cycles: 0
1banks busy for read cycles: 6693821
1banks busy for write cycles: 268923
2banks busy for read cycles: 20852634
2banks busy for write cycles: 268709
3banks busy for read cycles: 43338739
3banks busy for write cycles: 268498
4banks busy for read cycles: 72145127
4banks busy for write cycles: 268426
5banks busy for read cycles: 97909223
5banks busy for write cycles: 280423
6banks busy for read cycles: 109588882
6banks busy for write cycles: 747004
7banks busy for read cycles: 103918978
7banks busy for write cycles: 8126680
8banks busy for read cycles: 80726727
8banks busy for write cycles: 47248776

CPU 0 Branch Prediction Accuracy: 99.9877% MPKI: 0.000157298 Average ROB Occupancy at Mispredict: 346.301
Branch types
NOT_BRANCH: 526984083 99.8719%
BRANCH_DIRECT_JUMP: 5516 0.00104537%
BRANCH_INDIRECT: 0 0%
BRANCH_CONDITIONAL: 670319 0.127036%
BRANCH_DIRECT_CALL: 0 0%
BRANCH_INDIRECT_CALL: 0 0%
BRANCH_RETURN: 0 0%
BRANCH_OTHER: 0 0%


CPU 1 Branch Prediction Accuracy: 95.4569% MPKI: 11.3351 Average ROB Occupancy at Mispredict: 34.6357
Branch types
NOT_BRANCH: 147898269 73.9491%
BRANCH_DIRECT_JUMP: 2522276 1.26114%
BRANCH_INDIRECT: 0 0%
BRANCH_CONDITIONAL: 49579404 24.7897%
BRANCH_DIRECT_CALL: 3 1.5e-06%
BRANCH_INDIRECT_CALL: 0 0%
BRANCH_RETURN: 4 2e-06%
BRANCH_OTHER: 0 0%


CPU 2 Branch Prediction Accuracy: 98.631% MPKI: 4.01463 Average ROB Occupancy at Mispredict: 45.9411
Branch types
NOT_BRANCH: 299317435 69.9154%
BRANCH_DIRECT_JUMP: 1762206 0.411621%
BRANCH_INDIRECT: 0 0%
BRANCH_CONDITIONAL: 127034139 29.673%
BRANCH_DIRECT_CALL: 13 3.03658e-06%
BRANCH_INDIRECT_CALL: 0 0%
BRANCH_RETURN: 12 2.80299e-06%
BRANCH_OTHER: 0 0%


CPU 3 Branch Prediction Accuracy: 99.9707% MPKI: 0.00723254 Average ROB Occupancy at Mispredict: 125.283
Branch types
NOT_BRANCH: 827510098 97.5038%
BRANCH_DIRECT_JUMP: 0 0%
BRANCH_INDIRECT: 0 0%
BRANCH_CONDITIONAL: 21184621 2.49614%
BRANCH_DIRECT_CALL: 0 0%
BRANCH_INDIRECT_CALL: 0 0%
BRANCH_RETURN: 0 0%
BRANCH_OTHER: 0 0%

DRAM PAGES: 1048576
Allocated PAGES: 376582
