
*** ChampSim Multicore Out-of-Order Simulator ***

Warmup Instructions: 50000000
Simulation Instructions: 200000000
Number of CPUs: 4
LLC sets: 8192
LLC ways: 16
Off-chip DRAM Size: 4096 MB Channels: 1 Width: 64-bit Data Rate: 6400 MT/s
CPU 0 runs ./traces/cs/cassandra_phase5_core0.trace.xz
.xz
CPU 1 runs ./traces/cs/cassandra_phase5_core1.trace.xz
.xz
CPU 2 runs ./traces/cs/cassandra_phase5_core2.trace.xz
.xz
CPU 3 runs ./traces/cs/cassandra_phase5_core3.trace.xz
.xz
BTB has LRU replacement policy
ITLB has LRU replacement policy
DTLB has LRU replacement policy
STLB has LRU replacement policy
L1I has LRU replacement policy
IP Table Entries: 1024
CSPT Entries: 128
RR_ENTRIES: 32
RST_ENTRIES: 8
L1D has LRU replacement policy
Initialize SRRIP state for L2C
Initialize DRRIP state for LLC
BTB has LRU replacement policy
ITLB has LRU replacement policy
DTLB has LRU replacement policy
STLB has LRU replacement policy
L1I has LRU replacement policy
IP Table Entries: 1024
CSPT Entries: 128
RR_ENTRIES: 32
RST_ENTRIES: 8
L1D has LRU replacement policy
Initialize SRRIP state for L2C
Initialize DRRIP state for LLC
BTB has LRU replacement policy
ITLB has LRU replacement policy
DTLB has LRU replacement policy
STLB has LRU replacement policy
L1I has LRU replacement policy
IP Table Entries: 1024
CSPT Entries: 128
RR_ENTRIES: 32
RST_ENTRIES: 8
L1D has LRU replacement policy
Initialize SRRIP state for L2C
Initialize DRRIP state for LLC
BTB has LRU replacement policy
ITLB has LRU replacement policy
DTLB has LRU replacement policy
STLB has LRU replacement policy
L1I has LRU replacement policy
IP Table Entries: 1024
CSPT Entries: 128
RR_ENTRIES: 32
RST_ENTRIES: 8
L1D has LRU replacement policy
Initialize SRRIP state for L2C
Initialize DRRIP state for LLC
UNIQUE_ASID[0] = €
UNIQUE_ASID[1] = 
Heartbeat CPU 3 instructions: 10000003 cycles: 2756541 heartbeat IPC: 3.62774 cumulative IPC: 3.62774 (Simulation time: 0 hr 2 min 19 sec) 
Heartbeat CPU 1 instructions: 10000001 cycles: 2792935 heartbeat IPC: 3.58046 cumulative IPC: 3.58046 (Simulation time: 0 hr 2 min 21 sec) 
Heartbeat CPU 0 instructions: 10000002 cycles: 2793537 heartbeat IPC: 3.57969 cumulative IPC: 3.57969 (Simulation time: 0 hr 2 min 21 sec) 
Heartbeat CPU 2 instructions: 10000002 cycles: 2815487 heartbeat IPC: 3.55178 cumulative IPC: 3.55178 (Simulation time: 0 hr 2 min 22 sec) 
Heartbeat CPU 3 instructions: 20000003 cycles: 5543411 heartbeat IPC: 3.58825 cumulative IPC: 3.60789 (Simulation time: 0 hr 4 min 41 sec) 
Heartbeat CPU 0 instructions: 20000003 cycles: 5557767 heartbeat IPC: 3.61764 cumulative IPC: 3.59857 (Simulation time: 0 hr 4 min 42 sec) 
Heartbeat CPU 1 instructions: 20000002 cycles: 5584468 heartbeat IPC: 3.58226 cumulative IPC: 3.58136 (Simulation time: 0 hr 4 min 43 sec) 
Heartbeat CPU 2 instructions: 20000000 cycles: 5604681 heartbeat IPC: 3.58526 cumulative IPC: 3.56845 (Simulation time: 0 hr 4 min 45 sec) 
Heartbeat CPU 2 instructions: 30000000 cycles: 8337443 heartbeat IPC: 3.6593 cumulative IPC: 3.59823 (Simulation time: 0 hr 7 min 23 sec) 
Heartbeat CPU 0 instructions: 30000003 cycles: 8376312 heartbeat IPC: 3.54793 cumulative IPC: 3.58153 (Simulation time: 0 hr 7 min 25 sec) 
Heartbeat CPU 1 instructions: 30000003 cycles: 8386479 heartbeat IPC: 3.56887 cumulative IPC: 3.57719 (Simulation time: 0 hr 7 min 26 sec) 
Heartbeat CPU 3 instructions: 30000002 cycles: 8477512 heartbeat IPC: 3.4082 cumulative IPC: 3.53877 (Simulation time: 0 hr 7 min 30 sec) 
Heartbeat CPU 2 instructions: 40000002 cycles: 11163600 heartbeat IPC: 3.53837 cumulative IPC: 3.58307 (Simulation time: 0 hr 9 min 49 sec) 
Heartbeat CPU 0 instructions: 40000000 cycles: 11179692 heartbeat IPC: 3.56712 cumulative IPC: 3.57792 (Simulation time: 0 hr 9 min 50 sec) 
Heartbeat CPU 1 instructions: 40000003 cycles: 11200599 heartbeat IPC: 3.55351 cumulative IPC: 3.57124 (Simulation time: 0 hr 9 min 51 sec) 
Heartbeat CPU 3 instructions: 40000003 cycles: 11221209 heartbeat IPC: 3.64472 cumulative IPC: 3.56468 (Simulation time: 0 hr 9 min 52 sec) 
Heartbeat CPU 0 instructions: 50000003 cycles: 13965121 heartbeat IPC: 3.59011 cumulative IPC: 3.58035 (Simulation time: 0 hr 12 min 2 sec) 
Heartbeat CPU 2 instructions: 50000003 cycles: 14033587 heartbeat IPC: 3.48434 cumulative IPC: 3.56288 (Simulation time: 0 hr 12 min 5 sec) 
Heartbeat CPU 1 instructions: 50000002 cycles: 14064548 heartbeat IPC: 3.49168 cumulative IPC: 3.55504 (Simulation time: 0 hr 12 min 7 sec) 
Heartbeat CPU 3 instructions: 50000002 cycles: 14101200 heartbeat IPC: 3.47223 cumulative IPC: 3.5458 (Simulation time: 0 hr 12 min 8 sec) 

Warmup complete CPU 0 instructions: 50482858 cycles: 14101200 (Simulation time: 0 hr 12 min 8 sec) 
Warmup complete CPU 1 instructions: 50129737 cycles: 14101200 (Simulation time: 0 hr 12 min 8 sec) 
Warmup complete CPU 2 instructions: 50202511 cycles: 14101200 (Simulation time: 0 hr 12 min 8 sec) 
Warmup complete CPU 3 instructions: 50000002 cycles: 14101200 (Simulation time: 0 hr 12 min 8 sec) 

Heartbeat CPU 0 instructions: 60000002 cycles: 30883056 heartbeat IPC: 0.591089 cumulative IPC: 0.567109 (Simulation time: 0 hr 15 min 53 sec) 
Heartbeat CPU 2 instructions: 60000000 cycles: 31251701 heartbeat IPC: 0.580784 cumulative IPC: 0.571265 (Simulation time: 0 hr 15 min 58 sec) 
Heartbeat CPU 1 instructions: 60000000 cycles: 31775809 heartbeat IPC: 0.564612 cumulative IPC: 0.558443 (Simulation time: 0 hr 16 min 5 sec) 
Heartbeat CPU 3 instructions: 60000003 cycles: 32283942 heartbeat IPC: 0.549972 cumulative IPC: 0.549972 (Simulation time: 0 hr 16 min 13 sec) 
Heartbeat CPU 0 instructions: 70000003 cycles: 48237101 heartbeat IPC: 0.576235 cumulative IPC: 0.571748 (Simulation time: 0 hr 19 min 46 sec) 
Heartbeat CPU 2 instructions: 70000000 cycles: 49332597 heartbeat IPC: 0.55307 cumulative IPC: 0.561927 (Simulation time: 0 hr 19 min 58 sec) 
Heartbeat CPU 1 instructions: 70000003 cycles: 49624505 heartbeat IPC: 0.560265 cumulative IPC: 0.559359 (Simulation time: 0 hr 20 min 1 sec) 
Heartbeat CPU 3 instructions: 70000001 cycles: 50524097 heartbeat IPC: 0.548241 cumulative IPC: 0.549105 (Simulation time: 0 hr 20 min 9 sec) 
Heartbeat CPU 0 instructions: 80000003 cycles: 65467197 heartbeat IPC: 0.58038 cumulative IPC: 0.574644 (Simulation time: 0 hr 23 min 10 sec) 
Heartbeat CPU 2 instructions: 80000003 cycles: 66975751 heartbeat IPC: 0.566792 cumulative IPC: 0.563551 (Simulation time: 0 hr 23 min 31 sec) 
Heartbeat CPU 1 instructions: 80000000 cycles: 67364446 heartbeat IPC: 0.5637 cumulative IPC: 0.560804 (Simulation time: 0 hr 23 min 36 sec) 
Heartbeat CPU 3 instructions: 80000003 cycles: 67754147 heartbeat IPC: 0.580382 cumulative IPC: 0.559149 (Simulation time: 0 hr 23 min 42 sec) 
Heartbeat CPU 0 instructions: 90000003 cycles: 82199302 heartbeat IPC: 0.597653 cumulative IPC: 0.580297 (Simulation time: 0 hr 26 min 59 sec) 
Heartbeat CPU 2 instructions: 90000001 cycles: 83251681 heartbeat IPC: 0.614404 cumulative IPC: 0.57552 (Simulation time: 0 hr 27 min 13 sec) 
Heartbeat CPU 3 instructions: 90000001 cycles: 85044856 heartbeat IPC: 0.578345 cumulative IPC: 0.563828 (Simulation time: 0 hr 27 min 33 sec) 
Heartbeat CPU 1 instructions: 90000000 cycles: 86341243 heartbeat IPC: 0.526959 cumulative IPC: 0.551914 (Simulation time: 0 hr 27 min 44 sec) 
Heartbeat CPU 0 instructions: 100000002 cycles: 99946551 heartbeat IPC: 0.563468 cumulative IPC: 0.576818 (Simulation time: 0 hr 29 min 45 sec) 
Heartbeat CPU 2 instructions: 100000002 cycles: 101832930 heartbeat IPC: 0.538177 cumulative IPC: 0.567611 (Simulation time: 0 hr 30 min 10 sec) 
Heartbeat CPU 3 instructions: 100000003 cycles: 103682473 heartbeat IPC: 0.536549 cumulative IPC: 0.558152 (Simulation time: 0 hr 30 min 36 sec) 
Heartbeat CPU 1 instructions: 100000003 cycles: 106302502 heartbeat IPC: 0.500971 cumulative IPC: 0.540885 (Simulation time: 0 hr 31 min 9 sec) 
Heartbeat CPU 0 instructions: 110000000 cycles: 118198398 heartbeat IPC: 0.54789 cumulative IPC: 0.571746 (Simulation time: 0 hr 33 min 34 sec) 
Heartbeat CPU 2 instructions: 110000000 cycles: 119906503 heartbeat IPC: 0.553294 cumulative IPC: 0.565165 (Simulation time: 0 hr 33 min 52 sec) 
Heartbeat CPU 3 instructions: 110000000 cycles: 122230068 heartbeat IPC: 0.539153 cumulative IPC: 0.554893 (Simulation time: 0 hr 34 min 15 sec) 
Heartbeat CPU 1 instructions: 110000000 cycles: 125547135 heartbeat IPC: 0.519625 cumulative IPC: 0.537214 (Simulation time: 0 hr 34 min 52 sec) 
Heartbeat CPU 0 instructions: 120000001 cycles: 136398896 heartbeat IPC: 0.549436 cumulative IPC: 0.568426 (Simulation time: 0 hr 37 min 0 sec) 
Heartbeat CPU 2 instructions: 120000000 cycles: 139143847 heartbeat IPC: 0.519822 cumulative IPC: 0.558189 (Simulation time: 0 hr 37 min 33 sec) 
Heartbeat CPU 3 instructions: 120000003 cycles: 140691337 heartbeat IPC: 0.541675 cumulative IPC: 0.552966 (Simulation time: 0 hr 37 min 53 sec) 
Heartbeat CPU 1 instructions: 120000000 cycles: 144636427 heartbeat IPC: 0.523854 cumulative IPC: 0.53526 (Simulation time: 0 hr 38 min 44 sec) 
Heartbeat CPU 0 instructions: 130000000 cycles: 154640536 heartbeat IPC: 0.548196 cumulative IPC: 0.5658 (Simulation time: 0 hr 40 min 50 sec) 
Heartbeat CPU 2 instructions: 130000003 cycles: 156469779 heartbeat IPC: 0.57717 cumulative IPC: 0.560499 (Simulation time: 0 hr 41 min 13 sec) 
Heartbeat CPU 3 instructions: 130000000 cycles: 159590133 heartbeat IPC: 0.529134 cumulative IPC: 0.54987 (Simulation time: 0 hr 41 min 51 sec) 
Heartbeat CPU 1 instructions: 130000000 cycles: 164050135 heartbeat IPC: 0.5151 cumulative IPC: 0.53265 (Simulation time: 0 hr 42 min 34 sec) 
Heartbeat CPU 0 instructions: 140000000 cycles: 172157705 heartbeat IPC: 0.570868 cumulative IPC: 0.566362 (Simulation time: 0 hr 44 min 8 sec) 
Heartbeat CPU 2 instructions: 140000000 cycles: 174713981 heartbeat IPC: 0.548119 cumulative IPC: 0.559093 (Simulation time: 0 hr 44 min 42 sec) 
Heartbeat CPU 3 instructions: 140000001 cycles: 177273253 heartbeat IPC: 0.565511 cumulative IPC: 0.551565 (Simulation time: 0 hr 45 min 15 sec) 
Heartbeat CPU 1 instructions: 140000000 cycles: 183572159 heartbeat IPC: 0.512242 cumulative IPC: 0.530299 (Simulation time: 0 hr 46 min 35 sec) 
Heartbeat CPU 0 instructions: 150000003 cycles: 189626341 heartbeat IPC: 0.572455 cumulative IPC: 0.566968 (Simulation time: 0 hr 47 min 46 sec) 
Heartbeat CPU 2 instructions: 150000003 cycles: 192219741 heartbeat IPC: 0.571241 cumulative IPC: 0.560287 (Simulation time: 0 hr 48 min 20 sec) 
Heartbeat CPU 3 instructions: 150000001 cycles: 195505449 heartbeat IPC: 0.54848 cumulative IPC: 0.551255 (Simulation time: 0 hr 49 min 4 sec) 
Heartbeat CPU 1 instructions: 150000003 cycles: 201271100 heartbeat IPC: 0.565006 cumulative IPC: 0.533581 (Simulation time: 0 hr 50 min 21 sec) 
Heartbeat CPU 0 instructions: 160000002 cycles: 207055343 heartbeat IPC: 0.573756 cumulative IPC: 0.567581 (Simulation time: 0 hr 51 min 25 sec) 
Heartbeat CPU 2 instructions: 160000000 cycles: 209200333 heartbeat IPC: 0.588907 cumulative IPC: 0.562778 (Simulation time: 0 hr 51 min 51 sec) 
Heartbeat CPU 3 instructions: 160000000 cycles: 213704353 heartbeat IPC: 0.549484 cumulative IPC: 0.551094 (Simulation time: 0 hr 52 min 50 sec) 
Heartbeat CPU 1 instructions: 160000000 cycles: 219114570 heartbeat IPC: 0.560429 cumulative IPC: 0.535918 (Simulation time: 0 hr 54 min 5 sec) 
Heartbeat CPU 0 instructions: 170000003 cycles: 224239408 heartbeat IPC: 0.581935 cumulative IPC: 0.568755 (Simulation time: 0 hr 55 min 12 sec) 
Heartbeat CPU 2 instructions: 170000000 cycles: 227176819 heartbeat IPC: 0.556282 cumulative IPC: 0.56223 (Simulation time: 0 hr 55 min 50 sec) 
Heartbeat CPU 3 instructions: 170000002 cycles: 231817097 heartbeat IPC: 0.552098 cumulative IPC: 0.551177 (Simulation time: 0 hr 56 min 50 sec) 
Heartbeat CPU 1 instructions: 170000001 cycles: 236963462 heartbeat IPC: 0.560259 cumulative IPC: 0.537867 (Simulation time: 0 hr 57 min 48 sec) 
Heartbeat CPU 0 instructions: 180000002 cycles: 241560877 heartbeat IPC: 0.577318 cumulative IPC: 0.569407 (Simulation time: 0 hr 58 min 33 sec) 
Heartbeat CPU 2 instructions: 180000002 cycles: 244843212 heartbeat IPC: 0.566047 cumulative IPC: 0.562522 (Simulation time: 0 hr 59 min 16 sec) 
Heartbeat CPU 3 instructions: 180000000 cycles: 248919925 heartbeat IPC: 0.584698 cumulative IPC: 0.553619 (Simulation time: 1 hr 0 min 8 sec) 
Heartbeat CPU 1 instructions: 180000003 cycles: 254497936 heartbeat IPC: 0.570305 cumulative IPC: 0.540233 (Simulation time: 1 hr 1 min 25 sec) 
Heartbeat CPU 0 instructions: 190000001 cycles: 258573409 heartbeat IPC: 0.587802 cumulative IPC: 0.570687 (Simulation time: 1 hr 2 min 21 sec) 
Heartbeat CPU 2 instructions: 190000000 cycles: 261249686 heartbeat IPC: 0.609515 cumulative IPC: 0.565642 (Simulation time: 1 hr 2 min 56 sec) 
Heartbeat CPU 3 instructions: 190000001 cycles: 266300783 heartbeat IPC: 0.575346 cumulative IPC: 0.555116 (Simulation time: 1 hr 4 min 4 sec) 
Heartbeat CPU 1 instructions: 190000003 cycles: 273285469 heartbeat IPC: 0.532268 cumulative IPC: 0.539656 (Simulation time: 1 hr 5 min 33 sec) 
Heartbeat CPU 0 instructions: 200000002 cycles: 276037192 heartbeat IPC: 0.572614 cumulative IPC: 0.570816 (Simulation time: 1 hr 6 min 4 sec) 
Heartbeat CPU 2 instructions: 200000001 cycles: 279282661 heartbeat IPC: 0.55454 cumulative IPC: 0.564887 (Simulation time: 1 hr 6 min 32 sec) 
Heartbeat CPU 3 instructions: 200000001 cycles: 284974114 heartbeat IPC: 0.535523 cumulative IPC: 0.553765 (Simulation time: 1 hr 7 min 38 sec) 
Heartbeat CPU 1 instructions: 200000002 cycles: 293067970 heartbeat IPC: 0.505497 cumulative IPC: 0.537233 (Simulation time: 1 hr 9 min 11 sec) 
Heartbeat CPU 0 instructions: 210000000 cycles: 294419180 heartbeat IPC: 0.544011 cumulative IPC: 0.569058 (Simulation time: 1 hr 9 min 26 sec) 
Heartbeat CPU 2 instructions: 210000002 cycles: 297278682 heartbeat IPC: 0.555678 cumulative IPC: 0.564302 (Simulation time: 1 hr 9 min 57 sec) 
Heartbeat CPU 3 instructions: 210000001 cycles: 303504199 heartbeat IPC: 0.539663 cumulative IPC: 0.552862 (Simulation time: 1 hr 11 min 0 sec) 
Heartbeat CPU 1 instructions: 210000001 cycles: 312227974 heartbeat IPC: 0.521921 cumulative IPC: 0.536249 (Simulation time: 1 hr 12 min 30 sec) 
Heartbeat CPU 0 instructions: 220000000 cycles: 312699972 heartbeat IPC: 0.547022 cumulative IPC: 0.567709 (Simulation time: 1 hr 12 min 35 sec) 
Heartbeat CPU 2 instructions: 220000000 cycles: 316493557 heartbeat IPC: 0.52043 cumulative IPC: 0.561514 (Simulation time: 1 hr 13 min 14 sec) 
Heartbeat CPU 3 instructions: 220000000 cycles: 321968332 heartbeat IPC: 0.541591 cumulative IPC: 0.552186 (Simulation time: 1 hr 14 min 8 sec) 
Heartbeat CPU 0 instructions: 230000001 cycles: 330706643 heartbeat IPC: 0.55535 cumulative IPC: 0.567006 (Simulation time: 1 hr 15 min 40 sec) 
Heartbeat CPU 1 instructions: 220000000 cycles: 331233669 heartbeat IPC: 0.526158 cumulative IPC: 0.535644 (Simulation time: 1 hr 15 min 45 sec) 
Heartbeat CPU 2 instructions: 230000003 cycles: 333716010 heartbeat IPC: 0.580638 cumulative IPC: 0.562544 (Simulation time: 1 hr 16 min 8 sec) 
Heartbeat CPU 3 instructions: 230000001 cycles: 340932555 heartbeat IPC: 0.527309 cumulative IPC: 0.550743 (Simulation time: 1 hr 17 min 31 sec) 
Heartbeat CPU 0 instructions: 240000000 cycles: 348390705 heartbeat IPC: 0.565481 cumulative IPC: 0.566925 (Simulation time: 1 hr 19 min 3 sec) 
Heartbeat CPU 1 instructions: 230000003 cycles: 350671744 heartbeat IPC: 0.514454 cumulative IPC: 0.534421 (Simulation time: 1 hr 19 min 33 sec) 
Heartbeat CPU 2 instructions: 240000002 cycles: 352130940 heartbeat IPC: 0.543038 cumulative IPC: 0.561482 (Simulation time: 1 hr 19 min 54 sec) 
Heartbeat CPU 3 instructions: 240000001 cycles: 358453956 heartbeat IPC: 0.570731 cumulative IPC: 0.55176 (Simulation time: 1 hr 21 min 18 sec) 
Heartbeat CPU 0 instructions: 250000001 cycles: 365841011 heartbeat IPC: 0.573056 cumulative IPC: 0.567229 (Simulation time: 1 hr 22 min 25 sec) 
Finished CPU 0 instructions: 200000000 cycles: 352638252 cumulative IPC: 0.567153 (Simulation time: 1 hr 22 min 37 sec) 
Heartbeat CPU 2 instructions: 250000003 cycles: 369558054 heartbeat IPC: 0.573819 cumulative IPC: 0.562086 (Simulation time: 1 hr 23 min 10 sec) 
Finished CPU 2 instructions: 200000001 cycles: 355659849 cumulative IPC: 0.562335 (Simulation time: 1 hr 23 min 11 sec) 
Heartbeat CPU 1 instructions: 240000002 cycles: 370152932 heartbeat IPC: 0.513316 cumulative IPC: 0.533266 (Simulation time: 1 hr 23 min 14 sec) 
Heartbeat CPU 3 instructions: 250000000 cycles: 376669384 heartbeat IPC: 0.548985 cumulative IPC: 0.55162 (Simulation time: 1 hr 24 min 26 sec) 
Finished CPU 3 instructions: 200000002 cycles: 362568185 cumulative IPC: 0.55162 (Simulation time: 1 hr 24 min 26 sec) 
Heartbeat CPU 0 instructions: 260000002 cycles: 383249482 heartbeat IPC: 0.574433 cumulative IPC: 0.567569 (Simulation time: 1 hr 25 min 56 sec) 
Heartbeat CPU 2 instructions: 260000002 cycles: 386364608 heartbeat IPC: 0.595006 cumulative IPC: 0.563573 (Simulation time: 1 hr 26 min 35 sec) 
Heartbeat CPU 1 instructions: 250000001 cycles: 387864857 heartbeat IPC: 0.564591 cumulative IPC: 0.53475 (Simulation time: 1 hr 26 min 56 sec) 
Finished CPU 1 instructions: 200000003 cycles: 374009585 cumulative IPC: 0.534746 (Simulation time: 1 hr 26 min 59 sec) 

ChampSim completed all CPUs

Total Simulation Statistics (not including warmup)

CPU 0 cumulative IPC: 0.568116 instructions: 212480884 cycles: 374009585
ITLB TOTAL     ACCESS:   30619950  HIT:   29498924  MISS:    1121026  HIT %:    96.3389  MISS %:     3.6611   MPKI: 5.27589
ITLB LOAD      ACCESS:          0  HIT:          0  MISS:          0  HIT %:       -nan  MISS %:       -nan   MPKI: 0
ITLB RFO       ACCESS:          0  HIT:          0  MISS:          0  HIT %:       -nan  MISS %:       -nan   MPKI: 0
ITLB PREFETCH  ACCESS:          0  HIT:          0  MISS:          0  HIT %:       -nan  MISS %:       -nan   MPKI: 0
ITLB WRITEBACK ACCESS:          0  HIT:          0  MISS:          0  HIT %:       -nan  MISS %:       -nan   MPKI: 0
DTLB TOTAL     ACCESS:   16072065  HIT:   10961811  MISS:    5110254  HIT %:    68.2041  MISS %:    31.7959   MPKI: 24.0504
DTLB LOAD      ACCESS:          0  HIT:          0  MISS:          0  HIT %:       -nan  MISS %:       -nan   MPKI: 0
DTLB RFO       ACCESS:          0  HIT:          0  MISS:          0  HIT %:       -nan  MISS %:       -nan   MPKI: 0
DTLB PREFETCH  ACCESS:          0  HIT:          0  MISS:          0  HIT %:       -nan  MISS %:       -nan   MPKI: 0
DTLB WRITEBACK ACCESS:          0  HIT:          0  MISS:          0  HIT %:       -nan  MISS %:       -nan   MPKI: 0
STLB TOTAL     ACCESS:    9107669  HIT:    3688533  MISS:    5419136  HIT %:    40.4992  MISS %:    59.5008   MPKI: 25.5041
STLB LOAD      ACCESS:          0  HIT:          0  MISS:          0  HIT %:       -nan  MISS %:       -nan   MPKI: 0
STLB RFO       ACCESS:          0  HIT:          0  MISS:          0  HIT %:       -nan  MISS %:       -nan   MPKI: 0
STLB PREFETCH  ACCESS:          0  HIT:          0  MISS:          0  HIT %:       -nan  MISS %:       -nan   MPKI: 0
STLB WRITEBACK ACCESS:          0  HIT:          0  MISS:          0  HIT %:       -nan  MISS %:       -nan   MPKI: 0
L1D TOTAL     ACCESS:   24020616  HIT:   21352425  MISS:    2668191  HIT %:    88.8921  MISS %:    11.1079   MPKI: 12.5573
L1D LOAD      ACCESS:   12897218  HIT:   11775360  MISS:    1121858  HIT %:    91.3016  MISS %:    8.69845   MPKI: 5.27981
L1D RFO       ACCESS:    6580315  HIT:    6434121  MISS:     146194  HIT %:    97.7783  MISS %:    2.22169   MPKI: 0.688034
L1D PREFETCH  ACCESS:    4543083  HIT:    3142944  MISS:    1400139  HIT %:    69.1809  MISS %:    30.8191   MPKI: 6.58948
L1D WRITEBACK ACCESS:          0  HIT:          0  MISS:          0  HIT %:       -nan  MISS %:       -nan   MPKI: 0
L1I TOTAL     ACCESS:   39713216  HIT:   39311204  MISS:     402012  HIT %:    98.9877  MISS %:    1.01229   MPKI: 1.89199
L1I LOAD      ACCESS:   39713216  HIT:   39311204  MISS:     402012  HIT %:    98.9877  MISS %:    1.01229   MPKI: 1.89199
L1I RFO       ACCESS:          0  HIT:          0  MISS:          0  HIT %:       -nan  MISS %:       -nan   MPKI: 0
L1I PREFETCH  ACCESS:          0  HIT:          0  MISS:          0  HIT %:       -nan  MISS %:       -nan   MPKI: 0
L1I WRITEBACK ACCESS:          0  HIT:          0  MISS:          0  HIT %:       -nan  MISS %:       -nan   MPKI: 0
L2C TOTAL     ACCESS:    9434355  HIT:    6511895  MISS:    2922460  HIT %:    69.0232  MISS %:    30.9768   MPKI: 13.754
L2C LOAD      ACCESS:    1400766  HIT:     269309  MISS:    1131457  HIT %:    19.2258  MISS %:    80.7742   MPKI: 5.32498
L2C RFO       ACCESS:     146039  HIT:      51925  MISS:      94114  HIT %:    35.5556  MISS %:    64.4444   MPKI: 0.442929
L2C PREFETCH  ACCESS:    1523386  HIT:     165986  MISS:    1357400  HIT %:    10.8959  MISS %:    89.1041   MPKI: 6.38834
L2C WRITEBACK ACCESS:     468299  HIT:     428828  MISS:      39471  HIT %:    91.5714  MISS %:    8.42859   MPKI: 0.185763
PSCL5 TOTAL     ACCESS:    5419136  HIT:    5419136  MISS:          0  HIT %:        100  MISS %:          0   MPKI: 0
PSCL5 LOAD      ACCESS:          0  HIT:          0  MISS:          0  HIT %:       -nan  MISS %:       -nan   MPKI: 0
PSCL5 RFO       ACCESS:          0  HIT:          0  MISS:          0  HIT %:       -nan  MISS %:       -nan   MPKI: 0
PSCL5 PREFETCH  ACCESS:          0  HIT:          0  MISS:          0  HIT %:       -nan  MISS %:       -nan   MPKI: 0
PSCL5 WRITEBACK ACCESS:          0  HIT:          0  MISS:          0  HIT %:       -nan  MISS %:       -nan   MPKI: 0
PSCL4 TOTAL     ACCESS:    5311680  HIT:    5310821  MISS:        859  HIT %:    99.9838  MISS %:  0.0161719   MPKI: 0.00404272
PSCL4 LOAD      ACCESS:          0  HIT:          0  MISS:          0  HIT %:       -nan  MISS %:       -nan   MPKI: 0
PSCL4 RFO       ACCESS:          0  HIT:          0  MISS:          0  HIT %:       -nan  MISS %:       -nan   MPKI: 0
PSCL4 PREFETCH  ACCESS:          0  HIT:          0  MISS:          0  HIT %:       -nan  MISS %:       -nan   MPKI: 0
PSCL4 WRITEBACK ACCESS:          0  HIT:          0  MISS:          0  HIT %:       -nan  MISS %:       -nan   MPKI: 0
PSCL3 TOTAL     ACCESS:    5404501  HIT:    5400450  MISS:       4051  HIT %:     99.925  MISS %:   0.074956   MPKI: 0.0190652
PSCL3 LOAD      ACCESS:          0  HIT:          0  MISS:          0  HIT %:       -nan  MISS %:       -nan   MPKI: 0
PSCL3 RFO       ACCESS:          0  HIT:          0  MISS:          0  HIT %:       -nan  MISS %:       -nan   MPKI: 0
PSCL3 PREFETCH  ACCESS:          0  HIT:          0  MISS:          0  HIT %:       -nan  MISS %:       -nan   MPKI: 0
PSCL3 WRITEBACK ACCESS:          0  HIT:          0  MISS:          0  HIT %:       -nan  MISS %:       -nan   MPKI: 0
PSCL2 TOTAL     ACCESS:    5419136  HIT:    4947197  MISS:     471939  HIT %:    91.2913  MISS %:    8.70875   MPKI: 2.22109
PSCL2 LOAD      ACCESS:          0  HIT:          0  MISS:          0  HIT %:       -nan  MISS %:       -nan   MPKI: 0
PSCL2 RFO       ACCESS:          0  HIT:          0  MISS:          0  HIT %:       -nan  MISS %:       -nan   MPKI: 0
PSCL2 PREFETCH  ACCESS:          0  HIT:          0  MISS:          0  HIT %:       -nan  MISS %:       -nan   MPKI: 0
PSCL2 WRITEBACK ACCESS:          0  HIT:          0  MISS:          0  HIT %:       -nan  MISS %:       -nan   MPKI: 0

stream: 
stream:times selected: 4974828
stream:pref_filled: 928867
stream:pref_useful: 96268
stream:pref_late: 49945
stream:misses: 225189
stream:misses_by_poll: 0

CS: 
CS:times selected: 1519590
CS:pref_filled: 550891
CS:pref_useful: 538452
CS:pref_late: 77509
CS:misses: 279905
CS:misses_by_poll: 1610

CPLX: 
CPLX:times selected: 3427068
CPLX:pref_filled: 261041
CPLX:pref_useful: 15317
CPLX:pref_late: 776
CPLX:misses: 790918
CPLX:misses_by_poll: 491

NL_L1: 
NL:times selected: 16729
NL:pref_filled: 8650
NL:pref_useful: 1463
NL:pref_late: 399
NL:misses: 7680
NL:misses_by_poll: 1

total selections: 9938215
total_filled: 1400139
total_useful: 506809
total_late: 129871
total_polluted: 2102
total_misses_after_warmup: 1314105
conflicts: 2387761
Degree Incremented Times: 260251
Degree Decremented Times: 869674

L1 IP Table Write Accesses: 47558200
L1 IP Table Read Accesses: 45170439
L1 RST Write Accesses: 15722910
L1 RST Read Accesses: 31445820
L1 CSPT Write Accesses: 15722910
L1 CSPT Read Accesses: 26542751
L1 RR Filter Tag Write Accesses: 18323343
L1 RR Filter Tag Read Accesses: 869545664
L1 IP Table Tag Write Accesses: 52431946
L1 IP Table Tag Read Accesses: 52431946
L1 RST Tag Write Accesses: 0
L1 RST Tag Read Accesses: 154083360
L1 RR Filter Write Accesses: 0
L1 RR Filter Read Accesses: 30933976
test: 7678410
LLC TOTAL     ACCESS:    3282857  HIT:    1120199  MISS:    2162658  HIT %:    34.1227  MISS %:    65.8773   MPKI: 10.1781
LLC LOAD      ACCESS:    1131456  HIT:     382527  MISS:     748929  HIT %:    33.8084  MISS %:    66.1916   MPKI: 3.52469
LLC RFO       ACCESS:      94114  HIT:      24661  MISS:      69453  HIT %:    26.2033  MISS %:    73.7967   MPKI: 0.326867
LLC PREFETCH  ACCESS:    1357400  HIT:     194286  MISS:    1163114  HIT %:    14.3131  MISS %:    85.6869   MPKI: 5.47397
LLC WRITEBACK ACCESS:     399869  HIT:     378800  MISS:      21069  HIT %:     94.731  MISS %:    5.26898   MPKI: 0.0991572

RAW hits: 771085
Loads Generated: 25077255
Loads sent to L1D: 24306170
Stores Generated: 7376163
Stores sent to L1D: 7376175

CPU 1 cumulative IPC: 0.534746 instructions: 200000003 cycles: 374009585
ITLB TOTAL     ACCESS:   29128193  HIT:   27826891  MISS:    1301302  HIT %:    95.5325  MISS %:     4.4675   MPKI: 6.50651
ITLB LOAD      ACCESS:          0  HIT:          0  MISS:          0  HIT %:       -nan  MISS %:       -nan   MPKI: 0
ITLB RFO       ACCESS:          0  HIT:          0  MISS:          0  HIT %:       -nan  MISS %:       -nan   MPKI: 0
ITLB PREFETCH  ACCESS:          0  HIT:          0  MISS:          0  HIT %:       -nan  MISS %:       -nan   MPKI: 0
ITLB WRITEBACK ACCESS:          0  HIT:          0  MISS:          0  HIT %:       -nan  MISS %:       -nan   MPKI: 0
DTLB TOTAL     ACCESS:   15984109  HIT:   10788706  MISS:    5195403  HIT %:    67.4964  MISS %:    32.5036   MPKI: 25.977
DTLB LOAD      ACCESS:          0  HIT:          0  MISS:          0  HIT %:       -nan  MISS %:       -nan   MPKI: 0
DTLB RFO       ACCESS:          0  HIT:          0  MISS:          0  HIT %:       -nan  MISS %:       -nan   MPKI: 0
DTLB PREFETCH  ACCESS:          0  HIT:          0  MISS:          0  HIT %:       -nan  MISS %:       -nan   MPKI: 0
DTLB WRITEBACK ACCESS:          0  HIT:          0  MISS:          0  HIT %:       -nan  MISS %:       -nan   MPKI: 0
STLB TOTAL     ACCESS:    9162736  HIT:    3618746  MISS:    5543990  HIT %:    39.4942  MISS %:    60.5058   MPKI: 27.7199
STLB LOAD      ACCESS:          0  HIT:          0  MISS:          0  HIT %:       -nan  MISS %:       -nan   MPKI: 0
STLB RFO       ACCESS:          0  HIT:          0  MISS:          0  HIT %:       -nan  MISS %:       -nan   MPKI: 0
STLB PREFETCH  ACCESS:          0  HIT:          0  MISS:          0  HIT %:       -nan  MISS %:       -nan   MPKI: 0
STLB WRITEBACK ACCESS:          0  HIT:          0  MISS:          0  HIT %:       -nan  MISS %:       -nan   MPKI: 0
L1D TOTAL     ACCESS:   23734414  HIT:   20982205  MISS:    2752209  HIT %:    88.4041  MISS %:    11.5959   MPKI: 13.761
L1D LOAD      ACCESS:   12661088  HIT:   11432090  MISS:    1228998  HIT %:    90.2931  MISS %:    9.70689   MPKI: 6.14499
L1D RFO       ACCESS:    6902525  HIT:    6694304  MISS:     208221  HIT %:    96.9834  MISS %:    3.01659   MPKI: 1.0411
L1D PREFETCH  ACCESS:    4170801  HIT:    2855811  MISS:    1314990  HIT %:    68.4715  MISS %:    31.5285   MPKI: 6.57495
L1D WRITEBACK ACCESS:          0  HIT:          0  MISS:          0  HIT %:       -nan  MISS %:       -nan   MPKI: 0
L1I TOTAL     ACCESS:   37520643  HIT:   36517589  MISS:    1003054  HIT %:    97.3267  MISS %:    2.67334   MPKI: 5.01527
L1I LOAD      ACCESS:   37520643  HIT:   36517589  MISS:    1003054  HIT %:    97.3267  MISS %:    2.67334   MPKI: 5.01527
L1I RFO       ACCESS:          0  HIT:          0  MISS:          0  HIT %:       -nan  MISS %:       -nan   MPKI: 0
L1I PREFETCH  ACCESS:          0  HIT:          0  MISS:          0  HIT %:       -nan  MISS %:       -nan   MPKI: 0
L1I WRITEBACK ACCESS:          0  HIT:          0  MISS:          0  HIT %:       -nan  MISS %:       -nan   MPKI: 0
L2C TOTAL     ACCESS:   10398258  HIT:    7431901  MISS:    2966357  HIT %:    71.4726  MISS %:    28.5274   MPKI: 14.8318
L2C LOAD      ACCESS:    2116237  HIT:     865927  MISS:    1250310  HIT %:    40.9182  MISS %:    59.0818   MPKI: 6.25155
L2C RFO       ACCESS:     208006  HIT:      81283  MISS:     126723  HIT %:    39.0772  MISS %:    60.9228   MPKI: 0.633615
L2C PREFETCH  ACCESS:    1430988  HIT:     177433  MISS:    1253555  HIT %:    12.3993  MISS %:    87.6007   MPKI: 6.26777
L2C WRITEBACK ACCESS:     566893  HIT:     523270  MISS:      43623  HIT %:    92.3049  MISS %:     7.6951   MPKI: 0.218115
PSCL5 TOTAL     ACCESS:    5543990  HIT:    5543990  MISS:          0  HIT %:        100  MISS %:          0   MPKI: 0
PSCL5 LOAD      ACCESS:          0  HIT:          0  MISS:          0  HIT %:       -nan  MISS %:       -nan   MPKI: 0
PSCL5 RFO       ACCESS:          0  HIT:          0  MISS:          0  HIT %:       -nan  MISS %:       -nan   MPKI: 0
PSCL5 PREFETCH  ACCESS:          0  HIT:          0  MISS:          0  HIT %:       -nan  MISS %:       -nan   MPKI: 0
PSCL5 WRITEBACK ACCESS:          0  HIT:          0  MISS:          0  HIT %:       -nan  MISS %:       -nan   MPKI: 0
PSCL4 TOTAL     ACCESS:    5408023  HIT:    5407278  MISS:        745  HIT %:    99.9862  MISS %:  0.0137758   MPKI: 0.003725
PSCL4 LOAD      ACCESS:          0  HIT:          0  MISS:          0  HIT %:       -nan  MISS %:       -nan   MPKI: 0
PSCL4 RFO       ACCESS:          0  HIT:          0  MISS:          0  HIT %:       -nan  MISS %:       -nan   MPKI: 0
PSCL4 PREFETCH  ACCESS:          0  HIT:          0  MISS:          0  HIT %:       -nan  MISS %:       -nan   MPKI: 0
PSCL4 WRITEBACK ACCESS:          0  HIT:          0  MISS:          0  HIT %:       -nan  MISS %:       -nan   MPKI: 0
PSCL3 TOTAL     ACCESS:    5504872  HIT:    5495115  MISS:       9757  HIT %:    99.8228  MISS %:   0.177243   MPKI: 0.048785
PSCL3 LOAD      ACCESS:          0  HIT:          0  MISS:          0  HIT %:       -nan  MISS %:       -nan   MPKI: 0
PSCL3 RFO       ACCESS:          0  HIT:          0  MISS:          0  HIT %:       -nan  MISS %:       -nan   MPKI: 0
PSCL3 PREFETCH  ACCESS:          0  HIT:          0  MISS:          0  HIT %:       -nan  MISS %:       -nan   MPKI: 0
PSCL3 WRITEBACK ACCESS:          0  HIT:          0  MISS:          0  HIT %:       -nan  MISS %:       -nan   MPKI: 0
PSCL2 TOTAL     ACCESS:    5543990  HIT:    5022164  MISS:     521826  HIT %:    90.5875  MISS %:    9.41246   MPKI: 2.60913
PSCL2 LOAD      ACCESS:          0  HIT:          0  MISS:          0  HIT %:       -nan  MISS %:       -nan   MPKI: 0
PSCL2 RFO       ACCESS:          0  HIT:          0  MISS:          0  HIT %:       -nan  MISS %:       -nan   MPKI: 0
PSCL2 PREFETCH  ACCESS:          0  HIT:          0  MISS:          0  HIT %:       -nan  MISS %:       -nan   MPKI: 0
PSCL2 WRITEBACK ACCESS:          0  HIT:          0  MISS:          0  HIT %:       -nan  MISS %:       -nan   MPKI: 0

stream: 
stream:times selected: 4710620
stream:pref_filled: 884454
stream:pref_useful: 96633
stream:pref_late: 43881
stream:misses: 208165
stream:misses_by_poll: 0

CS: 
CS:times selected: 1457688
CS:pref_filled: 519811
CS:pref_useful: 504670
CS:pref_late: 76327
CS:misses: 267357
CS:misses_by_poll: 1542

CPLX: 
CPLX:times selected: 3224931
CPLX:pref_filled: 244904
CPLX:pref_useful: 15914
CPLX:pref_late: 894
CPLX:misses: 725796
CPLX:misses_by_poll: 393

NL_L1: 
NL:times selected: 16663
NL:pref_filled: 7511
NL:pref_useful: 1304
NL:pref_late: 367
NL:misses: 8288
NL:misses_by_poll: 0

total selections: 9409902
total_filled: 1314990
total_useful: 478600
total_late: 122756
total_polluted: 1935
total_misses_after_warmup: 1425952
conflicts: 2387761
Degree Incremented Times: 260251
Degree Decremented Times: 869674

L1 IP Table Write Accesses: 47558200
L1 IP Table Read Accesses: 45170439
L1 RST Write Accesses: 15722910
L1 RST Read Accesses: 31445820
L1 CSPT Write Accesses: 15722910
L1 CSPT Read Accesses: 26542751
L1 RR Filter Tag Write Accesses: 18323343
L1 RR Filter Tag Read Accesses: 869545664
L1 IP Table Tag Write Accesses: 52431946
L1 IP Table Tag Read Accesses: 52431946
L1 RST Tag Write Accesses: 0
L1 RST Tag Read Accesses: 154083360
L1 RR Filter Write Accesses: 0
L1 RR Filter Read Accesses: 30933976
test: 7678410
LLC TOTAL     ACCESS:    3360324  HIT:    1265066  MISS:    2095258  HIT %:    37.6471  MISS %:    62.3529   MPKI: 10.4763
LLC LOAD      ACCESS:    1250309  HIT:     493792  MISS:     756517  HIT %:    39.4936  MISS %:    60.5064   MPKI: 3.78258
LLC RFO       ACCESS:     126722  HIT:      39387  MISS:      87335  HIT %:    31.0814  MISS %:    68.9186   MPKI: 0.436675
LLC PREFETCH  ACCESS:    1253555  HIT:     179254  MISS:    1074301  HIT %:    14.2997  MISS %:    85.7003   MPKI: 5.3715
LLC WRITEBACK ACCESS:     437592  HIT:     416622  MISS:      20970  HIT %:    95.2079  MISS %:    4.79214   MPKI: 0.10485

RAW hits: 754391
Loads Generated: 24305402
Loads sent to L1D: 23551008
Stores Generated: 7870046
Stores sent to L1D: 7870046

CPU 2 cumulative IPC: 0.563801 instructions: 210867108 cycles: 374009585
ITLB TOTAL     ACCESS:   30452593  HIT:   29255810  MISS:    1196783  HIT %:      96.07  MISS %:    3.92999   MPKI: 5.67553
ITLB LOAD      ACCESS:          0  HIT:          0  MISS:          0  HIT %:       -nan  MISS %:       -nan   MPKI: 0
ITLB RFO       ACCESS:          0  HIT:          0  MISS:          0  HIT %:       -nan  MISS %:       -nan   MPKI: 0
ITLB PREFETCH  ACCESS:          0  HIT:          0  MISS:          0  HIT %:       -nan  MISS %:       -nan   MPKI: 0
ITLB WRITEBACK ACCESS:          0  HIT:          0  MISS:          0  HIT %:       -nan  MISS %:       -nan   MPKI: 0
DTLB TOTAL     ACCESS:   16204573  HIT:   11220083  MISS:    4984490  HIT %:    69.2402  MISS %:    30.7598   MPKI: 23.6381
DTLB LOAD      ACCESS:          0  HIT:          0  MISS:          0  HIT %:       -nan  MISS %:       -nan   MPKI: 0
DTLB RFO       ACCESS:          0  HIT:          0  MISS:          0  HIT %:       -nan  MISS %:       -nan   MPKI: 0
DTLB PREFETCH  ACCESS:          0  HIT:          0  MISS:          0  HIT %:       -nan  MISS %:       -nan   MPKI: 0
DTLB WRITEBACK ACCESS:          0  HIT:          0  MISS:          0  HIT %:       -nan  MISS %:       -nan   MPKI: 0
STLB TOTAL     ACCESS:    9018727  HIT:    3595088  MISS:    5423639  HIT %:    39.8625  MISS %:    60.1375   MPKI: 25.7206
STLB LOAD      ACCESS:          0  HIT:          0  MISS:          0  HIT %:       -nan  MISS %:       -nan   MPKI: 0
STLB RFO       ACCESS:          0  HIT:          0  MISS:          0  HIT %:       -nan  MISS %:       -nan   MPKI: 0
STLB PREFETCH  ACCESS:          0  HIT:          0  MISS:          0  HIT %:       -nan  MISS %:       -nan   MPKI: 0
STLB WRITEBACK ACCESS:          0  HIT:          0  MISS:          0  HIT %:       -nan  MISS %:       -nan   MPKI: 0
L1D TOTAL     ACCESS:   24189155  HIT:   21459715  MISS:    2729440  HIT %:    88.7163  MISS %:    11.2837   MPKI: 12.9439
L1D LOAD      ACCESS:   12956180  HIT:   11794984  MISS:    1161196  HIT %:    91.0375  MISS %:    8.96249   MPKI: 5.50677
L1D RFO       ACCESS:    6765226  HIT:    6582940  MISS:     182286  HIT %:    97.3055  MISS %:    2.69446   MPKI: 0.864459
L1D PREFETCH  ACCESS:    4467749  HIT:    3081791  MISS:    1385958  HIT %:    68.9786  MISS %:    31.0214   MPKI: 6.57266
L1D WRITEBACK ACCESS:          0  HIT:          0  MISS:          0  HIT %:       -nan  MISS %:       -nan   MPKI: 0
L1I TOTAL     ACCESS:   39388154  HIT:   38826739  MISS:     561415  HIT %:    98.5747  MISS %:    1.42534   MPKI: 2.66241
L1I LOAD      ACCESS:   39388154  HIT:   38826739  MISS:     561415  HIT %:    98.5747  MISS %:    1.42534   MPKI: 2.66241
L1I RFO       ACCESS:          0  HIT:          0  MISS:          0  HIT %:       -nan  MISS %:       -nan   MPKI: 0
L1I PREFETCH  ACCESS:          0  HIT:          0  MISS:          0  HIT %:       -nan  MISS %:       -nan   MPKI: 0
L1I WRITEBACK ACCESS:          0  HIT:          0  MISS:          0  HIT %:       -nan  MISS %:       -nan   MPKI: 0
L2C TOTAL     ACCESS:    9742084  HIT:    6722739  MISS:    3019345  HIT %:    69.0072  MISS %:    30.9928   MPKI: 14.3187
L2C LOAD      ACCESS:    1599476  HIT:     379836  MISS:    1219640  HIT %:    23.7475  MISS %:    76.2525   MPKI: 5.78393
L2C RFO       ACCESS:     182051  HIT:      60105  MISS:     121946  HIT %:    33.0155  MISS %:    66.9845   MPKI: 0.578307
L2C PREFETCH  ACCESS:    1509320  HIT:     173724  MISS:    1335596  HIT %:    11.5101  MISS %:    88.4899   MPKI: 6.33383
L2C WRITEBACK ACCESS:     520156  HIT:     476460  MISS:      43696  HIT %:    91.5994  MISS %:    8.40056   MPKI: 0.207221
PSCL5 TOTAL     ACCESS:    5423639  HIT:    5423639  MISS:          0  HIT %:        100  MISS %:          0   MPKI: 0
PSCL5 LOAD      ACCESS:          0  HIT:          0  MISS:          0  HIT %:       -nan  MISS %:       -nan   MPKI: 0
PSCL5 RFO       ACCESS:          0  HIT:          0  MISS:          0  HIT %:       -nan  MISS %:       -nan   MPKI: 0
PSCL5 PREFETCH  ACCESS:          0  HIT:          0  MISS:          0  HIT %:       -nan  MISS %:       -nan   MPKI: 0
PSCL5 WRITEBACK ACCESS:          0  HIT:          0  MISS:          0  HIT %:       -nan  MISS %:       -nan   MPKI: 0
PSCL4 TOTAL     ACCESS:    4967031  HIT:    4966191  MISS:        840  HIT %:    99.9831  MISS %:  0.0169115   MPKI: 0.00398355
PSCL4 LOAD      ACCESS:          0  HIT:          0  MISS:          0  HIT %:       -nan  MISS %:       -nan   MPKI: 0
PSCL4 RFO       ACCESS:          0  HIT:          0  MISS:          0  HIT %:       -nan  MISS %:       -nan   MPKI: 0
PSCL4 PREFETCH  ACCESS:          0  HIT:          0  MISS:          0  HIT %:       -nan  MISS %:       -nan   MPKI: 0
PSCL4 WRITEBACK ACCESS:          0  HIT:          0  MISS:          0  HIT %:       -nan  MISS %:       -nan   MPKI: 0
PSCL3 TOTAL     ACCESS:    5401820  HIT:    5395981  MISS:       5839  HIT %:    99.8919  MISS %:   0.108093   MPKI: 0.0276904
PSCL3 LOAD      ACCESS:          0  HIT:          0  MISS:          0  HIT %:       -nan  MISS %:       -nan   MPKI: 0
PSCL3 RFO       ACCESS:          0  HIT:          0  MISS:          0  HIT %:       -nan  MISS %:       -nan   MPKI: 0
PSCL3 PREFETCH  ACCESS:          0  HIT:          0  MISS:          0  HIT %:       -nan  MISS %:       -nan   MPKI: 0
PSCL3 WRITEBACK ACCESS:          0  HIT:          0  MISS:          0  HIT %:       -nan  MISS %:       -nan   MPKI: 0
PSCL2 TOTAL     ACCESS:    5423639  HIT:    4922747  MISS:     500892  HIT %:    90.7647  MISS %:    9.23535   MPKI: 2.37539
PSCL2 LOAD      ACCESS:          0  HIT:          0  MISS:          0  HIT %:       -nan  MISS %:       -nan   MPKI: 0
PSCL2 RFO       ACCESS:          0  HIT:          0  MISS:          0  HIT %:       -nan  MISS %:       -nan   MPKI: 0
PSCL2 PREFETCH  ACCESS:          0  HIT:          0  MISS:          0  HIT %:       -nan  MISS %:       -nan   MPKI: 0
PSCL2 WRITEBACK ACCESS:          0  HIT:          0  MISS:          0  HIT %:       -nan  MISS %:       -nan   MPKI: 0

stream: 
stream:times selected: 4980174
stream:pref_filled: 915469
stream:pref_useful: 97213
stream:pref_late: 46261
stream:misses: 226020
stream:misses_by_poll: 0

CS: 
CS:times selected: 1560964
CS:pref_filled: 550069
CS:pref_useful: 536216
CS:pref_late: 81073
CS:misses: 276514
CS:misses_by_poll: 1472

CPLX: 
CPLX:times selected: 3388412
CPLX:pref_filled: 254977
CPLX:pref_useful: 15784
CPLX:pref_late: 716
CPLX:misses: 765187
CPLX:misses_by_poll: 572

NL_L1: 
NL:times selected: 16474
NL:pref_filled: 8074
NL:pref_useful: 1451
NL:pref_late: 417
NL:misses: 6591
NL:misses_by_poll: 0

total selections: 9946024
total_filled: 1385958
total_useful: 504560
total_late: 129599
total_polluted: 2044
total_misses_after_warmup: 1348877
conflicts: 2387761
Degree Incremented Times: 260251
Degree Decremented Times: 869674

L1 IP Table Write Accesses: 47558200
L1 IP Table Read Accesses: 45170439
L1 RST Write Accesses: 15722910
L1 RST Read Accesses: 31445820
L1 CSPT Write Accesses: 15722910
L1 CSPT Read Accesses: 26542751
L1 RR Filter Tag Write Accesses: 18323343
L1 RR Filter Tag Read Accesses: 869545664
L1 IP Table Tag Write Accesses: 52431946
L1 IP Table Tag Read Accesses: 52431946
L1 RST Tag Write Accesses: 0
L1 RST Tag Read Accesses: 154083360
L1 RR Filter Write Accesses: 0
L1 RR Filter Read Accesses: 30933976
test: 7678410
LLC TOTAL     ACCESS:    3411448  HIT:    1258265  MISS:    2153183  HIT %:    36.8836  MISS %:    63.1164   MPKI: 10.2111
LLC LOAD      ACCESS:    1219640  HIT:     474812  MISS:     744828  HIT %:    38.9305  MISS %:    61.0695   MPKI: 3.53222
LLC RFO       ACCESS:     121946  HIT:      29178  MISS:      92768  HIT %:     23.927  MISS %:     76.073   MPKI: 0.439936
LLC PREFETCH  ACCESS:    1335596  HIT:     198004  MISS:    1137592  HIT %:    14.8251  MISS %:    85.1749   MPKI: 5.39483
LLC WRITEBACK ACCESS:     435799  HIT:     414833  MISS:      20966  HIT %:    95.1891  MISS %:    4.81093   MPKI: 0.0994276

RAW hits: 767166
Loads Generated: 25176059
Loads sent to L1D: 24408893
Stores Generated: 7696723
Stores sent to L1D: 7696734

CPU 3 cumulative IPC: 0.551613 instructions: 206308624 cycles: 374009585
ITLB TOTAL     ACCESS:   29892806  HIT:   28673278  MISS:    1219528  HIT %:    95.9203  MISS %:    4.07967   MPKI: 5.91118
ITLB LOAD      ACCESS:          0  HIT:          0  MISS:          0  HIT %:       -nan  MISS %:       -nan   MPKI: 0
ITLB RFO       ACCESS:          0  HIT:          0  MISS:          0  HIT %:       -nan  MISS %:       -nan   MPKI: 0
ITLB PREFETCH  ACCESS:          0  HIT:          0  MISS:          0  HIT %:       -nan  MISS %:       -nan   MPKI: 0
ITLB WRITEBACK ACCESS:          0  HIT:          0  MISS:          0  HIT %:       -nan  MISS %:       -nan   MPKI: 0
DTLB TOTAL     ACCESS:   16200046  HIT:   11092757  MISS:    5107289  HIT %:    68.4736  MISS %:    31.5264   MPKI: 24.7556
DTLB LOAD      ACCESS:          0  HIT:          0  MISS:          0  HIT %:       -nan  MISS %:       -nan   MPKI: 0
DTLB RFO       ACCESS:          0  HIT:          0  MISS:          0  HIT %:       -nan  MISS %:       -nan   MPKI: 0
DTLB PREFETCH  ACCESS:          0  HIT:          0  MISS:          0  HIT %:       -nan  MISS %:       -nan   MPKI: 0
DTLB WRITEBACK ACCESS:          0  HIT:          0  MISS:          0  HIT %:       -nan  MISS %:       -nan   MPKI: 0
STLB TOTAL     ACCESS:    9103818  HIT:    3684070  MISS:    5419748  HIT %:    40.4673  MISS %:    59.5327   MPKI: 26.2701
STLB LOAD      ACCESS:          0  HIT:          0  MISS:          0  HIT %:       -nan  MISS %:       -nan   MPKI: 0
STLB RFO       ACCESS:          0  HIT:          0  MISS:          0  HIT %:       -nan  MISS %:       -nan   MPKI: 0
STLB PREFETCH  ACCESS:          0  HIT:          0  MISS:          0  HIT %:       -nan  MISS %:       -nan   MPKI: 0
STLB WRITEBACK ACCESS:          0  HIT:          0  MISS:          0  HIT %:       -nan  MISS %:       -nan   MPKI: 0
L1D TOTAL     ACCESS:   24218601  HIT:   21550337  MISS:    2668264  HIT %:    88.9826  MISS %:    11.0174   MPKI: 12.9334
L1D LOAD      ACCESS:   12980565  HIT:   11842435  MISS:    1138130  HIT %:     91.232  MISS %:    8.76795   MPKI: 5.51664
L1D RFO       ACCESS:    6855057  HIT:    6680760  MISS:     174297  HIT %:    97.4574  MISS %:     2.5426   MPKI: 0.844836
L1D PREFETCH  ACCESS:    4382979  HIT:    3027142  MISS:    1355837  HIT %:    69.0659  MISS %:    30.9341   MPKI: 6.57189
L1D WRITEBACK ACCESS:          0  HIT:          0  MISS:          0  HIT %:       -nan  MISS %:       -nan   MPKI: 0
L1I TOTAL     ACCESS:   38685619  HIT:   38078176  MISS:     607443  HIT %:    98.4298  MISS %:     1.5702   MPKI: 2.94434
L1I LOAD      ACCESS:   38685619  HIT:   38078176  MISS:     607443  HIT %:    98.4298  MISS %:     1.5702   MPKI: 2.94434
L1I RFO       ACCESS:          0  HIT:          0  MISS:          0  HIT %:       -nan  MISS %:       -nan   MPKI: 0
L1I PREFETCH  ACCESS:          0  HIT:          0  MISS:          0  HIT %:       -nan  MISS %:       -nan   MPKI: 0
L1I WRITEBACK ACCESS:          0  HIT:          0  MISS:          0  HIT %:       -nan  MISS %:       -nan   MPKI: 0
L2C TOTAL     ACCESS:    9766340  HIT:    6806259  MISS:    2960081  HIT %:     69.691  MISS %:     30.309   MPKI: 14.3478
L2C LOAD      ACCESS:    1627075  HIT:     428766  MISS:    1198309  HIT %:     26.352  MISS %:     73.648   MPKI: 5.80833
L2C RFO       ACCESS:     174039  HIT:      55459  MISS:     118580  HIT %:    31.8658  MISS %:    68.1342   MPKI: 0.57477
L2C PREFETCH  ACCESS:    1474578  HIT:     166679  MISS:    1307899  HIT %:    11.3035  MISS %:    88.6965   MPKI: 6.33953
L2C WRITEBACK ACCESS:     504059  HIT:     462515  MISS:      41544  HIT %:    91.7581  MISS %:    8.24189   MPKI: 0.201368
PSCL5 TOTAL     ACCESS:    5419748  HIT:    5419748  MISS:          0  HIT %:        100  MISS %:          0   MPKI: 0
PSCL5 LOAD      ACCESS:          0  HIT:          0  MISS:          0  HIT %:       -nan  MISS %:       -nan   MPKI: 0
PSCL5 RFO       ACCESS:          0  HIT:          0  MISS:          0  HIT %:       -nan  MISS %:       -nan   MPKI: 0
PSCL5 PREFETCH  ACCESS:          0  HIT:          0  MISS:          0  HIT %:       -nan  MISS %:       -nan   MPKI: 0
PSCL5 WRITEBACK ACCESS:          0  HIT:          0  MISS:          0  HIT %:       -nan  MISS %:       -nan   MPKI: 0
PSCL4 TOTAL     ACCESS:    5297376  HIT:    5296521  MISS:        855  HIT %:    99.9839  MISS %:  0.0161401   MPKI: 0.00414428
PSCL4 LOAD      ACCESS:          0  HIT:          0  MISS:          0  HIT %:       -nan  MISS %:       -nan   MPKI: 0
PSCL4 RFO       ACCESS:          0  HIT:          0  MISS:          0  HIT %:       -nan  MISS %:       -nan   MPKI: 0
PSCL4 PREFETCH  ACCESS:          0  HIT:          0  MISS:          0  HIT %:       -nan  MISS %:       -nan   MPKI: 0
PSCL4 WRITEBACK ACCESS:          0  HIT:          0  MISS:          0  HIT %:       -nan  MISS %:       -nan   MPKI: 0
PSCL3 TOTAL     ACCESS:    5398779  HIT:    5390497  MISS:       8282  HIT %:    99.8466  MISS %:   0.153405   MPKI: 0.0401437
PSCL3 LOAD      ACCESS:          0  HIT:          0  MISS:          0  HIT %:       -nan  MISS %:       -nan   MPKI: 0
PSCL3 RFO       ACCESS:          0  HIT:          0  MISS:          0  HIT %:       -nan  MISS %:       -nan   MPKI: 0
PSCL3 PREFETCH  ACCESS:          0  HIT:          0  MISS:          0  HIT %:       -nan  MISS %:       -nan   MPKI: 0
PSCL3 WRITEBACK ACCESS:          0  HIT:          0  MISS:          0  HIT %:       -nan  MISS %:       -nan   MPKI: 0
PSCL2 TOTAL     ACCESS:    5419748  HIT:    4861899  MISS:     557849  HIT %:    89.7071  MISS %:    10.2929   MPKI: 2.70395
PSCL2 LOAD      ACCESS:          0  HIT:          0  MISS:          0  HIT %:       -nan  MISS %:       -nan   MPKI: 0
PSCL2 RFO       ACCESS:          0  HIT:          0  MISS:          0  HIT %:       -nan  MISS %:       -nan   MPKI: 0
PSCL2 PREFETCH  ACCESS:          0  HIT:          0  MISS:          0  HIT %:       -nan  MISS %:       -nan   MPKI: 0
PSCL2 WRITEBACK ACCESS:          0  HIT:          0  MISS:          0  HIT %:       -nan  MISS %:       -nan   MPKI: 0

stream: 
stream:times selected: 4940361
stream:pref_filled: 897919
stream:pref_useful: 99882
stream:pref_late: 47484
stream:misses: 215191
stream:misses_by_poll: 0

CS: 
CS:times selected: 1539431
CS:pref_filled: 541192
CS:pref_useful: 525615
CS:pref_late: 75294
CS:misses: 266453
CS:misses_by_poll: 1477

CPLX: 
CPLX:times selected: 3371591
CPLX:pref_filled: 254651
CPLX:pref_useful: 16063
CPLX:pref_late: 900
CPLX:misses: 751651
CPLX:misses_by_poll: 438

NL_L1: 
NL:times selected: 14521
NL:pref_filled: 7799
NL:pref_useful: 1482
NL:pref_late: 401
NL:misses: 6279
NL:misses_by_poll: 0

total selections: 9865904
total_filled: 1355837
total_useful: 492728
total_late: 125146
total_polluted: 1915
total_misses_after_warmup: 1328737
conflicts: 2387761
Degree Incremented Times: 260251
Degree Decremented Times: 869674

L1 IP Table Write Accesses: 47558200
L1 IP Table Read Accesses: 45170439
L1 RST Write Accesses: 15722910
L1 RST Read Accesses: 31445820
L1 CSPT Write Accesses: 15722910
L1 CSPT Read Accesses: 26542751
L1 RR Filter Tag Write Accesses: 18323343
L1 RR Filter Tag Read Accesses: 869545664
L1 IP Table Tag Write Accesses: 52431946
L1 IP Table Tag Read Accesses: 52431946
L1 RST Tag Write Accesses: 0
L1 RST Tag Read Accesses: 154083360
L1 RR Filter Write Accesses: 0
L1 RR Filter Read Accesses: 30933976
test: 7678410
LLC TOTAL     ACCESS:    3343469  HIT:    1216470  MISS:    2126999  HIT %:    36.3835  MISS %:    63.6165   MPKI: 10.3098
LLC LOAD      ACCESS:    1198307  HIT:     453707  MISS:     744600  HIT %:    37.8623  MISS %:    62.1377   MPKI: 3.60916
LLC RFO       ACCESS:     118580  HIT:      38469  MISS:      80111  HIT %:    32.4414  MISS %:    67.5586   MPKI: 0.388307
LLC PREFETCH  ACCESS:    1307899  HIT:     185485  MISS:    1122414  HIT %:    14.1819  MISS %:    85.8181   MPKI: 5.44046
LLC WRITEBACK ACCESS:     424934  HIT:     403941  MISS:      20993  HIT %:    95.0597  MISS %:     4.9403   MPKI: 0.101755

RAW hits: 765874
Loads Generated: 24925443
Loads sent to L1D: 24159569
Stores Generated: 7759762
Stores sent to L1D: 7759761

Region of Interest Statistics

CPU 0 cumulative IPC: 0.567153 instructions: 200000000 cycles: 352638252
ITLB TOTAL     ACCESS:   28807347  HIT:   27753181  MISS:    1054166  HIT %:    96.3406  MISS %:    3.65937   MPKI: 5.27083
ITLB LOAD TRANSLATION ACCESS:   28807347  HIT:   27753181  MISS:    1054166  HIT %:    96.3406  MISS %:    3.65937   MPKI: 5.27083
ITLB PREFETCH  REQUESTED:          0  ISSUED:          0  USEFUL:          0  USELESS:          0
ITLB USEFUL LOAD PREFETCHES:          0 PREFETCH ISSUED TO LOWER LEVEL:          0  ACCURACY: -nan
ITLB TIMELY PREFETCHES:          0 LATE PREFETCHES: 0 DROPPED PREFETCHES: 0
ITLB PREFETCHES SAME FILL-ORIGIN LEVEL: 0 DIFFERENT FILL-ORIGIN LEVEL: 0
ITLB AVERAGE MISS LATENCY: 51.8923 cycles
ITLB RQ	ACCESS:   39875292	FORWARD:          0	MERGED:    8909356	TO_CACHE:   30965936

DTLB TOTAL     ACCESS:   15121981  HIT:   10307307  MISS:    4814674  HIT %:    68.1611  MISS %:    31.8389   MPKI: 24.0734
DTLB LOAD TRANSLATION ACCESS:   15121981  HIT:   10307307  MISS:    4814674  HIT %:    68.1611  MISS %:    31.8389   MPKI: 24.0734
DTLB PREFETCH  REQUESTED:          0  ISSUED:          0  USEFUL:          0  USELESS:          0
DTLB USEFUL LOAD PREFETCHES:          0 PREFETCH ISSUED TO LOWER LEVEL:          0  ACCURACY: -nan
DTLB TIMELY PREFETCHES:          0 LATE PREFETCHES: 0 DROPPED PREFETCHES: 0
DTLB PREFETCHES SAME FILL-ORIGIN LEVEL: 0 DIFFERENT FILL-ORIGIN LEVEL: 0
DTLB AVERAGE MISS LATENCY: 43.4468 cycles
DTLB RQ	ACCESS:   20126814	FORWARD:          0	MERGED:    3485443	TO_CACHE:   16641371

STLB TOTAL     ACCESS:    8576829  HIT:    3469534  MISS:    5107295  HIT %:    40.4524  MISS %:    59.5476   MPKI: 25.5365
STLB LOAD TRANSLATION ACCESS:    5868840  HIT:    1950867  MISS:    3917973  HIT %:    33.2411  MISS %:    66.7589   MPKI: 19.5899
STLB TRANSLATION FROM L1D PREFETCHER ACCESS:    2707989  HIT:    1518667  MISS:    1189322  HIT %:     56.081  MISS %:     43.919   MPKI: 5.94661
STLB PREFETCH  REQUESTED:          0  ISSUED:          0  USEFUL:     356282  USELESS:     905380
STLB USEFUL LOAD PREFETCHES:     356282 PREFETCH ISSUED TO LOWER LEVEL:          0  ACCURACY: inf
STLB TIMELY PREFETCHES:     356282 LATE PREFETCHES: 0 DROPPED PREFETCHES: 0
STLB PREFETCHES SAME FILL-ORIGIN LEVEL: 0 DIFFERENT FILL-ORIGIN LEVEL: 0
STLB AVERAGE MISS LATENCY: 49.1538 cycles
STLB RQ	ACCESS:   10953515	FORWARD:          0	MERGED:    1841638	TO_CACHE:    9111877

STLB Hit, L1D data hit: 0
STLB Hit, L2C data hit: 0
STLB Hit, LLC data hit: 0
STLB Hit, LLC data miss: 0
STLB STLB hints to L2: 0
L1D TOTAL     ACCESS:   22615259  HIT:   20108802  MISS:    2506457  HIT %:     88.917  MISS %:     11.083   MPKI: 12.5323
L1D LOAD      ACCESS:   12142465  HIT:   11087137  MISS:    1055328  HIT %:    91.3088  MISS %:    8.69122   MPKI: 5.27664
L1D RFO       ACCESS:    6190810  HIT:    6056317  MISS:     134493  HIT %:    97.8275  MISS %:    2.17246   MPKI: 0.672465
L1D PREFETCH  ACCESS:    4281984  HIT:    2965348  MISS:    1316636  HIT %:    69.2517  MISS %:    30.7483   MPKI: 6.58318
L1D PREFETCH  REQUESTED:    9449721  ISSUED:    9449640  USEFUL:     506809  USELESS:     893311
L1D USEFUL LOAD PREFETCHES:     506809 PREFETCH ISSUED TO LOWER LEVEL:    1523386  ACCURACY: 33.2686
L1D TIMELY PREFETCHES:     506809 LATE PREFETCHES: 123093 DROPPED PREFETCHES: 0
L1D PREFETCHES SAME FILL-ORIGIN LEVEL: 1523386 DIFFERENT FILL-ORIGIN LEVEL: 0
L1D AVERAGE MISS LATENCY: 221.557 cycles
L1D RQ	ACCESS:   24306170	FORWARD:          0	MERGED:   11030146	TO_CACHE:   13087143
L1D WQ	ACCESS:    7376175	FORWARD:     194032	MERGED:     336504	TO_CACHE:    7039671
L1D PQ	ACCESS:    4727405	FORWARD:          0	MERGED:         19	TO_CACHE:    4722235

L1D UNIQUE REGIONS ACCESSED: 0
L1D REGIONS CONFLICTS: 0
L1D Cross Page Prefetch Requests: 0
L1D Same Page Prefetch Requests: 5847954
L1D ROI Sum of L1D PQ occupancy: 122024796
L1D PREFETCHES PUSHED FROM L2C: 0
L1I TOTAL     ACCESS:   37388401  HIT:   37010531  MISS:     377870  HIT %:    98.9893  MISS %:    1.01066   MPKI: 1.88935
L1I LOAD      ACCESS:   37388401  HIT:   37010531  MISS:     377870  HIT %:    98.9893  MISS %:    1.01066   MPKI: 1.88935
L1I PREFETCH  REQUESTED:          0  ISSUED:          0  USEFUL:          0  USELESS:          0
L1I USEFUL LOAD PREFETCHES:          0 PREFETCH ISSUED TO LOWER LEVEL:          0  ACCURACY: -nan
L1I TIMELY PREFETCHES:          0 LATE PREFETCHES: 0 DROPPED PREFETCHES: 0
L1I PREFETCHES SAME FILL-ORIGIN LEVEL: 0 DIFFERENT FILL-ORIGIN LEVEL: 0
L1I AVERAGE MISS LATENCY: 95.2069 cycles
L1I RQ	ACCESS:   58465467	FORWARD:          0	MERGED:   18590175	TO_CACHE:   39875292

BTB BRANCH_DIRECT_JUMP	ACCESS:          0  HIT:          0  MISS:          0
BTB BRANCH_INDIRECT	ACCESS:          0  HIT:          0  MISS:          0
BTB BRANCH_CONDITIONAL	ACCESS:          0  HIT:          0  MISS:          0
BTB BRANCH_DIRECT_CALL	ACCESS:          0  HIT:          0  MISS:          0
BTB BRANCH_INDIRECT_CALL	ACCESS:          0  HIT:          0  MISS:          0
BTB BRANCH_RETURN	ACCESS:          0  HIT:          0  MISS:          0
BTB BRANCH_OTHER ACCESS:          0  HIT:          0  MISS:          0

L2C TOTAL     ACCESS:    8879480  HIT:    6130062  MISS:    2749418  HIT %:    69.0363  MISS %:    30.9637   MPKI: 13.7471
L2C LOAD      ACCESS:    1319494  HIT:     253531  MISS:    1065963  HIT %:    19.2143  MISS %:    80.7857   MPKI: 5.32981
L2C DATA LOAD MPKI: 4.04422
L2C INSTRUCTION LOAD MPKI: 1.28559
L2C RFO       ACCESS:     134347  HIT:      46632  MISS:      87715  HIT %:    34.7101  MISS %:    65.2899   MPKI: 0.438575
L2C PREFETCH  ACCESS:    1430474  HIT:     155397  MISS:    1275077  HIT %:    10.8633  MISS %:    89.1367   MPKI: 6.37538
L2C DATA PREFETCH MPKI: 6.37538
L2C INSTRUCTION PREFETCH MPKI: 0
L2C WRITEBACK ACCESS:     437018  HIT:     399826  MISS:      37192  HIT %:    91.4896  MISS %:     8.5104   MPKI: 0.18596
L2C LOAD TRANSLATION ACCESS:    4347030  HIT:    4063708  MISS:     283322  HIT %:    93.4824  MISS %:     6.5176   MPKI: 1.41661
L2C TRANSLATION FROM L1D PREFETCHER ACCESS:    1211117  HIT:    1210968  MISS:        149  HIT %:    99.9877  MISS %:  0.0123027   MPKI: 0.000745
L2C PREFETCH  REQUESTED:          0  ISSUED:          0  USEFUL:      31153  USELESS:    1325733
L2C USEFUL LOAD PREFETCHES:      31153 PREFETCH ISSUED TO LOWER LEVEL:    1357400  ACCURACY: 2.29505
L2C TIMELY PREFETCHES:      31153 LATE PREFETCHES: 0 DROPPED PREFETCHES: 0
L2C PREFETCHES SAME FILL-ORIGIN LEVEL: 0 DIFFERENT FILL-ORIGIN LEVEL: 0
L2C AVERAGE MISS LATENCY: 234.613 cycles
L2C RQ	ACCESS:    7442682	FORWARD:          0	MERGED:          0	TO_CACHE:    7442680
L2C WQ	ACCESS:     468299	FORWARD:          2	MERGED:          0	TO_CACHE:     468299
L2C PQ	ACCESS:    1523386	FORWARD:          0	MERGED:          0	TO_CACHE:    1523386

L2C Instructions Evicting Data 209770
L2C Translations Evicting Data 243806
L2C Data Evicting Data 1864411
L2C Instructions Evicting Instructions 36050
L2C Translations Evicting Instructions 25893
L2C Data Evicting Instructions 206964
L2C Instructions Evicting Translations 27844
L2C Translations Evicting Translations 30319
L2C Data Evicting Translations 237932
L2C Dense regions hint from L2: 0
PSCL5 TOTAL     ACCESS:    5107296  HIT:    5107296  MISS:          0  HIT %:        100  MISS %:          0   MPKI: 0
PSCL5 LOAD TRANSLATION ACCESS:    3917974  HIT:    3917974  MISS:          0  HIT %:        100  MISS %:          0   MPKI: 0
PSCL5 TRANSLATION FROM L1D PREFETCHER ACCESS:    1189322  HIT:    1189322  MISS:          0  HIT %:        100  MISS %:          0   MPKI: 0
PSCL5 PREFETCH  REQUESTED:          0  ISSUED:          0  USEFUL:          0  USELESS:          0
PSCL5 USEFUL LOAD PREFETCHES:          0 PREFETCH ISSUED TO LOWER LEVEL:          0  ACCURACY: -nan
PSCL5 TIMELY PREFETCHES:          0 LATE PREFETCHES: 0 DROPPED PREFETCHES: 0
PSCL5 PREFETCHES SAME FILL-ORIGIN LEVEL: 0 DIFFERENT FILL-ORIGIN LEVEL: 0

PSCL4 TOTAL     ACCESS:    5010256  HIT:    5009466  MISS:        790  HIT %:    99.9842  MISS %:  0.0157677   MPKI: 0.00395
PSCL4 LOAD TRANSLATION ACCESS:    3880711  HIT:    3879921  MISS:        790  HIT %:    99.9796  MISS %:  0.0203571   MPKI: 0.00395
PSCL4 TRANSLATION FROM L1D PREFETCHER ACCESS:    1129545  HIT:    1129545  MISS:          0  HIT %:        100  MISS %:          0   MPKI: 0
PSCL4 PREFETCH  REQUESTED:          0  ISSUED:          0  USEFUL:          0  USELESS:          0
PSCL4 USEFUL LOAD PREFETCHES:          0 PREFETCH ISSUED TO LOWER LEVEL:          0  ACCURACY: -nan
PSCL4 TIMELY PREFETCHES:          0 LATE PREFETCHES: 0 DROPPED PREFETCHES: 0
PSCL4 PREFETCHES SAME FILL-ORIGIN LEVEL: 0 DIFFERENT FILL-ORIGIN LEVEL: 0

PSCL3 TOTAL     ACCESS:    5094010  HIT:    5090208  MISS:       3802  HIT %:    99.9254  MISS %:  0.0746367   MPKI: 0.01901
PSCL3 LOAD TRANSLATION ACCESS:    3907264  HIT:    3903462  MISS:       3802  HIT %:    99.9027  MISS %:  0.0973059   MPKI: 0.01901
PSCL3 TRANSLATION FROM L1D PREFETCHER ACCESS:    1186746  HIT:    1186746  MISS:          0  HIT %:        100  MISS %:          0   MPKI: 0
PSCL3 PREFETCH  REQUESTED:          0  ISSUED:          0  USEFUL:          0  USELESS:          0
PSCL3 USEFUL LOAD PREFETCHES:          0 PREFETCH ISSUED TO LOWER LEVEL:          0  ACCURACY: -nan
PSCL3 TIMELY PREFETCHES:          0 LATE PREFETCHES: 0 DROPPED PREFETCHES: 0
PSCL3 PREFETCHES SAME FILL-ORIGIN LEVEL: 0 DIFFERENT FILL-ORIGIN LEVEL: 0

PSCL2 TOTAL     ACCESS:    5107296  HIT:    4660917  MISS:     446379  HIT %:      91.26  MISS %:    8.74003   MPKI: 2.2319
PSCL2 LOAD TRANSLATION ACCESS:    3939622  HIT:    3493243  MISS:     446379  HIT %:    88.6695  MISS %:    11.3305   MPKI: 2.2319
PSCL2 TRANSLATION FROM L1D PREFETCHER ACCESS:    1167674  HIT:    1167674  MISS:          0  HIT %:        100  MISS %:          0   MPKI: 0
PSCL2 PREFETCH  REQUESTED:          0  ISSUED:          0  USEFUL:          0  USELESS:          0
PSCL2 USEFUL LOAD PREFETCHES:          0 PREFETCH ISSUED TO LOWER LEVEL:          0  ACCURACY: -nan
PSCL2 TIMELY PREFETCHES:          0 LATE PREFETCHES: 0 DROPPED PREFETCHES: 0
PSCL2 PREFETCHES SAME FILL-ORIGIN LEVEL: 0 DIFFERENT FILL-ORIGIN LEVEL: 0

LLC TOTAL     ACCESS:    3087140  HIT:    1051997  MISS:    2035143  HIT %:    34.0768  MISS %:    65.9232   MPKI: 10.1757
LLC LOAD      ACCESS:    1065962  HIT:     358799  MISS:     707163  HIT %:    33.6596  MISS %:    66.3404   MPKI: 3.53581
LLC RFO       ACCESS:      87715  HIT:      22893  MISS:      64822  HIT %:    26.0993  MISS %:    73.9007   MPKI: 0.32411
LLC PREFETCH  ACCESS:    1275077  HIT:     183314  MISS:    1091763  HIT %:    14.3767  MISS %:    85.6233   MPKI: 5.45882
LLC WRITEBACK ACCESS:     374915  HIT:     355112  MISS:      19803  HIT %:     94.718  MISS %:      5.282   MPKI: 0.099015
LLC LOAD TRANSLATION ACCESS:     283322  HIT:     131828  MISS:     151494  HIT %:    46.5294  MISS %:    53.4706   MPKI: 0.75747
LLC TRANSLATION FROM L1D PREFETCHER ACCESS:        149  HIT:         51  MISS:         98  HIT %:    34.2282  MISS %:    65.7718   MPKI: 0.00049
LLC PREFETCH  REQUESTED:          0  ISSUED:          0  USEFUL:      90593  USELESS:    4403588
LLC USEFUL LOAD PREFETCHES:      90593 PREFETCH ISSUED TO LOWER LEVEL:    4497425  ACCURACY: 2.01433
LLC TIMELY PREFETCHES:      90593 LATE PREFETCHES: 0 DROPPED PREFETCHES: 0
LLC PREFETCHES SAME FILL-ORIGIN LEVEL: 0 DIFFERENT FILL-ORIGIN LEVEL: 0
LLC AVERAGE MISS LATENCY: 1086.96 cycles
LLC RQ	ACCESS:    6445460	FORWARD:          0	MERGED:          0	TO_CACHE:    6445455
LLC WQ	ACCESS:    1698194	FORWARD:          5	MERGED:          0	TO_CACHE:    1698194
LLC PQ	ACCESS:    5254454	FORWARD:          0	MERGED:          0	TO_CACHE:    5254454

LLC Dense regions hint to LLC: 0

RAW hits: 726462
Loads Generated: 23575033
Loads sent to L1D: 22848565
Stores Generated: 6930038
Stores sent to L1D: 6930050
Major fault: 0 Minor fault: 43093
Allocated PAGES: 178794

CPU 1 cumulative IPC: 0.534746 instructions: 200000003 cycles: 374009585
ITLB TOTAL     ACCESS:   29128193  HIT:   27826891  MISS:    1301302  HIT %:    95.5325  MISS %:     4.4675   MPKI: 6.50651
ITLB LOAD TRANSLATION ACCESS:   29128193  HIT:   27826891  MISS:    1301302  HIT %:    95.5325  MISS %:     4.4675   MPKI: 6.50651
ITLB PREFETCH  REQUESTED:          0  ISSUED:          0  USEFUL:          0  USELESS:          0
ITLB USEFUL LOAD PREFETCHES:          0 PREFETCH ISSUED TO LOWER LEVEL:          0  ACCURACY: -nan
ITLB TIMELY PREFETCHES:          0 LATE PREFETCHES: 0 DROPPED PREFETCHES: 0
ITLB PREFETCHES SAME FILL-ORIGIN LEVEL: 0 DIFFERENT FILL-ORIGIN LEVEL: 0
ITLB AVERAGE MISS LATENCY: 45.7832 cycles
ITLB RQ	ACCESS:   37926759	FORWARD:          0	MERGED:    8369925	TO_CACHE:   29556834

DTLB TOTAL     ACCESS:   15984109  HIT:   10788706  MISS:    5195403  HIT %:    67.4964  MISS %:    32.5036   MPKI: 25.977
DTLB LOAD TRANSLATION ACCESS:   15984109  HIT:   10788706  MISS:    5195403  HIT %:    67.4964  MISS %:    32.5036   MPKI: 25.977
DTLB PREFETCH  REQUESTED:          0  ISSUED:          0  USEFUL:          0  USELESS:          0
DTLB USEFUL LOAD PREFETCHES:          0 PREFETCH ISSUED TO LOWER LEVEL:          0  ACCURACY: -nan
DTLB TIMELY PREFETCHES:          0 LATE PREFETCHES: 0 DROPPED PREFETCHES: 0
DTLB PREFETCHES SAME FILL-ORIGIN LEVEL: 0 DIFFERENT FILL-ORIGIN LEVEL: 0
DTLB AVERAGE MISS LATENCY: 40.8933 cycles
DTLB RQ	ACCESS:   20398456	FORWARD:          0	MERGED:    3843814	TO_CACHE:   16554642

STLB TOTAL     ACCESS:    9162736  HIT:    3618746  MISS:    5543990  HIT %:    39.4942  MISS %:    60.5058   MPKI: 27.7199
STLB LOAD TRANSLATION ACCESS:    6496705  HIT:    2118621  MISS:    4378084  HIT %:    32.6107  MISS %:    67.3893   MPKI: 21.8904
STLB TRANSLATION FROM L1D PREFETCHER ACCESS:    2666031  HIT:    1500125  MISS:    1165906  HIT %:    56.2681  MISS %:    43.7319   MPKI: 5.82953
STLB PREFETCH  REQUESTED:          0  ISSUED:          0  USEFUL:     325547  USELESS:     840359
STLB USEFUL LOAD PREFETCHES:     325547 PREFETCH ISSUED TO LOWER LEVEL:          0  ACCURACY: inf
STLB TIMELY PREFETCHES:     325547 LATE PREFETCHES: 0 DROPPED PREFETCHES: 0
STLB PREFETCHES SAME FILL-ORIGIN LEVEL: 0 DIFFERENT FILL-ORIGIN LEVEL: 0
STLB AVERAGE MISS LATENCY: 45.8607 cycles
STLB RQ	ACCESS:   10836925	FORWARD:          0	MERGED:    1669284	TO_CACHE:    9167641

STLB Hit, L1D data hit: 0
STLB Hit, L2C data hit: 0
STLB Hit, LLC data hit: 0
STLB Hit, LLC data miss: 0
STLB STLB hints to L2: 0
L1D TOTAL     ACCESS:   23734414  HIT:   20982205  MISS:    2752209  HIT %:    88.4041  MISS %:    11.5959   MPKI: 13.761
L1D LOAD      ACCESS:   12661088  HIT:   11432090  MISS:    1228998  HIT %:    90.2931  MISS %:    9.70689   MPKI: 6.14499
L1D RFO       ACCESS:    6902525  HIT:    6694304  MISS:     208221  HIT %:    96.9834  MISS %:    3.01659   MPKI: 1.0411
L1D PREFETCH  ACCESS:    4170801  HIT:    2855811  MISS:    1314990  HIT %:    68.4715  MISS %:    31.5285   MPKI: 6.57495
L1D PREFETCH  REQUESTED:    8685458  ISSUED:    8685387  USEFUL:     478600  USELESS:     836377
L1D USEFUL LOAD PREFETCHES:     478600 PREFETCH ISSUED TO LOWER LEVEL:    1430988  ACCURACY: 33.4454
L1D TIMELY PREFETCHES:     478600 LATE PREFETCHES: 115792 DROPPED PREFETCHES: 0
L1D PREFETCHES SAME FILL-ORIGIN LEVEL: 1430988 DIFFERENT FILL-ORIGIN LEVEL: 0
L1D AVERAGE MISS LATENCY: 195.625 cycles
L1D RQ	ACCESS:   23551008	FORWARD:          0	MERGED:   10521659	TO_CACHE:   12857398
L1D WQ	ACCESS:    7870046	FORWARD:     176885	MERGED:     328988	TO_CACHE:    7541058
L1D PQ	ACCESS:    4345167	FORWARD:          0	MERGED:         13	TO_CACHE:    4340220

L1D UNIQUE REGIONS ACCESSED: 0
L1D REGIONS CONFLICTS: 0
L1D Cross Page Prefetch Requests: 0
L1D Same Page Prefetch Requests: 5429441
L1D ROI Sum of L1D PQ occupancy: 112805870
L1D PREFETCHES PUSHED FROM L2C: 0
L1I TOTAL     ACCESS:   37520643  HIT:   36517589  MISS:    1003054  HIT %:    97.3267  MISS %:    2.67334   MPKI: 5.01527
L1I LOAD      ACCESS:   37520643  HIT:   36517589  MISS:    1003054  HIT %:    97.3267  MISS %:    2.67334   MPKI: 5.01527
L1I PREFETCH  REQUESTED:          0  ISSUED:          0  USEFUL:          0  USELESS:          0
L1I USEFUL LOAD PREFETCHES:          0 PREFETCH ISSUED TO LOWER LEVEL:          0  ACCURACY: -nan
L1I TIMELY PREFETCHES:          0 LATE PREFETCHES: 0 DROPPED PREFETCHES: 0
L1I PREFETCHES SAME FILL-ORIGIN LEVEL: 0 DIFFERENT FILL-ORIGIN LEVEL: 0
L1I AVERAGE MISS LATENCY: 52.28 cycles
L1I RQ	ACCESS:   56127064	FORWARD:          0	MERGED:   18200305	TO_CACHE:   37926759

BTB BRANCH_DIRECT_JUMP	ACCESS:          0  HIT:          0  MISS:          0
BTB BRANCH_INDIRECT	ACCESS:          0  HIT:          0  MISS:          0
BTB BRANCH_CONDITIONAL	ACCESS:          0  HIT:          0  MISS:          0
BTB BRANCH_DIRECT_CALL	ACCESS:          0  HIT:          0  MISS:          0
BTB BRANCH_INDIRECT_CALL	ACCESS:          0  HIT:          0  MISS:          0
BTB BRANCH_RETURN	ACCESS:          0  HIT:          0  MISS:          0
BTB BRANCH_OTHER ACCESS:          0  HIT:          0  MISS:          0

L2C TOTAL     ACCESS:   10398258  HIT:    7431901  MISS:    2966357  HIT %:    71.4726  MISS %:    28.5274   MPKI: 14.8318
L2C LOAD      ACCESS:    2116237  HIT:     865927  MISS:    1250310  HIT %:    40.9182  MISS %:    59.0818   MPKI: 6.25155
L2C DATA LOAD MPKI: 4.29425
L2C INSTRUCTION LOAD MPKI: 1.95729
L2C RFO       ACCESS:     208006  HIT:      81283  MISS:     126723  HIT %:    39.0772  MISS %:    60.9228   MPKI: 0.633615
L2C PREFETCH  ACCESS:    1430988  HIT:     177433  MISS:    1253555  HIT %:    12.3993  MISS %:    87.6007   MPKI: 6.26777
L2C DATA PREFETCH MPKI: 6.26777
L2C INSTRUCTION PREFETCH MPKI: 0
L2C WRITEBACK ACCESS:     566893  HIT:     523270  MISS:      43623  HIT %:    92.3049  MISS %:     7.6951   MPKI: 0.218115
L2C LOAD TRANSLATION ACCESS:    4888275  HIT:    4596363  MISS:     291912  HIT %:    94.0283  MISS %:    5.97168   MPKI: 1.45956
L2C TRANSLATION FROM L1D PREFETCHER ACCESS:    1187859  HIT:    1187625  MISS:        234  HIT %:    99.9803  MISS %:  0.0196993   MPKI: 0.00117
L2C PREFETCH  REQUESTED:          0  ISSUED:          0  USEFUL:      31166  USELESS:    1222546
L2C USEFUL LOAD PREFETCHES:      31166 PREFETCH ISSUED TO LOWER LEVEL:    1253555  ACCURACY: 2.48621
L2C TIMELY PREFETCHES:      31166 LATE PREFETCHES: 0 DROPPED PREFETCHES: 0
L2C PREFETCHES SAME FILL-ORIGIN LEVEL: 0 DIFFERENT FILL-ORIGIN LEVEL: 0
L2C AVERAGE MISS LATENCY: 213.412 cycles
L2C RQ	ACCESS:    8400409	FORWARD:          0	MERGED:          0	TO_CACHE:    8400399
L2C WQ	ACCESS:     566893	FORWARD:         10	MERGED:          0	TO_CACHE:     566893
L2C PQ	ACCESS:    1430988	FORWARD:          0	MERGED:          0	TO_CACHE:    1430988

L2C Instructions Evicting Data 273269
L2C Translations Evicting Data 228963
L2C Data Evicting Data 1749388
L2C Instructions Evicting Instructions 80993
L2C Translations Evicting Instructions 34860
L2C Data Evicting Instructions 267149
L2C Instructions Evicting Translations 37197
L2C Translations Evicting Translations 28323
L2C Data Evicting Translations 222592
L2C Dense regions hint from L2: 0
PSCL5 TOTAL     ACCESS:    5543990  HIT:    5543990  MISS:          0  HIT %:        100  MISS %:          0   MPKI: 0
PSCL5 LOAD TRANSLATION ACCESS:    4378084  HIT:    4378084  MISS:          0  HIT %:        100  MISS %:          0   MPKI: 0
PSCL5 TRANSLATION FROM L1D PREFETCHER ACCESS:    1165906  HIT:    1165906  MISS:          0  HIT %:        100  MISS %:          0   MPKI: 0
PSCL5 PREFETCH  REQUESTED:          0  ISSUED:          0  USEFUL:          0  USELESS:          0
PSCL5 USEFUL LOAD PREFETCHES:          0 PREFETCH ISSUED TO LOWER LEVEL:          0  ACCURACY: -nan
PSCL5 TIMELY PREFETCHES:          0 LATE PREFETCHES: 0 DROPPED PREFETCHES: 0
PSCL5 PREFETCHES SAME FILL-ORIGIN LEVEL: 0 DIFFERENT FILL-ORIGIN LEVEL: 0

PSCL4 TOTAL     ACCESS:    5408023  HIT:    5407278  MISS:        745  HIT %:    99.9862  MISS %:  0.0137758   MPKI: 0.003725
PSCL4 LOAD TRANSLATION ACCESS:    4328521  HIT:    4327776  MISS:        745  HIT %:    99.9828  MISS %:  0.0172114   MPKI: 0.003725
PSCL4 TRANSLATION FROM L1D PREFETCHER ACCESS:    1079502  HIT:    1079502  MISS:          0  HIT %:        100  MISS %:          0   MPKI: 0
PSCL4 PREFETCH  REQUESTED:          0  ISSUED:          0  USEFUL:          0  USELESS:          0
PSCL4 USEFUL LOAD PREFETCHES:          0 PREFETCH ISSUED TO LOWER LEVEL:          0  ACCURACY: -nan
PSCL4 TIMELY PREFETCHES:          0 LATE PREFETCHES: 0 DROPPED PREFETCHES: 0
PSCL4 PREFETCHES SAME FILL-ORIGIN LEVEL: 0 DIFFERENT FILL-ORIGIN LEVEL: 0

PSCL3 TOTAL     ACCESS:    5504872  HIT:    5495115  MISS:       9757  HIT %:    99.8228  MISS %:   0.177243   MPKI: 0.048785
PSCL3 LOAD TRANSLATION ACCESS:    4347148  HIT:    4337391  MISS:       9757  HIT %:    99.7756  MISS %:   0.224446   MPKI: 0.048785
PSCL3 TRANSLATION FROM L1D PREFETCHER ACCESS:    1157724  HIT:    1157724  MISS:          0  HIT %:        100  MISS %:          0   MPKI: 0
PSCL3 PREFETCH  REQUESTED:          0  ISSUED:          0  USEFUL:          0  USELESS:          0
PSCL3 USEFUL LOAD PREFETCHES:          0 PREFETCH ISSUED TO LOWER LEVEL:          0  ACCURACY: -nan
PSCL3 TIMELY PREFETCHES:          0 LATE PREFETCHES: 0 DROPPED PREFETCHES: 0
PSCL3 PREFETCHES SAME FILL-ORIGIN LEVEL: 0 DIFFERENT FILL-ORIGIN LEVEL: 0

PSCL2 TOTAL     ACCESS:    5543990  HIT:    5022164  MISS:     521826  HIT %:    90.5875  MISS %:    9.41246   MPKI: 2.60913
PSCL2 LOAD TRANSLATION ACCESS:    4399584  HIT:    3877758  MISS:     521826  HIT %:    88.1392  MISS %:    11.8608   MPKI: 2.60913
PSCL2 TRANSLATION FROM L1D PREFETCHER ACCESS:    1144406  HIT:    1144406  MISS:          0  HIT %:        100  MISS %:          0   MPKI: 0
PSCL2 PREFETCH  REQUESTED:          0  ISSUED:          0  USEFUL:          0  USELESS:          0
PSCL2 USEFUL LOAD PREFETCHES:          0 PREFETCH ISSUED TO LOWER LEVEL:          0  ACCURACY: -nan
PSCL2 TIMELY PREFETCHES:          0 LATE PREFETCHES: 0 DROPPED PREFETCHES: 0
PSCL2 PREFETCHES SAME FILL-ORIGIN LEVEL: 0 DIFFERENT FILL-ORIGIN LEVEL: 0

LLC TOTAL     ACCESS:    3360324  HIT:    1265066  MISS:    2095258  HIT %:    37.6471  MISS %:    62.3529   MPKI: 10.4763
LLC LOAD      ACCESS:    1250309  HIT:     493792  MISS:     756517  HIT %:    39.4936  MISS %:    60.5064   MPKI: 3.78258
LLC RFO       ACCESS:     126722  HIT:      39387  MISS:      87335  HIT %:    31.0814  MISS %:    68.9186   MPKI: 0.436675
LLC PREFETCH  ACCESS:    1253555  HIT:     179254  MISS:    1074301  HIT %:    14.2997  MISS %:    85.7003   MPKI: 5.3715
LLC WRITEBACK ACCESS:     437592  HIT:     416622  MISS:      20970  HIT %:    95.2079  MISS %:    4.79214   MPKI: 0.10485
LLC LOAD TRANSLATION ACCESS:     291912  HIT:     135920  MISS:     155992  HIT %:     46.562  MISS %:     53.438   MPKI: 0.77996
LLC TRANSLATION FROM L1D PREFETCHER ACCESS:        234  HIT:         91  MISS:        143  HIT %:    38.8889  MISS %:    61.1111   MPKI: 0.000715
LLC PREFETCH  REQUESTED:          0  ISSUED:          0  USEFUL:      90593  USELESS:    4403588
LLC USEFUL LOAD PREFETCHES:      90593 PREFETCH ISSUED TO LOWER LEVEL:    4497425  ACCURACY: 2.01433
LLC TIMELY PREFETCHES:      90593 LATE PREFETCHES: 0 DROPPED PREFETCHES: 0
LLC PREFETCHES SAME FILL-ORIGIN LEVEL: 0 DIFFERENT FILL-ORIGIN LEVEL: 0
LLC AVERAGE MISS LATENCY: 1055.77 cycles
LLC RQ	ACCESS:    6445460	FORWARD:          0	MERGED:          0	TO_CACHE:    6445455
LLC WQ	ACCESS:    1698194	FORWARD:          5	MERGED:          0	TO_CACHE:    1698194
LLC PQ	ACCESS:    5254454	FORWARD:          0	MERGED:          0	TO_CACHE:    5254454

LLC Dense regions hint to LLC: 0

RAW hits: 754391
Loads Generated: 24305402
Loads sent to L1D: 23551008
Stores Generated: 7870046
Stores sent to L1D: 7870046
Major fault: 0 Minor fault: 45696
Allocated PAGES: 178794

CPU 2 cumulative IPC: 0.562335 instructions: 200000001 cycles: 355659849
ITLB TOTAL     ACCESS:   28862743  HIT:   27742823  MISS:    1119920  HIT %:    96.1198  MISS %:    3.88016   MPKI: 5.5996
ITLB LOAD TRANSLATION ACCESS:   28862743  HIT:   27742823  MISS:    1119920  HIT %:    96.1198  MISS %:    3.88016   MPKI: 5.5996
ITLB PREFETCH  REQUESTED:          0  ISSUED:          0  USEFUL:          0  USELESS:          0
ITLB USEFUL LOAD PREFETCHES:          0 PREFETCH ISSUED TO LOWER LEVEL:          0  ACCURACY: -nan
ITLB TIMELY PREFETCHES:          0 LATE PREFETCHES: 0 DROPPED PREFETCHES: 0
ITLB PREFETCHES SAME FILL-ORIGIN LEVEL: 0 DIFFERENT FILL-ORIGIN LEVEL: 0
ITLB AVERAGE MISS LATENCY: 50.0725 cycles
ITLB RQ	ACCESS:   39615320	FORWARD:          0	MERGED:    8797508	TO_CACHE:   30817812

DTLB TOTAL     ACCESS:   15347613  HIT:   10619359  MISS:    4728254  HIT %:    69.1923  MISS %:    30.8077   MPKI: 23.6413
DTLB LOAD TRANSLATION ACCESS:   15347613  HIT:   10619359  MISS:    4728254  HIT %:    69.1923  MISS %:    30.8077   MPKI: 23.6413
DTLB PREFETCH  REQUESTED:          0  ISSUED:          0  USEFUL:          0  USELESS:          0
DTLB USEFUL LOAD PREFETCHES:          0 PREFETCH ISSUED TO LOWER LEVEL:          0  ACCURACY: -nan
DTLB TIMELY PREFETCHES:          0 LATE PREFETCHES: 0 DROPPED PREFETCHES: 0
DTLB PREFETCHES SAME FILL-ORIGIN LEVEL: 0 DIFFERENT FILL-ORIGIN LEVEL: 0
DTLB AVERAGE MISS LATENCY: 44.0635 cycles
DTLB RQ	ACCESS:   20500831	FORWARD:          0	MERGED:    3732261	TO_CACHE:   16768570

STLB TOTAL     ACCESS:    8541888  HIT:    3404224  MISS:    5137664  HIT %:    39.8533  MISS %:    60.1467   MPKI: 25.6883
STLB LOAD TRANSLATION ACCESS:    5848174  HIT:    1859782  MISS:    3988392  HIT %:    31.8011  MISS %:    68.1989   MPKI: 19.942
STLB TRANSLATION FROM L1D PREFETCHER ACCESS:    2693714  HIT:    1544442  MISS:    1149272  HIT %:     57.335  MISS %:     42.665   MPKI: 5.74636
STLB PREFETCH  REQUESTED:          0  ISSUED:          0  USEFUL:     357027  USELESS:     849640
STLB USEFUL LOAD PREFETCHES:     357027 PREFETCH ISSUED TO LOWER LEVEL:          0  ACCURACY: inf
STLB TIMELY PREFETCHES:     357027 LATE PREFETCHES: 0 DROPPED PREFETCHES: 0
STLB PREFETCHES SAME FILL-ORIGIN LEVEL: 0 DIFFERENT FILL-ORIGIN LEVEL: 0
STLB AVERAGE MISS LATENCY: 48.8804 cycles
STLB RQ	ACCESS:   10829606	FORWARD:          0	MERGED:    1805373	TO_CACHE:    9024233

STLB Hit, L1D data hit: 0
STLB Hit, L2C data hit: 0
STLB Hit, LLC data hit: 0
STLB Hit, LLC data miss: 0
STLB STLB hints to L2: 0
L1D TOTAL     ACCESS:   22903973  HIT:   20320467  MISS:    2583506  HIT %:    88.7203  MISS %:    11.2797   MPKI: 12.9175
L1D LOAD      ACCESS:   12284598  HIT:   11186377  MISS:    1098221  HIT %:    91.0602  MISS %:    8.93982   MPKI: 5.4911
L1D RFO       ACCESS:    6372412  HIT:    6203732  MISS:     168680  HIT %:     97.353  MISS %:    2.64704   MPKI: 0.8434
L1D PREFETCH  ACCESS:    4246963  HIT:    2930358  MISS:    1316605  HIT %:    68.9989  MISS %:    31.0011   MPKI: 6.58302
L1D PREFETCH  REQUESTED:    9299827  ISSUED:    9299776  USEFUL:     504560  USELESS:     881113
L1D USEFUL LOAD PREFETCHES:     504560 PREFETCH ISSUED TO LOWER LEVEL:    1509321  ACCURACY: 33.4296
L1D TIMELY PREFETCHES:     504560 LATE PREFETCHES: 123130 DROPPED PREFETCHES: 0
L1D PREFETCHES SAME FILL-ORIGIN LEVEL: 1509321 DIFFERENT FILL-ORIGIN LEVEL: 0
L1D AVERAGE MISS LATENCY: 215.219 cycles
L1D RQ	ACCESS:   24408893	FORWARD:          0	MERGED:   11076586	TO_CACHE:   13143747
L1D WQ	ACCESS:    7696734	FORWARD:     191654	MERGED:     339650	TO_CACHE:    7357084
L1D PQ	ACCESS:    4651443	FORWARD:          0	MERGED:         16	TO_CACHE:    4648333

L1D UNIQUE REGIONS ACCESSED: 0
L1D REGIONS CONFLICTS: 0
L1D Cross Page Prefetch Requests: 0
L1D Same Page Prefetch Requests: 5731962
L1D ROI Sum of L1D PQ occupancy: 119634209
L1D PREFETCHES PUSHED FROM L2C: 0
L1I TOTAL     ACCESS:   37352567  HIT:   36831227  MISS:     521340  HIT %:    98.6043  MISS %:    1.39573   MPKI: 2.6067
L1I LOAD      ACCESS:   37352567  HIT:   36831227  MISS:     521340  HIT %:    98.6043  MISS %:    1.39573   MPKI: 2.6067
L1I PREFETCH  REQUESTED:          0  ISSUED:          0  USEFUL:          0  USELESS:          0
L1I USEFUL LOAD PREFETCHES:          0 PREFETCH ISSUED TO LOWER LEVEL:          0  ACCURACY: -nan
L1I TIMELY PREFETCHES:          0 LATE PREFETCHES: 0 DROPPED PREFETCHES: 0
L1I PREFETCHES SAME FILL-ORIGIN LEVEL: 0 DIFFERENT FILL-ORIGIN LEVEL: 0
L1I AVERAGE MISS LATENCY: 75.6218 cycles
L1I RQ	ACCESS:   58289768	FORWARD:          0	MERGED:   18674448	TO_CACHE:   39615320

BTB BRANCH_DIRECT_JUMP	ACCESS:          0  HIT:          0  MISS:          0
BTB BRANCH_INDIRECT	ACCESS:          0  HIT:          0  MISS:          0
BTB BRANCH_CONDITIONAL	ACCESS:          0  HIT:          0  MISS:          0
BTB BRANCH_DIRECT_CALL	ACCESS:          0  HIT:          0  MISS:          0
BTB BRANCH_INDIRECT_CALL	ACCESS:          0  HIT:          0  MISS:          0
BTB BRANCH_RETURN	ACCESS:          0  HIT:          0  MISS:          0
BTB BRANCH_OTHER ACCESS:          0  HIT:          0  MISS:          0

L2C TOTAL     ACCESS:    9207998  HIT:    6350772  MISS:    2857226  HIT %:    68.9702  MISS %:    31.0298   MPKI: 14.2861
L2C LOAD      ACCESS:    1504559  HIT:     352717  MISS:    1151842  HIT %:    23.4432  MISS %:    76.5568   MPKI: 5.75921
L2C DATA LOAD MPKI: 4.1383
L2C INSTRUCTION LOAD MPKI: 1.62091
L2C RFO       ACCESS:     168466  HIT:      55319  MISS:     113147  HIT %:    32.8369  MISS %:    67.1631   MPKI: 0.565735
L2C PREFETCH  ACCESS:    1431814  HIT:     163795  MISS:    1268019  HIT %:    11.4397  MISS %:    88.5603   MPKI: 6.34009
L2C DATA PREFETCH MPKI: 6.34009
L2C INSTRUCTION PREFETCH MPKI: 0
L2C WRITEBACK ACCESS:     485871  HIT:     444820  MISS:      41051  HIT %:     91.551  MISS %:    8.44895   MPKI: 0.205255
[...]
LLC RQ	ACCESS:    6445460	FORWARD:          0	MERGED:          0	TO_CACHE:    6445455
LLC WQ	ACCESS:    1698194	FORWARD:          5	MERGED:          0	TO_CACHE:    1698194
LLC PQ	ACCESS:    5254454	FORWARD:          0	MERGED:          0	TO_CACHE:    5254454

LLC Dense regions hint to LLC: 0

RAW hits: 725811
Loads Generated: 23853772
Loads sent to L1D: 23127961
Stores Generated: 7239903
Stores sent to L1D: 7239908
Major fault: 0 Minor fault: 45059
Allocated PAGES: 178794

CPU 3 cumulative IPC: 0.55162 instructions: 200000002 cycles: 362568185
ITLB TOTAL     ACCESS:   28997749  HIT:   27807291  MISS:    1190458  HIT %:    95.8947  MISS %:    4.10535   MPKI: 5.95229
ITLB LOAD TRANSLATION ACCESS:   28997749  HIT:   27807291  MISS:    1190458  HIT %:    95.8947  MISS %:    4.10535   MPKI: 5.95229
ITLB PREFETCH  REQUESTED:          0  ISSUED:          0  USEFUL:          0  USELESS:          0
ITLB USEFUL LOAD PREFETCHES:          0 PREFETCH ISSUED TO LOWER LEVEL:          0  ACCURACY: -nan
ITLB TIMELY PREFETCHES:          0 LATE PREFETCHES: 0 DROPPED PREFETCHES: 0
ITLB PREFETCHES SAME FILL-ORIGIN LEVEL: 0 DIFFERENT FILL-ORIGIN LEVEL: 0
ITLB AVERAGE MISS LATENCY: 48.3636 cycles
ITLB RQ	ACCESS:   38935462	FORWARD:          0	MERGED:    8665676	TO_CACHE:   30269786

DTLB TOTAL     ACCESS:   15731453  HIT:   10783299  MISS:    4948154  HIT %:    68.5461  MISS %:    31.4539   MPKI: 24.7408
DTLB LOAD TRANSLATION ACCESS:   15731453  HIT:   10783299  MISS:    4948154  HIT %:    68.5461  MISS %:    31.4539   MPKI: 24.7408
DTLB PREFETCH  REQUESTED:          0  ISSUED:          0  USEFUL:          0  USELESS:          0
DTLB USEFUL LOAD PREFETCHES:          0 PREFETCH ISSUED TO LOWER LEVEL:          0  ACCURACY: -nan
DTLB TIMELY PREFETCHES:          0 LATE PREFETCHES: 0 DROPPED PREFETCHES: 0
DTLB PREFETCHES SAME FILL-ORIGIN LEVEL: 0 DIFFERENT FILL-ORIGIN LEVEL: 0
DTLB AVERAGE MISS LATENCY: 42.6158 cycles
DTLB RQ	ACCESS:   20584771	FORWARD:          0	MERGED:    3811784	TO_CACHE:   16772987

STLB TOTAL     ACCESS:    8830428  HIT:    3575800  MISS:    5254628  HIT %:    40.4941  MISS %:    59.5059   MPKI: 26.2731
STLB LOAD TRANSLATION ACCESS:    6138611  HIT:    2014823  MISS:    4123788  HIT %:    32.8221  MISS %:    67.1779   MPKI: 20.6189
STLB TRANSLATION FROM L1D PREFETCHER ACCESS:    2691817  HIT:    1560977  MISS:    1130840  HIT %:    57.9897  MISS %:    42.0103   MPKI: 5.6542
STLB PREFETCH  REQUESTED:          0  ISSUED:          0  USEFUL:     346141  USELESS:     825140
STLB USEFUL LOAD PREFETCHES:     346141 PREFETCH ISSUED TO LOWER LEVEL:          0  ACCURACY: inf
STLB TIMELY PREFETCHES:     346141 LATE PREFETCHES: 0 DROPPED PREFETCHES: 0
STLB PREFETCHES SAME FILL-ORIGIN LEVEL: 0 DIFFERENT FILL-ORIGIN LEVEL: 0
STLB AVERAGE MISS LATENCY: 48.0239 cycles
STLB RQ	ACCESS:   10883234	FORWARD:          0	MERGED:    1774606	TO_CACHE:    9108628

STLB Hit, L1D data hit: 0
STLB Hit, L2C data hit: 0
STLB Hit, LLC data hit: 0
STLB Hit, LLC data miss: 0
STLB STLB hints to L2: 0
L1D TOTAL     ACCESS:   23510624  HIT:   20915936  MISS:    2594688  HIT %:    88.9638  MISS %:    11.0362   MPKI: 12.9734
L1D LOAD      ACCESS:   12604009  HIT:   11496600  MISS:    1107409  HIT %:    91.2138  MISS %:    8.78616   MPKI: 5.53704
L1D RFO       ACCESS:    6664746  HIT:    6491331  MISS:     173415  HIT %:     97.398  MISS %:    2.60197   MPKI: 0.867075
L1D PREFETCH  ACCESS:    4241869  HIT:    2928005  MISS:    1313864  HIT %:    69.0263  MISS %:    30.9737   MPKI: 6.56932
L1D PREFETCH  REQUESTED:    9118054  ISSUED:    9118006  USEFUL:     492728  USELESS:     863069
L1D USEFUL LOAD PREFETCHES:     492728 PREFETCH ISSUED TO LOWER LEVEL:    1474584  ACCURACY: 33.4147
L1D TIMELY PREFETCHES:     492728 LATE PREFETCHES: 118487 DROPPED PREFETCHES: 0
L1D PREFETCHES SAME FILL-ORIGIN LEVEL: 1474584 DIFFERENT FILL-ORIGIN LEVEL: 0
L1D AVERAGE MISS LATENCY: 211.09 cycles
L1D RQ	ACCESS:   24159569	FORWARD:          0	MERGED:   10809033	TO_CACHE:   13171173
L1D WQ	ACCESS:    7759761	FORWARD:     184534	MERGED:     346163	TO_CACHE:    7413598
L1D PQ	ACCESS:    4561590	FORWARD:          0	MERGED:          3	TO_CACHE:    4556416

L1D UNIQUE REGIONS ACCESSED: 0
L1D REGIONS CONFLICTS: 0
L1D Cross Page Prefetch Requests: 0
L1D Same Page Prefetch Requests: 5638752
L1D ROI Sum of L1D PQ occupancy: 116522725
L1D PREFETCHES PUSHED FROM L2C: 0
L1I TOTAL     ACCESS:   37500604  HIT:   36899949  MISS:     600655  HIT %:    98.3983  MISS %:    1.60172   MPKI: 3.00327
L1I LOAD      ACCESS:   37500604  HIT:   36899949  MISS:     600655  HIT %:    98.3983  MISS %:    1.60172   MPKI: 3.00327
L1I PREFETCH  REQUESTED:          0  ISSUED:          0  USEFUL:          0  USELESS:          0
L1I USEFUL LOAD PREFETCHES:          0 PREFETCH ISSUED TO LOWER LEVEL:          0  ACCURACY: -nan
L1I TIMELY PREFETCHES:          0 LATE PREFETCHES: 0 DROPPED PREFETCHES: 0
L1I PREFETCHES SAME FILL-ORIGIN LEVEL: 0 DIFFERENT FILL-ORIGIN LEVEL: 0
L1I AVERAGE MISS LATENCY: 69.3311 cycles
L1I RQ	ACCESS:   57323962	FORWARD:          0	MERGED:   18388500	TO_CACHE:   38935462

BTB BRANCH_DIRECT_JUMP	ACCESS:          0  HIT:          0  MISS:          0
BTB BRANCH_INDIRECT	ACCESS:          0  HIT:          0  MISS:          0
BTB BRANCH_CONDITIONAL	ACCESS:          0  HIT:          0  MISS:          0
BTB BRANCH_DIRECT_CALL	ACCESS:          0  HIT:          0  MISS:          0
BTB BRANCH_INDIRECT_CALL	ACCESS:          0  HIT:          0  MISS:          0
BTB BRANCH_RETURN	ACCESS:          0  HIT:          0  MISS:          0
BTB BRANCH_OTHER ACCESS:          0  HIT:          0  MISS:          0

L2C TOTAL     ACCESS:    9493466  HIT:    6615723  MISS:    2877743  HIT %:    69.6871  MISS %:    30.3129   MPKI: 14.3887
L2C LOAD      ACCESS:    1591580  HIT:     424551  MISS:    1167029  HIT %:    26.6748  MISS %:    73.3252   MPKI: 5.83514
L2C DATA LOAD MPKI: 4.14417
L2C INSTRUCTION LOAD MPKI: 1.69097
L2C RFO       ACCESS:     173159  HIT:      55250  MISS:     117909  HIT %:    31.9071  MISS %:    68.0929   MPKI: 0.589545
L2C PREFETCH  ACCESS:    1430589  HIT:     162995  MISS:    1267594  HIT %:    11.3936  MISS %:    88.6064   MPKI: 6.33797
L2C DATA PREFETCH MPKI: 6.33797
L2C INSTRUCTION PREFETCH MPKI: 0
L2C WRITEBACK ACCESS:     494538  HIT:     454006  MISS:      40532  HIT %:    91.8041  MISS %:    8.19593   MPKI: 0.20266
L2C LOAD TRANSLATION ACCESS:    4647131  HIT:    4362646  MISS:     284485  HIT %:    93.8783  MISS %:    6.12173   MPKI: 1.42242
L2C TRANSLATION FROM L1D PREFETCHER ACCESS:    1156469  HIT:    1156275  MISS:        194  HIT %:    99.9832  MISS %:  0.0167752   MPKI: 0.00097
L2C PREFETCH  REQUESTED:          0  ISSUED:          0  USEFUL:      31199  USELESS:    1273998
L2C USEFUL LOAD PREFETCHES:      31199 PREFETCH ISSUED TO LOWER LEVEL:    1307902  ACCURACY: 2.38542
L2C TIMELY PREFETCHES:      31199 LATE PREFETCHES: 0 DROPPED PREFETCHES: 0
L2C PREFETCHES SAME FILL-ORIGIN LEVEL: 0 DIFFERENT FILL-ORIGIN LEVEL: 0
L2C AVERAGE MISS LATENCY: 222.13 cycles
L2C RQ	ACCESS:    7787717	FORWARD:          0	MERGED:          0	TO_CACHE:    7787712
L2C WQ	ACCESS:     504059	FORWARD:          6	MERGED:          0	TO_CACHE:     504059
L2C PQ	ACCESS:    1474584	FORWARD:          0	MERGED:          0	TO_CACHE:    1474583

L2C Instructions Evicting Data 252875
L2C Translations Evicting Data 233178
L2C Data Evicting Data 1803567
L2C Instructions Evicting Instructions 57654
L2C Translations Evicting Instructions 31531
L2C Data Evicting Instructions 250444
L2C Instructions Evicting Translations 33033
L2C Translations Evicting Translations 29040
L2C Data Evicting Translations 227215
L2C Dense regions hint from L2: 0
PSCL5 TOTAL     ACCESS:    5254628  HIT:    5254628  MISS:          0  HIT %:        100  MISS %:          0   MPKI: 0
PSCL5 LOAD TRANSLATION ACCESS:    4123788  HIT:    4123788  MISS:          0  HIT %:        100  MISS %:          0   MPKI: 0
PSCL5 TRANSLATION FROM L1D PREFETCHER ACCESS:    1130840  HIT:    1130840  MISS:          0  HIT %:        100  MISS %:          0   MPKI: 0
PSCL5 PREFETCH  REQUESTED:          0  ISSUED:          0  USEFUL:          0  USELESS:          0
PSCL5 USEFUL LOAD PREFETCHES:          0 PREFETCH ISSUED TO LOWER LEVEL:          0  ACCURACY: -nan
PSCL5 TIMELY PREFETCHES:          0 LATE PREFETCHES: 0 DROPPED PREFETCHES: 0
PSCL5 PREFETCHES SAME FILL-ORIGIN LEVEL: 0 DIFFERENT FILL-ORIGIN LEVEL: 0

PSCL4 TOTAL     ACCESS:    5136487  HIT:    5135642  MISS:        845  HIT %:    99.9835  MISS %:  0.0164509   MPKI: 0.004225
PSCL4 LOAD TRANSLATION ACCESS:    4078628  HIT:    4077783  MISS:        845  HIT %:    99.9793  MISS %:  0.0207178   MPKI: 0.004225
PSCL4 TRANSLATION FROM L1D PREFETCHER ACCESS:    1057859  HIT:    1057859  MISS:          0  HIT %:        100  MISS %:          0   MPKI: 0
PSCL4 PREFETCH  REQUESTED:          0  ISSUED:          0  USEFUL:          0  USELESS:          0
PSCL4 USEFUL LOAD PREFETCHES:          0 PREFETCH ISSUED TO LOWER LEVEL:          0  ACCURACY: -nan
PSCL4 TIMELY PREFETCHES:          0 LATE PREFETCHES: 0 DROPPED PREFETCHES: 0
PSCL4 PREFETCHES SAME FILL-ORIGIN LEVEL: 0 DIFFERENT FILL-ORIGIN LEVEL: 0

PSCL3 TOTAL     ACCESS:    5234052  HIT:    5225842  MISS:       8210  HIT %:    99.8431  MISS %:   0.156857   MPKI: 0.04105
PSCL3 LOAD TRANSLATION ACCESS:    4106773  HIT:    4098563  MISS:       8210  HIT %:    99.8001  MISS %:   0.199914   MPKI: 0.04105
PSCL3 TRANSLATION FROM L1D PREFETCHER ACCESS:    1127279  HIT:    1127279  MISS:          0  HIT %:        100  MISS %:          0   MPKI: 0
PSCL3 PREFETCH  REQUESTED:          0  ISSUED:          0  USEFUL:          0  USELESS:          0
PSCL3 USEFUL LOAD PREFETCHES:          0 PREFETCH ISSUED TO LOWER LEVEL:          0  ACCURACY: -nan
PSCL3 TIMELY PREFETCHES:          0 LATE PREFETCHES: 0 DROPPED PREFETCHES: 0
PSCL3 PREFETCHES SAME FILL-ORIGIN LEVEL: 0 DIFFERENT FILL-ORIGIN LEVEL: 0

PSCL2 TOTAL     ACCESS:    5254628  HIT:    4714566  MISS:     540062  HIT %:    89.7222  MISS %:    10.2778   MPKI: 2.70031
PSCL2 LOAD TRANSLATION ACCESS:    4149079  HIT:    3609017  MISS:     540062  HIT %:    86.9836  MISS %:    13.0164   MPKI: 2.70031
PSCL2 TRANSLATION FROM L1D PREFETCHER ACCESS:    1105549  HIT:    1105549  MISS:          0  HIT %:        100  MISS %:          0   MPKI: 0
PSCL2 PREFETCH  REQUESTED:          0  ISSUED:          0  USEFUL:          0  USELESS:          0
PSCL2 USEFUL LOAD PREFETCHES:          0 PREFETCH ISSUED TO LOWER LEVEL:          0  ACCURACY: -nan
PSCL2 TIMELY PREFETCHES:          0 LATE PREFETCHES: 0 DROPPED PREFETCHES: 0
PSCL2 PREFETCHES SAME FILL-ORIGIN LEVEL: 0 DIFFERENT FILL-ORIGIN LEVEL: 0

LLC TOTAL     ACCESS:    3252406  HIT:    1189194  MISS:    2063212  HIT %:    36.5635  MISS %:    63.4365   MPKI: 10.3161
LLC LOAD      ACCESS:    1167027  HIT:     444650  MISS:     722377  HIT %:    38.1011  MISS %:    61.8989   MPKI: 3.61188
LLC RFO       ACCESS:     117909  HIT:      38210  MISS:      79699  HIT %:    32.4063  MISS %:    67.5937   MPKI: 0.398495
LLC PREFETCH  ACCESS:    1267594  HIT:     180297  MISS:    1087297  HIT %:    14.2236  MISS %:    85.7764   MPKI: 5.43648
LLC WRITEBACK ACCESS:     415197  HIT:     394806  MISS:      20391  HIT %:    95.0888  MISS %:    4.91116   MPKI: 0.101955
LLC LOAD TRANSLATION ACCESS:     284485  HIT:     131160  MISS:     153325  HIT %:    46.1044  MISS %:    53.8956   MPKI: 0.766625
LLC TRANSLATION FROM L1D PREFETCHER ACCESS:        194  HIT:         71  MISS:        123  HIT %:    36.5979  MISS %:    63.4021   MPKI: 0.000615
LLC PREFETCH  REQUESTED:          0  ISSUED:          0  USEFUL:      90593  USELESS:    4403588
LLC USEFUL LOAD PREFETCHES:      90593 PREFETCH ISSUED TO LOWER LEVEL:    4497425  ACCURACY: 2.01433
LLC TIMELY PREFETCHES:      90593 LATE PREFETCHES: 0 DROPPED PREFETCHES: 0
LLC PREFETCHES SAME FILL-ORIGIN LEVEL: 0 DIFFERENT FILL-ORIGIN LEVEL: 0
LLC AVERAGE MISS LATENCY: 1072.17 cycles
LLC RQ	ACCESS:    6445460	FORWARD:          0	MERGED:          0	TO_CACHE:    6445455
LLC WQ	ACCESS:    1698194	FORWARD:          5	MERGED:          0	TO_CACHE:    1698194
LLC PQ	ACCESS:    5254454	FORWARD:          0	MERGED:          0	TO_CACHE:    5254454

LLC Dense regions hint to LLC: 0

RAW hits: 742706
Loads Generated: 24205030
Loads sent to L1D: 23462322
Stores Generated: 7556453
Stores sent to L1D: 7556454
Major fault: 0 Minor fault: 44946
Allocated PAGES: 178794

stream: 
stream:times selected: 4974828
stream:pref_filled: 928867
stream:pref_useful: 96268
stream:pref_late: 49945
stream:misses: 225189
stream:misses_by_poll: 0

CS: 
CS:times selected: 1519590
CS:pref_filled: 550891
CS:pref_useful: 538452
CS:pref_late: 77509
CS:misses: 279905
CS:misses_by_poll: 1610

CPLX: 
CPLX:times selected: 3427068
CPLX:pref_filled: 261041
CPLX:pref_useful: 15317
CPLX:pref_late: 776
CPLX:misses: 790918
CPLX:misses_by_poll: 491

NL_L1: 
NL:times selected: 16729
NL:pref_filled: 8650
NL:pref_useful: 1463
NL:pref_late: 399
NL:misses: 7680
NL:misses_by_poll: 1

total selections: 9938215
total_filled: 1400139
total_useful: 506809
total_late: 129871
total_polluted: 2102
total_misses_after_warmup: 1314105
conflicts: 2387761
Degree Incremented Times: 260251
Degree Decremented Times: 869674

L1 IP Table Write Accesses: 47558200
L1 IP Table Read Accesses: 45170439
L1 RST Write Accesses: 15722910
L1 RST Read Accesses: 31445820
L1 CSPT Write Accesses: 15722910
L1 CSPT Read Accesses: 26542751
L1 RR Filter Tag Write Accesses: 18323343
L1 RR Filter Tag Read Accesses: 869545664
L1 IP Table Tag Write Accesses: 52431946
L1 IP Table Tag Read Accesses: 52431946
L1 RST Tag Write Accesses: 0
L1 RST Tag Read Accesses: 154083360
L1 RR Filter Write Accesses: 0
L1 RR Filter Read Accesses: 30933976
test: 7678410

stream: 
stream:times selected: 4710620
stream:pref_filled: 884454
stream:pref_useful: 96633
stream:pref_late: 43881
stream:misses: 208165
stream:misses_by_poll: 0

CS: 
CS:times selected: 1457688
CS:pref_filled: 519811
CS:pref_useful: 504670
CS:pref_late: 76327
CS:misses: 267357
CS:misses_by_poll: 1542

CPLX: 
CPLX:times selected: 3224931
CPLX:pref_filled: 244904
CPLX:pref_useful: 15914
CPLX:pref_late: 894
CPLX:misses: 725796
CPLX:misses_by_poll: 393

NL_L1: 
NL:times selected: 16663
NL:pref_filled: 7511
NL:pref_useful: 1304
NL:pref_late: 367
NL:misses: 8288
NL:misses_by_poll: 0

total selections: 9409902
total_filled: 1314990
total_useful: 478600
total_late: 122756
total_polluted: 1935
total_misses_after_warmup: 1425952
conflicts: 2387761
Degree Incremented Times: 260251
Degree Decremented Times: 869674

L1 IP Table Write Accesses: 47558200
L1 IP Table Read Accesses: 45170439
L1 RST Write Accesses: 15722910
L1 RST Read Accesses: 31445820
L1 CSPT Write Accesses: 15722910
L1 CSPT Read Accesses: 26542751
L1 RR Filter Tag Write Accesses: 18323343
L1 RR Filter Tag Read Accesses: 869545664
L1 IP Table Tag Write Accesses: 52431946
L1 IP Table Tag Read Accesses: 52431946
L1 RST Tag Write Accesses: 0
L1 RST Tag Read Accesses: 154083360
L1 RR Filter Write Accesses: 0
L1 RR Filter Read Accesses: 30933976
test: 7678410

stream: 
stream:times selected: 4980174
stream:pref_filled: 915469
stream:pref_useful: 97213
stream:pref_late: 46261
stream:misses: 226020
stream:misses_by_poll: 0

CS: 
CS:times selected: 1560964
CS:pref_filled: 550069
CS:pref_useful: 536216
CS:pref_late: 81073
CS:misses: 276514
CS:misses_by_poll: 1472

CPLX: 
CPLX:times selected: 3388412
CPLX:pref_filled: 254977
CPLX:pref_useful: 15784
CPLX:pref_late: 716
CPLX:misses: 765187
CPLX:misses_by_poll: 572

NL_L1: 
NL:times selected: 16474
NL:pref_filled: 8074
NL:pref_useful: 1451
NL:pref_late: 417
NL:misses: 6591
NL:misses_by_poll: 0

total selections: 9946024
total_filled: 1385958
total_useful: 504560
total_late: 129599
total_polluted: 2044
total_misses_after_warmup: 1348877
conflicts: 2387761
Degree Incremented Times: 260251
Degree Decremented Times: 869674

L1 IP Table Write Accesses: 47558200
L1 IP Table Read Accesses: 45170439
L1 RST Write Accesses: 15722910
L1 RST Read Accesses: 31445820
L1 CSPT Write Accesses: 15722910
L1 CSPT Read Accesses: 26542751
L1 RR Filter Tag Write Accesses: 18323343
L1 RR Filter Tag Read Accesses: 869545664
L1 IP Table Tag Write Accesses: 52431946
L1 IP Table Tag Read Accesses: 52431946
L1 RST Tag Write Accesses: 0
L1 RST Tag Read Accesses: 154083360
L1 RR Filter Write Accesses: 0
L1 RR Filter Read Accesses: 30933976
test: 7678410

stream: 
stream:times selected: 4940361
stream:pref_filled: 897919
stream:pref_useful: 99882
stream:pref_late: 47484
stream:misses: 215191
stream:misses_by_poll: 0

CS: 
CS:times selected: 1539431
CS:pref_filled: 541192
CS:pref_useful: 525615
CS:pref_late: 75294
CS:misses: 266453
CS:misses_by_poll: 1477

CPLX: 
CPLX:times selected: 3371591
CPLX:pref_filled: 254651
CPLX:pref_useful: 16063
CPLX:pref_late: 900
CPLX:misses: 751651
CPLX:misses_by_poll: 438

NL_L1: 
NL:times selected: 14521
NL:pref_filled: 7799
NL:pref_useful: 1482
NL:pref_late: 401
NL:misses: 6279
NL:misses_by_poll: 0

total selections: 9865904
total_filled: 1355837
total_useful: 492728
total_late: 125146
total_polluted: 1915
total_misses_after_warmup: 1328737
conflicts: 2387761
Degree Incremented Times: 260251
Degree Decremented Times: 869674

L1 IP Table Write Accesses: 47558200
L1 IP Table Read Accesses: 45170439
L1 RST Write Accesses: 15722910
L1 RST Read Accesses: 31445820
L1 CSPT Write Accesses: 15722910
L1 CSPT Read Accesses: 26542751
L1 RR Filter Tag Write Accesses: 18323343
L1 RR Filter Tag Read Accesses: 869545664
L1 IP Table Tag Write Accesses: 52431946
L1 IP Table Tag Read Accesses: 52431946
L1 RST Tag Write Accesses: 0
L1 RST Tag Read Accesses: 154083360
L1 RR Filter Write Accesses: 0
L1 RR Filter Read Accesses: 30933976
test: 7678410

DRAM Statistics
 CHANNEL 0
 RQ ROW_BUFFER_HIT:     552818  ROW_BUFFER_MISS:    7901078
 DBUS_CONGESTED:         52
 WQ ROW_BUFFER_HIT:      91426  ROW_BUFFER_MISS:    1419362  FULL:          0

 AVG_CONGESTED_CYCLE: 5
 All warmup complete: 5
Channel 0 Bank busy for read cycles: 0
Channel 0 Bank busy for write cycles: 0
Channel 0
Rank 0
0banks busy for read cycles: 225945
0banks busy for write cycles: 121
1banks busy for read cycles: 23418097
1banks busy for write cycles: 270615
2banks busy for read cycles: 53007640
2banks busy for write cycles: 273768
3banks busy for read cycles: 72075732
3banks busy for write cycles: 276474
4banks busy for read cycles: 71207157
4banks busy for write cycles: 278843
5banks busy for read cycles: 52747087
5banks busy for write cycles: 295473
6banks busy for read cycles: 30717879
6banks busy for write cycles: 611251
7banks busy for read cycles: 14631575
7banks busy for write cycles: 5713661
8banks busy for read cycles: 7526630
8banks busy for write cycles: 40731638

CPU 0 Branch Prediction Accuracy: 99.0612% MPKI: 1.15993 Average ROB Occupancy at Mispredict: 79.4707
Branch types
NOT_BRANCH: 0 0%
BRANCH_DIRECT_JUMP: 0 0%
BRANCH_INDIRECT: 0 0%
BRANCH_CONDITIONAL: 0 0%
BRANCH_DIRECT_CALL: 0 0%
BRANCH_INDIRECT_CALL: 0 0%
BRANCH_RETURN: 0 0%
BRANCH_OTHER: 0 0%


CPU 1 Branch Prediction Accuracy: 98.8378% MPKI: 1.45795 Average ROB Occupancy at Mispredict: 72.1516
Branch types
NOT_BRANCH: 0 0%
BRANCH_DIRECT_JUMP: 0 0%
BRANCH_INDIRECT: 0 0%
BRANCH_CONDITIONAL: 0 0%
BRANCH_DIRECT_CALL: 0 0%
BRANCH_INDIRECT_CALL: 0 0%
BRANCH_RETURN: 0 0%
BRANCH_OTHER: 0 0%


CPU 2 Branch Prediction Accuracy: 99.0077% MPKI: 1.23265 Average ROB Occupancy at Mispredict: 74.1289
Branch types
NOT_BRANCH: 0 0%
BRANCH_DIRECT_JUMP: 0 0%
BRANCH_INDIRECT: 0 0%
BRANCH_CONDITIONAL: 0 0%
BRANCH_DIRECT_CALL: 0 0%
BRANCH_INDIRECT_CALL: 0 0%
BRANCH_RETURN: 0 0%
BRANCH_OTHER: 0 0%


CPU 3 Branch Prediction Accuracy: 98.9918% MPKI: 1.24583 Average ROB Occupancy at Mispredict: 76.0064
Branch types
NOT_BRANCH: 0 0%
BRANCH_DIRECT_JUMP: 0 0%
BRANCH_INDIRECT: 0 0%
BRANCH_CONDITIONAL: 0 0%
BRANCH_DIRECT_CALL: 0 0%
BRANCH_INDIRECT_CALL: 0 0%
BRANCH_RETURN: 0 0%
BRANCH_OTHER: 0 0%

DRAM PAGES: 1048576
Allocated PAGES: 178794
