
*** ChampSim Multicore Out-of-Order Simulator ***

Warmup Instructions: 50000000
Simulation Instructions: 200000000
Number of CPUs: 4
LLC sets: 8192
LLC ways: 16
Off-chip DRAM Size: 4096 MB Channels: 1 Width: 64-bit Data Rate: 6400 MT/s
CPU 0 runs ./traces/cs/cassandra_phase2_core0.trace.xz
.xz
CPU 1 runs ./traces/cs/cassandra_phase2_core1.trace.xz
.xz
CPU 2 runs ./traces/cs/cassandra_phase2_core2.trace.xz
.xz
CPU 3 runs ./traces/cs/cassandra_phase2_core3.trace.xz
.xz
BTB has LRU replacement policy
ITLB has LRU replacement policy
DTLB has LRU replacement policy
STLB has LRU replacement policy
L1I has LRU replacement policy
IP Table Entries: 1024
CSPT Entries: 128
RR_ENTRIES: 32
RST_ENTRIES: 8
L1D has LRU replacement policy
Initialize SRRIP state for L2C
Initialize DRRIP state for LLC
BTB has LRU replacement policy
ITLB has LRU replacement policy
DTLB has LRU replacement policy
STLB has LRU replacement policy
L1I has LRU replacement policy
IP Table Entries: 1024
CSPT Entries: 128
RR_ENTRIES: 32
RST_ENTRIES: 8
L1D has LRU replacement policy
Initialize SRRIP state for L2C
Initialize DRRIP state for LLC
BTB has LRU replacement policy
ITLB has LRU replacement policy
DTLB has LRU replacement policy
STLB has LRU replacement policy
L1I has LRU replacement policy
IP Table Entries: 1024
CSPT Entries: 128
RR_ENTRIES: 32
RST_ENTRIES: 8
L1D has LRU replacement policy
Initialize SRRIP state for L2C
Initialize DRRIP state for LLC
BTB has LRU replacement policy
ITLB has LRU replacement policy
DTLB has LRU replacement policy
STLB has LRU replacement policy
L1I has LRU replacement policy
IP Table Entries: 1024
CSPT Entries: 128
RR_ENTRIES: 32
RST_ENTRIES: 8
L1D has LRU replacement policy
Initialize SRRIP state for L2C
Initialize DRRIP state for LLC
UNIQUE_ASID[0] = €
UNIQUE_ASID[1] = 
Heartbeat CPU 3 instructions: 10000003 cycles: 3169696 heartbeat IPC: 3.15488 cumulative IPC: 3.15488 (Simulation time: 0 hr 2 min 34 sec) 
Heartbeat CPU 2 instructions: 10000000 cycles: 3184204 heartbeat IPC: 3.1405 cumulative IPC: 3.1405 (Simulation time: 0 hr 2 min 34 sec) 
Heartbeat CPU 1 instructions: 10000000 cycles: 3200834 heartbeat IPC: 3.12419 cumulative IPC: 3.12419 (Simulation time: 0 hr 2 min 35 sec) 
Heartbeat CPU 0 instructions: 10000001 cycles: 3209676 heartbeat IPC: 3.11558 cumulative IPC: 3.11558 (Simulation time: 0 hr 2 min 35 sec) 
Heartbeat CPU 2 instructions: 20000002 cycles: 6180036 heartbeat IPC: 3.33797 cumulative IPC: 3.23623 (Simulation time: 0 hr 5 min 4 sec) 
Heartbeat CPU 3 instructions: 20000000 cycles: 6209193 heartbeat IPC: 3.29002 cumulative IPC: 3.22103 (Simulation time: 0 hr 5 min 5 sec) 
Heartbeat CPU 1 instructions: 20000003 cycles: 6211276 heartbeat IPC: 3.32177 cumulative IPC: 3.21995 (Simulation time: 0 hr 5 min 5 sec) 
Heartbeat CPU 0 instructions: 20000000 cycles: 6393331 heartbeat IPC: 3.14104 cumulative IPC: 3.12826 (Simulation time: 0 hr 5 min 13 sec) 
Heartbeat CPU 2 instructions: 30000003 cycles: 8968628 heartbeat IPC: 3.58604 cumulative IPC: 3.34499 (Simulation time: 0 hr 7 min 23 sec) 
Heartbeat CPU 3 instructions: 30000002 cycles: 9020443 heartbeat IPC: 3.55714 cumulative IPC: 3.32578 (Simulation time: 0 hr 7 min 26 sec) 
Heartbeat CPU 1 instructions: 30000000 cycles: 9093142 heartbeat IPC: 3.46997 cumulative IPC: 3.29919 (Simulation time: 0 hr 7 min 28 sec) 
Heartbeat CPU 0 instructions: 30000000 cycles: 9168233 heartbeat IPC: 3.60373 cumulative IPC: 3.27217 (Simulation time: 0 hr 7 min 33 sec) 
Heartbeat CPU 2 instructions: 40000001 cycles: 11827522 heartbeat IPC: 3.49786 cumulative IPC: 3.38194 (Simulation time: 0 hr 9 min 25 sec) 
Heartbeat CPU 3 instructions: 40000001 cycles: 11925190 heartbeat IPC: 3.44264 cumulative IPC: 3.35424 (Simulation time: 0 hr 9 min 31 sec) 
Heartbeat CPU 0 instructions: 40000001 cycles: 11936924 heartbeat IPC: 3.61182 cumulative IPC: 3.35095 (Simulation time: 0 hr 9 min 31 sec) 
Heartbeat CPU 1 instructions: 40000002 cycles: 11942623 heartbeat IPC: 3.50941 cumulative IPC: 3.34935 (Simulation time: 0 hr 9 min 31 sec) 
Heartbeat CPU 2 instructions: 50000001 cycles: 14688037 heartbeat IPC: 3.49587 cumulative IPC: 3.40413 (Simulation time: 0 hr 11 min 14 sec) 
Heartbeat CPU 0 instructions: 50000000 cycles: 14716881 heartbeat IPC: 3.59718 cumulative IPC: 3.39746 (Simulation time: 0 hr 11 min 15 sec) 
Heartbeat CPU 3 instructions: 50000001 cycles: 14729583 heartbeat IPC: 3.56583 cumulative IPC: 3.39453 (Simulation time: 0 hr 11 min 16 sec) 
Heartbeat CPU 1 instructions: 50000000 cycles: 14840809 heartbeat IPC: 3.45043 cumulative IPC: 3.36909 (Simulation time: 0 hr 11 min 19 sec) 

Warmup complete CPU 0 instructions: 50349696 cycles: 14840810 (Simulation time: 0 hr 11 min 19 sec) 
Warmup complete CPU 1 instructions: 50000004 cycles: 14840810 (Simulation time: 0 hr 11 min 19 sec) 
Warmup complete CPU 2 instructions: 50472475 cycles: 14840809 (Simulation time: 0 hr 11 min 19 sec) 
Warmup complete CPU 3 instructions: 50343819 cycles: 14840809 (Simulation time: 0 hr 11 min 19 sec) 

Heartbeat CPU 3 instructions: 60000000 cycles: 30661764 heartbeat IPC: 0.62766 cumulative IPC: 0.610341 (Simulation time: 0 hr 14 min 2 sec) 
Heartbeat CPU 2 instructions: 60000000 cycles: 32311258 heartbeat IPC: 0.567433 cumulative IPC: 0.545351 (Simulation time: 0 hr 14 min 17 sec) 
Heartbeat CPU 0 instructions: 60000002 cycles: 33334484 heartbeat IPC: 0.537126 cumulative IPC: 0.521817 (Simulation time: 0 hr 14 min 25 sec) 
Heartbeat CPU 1 instructions: 60000002 cycles: 34144276 heartbeat IPC: 0.518042 cumulative IPC: 0.518042 (Simulation time: 0 hr 14 min 31 sec) 
Heartbeat CPU 3 instructions: 70000003 cycles: 46875081 heartbeat IPC: 0.616777 cumulative IPC: 0.613599 (Simulation time: 0 hr 16 min 20 sec) 
Heartbeat CPU 2 instructions: 70000000 cycles: 50201506 heartbeat IPC: 0.558964 cumulative IPC: 0.552238 (Simulation time: 0 hr 16 min 48 sec) 
Heartbeat CPU 0 instructions: 70000001 cycles: 52448966 heartbeat IPC: 0.523163 cumulative IPC: 0.522501 (Simulation time: 0 hr 17 min 10 sec) 
Heartbeat CPU 1 instructions: 70000003 cycles: 52529975 heartbeat IPC: 0.543901 cumulative IPC: 0.530656 (Simulation time: 0 hr 17 min 11 sec) 
Heartbeat CPU 3 instructions: 80000003 cycles: 65432924 heartbeat IPC: 0.538856 cumulative IPC: 0.586182 (Simulation time: 0 hr 19 min 16 sec) 
Heartbeat CPU 2 instructions: 80000002 cycles: 67995583 heartbeat IPC: 0.561985 cumulative IPC: 0.555501 (Simulation time: 0 hr 19 min 37 sec) 
Heartbeat CPU 0 instructions: 80000003 cycles: 69668324 heartbeat IPC: 0.580742 cumulative IPC: 0.540792 (Simulation time: 0 hr 19 min 52 sec) 
Heartbeat CPU 1 instructions: 80000002 cycles: 71266387 heartbeat IPC: 0.53372 cumulative IPC: 0.531674 (Simulation time: 0 hr 20 min 5 sec) 
Heartbeat CPU 3 instructions: 90000002 cycles: 82659040 heartbeat IPC: 0.580514 cumulative IPC: 0.584742 (Simulation time: 0 hr 21 min 42 sec) 
Heartbeat CPU 2 instructions: 90000000 cycles: 85904318 heartbeat IPC: 0.558387 cumulative IPC: 0.556228 (Simulation time: 0 hr 22 min 9 sec) 
Heartbeat CPU 0 instructions: 90000001 cycles: 86903033 heartbeat IPC: 0.580224 cumulative IPC: 0.550223 (Simulation time: 0 hr 22 min 17 sec) 
Heartbeat CPU 1 instructions: 90000000 cycles: 91120803 heartbeat IPC: 0.503666 cumulative IPC: 0.524384 (Simulation time: 0 hr 22 min 51 sec) 
Heartbeat CPU 3 instructions: 100000003 cycles: 100198116 heartbeat IPC: 0.570156 cumulative IPC: 0.581745 (Simulation time: 0 hr 24 min 1 sec) 
Heartbeat CPU 2 instructions: 100000002 cycles: 103381181 heartbeat IPC: 0.572185 cumulative IPC: 0.559378 (Simulation time: 0 hr 24 min 45 sec) 
Heartbeat CPU 0 instructions: 100000001 cycles: 105743546 heartbeat IPC: 0.530771 cumulative IPC: 0.546192 (Simulation time: 0 hr 25 min 19 sec) 
Heartbeat CPU 1 instructions: 100000000 cycles: 110081902 heartbeat IPC: 0.527396 cumulative IPC: 0.524983 (Simulation time: 0 hr 26 min 27 sec) 
Heartbeat CPU 3 instructions: 110000000 cycles: 115124501 heartbeat IPC: 0.669954 cumulative IPC: 0.594874 (Simulation time: 0 hr 27 min 44 sec) 
Heartbeat CPU 2 instructions: 110000000 cycles: 117879534 heartbeat IPC: 0.689733 cumulative IPC: 0.57772 (Simulation time: 0 hr 28 min 25 sec) 
Heartbeat CPU 0 instructions: 110000000 cycles: 120376351 heartbeat IPC: 0.683396 cumulative IPC: 0.565215 (Simulation time: 0 hr 29 min 3 sec) 
Heartbeat CPU 1 instructions: 110000000 cycles: 124836101 heartbeat IPC: 0.677773 cumulative IPC: 0.545478 (Simulation time: 0 hr 30 min 6 sec) 
Heartbeat CPU 3 instructions: 120000000 cycles: 132035629 heartbeat IPC: 0.591327 cumulative IPC: 0.594362 (Simulation time: 0 hr 31 min 33 sec) 
Heartbeat CPU 2 instructions: 120000003 cycles: 133229402 heartbeat IPC: 0.651472 cumulative IPC: 0.587282 (Simulation time: 0 hr 31 min 49 sec) 
Heartbeat CPU 0 instructions: 120000001 cycles: 138173545 heartbeat IPC: 0.561886 cumulative IPC: 0.564735 (Simulation time: 0 hr 32 min 43 sec) 
Heartbeat CPU 1 instructions: 120000000 cycles: 145907338 heartbeat IPC: 0.474581 cumulative IPC: 0.53408 (Simulation time: 0 hr 34 min 1 sec) 
Heartbeat CPU 3 instructions: 130000003 cycles: 149886208 heartbeat IPC: 0.560206 cumulative IPC: 0.589847 (Simulation time: 0 hr 34 min 42 sec) 
Heartbeat CPU 2 instructions: 130000001 cycles: 155475596 heartbeat IPC: 0.449515 cumulative IPC: 0.56549 (Simulation time: 0 hr 35 min 48 sec) 
Heartbeat CPU 0 instructions: 130000002 cycles: 159833101 heartbeat IPC: 0.46169 cumulative IPC: 0.549342 (Simulation time: 0 hr 36 min 40 sec) 
Heartbeat CPU 1 instructions: 130000000 cycles: 165827381 heartbeat IPC: 0.502007 cumulative IPC: 0.529848 (Simulation time: 0 hr 37 min 50 sec) 
Heartbeat CPU 3 instructions: 140000003 cycles: 168563894 heartbeat IPC: 0.535398 cumulative IPC: 0.583232 (Simulation time: 0 hr 38 min 12 sec) 
Heartbeat CPU 2 instructions: 140000000 cycles: 175346321 heartbeat IPC: 0.503253 cumulative IPC: 0.557785 (Simulation time: 0 hr 39 min 10 sec) 
Heartbeat CPU 0 instructions: 140000001 cycles: 178962849 heartbeat IPC: 0.522746 cumulative IPC: 0.546242 (Simulation time: 0 hr 39 min 44 sec) 
Heartbeat CPU 1 instructions: 140000002 cycles: 184848514 heartbeat IPC: 0.525731 cumulative IPC: 0.529388 (Simulation time: 0 hr 40 min 53 sec) 
Heartbeat CPU 3 instructions: 150000000 cycles: 185658444 heartbeat IPC: 0.584982 cumulative IPC: 0.583407 (Simulation time: 0 hr 41 min 0 sec) 
Heartbeat CPU 2 instructions: 150000003 cycles: 192492723 heartbeat IPC: 0.583213 cumulative IPC: 0.560239 (Simulation time: 0 hr 42 min 25 sec) 
Heartbeat CPU 0 instructions: 150000002 cycles: 197221592 heartbeat IPC: 0.547683 cumulative IPC: 0.546386 (Simulation time: 0 hr 43 min 25 sec) 
Heartbeat CPU 1 instructions: 150000000 cycles: 201956636 heartbeat IPC: 0.584518 cumulative IPC: 0.534428 (Simulation time: 0 hr 44 min 21 sec) 
Heartbeat CPU 3 instructions: 160000002 cycles: 202405192 heartbeat IPC: 0.597131 cumulative IPC: 0.584632 (Simulation time: 0 hr 44 min 27 sec) 
Heartbeat CPU 2 instructions: 160000001 cycles: 210616541 heartbeat IPC: 0.55176 cumulative IPC: 0.559454 (Simulation time: 0 hr 46 min 10 sec) 
Heartbeat CPU 0 instructions: 160000003 cycles: 217235097 heartbeat IPC: 0.499663 cumulative IPC: 0.541766 (Simulation time: 0 hr 47 min 13 sec) 
Heartbeat CPU 3 instructions: 170000000 cycles: 218603636 heartbeat IPC: 0.617343 cumulative IPC: 0.587233 (Simulation time: 0 hr 47 min 24 sec) 
Heartbeat CPU 1 instructions: 160000003 cycles: 221269192 heartbeat IPC: 0.517798 cumulative IPC: 0.532872 (Simulation time: 0 hr 47 min 45 sec) 
Heartbeat CPU 2 instructions: 170000000 cycles: 228134663 heartbeat IPC: 0.570837 cumulative IPC: 0.560389 (Simulation time: 0 hr 48 min 44 sec) 
Heartbeat CPU 0 instructions: 170000002 cycles: 236356769 heartbeat IPC: 0.522967 cumulative IPC: 0.540143 (Simulation time: 0 hr 50 min 0 sec) 
Heartbeat CPU 3 instructions: 180000000 cycles: 237055889 heartbeat IPC: 0.541939 cumulative IPC: 0.583472 (Simulation time: 0 hr 50 min 5 sec) 
Heartbeat CPU 1 instructions: 170000003 cycles: 239353814 heartbeat IPC: 0.552956 cumulative IPC: 0.53449 (Simulation time: 0 hr 50 min 27 sec) 
Heartbeat CPU 2 instructions: 180000001 cycles: 245846101 heartbeat IPC: 0.564607 cumulative IPC: 0.560712 (Simulation time: 0 hr 51 min 29 sec) 
Heartbeat CPU 0 instructions: 180000002 cycles: 253660542 heartbeat IPC: 0.577909 cumulative IPC: 0.542879 (Simulation time: 0 hr 52 min 40 sec) 
Heartbeat CPU 3 instructions: 190000001 cycles: 254187228 heartbeat IPC: 0.583726 cumulative IPC: 0.58349 (Simulation time: 0 hr 52 min 43 sec) 
Heartbeat CPU 1 instructions: 180000002 cycles: 258025724 heartbeat IPC: 0.535564 cumulative IPC: 0.534573 (Simulation time: 0 hr 53 min 17 sec) 
Heartbeat CPU 2 instructions: 190000003 cycles: 263818046 heartbeat IPC: 0.556423 cumulative IPC: 0.560403 (Simulation time: 0 hr 54 min 6 sec) 
Heartbeat CPU 0 instructions: 190000003 cycles: 270989268 heartbeat IPC: 0.577077 cumulative IPC: 0.545193 (Simulation time: 0 hr 55 min 9 sec) 
Heartbeat CPU 3 instructions: 200000000 cycles: 271769302 heartbeat IPC: 0.568761 cumulative IPC: 0.582482 (Simulation time: 0 hr 55 min 16 sec) 
Heartbeat CPU 1 instructions: 190000000 cycles: 277493887 heartbeat IPC: 0.513659 cumulative IPC: 0.533022 (Simulation time: 0 hr 56 min 22 sec) 
Heartbeat CPU 2 instructions: 200000002 cycles: 281082116 heartbeat IPC: 0.579238 cumulative IPC: 0.561624 (Simulation time: 0 hr 57 min 4 sec) 
Heartbeat CPU 3 instructions: 210000000 cycles: 287004625 heartbeat IPC: 0.656369 cumulative IPC: 0.586618 (Simulation time: 0 hr 58 min 19 sec) 
Heartbeat CPU 0 instructions: 200000001 cycles: 289359886 heartbeat IPC: 0.544347 cumulative IPC: 0.545136 (Simulation time: 0 hr 58 min 45 sec) 
Heartbeat CPU 2 instructions: 210000003 cycles: 295828074 heartbeat IPC: 0.678152 cumulative IPC: 0.567739 (Simulation time: 1 hr 0 min 1 sec) 
Heartbeat CPU 1 instructions: 200000002 cycles: 296020260 heartbeat IPC: 0.539771 cumulative IPC: 0.533467 (Simulation time: 1 hr 0 min 4 sec) 
Heartbeat CPU 3 instructions: 220000000 cycles: 303539822 heartbeat IPC: 0.604771 cumulative IPC: 0.587658 (Simulation time: 1 hr 1 min 49 sec) 
Heartbeat CPU 0 instructions: 210000002 cycles: 304098860 heartbeat IPC: 0.678473 cumulative IPC: 0.55193 (Simulation time: 1 hr 1 min 58 sec) 
Heartbeat CPU 1 instructions: 210000000 cycles: 310876999 heartbeat IPC: 0.673095 cumulative IPC: 0.540474 (Simulation time: 1 hr 3 min 37 sec) 
Heartbeat CPU 2 instructions: 220000000 cycles: 311096828 heartbeat IPC: 0.654932 cumulative IPC: 0.572233 (Simulation time: 1 hr 3 min 41 sec) 
Heartbeat CPU 3 instructions: 230000001 cycles: 319721894 heartbeat IPC: 0.617968 cumulative IPC: 0.589266 (Simulation time: 1 hr 5 min 45 sec) 
Heartbeat CPU 0 instructions: 220000000 cycles: 321515728 heartbeat IPC: 0.574156 cumulative IPC: 0.553193 (Simulation time: 1 hr 6 min 4 sec) 
Heartbeat CPU 1 instructions: 220000000 cycles: 331778902 heartbeat IPC: 0.478425 cumulative IPC: 0.536382 (Simulation time: 1 hr 7 min 32 sec) 
Heartbeat CPU 2 instructions: 230000000 cycles: 332615466 heartbeat IPC: 0.464713 cumulative IPC: 0.564952 (Simulation time: 1 hr 7 min 42 sec) 
Heartbeat CPU 3 instructions: 240000002 cycles: 339308441 heartbeat IPC: 0.510555 cumulative IPC: 0.584515 (Simulation time: 1 hr 9 min 2 sec) 
Heartbeat CPU 0 instructions: 230000001 cycles: 343482030 heartbeat IPC: 0.455243 cumulative IPC: 0.546646 (Simulation time: 1 hr 9 min 54 sec) 
Heartbeat CPU 1 instructions: 230000003 cycles: 351431271 heartbeat IPC: 0.508845 cumulative IPC: 0.534774 (Simulation time: 1 hr 11 min 27 sec) 
Heartbeat CPU 2 instructions: 240000001 cycles: 352297997 heartbeat IPC: 0.508065 cumulative IPC: 0.561634 (Simulation time: 1 hr 11 min 38 sec) 
Heartbeat CPU 3 instructions: 250000001 cycles: 356509892 heartbeat IPC: 0.581346 cumulative IPC: 0.584355 (Simulation time: 1 hr 12 min 31 sec) 
Finished CPU 3 instructions: 200000000 cycles: 342710344 cumulative IPC: 0.583583 (Simulation time: 1 hr 12 min 43 sec) 
Heartbeat CPU 0 instructions: 240000002 cycles: 362457661 heartbeat IPC: 0.526992 cumulative IPC: 0.545573 (Simulation time: 1 hr 13 min 38 sec) 
Heartbeat CPU 2 instructions: 250000003 cycles: 369470118 heartbeat IPC: 0.582339 cumulative IPC: 0.562637 (Simulation time: 1 hr 15 min 8 sec) 
Finished CPU 2 instructions: 200000000 cycles: 355352247 cumulative IPC: 0.562822 (Simulation time: 1 hr 15 min 17 sec) 
Heartbeat CPU 1 instructions: 240000002 cycles: 370314108 heartbeat IPC: 0.529581 cumulative IPC: 0.534499 (Simulation time: 1 hr 15 min 19 sec) 
Heartbeat CPU 3 instructions: 260000002 cycles: 373020257 heartbeat IPC: 0.60568 cumulative IPC: 0.585338 (Simulation time: 1 hr 15 min 54 sec) 
Heartbeat CPU 0 instructions: 250000000 cycles: 380976619 heartbeat IPC: 0.539987 cumulative IPC: 0.54529 (Simulation time: 1 hr 17 min 5 sec) 
Finished CPU 0 instructions: 200000003 cycles: 367450723 cumulative IPC: 0.544291 (Simulation time: 1 hr 17 min 15 sec) 
Heartbeat CPU 2 instructions: 260000001 cycles: 387490039 heartbeat IPC: 0.554941 cumulative IPC: 0.562265 (Simulation time: 1 hr 17 min 58 sec) 
Heartbeat CPU 1 instructions: 250000000 cycles: 387639991 heartbeat IPC: 0.577171 cumulative IPC: 0.536482 (Simulation time: 1 hr 17 min 59 sec) 
Finished CPU 1 instructions: 200000000 cycles: 372799182 cumulative IPC: 0.536482 (Simulation time: 1 hr 17 min 59 sec) 

ChampSim completed all CPUs

Total Simulation Statistics (not including warmup)

CPU 0 cumulative IPC: 0.54403 instructions: 202813899 cycles: 372799182
ITLB TOTAL     ACCESS:   30374279  HIT:   28705977  MISS:    1668302  HIT %:    94.5075  MISS %:    5.49248   MPKI: 8.22578
ITLB LOAD      ACCESS:          0  HIT:          0  MISS:          0  HIT %:       -nan  MISS %:       -nan   MPKI: 0
ITLB RFO       ACCESS:          0  HIT:          0  MISS:          0  HIT %:       -nan  MISS %:       -nan   MPKI: 0
ITLB PREFETCH  ACCESS:          0  HIT:          0  MISS:          0  HIT %:       -nan  MISS %:       -nan   MPKI: 0
ITLB WRITEBACK ACCESS:          0  HIT:          0  MISS:          0  HIT %:       -nan  MISS %:       -nan   MPKI: 0
DTLB TOTAL     ACCESS:   17868466  HIT:   10996292  MISS:    6872174  HIT %:    61.5402  MISS %:    38.4598   MPKI: 33.8841
DTLB LOAD      ACCESS:          0  HIT:          0  MISS:          0  HIT %:       -nan  MISS %:       -nan   MPKI: 0
DTLB RFO       ACCESS:          0  HIT:          0  MISS:          0  HIT %:       -nan  MISS %:       -nan   MPKI: 0
DTLB PREFETCH  ACCESS:          0  HIT:          0  MISS:          0  HIT %:       -nan  MISS %:       -nan   MPKI: 0
DTLB WRITEBACK ACCESS:          0  HIT:          0  MISS:          0  HIT %:       -nan  MISS %:       -nan   MPKI: 0
STLB TOTAL     ACCESS:   11253219  HIT:    4729940  MISS:    6523279  HIT %:    42.0319  MISS %:    57.9681   MPKI: 32.1639
STLB LOAD      ACCESS:          0  HIT:          0  MISS:          0  HIT %:       -nan  MISS %:       -nan   MPKI: 0
STLB RFO       ACCESS:          0  HIT:          0  MISS:          0  HIT %:       -nan  MISS %:       -nan   MPKI: 0
STLB PREFETCH  ACCESS:          0  HIT:          0  MISS:          0  HIT %:       -nan  MISS %:       -nan   MPKI: 0
STLB WRITEBACK ACCESS:          0  HIT:          0  MISS:          0  HIT %:       -nan  MISS %:       -nan   MPKI: 0
L1D TOTAL     ACCESS:   26269513  HIT:   23819599  MISS:    2449914  HIT %:    90.6739  MISS %:    9.32607   MPKI: 12.0796
L1D LOAD      ACCESS:   14204471  HIT:   13192143  MISS:    1012328  HIT %:    92.8732  MISS %:    7.12683   MPKI: 4.99141
L1D RFO       ACCESS:    7762820  HIT:    7599499  MISS:     163321  HIT %:    97.8961  MISS %:    2.10389   MPKI: 0.805275
L1D PREFETCH  ACCESS:    4302222  HIT:    3027957  MISS:    1274265  HIT %:    70.3812  MISS %:    29.6188   MPKI: 6.28293
L1D WRITEBACK ACCESS:          0  HIT:          0  MISS:          0  HIT %:       -nan  MISS %:       -nan   MPKI: 0
L1I TOTAL     ACCESS:   39549747  HIT:   39087152  MISS:     462595  HIT %:    98.8303  MISS %:    1.16965   MPKI: 2.28088
L1I LOAD      ACCESS:   39549747  HIT:   39087152  MISS:     462595  HIT %:    98.8303  MISS %:    1.16965   MPKI: 2.28088
L1I RFO       ACCESS:          0  HIT:          0  MISS:          0  HIT %:       -nan  MISS %:       -nan   MPKI: 0
L1I PREFETCH  ACCESS:          0  HIT:          0  MISS:          0  HIT %:       -nan  MISS %:       -nan   MPKI: 0
L1I WRITEBACK ACCESS:          0  HIT:          0  MISS:          0  HIT %:       -nan  MISS %:       -nan   MPKI: 0
L2C TOTAL     ACCESS:   10388287  HIT:    7750810  MISS:    2637477  HIT %:     74.611  MISS %:     25.389   MPKI: 13.0044
L2C LOAD      ACCESS:    1395152  HIT:     340743  MISS:    1054409  HIT %:    24.4234  MISS %:    75.5766   MPKI: 5.1989
L2C RFO       ACCESS:     160068  HIT:      52061  MISS:     108007  HIT %:    32.5243  MISS %:    67.4757   MPKI: 0.532542
L2C PREFETCH  ACCESS:    1357277  HIT:     179376  MISS:    1177901  HIT %:    13.2159  MISS %:    86.7841   MPKI: 5.80779
L2C WRITEBACK ACCESS:     526431  HIT:     485538  MISS:      40893  HIT %:     92.232  MISS %:    7.76797   MPKI: 0.201628
PSCL5 TOTAL     ACCESS:    6523278  HIT:    6523278  MISS:          0  HIT %:        100  MISS %:          0   MPKI: 0
PSCL5 LOAD      ACCESS:          0  HIT:          0  MISS:          0  HIT %:       -nan  MISS %:       -nan   MPKI: 0
PSCL5 RFO       ACCESS:          0  HIT:          0  MISS:          0  HIT %:       -nan  MISS %:       -nan   MPKI: 0
PSCL5 PREFETCH  ACCESS:          0  HIT:          0  MISS:          0  HIT %:       -nan  MISS %:       -nan   MPKI: 0
PSCL5 WRITEBACK ACCESS:          0  HIT:          0  MISS:          0  HIT %:       -nan  MISS %:       -nan   MPKI: 0
PSCL4 TOTAL     ACCESS:    6437842  HIT:    6437313  MISS:        529  HIT %:    99.9918  MISS %: 0.00821704   MPKI: 0.0026083
PSCL4 LOAD      ACCESS:          0  HIT:          0  MISS:          0  HIT %:       -nan  MISS %:       -nan   MPKI: 0
PSCL4 RFO       ACCESS:          0  HIT:          0  MISS:          0  HIT %:       -nan  MISS %:       -nan   MPKI: 0
PSCL4 PREFETCH  ACCESS:          0  HIT:          0  MISS:          0  HIT %:       -nan  MISS %:       -nan   MPKI: 0
PSCL4 WRITEBACK ACCESS:          0  HIT:          0  MISS:          0  HIT %:       -nan  MISS %:       -nan   MPKI: 0
PSCL3 TOTAL     ACCESS:    6504571  HIT:    6500230  MISS:       4341  HIT %:    99.9333  MISS %:  0.0667377   MPKI: 0.0214039
PSCL3 LOAD      ACCESS:          0  HIT:          0  MISS:          0  HIT %:       -nan  MISS %:       -nan   MPKI: 0
PSCL3 RFO       ACCESS:          0  HIT:          0  MISS:          0  HIT %:       -nan  MISS %:       -nan   MPKI: 0
PSCL3 PREFETCH  ACCESS:          0  HIT:          0  MISS:          0  HIT %:       -nan  MISS %:       -nan   MPKI: 0
PSCL3 WRITEBACK ACCESS:          0  HIT:          0  MISS:          0  HIT %:       -nan  MISS %:       -nan   MPKI: 0
PSCL2 TOTAL     ACCESS:    6523278  HIT:    6101962  MISS:     421316  HIT %:    93.5413  MISS %:    6.45865   MPKI: 2.07735
PSCL2 LOAD      ACCESS:          0  HIT:          0  MISS:          0  HIT %:       -nan  MISS %:       -nan   MPKI: 0
PSCL2 RFO       ACCESS:          0  HIT:          0  MISS:          0  HIT %:       -nan  MISS %:       -nan   MPKI: 0
PSCL2 PREFETCH  ACCESS:          0  HIT:          0  MISS:          0  HIT %:       -nan  MISS %:       -nan   MPKI: 0
PSCL2 WRITEBACK ACCESS:          0  HIT:          0  MISS:          0  HIT %:       -nan  MISS %:       -nan   MPKI: 0

stream: 
stream:times selected: 5253872
stream:pref_filled: 842239
stream:pref_useful: 109985
stream:pref_late: 40726
stream:misses: 191982
stream:misses_by_poll: 0

CS: 
CS:times selected: 1303084
CS:pref_filled: 464219
CS:pref_useful: 434224
CS:pref_late: 41317
CS:misses: 121610
CS:misses_by_poll: 1302

CPLX: 
CPLX:times selected: 3899380
CPLX:pref_filled: 282087
CPLX:pref_useful: 34150
CPLX:pref_late: 1063
CPLX:misses: 705083
CPLX:misses_by_poll: 849

NL_L1: 
NL:times selected: 29200
NL:pref_filled: 8465
NL:pref_useful: 1789
NL:pref_late: 384
NL:misses: 10571
NL:misses_by_poll: 1

total selections: 10485536
total_filled: 1274265
total_useful: 445061
total_late: 84249
total_polluted: 2152
total_misses_after_warmup: 1112997
conflicts: 2430944
Degree Incremented Times: 300995
Degree Decremented Times: 881578

L1 IP Table Write Accesses: 53942094
L1 IP Table Read Accesses: 51511150
L1 RST Write Accesses: 16397292
L1 RST Read Accesses: 32794584
L1 CSPT Write Accesses: 16397292
L1 CSPT Read Accesses: 28263116
L1 RR Filter Tag Write Accesses: 17667096
L1 RR Filter Tag Read Accesses: 847790376
L1 IP Table Tag Write Accesses: 59324402
L1 IP Table Tag Read Accesses: 59324402
L1 RST Tag Write Accesses: 0
L1 RST Tag Read Accesses: 155082307
L1 RR Filter Write Accesses: 0
L1 RR Filter Read Accesses: 30604686
test: 8759329
LLC TOTAL     ACCESS:    3032194  HIT:    1040059  MISS:    1992135  HIT %:    34.3005  MISS %:    65.6995   MPKI: 9.82248
LLC LOAD      ACCESS:    1054408  HIT:     331195  MISS:     723213  HIT %:    31.4105  MISS %:    68.5895   MPKI: 3.56589
LLC RFO       ACCESS:     108006  HIT:      15427  MISS:      92579  HIT %:    14.2835  MISS %:    85.7165   MPKI: 0.456473
LLC PREFETCH  ACCESS:    1177901  HIT:     172380  MISS:    1005521  HIT %:    14.6345  MISS %:    85.3655   MPKI: 4.95785
LLC WRITEBACK ACCESS:     435612  HIT:     411127  MISS:      24485  HIT %:    94.3792  MISS %:    5.62083   MPKI: 0.120726

RAW hits: 1269269
Loads Generated: 26688314
Loads sent to L1D: 25419045
Stores Generated: 8781686
Stores sent to L1D: 8781687

CPU 1 cumulative IPC: 0.536482 instructions: 200000000 cycles: 372799182
ITLB TOTAL     ACCESS:   30449236  HIT:   28743774  MISS:    1705462  HIT %:     94.399  MISS %:      5.601   MPKI: 8.52731
ITLB LOAD      ACCESS:          0  HIT:          0  MISS:          0  HIT %:       -nan  MISS %:       -nan   MPKI: 0
ITLB RFO       ACCESS:          0  HIT:          0  MISS:          0  HIT %:       -nan  MISS %:       -nan   MPKI: 0
ITLB PREFETCH  ACCESS:          0  HIT:          0  MISS:          0  HIT %:       -nan  MISS %:       -nan   MPKI: 0
ITLB WRITEBACK ACCESS:          0  HIT:          0  MISS:          0  HIT %:       -nan  MISS %:       -nan   MPKI: 0
DTLB TOTAL     ACCESS:   18068552  HIT:   11480599  MISS:    6587953  HIT %:    63.5391  MISS %:    36.4609   MPKI: 32.9398
DTLB LOAD      ACCESS:          0  HIT:          0  MISS:          0  HIT %:       -nan  MISS %:       -nan   MPKI: 0
DTLB RFO       ACCESS:          0  HIT:          0  MISS:          0  HIT %:       -nan  MISS %:       -nan   MPKI: 0
DTLB PREFETCH  ACCESS:          0  HIT:          0  MISS:          0  HIT %:       -nan  MISS %:       -nan   MPKI: 0
DTLB WRITEBACK ACCESS:          0  HIT:          0  MISS:          0  HIT %:       -nan  MISS %:       -nan   MPKI: 0
STLB TOTAL     ACCESS:   10950584  HIT:    4657184  MISS:    6293400  HIT %:    42.5291  MISS %:    57.4709   MPKI: 31.467
STLB LOAD      ACCESS:          0  HIT:          0  MISS:          0  HIT %:       -nan  MISS %:       -nan   MPKI: 0
STLB RFO       ACCESS:          0  HIT:          0  MISS:          0  HIT %:       -nan  MISS %:       -nan   MPKI: 0
STLB PREFETCH  ACCESS:          0  HIT:          0  MISS:          0  HIT %:       -nan  MISS %:       -nan   MPKI: 0
STLB WRITEBACK ACCESS:          0  HIT:          0  MISS:          0  HIT %:       -nan  MISS %:       -nan   MPKI: 0
L1D TOTAL     ACCESS:   25831216  HIT:   23261556  MISS:    2569660  HIT %:    90.0521  MISS %:    9.94789   MPKI: 12.8483
L1D LOAD      ACCESS:   14417429  HIT:   13312686  MISS:    1104743  HIT %:    92.3374  MISS %:    7.66255   MPKI: 5.52372
L1D RFO       ACCESS:    7374987  HIT:    7178428  MISS:     196559  HIT %:    97.3348  MISS %:    2.66521   MPKI: 0.982795
L1D PREFETCH  ACCESS:    4038800  HIT:    2770442  MISS:    1268358  HIT %:    68.5957  MISS %:    31.4043   MPKI: 6.34179
L1D WRITEBACK ACCESS:          0  HIT:          0  MISS:          0  HIT %:       -nan  MISS %:       -nan   MPKI: 0
L1I TOTAL     ACCESS:   38868636  HIT:   38122950  MISS:     745686  HIT %:    98.0815  MISS %:    1.91848   MPKI: 3.72843
L1I LOAD      ACCESS:   38868636  HIT:   38122950  MISS:     745686  HIT %:    98.0815  MISS %:    1.91848   MPKI: 3.72843
L1I RFO       ACCESS:          0  HIT:          0  MISS:          0  HIT %:       -nan  MISS %:       -nan   MPKI: 0
L1I PREFETCH  ACCESS:          0  HIT:          0  MISS:          0  HIT %:       -nan  MISS %:       -nan   MPKI: 0
L1I WRITEBACK ACCESS:          0  HIT:          0  MISS:          0  HIT %:       -nan  MISS %:       -nan   MPKI: 0
L2C TOTAL     ACCESS:   10702942  HIT:    7951756  MISS:    2751186  HIT %:     74.295  MISS %:     25.705   MPKI: 13.7559
L2C LOAD      ACCESS:    1732871  HIT:     607566  MISS:    1125305  HIT %:    35.0612  MISS %:    64.9388   MPKI: 5.62652
L2C RFO       ACCESS:     192693  HIT:      68111  MISS:     124582  HIT %:    35.3469  MISS %:    64.6531   MPKI: 0.62291
L2C PREFETCH  ACCESS:    1389760  HIT:     179723  MISS:    1210037  HIT %:    12.9319  MISS %:    87.0681   MPKI: 6.05018
L2C WRITEBACK ACCESS:     631810  HIT:     587139  MISS:      44671  HIT %:    92.9297  MISS %:    7.07032   MPKI: 0.223355
PSCL5 TOTAL     ACCESS:    6293399  HIT:    6293399  MISS:          0  HIT %:        100  MISS %:          0   MPKI: 0
PSCL5 LOAD      ACCESS:          0  HIT:          0  MISS:          0  HIT %:       -nan  MISS %:       -nan   MPKI: 0
PSCL5 RFO       ACCESS:          0  HIT:          0  MISS:          0  HIT %:       -nan  MISS %:       -nan   MPKI: 0
PSCL5 PREFETCH  ACCESS:          0  HIT:          0  MISS:          0  HIT %:       -nan  MISS %:       -nan   MPKI: 0
PSCL5 WRITEBACK ACCESS:          0  HIT:          0  MISS:          0  HIT %:       -nan  MISS %:       -nan   MPKI: 0
PSCL4 TOTAL     ACCESS:    6148386  HIT:    6147822  MISS:        564  HIT %:    99.9908  MISS %: 0.00917314   MPKI: 0.00282
PSCL4 LOAD      ACCESS:          0  HIT:          0  MISS:          0  HIT %:       -nan  MISS %:       -nan   MPKI: 0
PSCL4 RFO       ACCESS:          0  HIT:          0  MISS:          0  HIT %:       -nan  MISS %:       -nan   MPKI: 0
PSCL4 PREFETCH  ACCESS:          0  HIT:          0  MISS:          0  HIT %:       -nan  MISS %:       -nan   MPKI: 0
PSCL4 WRITEBACK ACCESS:          0  HIT:          0  MISS:          0  HIT %:       -nan  MISS %:       -nan   MPKI: 0
PSCL3 TOTAL     ACCESS:    6268858  HIT:    6262134  MISS:       6724  HIT %:    99.8927  MISS %:    0.10726   MPKI: 0.03362
PSCL3 LOAD      ACCESS:          0  HIT:          0  MISS:          0  HIT %:       -nan  MISS %:       -nan   MPKI: 0
PSCL3 RFO       ACCESS:          0  HIT:          0  MISS:          0  HIT %:       -nan  MISS %:       -nan   MPKI: 0
PSCL3 PREFETCH  ACCESS:          0  HIT:          0  MISS:          0  HIT %:       -nan  MISS %:       -nan   MPKI: 0
PSCL3 WRITEBACK ACCESS:          0  HIT:          0  MISS:          0  HIT %:       -nan  MISS %:       -nan   MPKI: 0
PSCL2 TOTAL     ACCESS:    6293399  HIT:    5838158  MISS:     455241  HIT %:    92.7664  MISS %:    7.23363   MPKI: 2.27621
PSCL2 LOAD      ACCESS:          0  HIT:          0  MISS:          0  HIT %:       -nan  MISS %:       -nan   MPKI: 0
PSCL2 RFO       ACCESS:          0  HIT:          0  MISS:          0  HIT %:       -nan  MISS %:       -nan   MPKI: 0
PSCL2 PREFETCH  ACCESS:          0  HIT:          0  MISS:          0  HIT %:       -nan  MISS %:       -nan   MPKI: 0
PSCL2 WRITEBACK ACCESS:          0  HIT:          0  MISS:          0  HIT %:       -nan  MISS %:       -nan   MPKI: 0

stream: 
stream:times selected: 5208010
stream:pref_filled: 810317
stream:pref_useful: 137495
stream:pref_late: 47385
stream:misses: 192785
stream:misses_by_poll: 0

CS: 
CS:times selected: 1409274
CS:pref_filled: 536872
CS:pref_useful: 498548
CS:pref_late: 71855
CS:misses: 247013
CS:misses_by_poll: 1599

CPLX: 
CPLX:times selected: 3743973
CPLX:pref_filled: 258410
CPLX:pref_useful: 35387
CPLX:pref_late: 1706
CPLX:misses: 673830
CPLX:misses_by_poll: 442

NL_L1: 
NL:times selected: 27162
NL:pref_filled: 8243
NL:pref_useful: 2348
NL:pref_late: 466
NL:misses: 8926
NL:misses_by_poll: 0

total selections: 10388419
total_filled: 1268358
total_useful: 501852
total_late: 122440
total_polluted: 2041
total_misses_after_warmup: 1297694
conflicts: 2430944
Degree Incremented Times: 300995
Degree Decremented Times: 881578

L1 IP Table Write Accesses: 53942094
L1 IP Table Read Accesses: 51511150
L1 RST Write Accesses: 16397292
L1 RST Read Accesses: 32794584
L1 CSPT Write Accesses: 16397292
L1 CSPT Read Accesses: 28263116
L1 RR Filter Tag Write Accesses: 17667096
L1 RR Filter Tag Read Accesses: 847790376
L1 IP Table Tag Write Accesses: 59324402
L1 IP Table Tag Read Accesses: 59324402
L1 RST Tag Write Accesses: 0
L1 RST Tag Read Accesses: 155082307
L1 RR Filter Write Accesses: 0
L1 RR Filter Read Accesses: 30604686
test: 8759329
LLC TOTAL     ACCESS:    3222332  HIT:    1183275  MISS:    2039057  HIT %:    36.7211  MISS %:    63.2789   MPKI: 10.1953
LLC LOAD      ACCESS:    1125304  HIT:     391172  MISS:     734132  HIT %:    34.7615  MISS %:    65.2385   MPKI: 3.67066
LLC RFO       ACCESS:     124582  HIT:      42275  MISS:      82307  HIT %:    33.9335  MISS %:    66.0665   MPKI: 0.411535
LLC PREFETCH  ACCESS:    1210037  HIT:     152125  MISS:    1057912  HIT %:    12.5719  MISS %:    87.4281   MPKI: 5.28956
LLC WRITEBACK ACCESS:     515818  HIT:     492483  MISS:      23335  HIT %:    95.4761  MISS %:    4.52388   MPKI: 0.116675

RAW hits: 1377215
Loads Generated: 27075150
Loads sent to L1D: 25697934
Stores Generated: 8483873
Stores sent to L1D: 8483880

CPU 2 cumulative IPC: 0.562456 instructions: 209683153 cycles: 372799183
ITLB TOTAL     ACCESS:   31562873  HIT:   29905266  MISS:    1657607  HIT %:    94.7482  MISS %:    5.25176   MPKI: 7.90529
ITLB LOAD      ACCESS:          0  HIT:          0  MISS:          0  HIT %:       -nan  MISS %:       -nan   MPKI: 0
ITLB RFO       ACCESS:          0  HIT:          0  MISS:          0  HIT %:       -nan  MISS %:       -nan   MPKI: 0
ITLB PREFETCH  ACCESS:          0  HIT:          0  MISS:          0  HIT %:       -nan  MISS %:       -nan   MPKI: 0
ITLB WRITEBACK ACCESS:          0  HIT:          0  MISS:          0  HIT %:       -nan  MISS %:       -nan   MPKI: 0
DTLB TOTAL     ACCESS:   17954189  HIT:   11368060  MISS:    6586129  HIT %:     63.317  MISS %:     36.683   MPKI: 31.4099
DTLB LOAD      ACCESS:          0  HIT:          0  MISS:          0  HIT %:       -nan  MISS %:       -nan   MPKI: 0
DTLB RFO       ACCESS:          0  HIT:          0  MISS:          0  HIT %:       -nan  MISS %:       -nan   MPKI: 0
DTLB PREFETCH  ACCESS:          0  HIT:          0  MISS:          0  HIT %:       -nan  MISS %:       -nan   MPKI: 0
DTLB WRITEBACK ACCESS:          0  HIT:          0  MISS:          0  HIT %:       -nan  MISS %:       -nan   MPKI: 0
STLB TOTAL     ACCESS:   10974154  HIT:    4708712  MISS:    6265442  HIT %:    42.9073  MISS %:    57.0927   MPKI: 29.8805
STLB LOAD      ACCESS:          0  HIT:          0  MISS:          0  HIT %:       -nan  MISS %:       -nan   MPKI: 0
STLB RFO       ACCESS:          0  HIT:          0  MISS:          0  HIT %:       -nan  MISS %:       -nan   MPKI: 0
STLB PREFETCH  ACCESS:          0  HIT:          0  MISS:          0  HIT %:       -nan  MISS %:       -nan   MPKI: 0
STLB WRITEBACK ACCESS:          0  HIT:          0  MISS:          0  HIT %:       -nan  MISS %:       -nan   MPKI: 0
L1D TOTAL     ACCESS:   26072705  HIT:   23651489  MISS:    2421216  HIT %:    90.7136  MISS %:     9.2864   MPKI: 11.547
L1D LOAD      ACCESS:   14757308  HIT:   13758796  MISS:     998512  HIT %:    93.2338  MISS %:    6.76622   MPKI: 4.762
L1D RFO       ACCESS:    7050205  HIT:    6912470  MISS:     137735  HIT %:    98.0464  MISS %:    1.95363   MPKI: 0.656872
L1D PREFETCH  ACCESS:    4265192  HIT:    2980223  MISS:    1284969  HIT %:    69.8731  MISS %:    30.1269   MPKI: 6.12815
L1D WRITEBACK ACCESS:          0  HIT:          0  MISS:          0  HIT %:       -nan  MISS %:       -nan   MPKI: 0
L1I TOTAL     ACCESS:   40636374  HIT:   40216782  MISS:     419592  HIT %:    98.9674  MISS %:    1.03255   MPKI: 2.00108
L1I LOAD      ACCESS:   40636374  HIT:   40216782  MISS:     419592  HIT %:    98.9674  MISS %:    1.03255   MPKI: 2.00108
L1I RFO       ACCESS:          0  HIT:          0  MISS:          0  HIT %:       -nan  MISS %:       -nan   MPKI: 0
L1I PREFETCH  ACCESS:          0  HIT:          0  MISS:          0  HIT %:       -nan  MISS %:       -nan   MPKI: 0
L1I WRITEBACK ACCESS:          0  HIT:          0  MISS:          0  HIT %:       -nan  MISS %:       -nan   MPKI: 0
L2C TOTAL     ACCESS:   10109771  HIT:    7461310  MISS:    2648461  HIT %:     73.803  MISS %:     26.197   MPKI: 12.6308
L2C LOAD      ACCESS:    1325782  HIT:     295558  MISS:    1030224  HIT %:    22.2931  MISS %:    77.7069   MPKI: 4.91324
L2C RFO       ACCESS:     134085  HIT:      37686  MISS:      96399  HIT %:    28.1061  MISS %:    71.8939   MPKI: 0.459737
L2C PREFETCH  ACCESS:    1380933  HIT:     158587  MISS:    1222346  HIT %:     11.484  MISS %:     88.516   MPKI: 5.82949
L2C WRITEBACK ACCESS:     480657  HIT:     441169  MISS:      39488  HIT %:    91.7846  MISS %:    8.21542   MPKI: 0.188322
PSCL5 TOTAL     ACCESS:    6265442  HIT:    6265442  MISS:          0  HIT %:        100  MISS %:          0   MPKI: 0
PSCL5 LOAD      ACCESS:          0  HIT:          0  MISS:          0  HIT %:       -nan  MISS %:       -nan   MPKI: 0
PSCL5 RFO       ACCESS:          0  HIT:          0  MISS:          0  HIT %:       -nan  MISS %:       -nan   MPKI: 0
PSCL5 PREFETCH  ACCESS:          0  HIT:          0  MISS:          0  HIT %:       -nan  MISS %:       -nan   MPKI: 0
PSCL5 WRITEBACK ACCESS:          0  HIT:          0  MISS:          0  HIT %:       -nan  MISS %:       -nan   MPKI: 0
PSCL4 TOTAL     ACCESS:    6115550  HIT:    6114916  MISS:        634  HIT %:    99.9896  MISS %:   0.010367   MPKI: 0.00302361
PSCL4 LOAD      ACCESS:          0  HIT:          0  MISS:          0  HIT %:       -nan  MISS %:       -nan   MPKI: 0
PSCL4 RFO       ACCESS:          0  HIT:          0  MISS:          0  HIT %:       -nan  MISS %:       -nan   MPKI: 0
PSCL4 PREFETCH  ACCESS:          0  HIT:          0  MISS:          0  HIT %:       -nan  MISS %:       -nan   MPKI: 0
PSCL4 WRITEBACK ACCESS:          0  HIT:          0  MISS:          0  HIT %:       -nan  MISS %:       -nan   MPKI: 0
PSCL3 TOTAL     ACCESS:    6253008  HIT:    6249189  MISS:       3819  HIT %:    99.9389  MISS %:  0.0610746   MPKI: 0.0182132
PSCL3 LOAD      ACCESS:          0  HIT:          0  MISS:          0  HIT %:       -nan  MISS %:       -nan   MPKI: 0
PSCL3 RFO       ACCESS:          0  HIT:          0  MISS:          0  HIT %:       -nan  MISS %:       -nan   MPKI: 0
PSCL3 PREFETCH  ACCESS:          0  HIT:          0  MISS:          0  HIT %:       -nan  MISS %:       -nan   MPKI: 0
PSCL3 WRITEBACK ACCESS:          0  HIT:          0  MISS:          0  HIT %:       -nan  MISS %:       -nan   MPKI: 0
PSCL2 TOTAL     ACCESS:    6265442  HIT:    5746914  MISS:     518528  HIT %:     91.724  MISS %:      8.276   MPKI: 2.47291
PSCL2 LOAD      ACCESS:          0  HIT:          0  MISS:          0  HIT %:       -nan  MISS %:       -nan   MPKI: 0
PSCL2 RFO       ACCESS:          0  HIT:          0  MISS:          0  HIT %:       -nan  MISS %:       -nan   MPKI: 0
PSCL2 PREFETCH  ACCESS:          0  HIT:          0  MISS:          0  HIT %:       -nan  MISS %:       -nan   MPKI: 0
PSCL2 WRITEBACK ACCESS:          0  HIT:          0  MISS:          0  HIT %:       -nan  MISS %:       -nan   MPKI: 0

stream: 
stream:times selected: 5167522
stream:pref_filled: 815158
stream:pref_useful: 107293
stream:pref_late: 41046
stream:misses: 189393
stream:misses_by_poll: 0

CS: 
CS:times selected: 1259199
CS:pref_filled: 497079
CS:pref_useful: 464891
CS:pref_late: 53308
CS:misses: 212074
CS:misses_by_poll: 1441

CPLX: 
CPLX:times selected: 3847845
CPLX:pref_filled: 276025
CPLX:pref_useful: 31686
CPLX:pref_late: 887
CPLX:misses: 690531
CPLX:misses_by_poll: 527

NL_L1: 
NL:times selected: 24915
NL:pref_filled: 8512
NL:pref_useful: 1803
NL:pref_late: 361
NL:misses: 6809
NL:misses_by_poll: 0

total selections: 10299481
total_filled: 1284969
total_useful: 468646
total_late: 96601
total_polluted: 1968
total_misses_after_warmup: 1176353
conflicts: 2430944
Degree Incremented Times: 300995
Degree Decremented Times: 881578

L1 IP Table Write Accesses: 53942094
L1 IP Table Read Accesses: 51511150
L1 RST Write Accesses: 16397292
L1 RST Read Accesses: 32794584
L1 CSPT Write Accesses: 16397292
L1 CSPT Read Accesses: 28263116
L1 RR Filter Tag Write Accesses: 17667096
L1 RR Filter Tag Read Accesses: 847790376
L1 IP Table Tag Write Accesses: 59324402
L1 IP Table Tag Read Accesses: 59324402
L1 RST Tag Write Accesses: 0
L1 RST Tag Read Accesses: 155082307
L1 RR Filter Write Accesses: 0
L1 RR Filter Read Accesses: 30604686
test: 8759329
LLC TOTAL     ACCESS:    3024619  HIT:    1030841  MISS:    1993778  HIT %:    34.0817  MISS %:    65.9183   MPKI: 9.50853
LLC LOAD      ACCESS:    1030223  HIT:     337812  MISS:     692411  HIT %:    32.7902  MISS %:    67.2098   MPKI: 3.30218
LLC RFO       ACCESS:      96398  HIT:      22793  MISS:      73605  HIT %:    23.6447  MISS %:    76.3553   MPKI: 0.35103
LLC PREFETCH  ACCESS:    1222346  HIT:     166906  MISS:    1055440  HIT %:    13.6546  MISS %:    86.3454   MPKI: 5.0335
LLC WRITEBACK ACCESS:     415648  HIT:     391951  MISS:      23697  HIT %:    94.2988  MISS %:    5.70122   MPKI: 0.113013

RAW hits: 1268984
Loads Generated: 27511432
Loads sent to L1D: 26242447
Stores Generated: 7967398
Stores sent to L1D: 7967398

CPU 3 cumulative IPC: 0.586705 instructions: 218723073 cycles: 372799183
ITLB TOTAL     ACCESS:   33035056  HIT:   31374551  MISS:    1660505  HIT %:    94.9735  MISS %:    5.02649   MPKI: 7.59181
ITLB LOAD      ACCESS:          0  HIT:          0  MISS:          0  HIT %:       -nan  MISS %:       -nan   MPKI: 0
ITLB RFO       ACCESS:          0  HIT:          0  MISS:          0  HIT %:       -nan  MISS %:       -nan   MPKI: 0
ITLB PREFETCH  ACCESS:          0  HIT:          0  MISS:          0  HIT %:       -nan  MISS %:       -nan   MPKI: 0
ITLB WRITEBACK ACCESS:          0  HIT:          0  MISS:          0  HIT %:       -nan  MISS %:       -nan   MPKI: 0
DTLB TOTAL     ACCESS:   18401472  HIT:   11897436  MISS:    6504036  HIT %:    64.6548  MISS %:    35.3452   MPKI: 29.7364
DTLB LOAD      ACCESS:          0  HIT:          0  MISS:          0  HIT %:       -nan  MISS %:       -nan   MPKI: 0
DTLB RFO       ACCESS:          0  HIT:          0  MISS:          0  HIT %:       -nan  MISS %:       -nan   MPKI: 0
DTLB PREFETCH  ACCESS:          0  HIT:          0  MISS:          0  HIT %:       -nan  MISS %:       -nan   MPKI: 0
DTLB WRITEBACK ACCESS:          0  HIT:          0  MISS:          0  HIT %:       -nan  MISS %:       -nan   MPKI: 0
STLB TOTAL     ACCESS:   11000853  HIT:    4743970  MISS:    6256883  HIT %:    43.1237  MISS %:    56.8763   MPKI: 28.6064
STLB LOAD      ACCESS:          0  HIT:          0  MISS:          0  HIT %:       -nan  MISS %:       -nan   MPKI: 0
STLB RFO       ACCESS:          0  HIT:          0  MISS:          0  HIT %:       -nan  MISS %:       -nan   MPKI: 0
STLB PREFETCH  ACCESS:          0  HIT:          0  MISS:          0  HIT %:       -nan  MISS %:       -nan   MPKI: 0
STLB WRITEBACK ACCESS:          0  HIT:          0  MISS:          0  HIT %:       -nan  MISS %:       -nan   MPKI: 0
L1D TOTAL     ACCESS:   26476067  HIT:   23936439  MISS:    2539628  HIT %:    90.4078  MISS %:    9.59216   MPKI: 11.6112
L1D LOAD      ACCESS:   15046266  HIT:   14018229  MISS:    1028037  HIT %:    93.1675  MISS %:    6.83251   MPKI: 4.70018
L1D RFO       ACCESS:    7083567  HIT:    6917750  MISS:     165817  HIT %:    97.6591  MISS %:    2.34087   MPKI: 0.758114
L1D PREFETCH  ACCESS:    4346234  HIT:    3000460  MISS:    1345774  HIT %:    69.0359  MISS %:    30.9641   MPKI: 6.15287
L1D WRITEBACK ACCESS:          0  HIT:          0  MISS:          0  HIT %:       -nan  MISS %:       -nan   MPKI: 0
L1I TOTAL     ACCESS:   42106516  HIT:   41693242  MISS:     413274  HIT %:    99.0185  MISS %:   0.981497   MPKI: 1.88949
L1I LOAD      ACCESS:   42106516  HIT:   41693242  MISS:     413274  HIT %:    99.0185  MISS %:   0.981497   MPKI: 1.88949
L1I RFO       ACCESS:          0  HIT:          0  MISS:          0  HIT %:       -nan  MISS %:       -nan   MPKI: 0
L1I PREFETCH  ACCESS:          0  HIT:          0  MISS:          0  HIT %:       -nan  MISS %:       -nan   MPKI: 0
L1I WRITEBACK ACCESS:          0  HIT:          0  MISS:          0  HIT %:       -nan  MISS %:       -nan   MPKI: 0
L2C TOTAL     ACCESS:   10184396  HIT:    7458083  MISS:    2726313  HIT %:    73.2305  MISS %:    26.7695   MPKI: 12.4647
L2C LOAD      ACCESS:    1321343  HIT:     303948  MISS:    1017395  HIT %:     23.003  MISS %:     76.997   MPKI: 4.65152
L2C RFO       ACCESS:     162687  HIT:      45876  MISS:     116811  HIT %:    28.1989  MISS %:    71.8011   MPKI: 0.534059
L2C PREFETCH  ACCESS:    1468851  HIT:     174246  MISS:    1294605  HIT %:    11.8627  MISS %:    88.1373   MPKI: 5.91892
L2C WRITEBACK ACCESS:     518710  HIT:     478959  MISS:      39751  HIT %:    92.3366  MISS %:    7.66343   MPKI: 0.181741
PSCL5 TOTAL     ACCESS:    6256883  HIT:    6256883  MISS:          0  HIT %:        100  MISS %:          0   MPKI: 0
PSCL5 LOAD      ACCESS:          0  HIT:          0  MISS:          0  HIT %:       -nan  MISS %:       -nan   MPKI: 0
PSCL5 RFO       ACCESS:          0  HIT:          0  MISS:          0  HIT %:       -nan  MISS %:       -nan   MPKI: 0
PSCL5 PREFETCH  ACCESS:          0  HIT:          0  MISS:          0  HIT %:       -nan  MISS %:       -nan   MPKI: 0
PSCL5 WRITEBACK ACCESS:          0  HIT:          0  MISS:          0  HIT %:       -nan  MISS %:       -nan   MPKI: 0
PSCL4 TOTAL     ACCESS:    6072285  HIT:    6071545  MISS:        740  HIT %:    99.9878  MISS %:  0.0121865   MPKI: 0.00338327
PSCL4 LOAD      ACCESS:          0  HIT:          0  MISS:          0  HIT %:       -nan  MISS %:       -nan   MPKI: 0
PSCL4 RFO       ACCESS:          0  HIT:          0  MISS:          0  HIT %:       -nan  MISS %:       -nan   MPKI: 0
PSCL4 PREFETCH  ACCESS:          0  HIT:          0  MISS:          0  HIT %:       -nan  MISS %:       -nan   MPKI: 0
PSCL4 WRITEBACK ACCESS:          0  HIT:          0  MISS:          0  HIT %:       -nan  MISS %:       -nan   MPKI: 0
PSCL3 TOTAL     ACCESS:    6240284  HIT:    6236545  MISS:       3739  HIT %:    99.9401  MISS %:  0.0599171   MPKI: 0.0170947
PSCL3 LOAD      ACCESS:          0  HIT:          0  MISS:          0  HIT %:       -nan  MISS %:       -nan   MPKI: 0
PSCL3 RFO       ACCESS:          0  HIT:          0  MISS:          0  HIT %:       -nan  MISS %:       -nan   MPKI: 0
PSCL3 PREFETCH  ACCESS:          0  HIT:          0  MISS:          0  HIT %:       -nan  MISS %:       -nan   MPKI: 0
PSCL3 WRITEBACK ACCESS:          0  HIT:          0  MISS:          0  HIT %:       -nan  MISS %:       -nan   MPKI: 0
PSCL2 TOTAL     ACCESS:    6256883  HIT:    5805307  MISS:     451576  HIT %:    92.7827  MISS %:    7.21727   MPKI: 2.0646
PSCL2 LOAD      ACCESS:          0  HIT:          0  MISS:          0  HIT %:       -nan  MISS %:       -nan   MPKI: 0
PSCL2 RFO       ACCESS:          0  HIT:          0  MISS:          0  HIT %:       -nan  MISS %:       -nan   MPKI: 0
PSCL2 PREFETCH  ACCESS:          0  HIT:          0  MISS:          0  HIT %:       -nan  MISS %:       -nan   MPKI: 0
PSCL2 WRITEBACK ACCESS:          0  HIT:          0  MISS:          0  HIT %:       -nan  MISS %:       -nan   MPKI: 0

stream: 
stream:times selected: 5382640
stream:pref_filled: 808574
stream:pref_useful: 109657
stream:pref_late: 40213
stream:misses: 185756
stream:misses_by_poll: 0

CS: 
CS:times selected: 1474573
CS:pref_filled: 571222
CS:pref_useful: 540867
CS:pref_late: 81284
CS:misses: 329121
CS:misses_by_poll: 1999

CPLX: 
CPLX:times selected: 3856478
CPLX:pref_filled: 273793
CPLX:pref_useful: 31586
CPLX:pref_late: 932
CPLX:misses: 680515
CPLX:misses_by_poll: 567

NL_L1: 
NL:times selected: 26463
NL:pref_filled: 8122
NL:pref_useful: 1941
NL:pref_late: 359
NL:misses: 10035
NL:misses_by_poll: 0

total selections: 10740154
total_filled: 1345774
total_useful: 534240
total_late: 123970
total_polluted: 2566
total_misses_after_warmup: 1291053
conflicts: 2430944
Degree Incremented Times: 300995
Degree Decremented Times: 881578

L1 IP Table Write Accesses: 53942094
L1 IP Table Read Accesses: 51511150
L1 RST Write Accesses: 16397292
L1 RST Read Accesses: 32794584
L1 CSPT Write Accesses: 16397292
L1 CSPT Read Accesses: 28263116
L1 RR Filter Tag Write Accesses: 17667096
L1 RR Filter Tag Read Accesses: 847790376
L1 IP Table Tag Write Accesses: 59324402
L1 IP Table Tag Read Accesses: 59324402
L1 RST Tag Write Accesses: 0
L1 RST Tag Read Accesses: 155082307
L1 RR Filter Write Accesses: 0
L1 RR Filter Read Accesses: 30604686
test: 8759329
LLC TOTAL     ACCESS:    3131491  HIT:    1101671  MISS:    2029820  HIT %:    35.1804  MISS %:    64.8196   MPKI: 9.28032
LLC LOAD      ACCESS:    1017395  HIT:     347028  MISS:     670367  HIT %:    34.1095  MISS %:    65.8905   MPKI: 3.06491
LLC RFO       ACCESS:     116811  HIT:      32215  MISS:      84596  HIT %:    27.5787  MISS %:    72.4213   MPKI: 0.386772
LLC PREFETCH  ACCESS:    1294605  HIT:     186570  MISS:    1108035  HIT %:    14.4113  MISS %:    85.5887   MPKI: 5.06593
LLC WRITEBACK ACCESS:     444929  HIT:     421056  MISS:      23873  HIT %:    94.6344  MISS %:    5.36558   MPKI: 0.109147

RAW hits: 1286424
Loads Generated: 28831451
Loads sent to L1D: 27545027
Stores Generated: 8096915
Stores sent to L1D: 8096915

Region of Interest Statistics

CPU 0 cumulative IPC: 0.544291 instructions: 200000003 cycles: 367450723
ITLB TOTAL     ACCESS:   29974254  HIT:   28327226  MISS:    1647028  HIT %:    94.5052  MISS %:    5.49481   MPKI: 8.23514
ITLB LOAD TRANSLATION ACCESS:   29974254  HIT:   28327226  MISS:    1647028  HIT %:    94.5052  MISS %:    5.49481   MPKI: 8.23514
ITLB PREFETCH  REQUESTED:          0  ISSUED:          0  USEFUL:          0  USELESS:          0
ITLB USEFUL LOAD PREFETCHES:          0 PREFETCH ISSUED TO LOWER LEVEL:          0  ACCURACY: -nan
ITLB TIMELY PREFETCHES:          0 LATE PREFETCHES: 0 DROPPED PREFETCHES: 0
ITLB PREFETCHES SAME FILL-ORIGIN LEVEL: 0 DIFFERENT FILL-ORIGIN LEVEL: 0
ITLB AVERAGE MISS LATENCY: 42.4615 cycles
ITLB RQ	ACCESS:   39735077	FORWARD:          0	MERGED:    8526124	TO_CACHE:   31208953

DTLB TOTAL     ACCESS:   17624146  HIT:   10824107  MISS:    6800039  HIT %:    61.4163  MISS %:    38.5837   MPKI: 34.0002
DTLB LOAD TRANSLATION ACCESS:   17624146  HIT:   10824107  MISS:    6800039  HIT %:    61.4163  MISS %:    38.5837   MPKI: 34.0002
DTLB PREFETCH  REQUESTED:          0  ISSUED:          0  USEFUL:          0  USELESS:          0
DTLB USEFUL LOAD PREFETCHES:          0 PREFETCH ISSUED TO LOWER LEVEL:          0  ACCURACY: -nan
DTLB TIMELY PREFETCHES:          0 LATE PREFETCHES: 0 DROPPED PREFETCHES: 0
DTLB PREFETCHES SAME FILL-ORIGIN LEVEL: 0 DIFFERENT FILL-ORIGIN LEVEL: 0
DTLB AVERAGE MISS LATENCY: 35.1458 cycles
DTLB RQ	ACCESS:   22620270	FORWARD:          0	MERGED:    4002314	TO_CACHE:   18617956

STLB TOTAL     ACCESS:   11121803  HIT:    4678658  MISS:    6443145  HIT %:    42.0674  MISS %:    57.9326   MPKI: 32.2157
STLB LOAD TRANSLATION ACCESS:    8447067  HIT:    3109671  MISS:    5337396  HIT %:    36.8136  MISS %:    63.1864   MPKI: 26.687
STLB TRANSLATION FROM L1D PREFETCHER ACCESS:    2674736  HIT:    1568987  MISS:    1105749  HIT %:    58.6595  MISS %:    41.3405   MPKI: 5.52874
STLB PREFETCH  REQUESTED:          0  ISSUED:          0  USEFUL:     348437  USELESS:     772436
STLB USEFUL LOAD PREFETCHES:     348437 PREFETCH ISSUED TO LOWER LEVEL:          0  ACCURACY: inf
STLB TIMELY PREFETCHES:     348437 LATE PREFETCHES: 0 DROPPED PREFETCHES: 0
STLB PREFETCHES SAME FILL-ORIGIN LEVEL: 0 DIFFERENT FILL-ORIGIN LEVEL: 0
STLB AVERAGE MISS LATENCY: 41.9699 cycles
STLB RQ	ACCESS:   12982463	FORWARD:          0	MERGED:    1722383	TO_CACHE:   11260080

STLB Hit, L1D data hit: 0
STLB Hit, L2C data hit: 0
STLB Hit, LLC data hit: 0
STLB Hit, LLC data miss: 0
STLB STLB hints to L2: 0
L1D TOTAL     ACCESS:   25913098  HIT:   23505159  MISS:    2407939  HIT %:    90.7076  MISS %:    9.29236   MPKI: 12.0397
L1D LOAD      ACCESS:   14019429  HIT:   13023673  MISS:     995756  HIT %:    92.8973  MISS %:    7.10269   MPKI: 4.97878
L1D RFO       ACCESS:    7651709  HIT:    7494936  MISS:     156773  HIT %:    97.9511  MISS %:    2.04886   MPKI: 0.783865
L1D PREFETCH  ACCESS:    4241960  HIT:    2986550  MISS:    1255410  HIT %:     70.405  MISS %:     29.595   MPKI: 6.27705
L1D PREFETCH  REQUESTED:    8889079  ISSUED:    8889007  USEFUL:     445061  USELESS:     829101
L1D USEFUL LOAD PREFETCHES:     445061 PREFETCH ISSUED TO LOWER LEVEL:    1357278  ACCURACY: 32.7907
L1D TIMELY PREFETCHES:     445061 LATE PREFETCHES: 79761 DROPPED PREFETCHES: 0
L1D PREFETCHES SAME FILL-ORIGIN LEVEL: 1357278 DIFFERENT FILL-ORIGIN LEVEL: 0
L1D AVERAGE MISS LATENCY: 213.47 cycles
L1D RQ	ACCESS:   25419045	FORWARD:          0	MERGED:   10929433	TO_CACHE:   14301298
L1D WQ	ACCESS:    8781687	FORWARD:     193332	MERGED:     462715	TO_CACHE:    8318972
L1D PQ	ACCESS:    4447020	FORWARD:          0	MERGED:         15	TO_CACHE:    4441987

L1D UNIQUE REGIONS ACCESSED: 0
L1D REGIONS CONFLICTS: 0
L1D Cross Page Prefetch Requests: 0
L1D Same Page Prefetch Requests: 5564421
L1D ROI Sum of L1D PQ occupancy: 110211947
L1D PREFETCHES PUSHED FROM L2C: 0
L1I TOTAL     ACCESS:   39021784  HIT:   38571817  MISS:     449967  HIT %:    98.8469  MISS %:    1.15312   MPKI: 2.24983
L1I LOAD      ACCESS:   39021784  HIT:   38571817  MISS:     449967  HIT %:    98.8469  MISS %:    1.15312   MPKI: 2.24983
L1I PREFETCH  REQUESTED:          0  ISSUED:          0  USEFUL:          0  USELESS:          0
L1I USEFUL LOAD PREFETCHES:          0 PREFETCH ISSUED TO LOWER LEVEL:          0  ACCURACY: -nan
L1I TIMELY PREFETCHES:          0 LATE PREFETCHES: 0 DROPPED PREFETCHES: 0
L1I PREFETCHES SAME FILL-ORIGIN LEVEL: 0 DIFFERENT FILL-ORIGIN LEVEL: 0
L1I AVERAGE MISS LATENCY: 94.0299 cycles
L1I RQ	ACCESS:   61111793	FORWARD:          0	MERGED:   21376716	TO_CACHE:   39735077

BTB BRANCH_DIRECT_JUMP	ACCESS:          0  HIT:          0  MISS:          0
BTB BRANCH_INDIRECT	ACCESS:          0  HIT:          0  MISS:          0
BTB BRANCH_CONDITIONAL	ACCESS:          0  HIT:          0  MISS:          0
BTB BRANCH_DIRECT_CALL	ACCESS:          0  HIT:          0  MISS:          0
BTB BRANCH_INDIRECT_CALL	ACCESS:          0  HIT:          0  MISS:          0
BTB BRANCH_RETURN	ACCESS:          0  HIT:          0  MISS:          0
BTB BRANCH_OTHER ACCESS:          0  HIT:          0  MISS:          0

L2C TOTAL     ACCESS:   10235035  HIT:    7643673  MISS:    2591362  HIT %:    74.6815  MISS %:    25.3185   MPKI: 12.9568
L2C LOAD      ACCESS:    1367857  HIT:     332206  MISS:    1035651  HIT %:    24.2866  MISS %:    75.7134   MPKI: 5.17825
L2C DATA LOAD MPKI: 3.84497
L2C INSTRUCTION LOAD MPKI: 1.33328
L2C RFO       ACCESS:     153524  HIT:      50404  MISS:     103120  HIT %:    32.8313  MISS %:    67.1687   MPKI: 0.5156
L2C PREFETCH  ACCESS:    1336513  HIT:     176077  MISS:    1160436  HIT %:    13.1744  MISS %:    86.8256   MPKI: 5.80218
L2C DATA PREFETCH MPKI: 5.80218
L2C INSTRUCTION PREFETCH MPKI: 0
L2C WRITEBACK ACCESS:     515144  HIT:     475066  MISS:      40078  HIT %:      92.22  MISS %:    7.77996   MPKI: 0.20039
L2C LOAD TRANSLATION ACCESS:    5732197  HIT:    5480548  MISS:     251649  HIT %:    95.6099  MISS %:     4.3901   MPKI: 1.25824
L2C TRANSLATION FROM L1D PREFETCHER ACCESS:    1129800  HIT:    1129372  MISS:        428  HIT %:    99.9621  MISS %:  0.0378828   MPKI: 0.00214
L2C PREFETCH  REQUESTED:          0  ISSUED:          0  USEFUL:      25373  USELESS:    1152857
L2C USEFUL LOAD PREFETCHES:      25373 PREFETCH ISSUED TO LOWER LEVEL:    1177901  ACCURACY: 2.15409
L2C TIMELY PREFETCHES:      25373 LATE PREFETCHES: 0 DROPPED PREFETCHES: 0
L2C PREFETCHES SAME FILL-ORIGIN LEVEL: 0 DIFFERENT FILL-ORIGIN LEVEL: 0
L2C AVERAGE MISS LATENCY: 228.966 cycles
L2C RQ	ACCESS:    8504589	FORWARD:          0	MERGED:          0	TO_CACHE:    8504584
L2C WQ	ACCESS:     526431	FORWARD:          6	MERGED:          0	TO_CACHE:     526431
L2C PQ	ACCESS:    1357278	FORWARD:          0	MERGED:          0	TO_CACHE:    1357277

L2C Instructions Evicting Data 200419
L2C Translations Evicting Data 204613
L2C Data Evicting Data 1669762
L2C Instructions Evicting Instructions 46096
L2C Translations Evicting Instructions 26500
L2C Data Evicting Instructions 196371
L2C Instructions Evicting Translations 27024
L2C Translations Evicting Translations 25154
L2C Data Evicting Translations 200645
L2C Dense regions hint from L2: 0
PSCL5 TOTAL     ACCESS:    6443145  HIT:    6443145  MISS:          0  HIT %:        100  MISS %:          0   MPKI: 0
PSCL5 LOAD TRANSLATION ACCESS:    5337396  HIT:    5337396  MISS:          0  HIT %:        100  MISS %:          0   MPKI: 0
PSCL5 TRANSLATION FROM L1D PREFETCHER ACCESS:    1105749  HIT:    1105749  MISS:          0  HIT %:        100  MISS %:          0   MPKI: 0
PSCL5 PREFETCH  REQUESTED:          0  ISSUED:          0  USEFUL:          0  USELESS:          0
PSCL5 USEFUL LOAD PREFETCHES:          0 PREFETCH ISSUED TO LOWER LEVEL:          0  ACCURACY: -nan
PSCL5 TIMELY PREFETCHES:          0 LATE PREFETCHES: 0 DROPPED PREFETCHES: 0
PSCL5 PREFETCHES SAME FILL-ORIGIN LEVEL: 0 DIFFERENT FILL-ORIGIN LEVEL: 0

PSCL4 TOTAL     ACCESS:    6359080  HIT:    6358570  MISS:        510  HIT %:     99.992  MISS %: 0.00802003   MPKI: 0.00255
PSCL4 LOAD TRANSLATION ACCESS:    5290626  HIT:    5290116  MISS:        510  HIT %:    99.9904  MISS %: 0.00963969   MPKI: 0.00255
PSCL4 TRANSLATION FROM L1D PREFETCHER ACCESS:    1068454  HIT:    1068454  MISS:          0  HIT %:        100  MISS %:          0   MPKI: 0
PSCL4 PREFETCH  REQUESTED:          0  ISSUED:          0  USEFUL:          0  USELESS:          0
PSCL4 USEFUL LOAD PREFETCHES:          0 PREFETCH ISSUED TO LOWER LEVEL:          0  ACCURACY: -nan
PSCL4 TIMELY PREFETCHES:          0 LATE PREFETCHES: 0 DROPPED PREFETCHES: 0
PSCL4 PREFETCHES SAME FILL-ORIGIN LEVEL: 0 DIFFERENT FILL-ORIGIN LEVEL: 0

PSCL3 TOTAL     ACCESS:    6425284  HIT:    6421053  MISS:       4231  HIT %:    99.9342  MISS %:  0.0658492   MPKI: 0.021155
PSCL3 LOAD TRANSLATION ACCESS:    5322608  HIT:    5318377  MISS:       4231  HIT %:    99.9205  MISS %:  0.0794911   MPKI: 0.021155
PSCL3 TRANSLATION FROM L1D PREFETCHER ACCESS:    1102676  HIT:    1102676  MISS:          0  HIT %:        100  MISS %:          0   MPKI: 0
PSCL3 PREFETCH  REQUESTED:          0  ISSUED:          0  USEFUL:          0  USELESS:          0
PSCL3 USEFUL LOAD PREFETCHES:          0 PREFETCH ISSUED TO LOWER LEVEL:          0  ACCURACY: -nan
PSCL3 TIMELY PREFETCHES:          0 LATE PREFETCHES: 0 DROPPED PREFETCHES: 0
PSCL3 PREFETCHES SAME FILL-ORIGIN LEVEL: 0 DIFFERENT FILL-ORIGIN LEVEL: 0

PSCL2 TOTAL     ACCESS:    6443145  HIT:    6028929  MISS:     414216  HIT %:    93.5712  MISS %:    6.42879   MPKI: 2.07108
PSCL2 LOAD TRANSLATION ACCESS:    5361268  HIT:    4947052  MISS:     414216  HIT %:    92.2739  MISS %:    7.72608   MPKI: 2.07108
PSCL2 TRANSLATION FROM L1D PREFETCHER ACCESS:    1081877  HIT:    1081877  MISS:          0  HIT %:        100  MISS %:          0   MPKI: 0
PSCL2 PREFETCH  REQUESTED:          0  ISSUED:          0  USEFUL:          0  USELESS:          0
PSCL2 USEFUL LOAD PREFETCHES:          0 PREFETCH ISSUED TO LOWER LEVEL:          0  ACCURACY: -nan
PSCL2 TIMELY PREFETCHES:          0 LATE PREFETCHES: 0 DROPPED PREFETCHES: 0
PSCL2 PREFETCHES SAME FILL-ORIGIN LEVEL: 0 DIFFERENT FILL-ORIGIN LEVEL: 0

LLC TOTAL     ACCESS:    2980388  HIT:    1021012  MISS:    1959376  HIT %:    34.2577  MISS %:    65.7423   MPKI: 9.79688
LLC LOAD      ACCESS:    1035650  HIT:     322970  MISS:     712680  HIT %:    31.1852  MISS %:    68.8148   MPKI: 3.5634
LLC RFO       ACCESS:     103119  HIT:      15131  MISS:      87988  HIT %:    14.6733  MISS %:    85.3267   MPKI: 0.43994
LLC PREFETCH  ACCESS:    1160436  HIT:     170027  MISS:     990409  HIT %:     14.652  MISS %:     85.348   MPKI: 4.95204
LLC WRITEBACK ACCESS:     429106  HIT:     404931  MISS:      24175  HIT %:    94.3662  MISS %:    5.63381   MPKI: 0.120875
LLC LOAD TRANSLATION ACCESS:     251649  HIT:     107654  MISS:     143995  HIT %:    42.7794  MISS %:    57.2206   MPKI: 0.719975
LLC TRANSLATION FROM L1D PREFETCHER ACCESS:        428  HIT:        299  MISS:        129  HIT %:    69.8598  MISS %:    30.1402   MPKI: 0.000645
LLC PREFETCH  REQUESTED:          0  ISSUED:          0  USEFUL:      81233  USELESS:    4142435
LLC USEFUL LOAD PREFETCHES:      81233 PREFETCH ISSUED TO LOWER LEVEL:    4226912  ACCURACY: 1.9218
LLC TIMELY PREFETCHES:      81233 LATE PREFETCHES: 0 DROPPED PREFETCHES: 0
LLC PREFETCHES SAME FILL-ORIGIN LEVEL: 0 DIFFERENT FILL-ORIGIN LEVEL: 0
LLC AVERAGE MISS LATENCY: 1060.44 cycles
LLC RQ	ACCESS:    5693746	FORWARD:          0	MERGED:          0	TO_CACHE:    5693741
LLC WQ	ACCESS:    1812007	FORWARD:          5	MERGED:          0	TO_CACHE:    1812007
LLC PQ	ACCESS:    4904892	FORWARD:          0	MERGED:          0	TO_CACHE:    4904892

LLC Dense regions hint to LLC: 0

RAW hits: 1257555
Loads Generated: 26333246
Loads sent to L1D: 25075690
Stores Generated: 8640953
Stores sent to L1D: 8640953
Major fault: 0 Minor fault: 47322
Allocated PAGES: 190112

CPU 1 cumulative IPC: 0.536482 instructions: 200000000 cycles: 372799182
ITLB TOTAL     ACCESS:   30449236  HIT:   28743774  MISS:    1705462  HIT %:     94.399  MISS %:      5.601   MPKI: 8.52731
ITLB LOAD TRANSLATION ACCESS:   30449236  HIT:   28743774  MISS:    1705462  HIT %:     94.399  MISS %:      5.601   MPKI: 8.52731
ITLB PREFETCH  REQUESTED:          0  ISSUED:          0  USEFUL:          0  USELESS:          0
ITLB USEFUL LOAD PREFETCHES:          0 PREFETCH ISSUED TO LOWER LEVEL:          0  ACCURACY: -nan
ITLB TIMELY PREFETCHES:          0 LATE PREFETCHES: 0 DROPPED PREFETCHES: 0
ITLB PREFETCHES SAME FILL-ORIGIN LEVEL: 0 DIFFERENT FILL-ORIGIN LEVEL: 0
ITLB AVERAGE MISS LATENCY: 41.7591 cycles
ITLB RQ	ACCESS:   39164623	FORWARD:          0	MERGED:    7845348	TO_CACHE:   31319275

DTLB TOTAL     ACCESS:   18068552  HIT:   11480599  MISS:    6587953  HIT %:    63.5391  MISS %:    36.4609   MPKI: 32.9398
DTLB LOAD TRANSLATION ACCESS:   18068552  HIT:   11480599  MISS:    6587953  HIT %:    63.5391  MISS %:    36.4609   MPKI: 32.9398
DTLB PREFETCH  REQUESTED:          0  ISSUED:          0  USEFUL:          0  USELESS:          0
DTLB USEFUL LOAD PREFETCHES:          0 PREFETCH ISSUED TO LOWER LEVEL:          0  ACCURACY: -nan
DTLB TIMELY PREFETCHES:          0 LATE PREFETCHES: 0 DROPPED PREFETCHES: 0
DTLB PREFETCHES SAME FILL-ORIGIN LEVEL: 0 DIFFERENT FILL-ORIGIN LEVEL: 0
DTLB AVERAGE MISS LATENCY: 35.0133 cycles
DTLB RQ	ACCESS:   22591207	FORWARD:          0	MERGED:    3801456	TO_CACHE:   18789751

STLB TOTAL     ACCESS:   10950584  HIT:    4657184  MISS:    6293400  HIT %:    42.5291  MISS %:    57.4709   MPKI: 31.467
STLB LOAD TRANSLATION ACCESS:    8293415  HIT:    3019274  MISS:    5274141  HIT %:    36.4057  MISS %:    63.5943   MPKI: 26.3707
STLB TRANSLATION FROM L1D PREFETCHER ACCESS:    2657169  HIT:    1637910  MISS:    1019259  HIT %:    61.6412  MISS %:    38.3588   MPKI: 5.09629
STLB PREFETCH  REQUESTED:          0  ISSUED:          0  USEFUL:     318326  USELESS:     700931
STLB USEFUL LOAD PREFETCHES:     318326 PREFETCH ISSUED TO LOWER LEVEL:          0  ACCURACY: inf
STLB TIMELY PREFETCHES:     318326 LATE PREFETCHES: 0 DROPPED PREFETCHES: 0
STLB PREFETCHES SAME FILL-ORIGIN LEVEL: 0 DIFFERENT FILL-ORIGIN LEVEL: 0
STLB AVERAGE MISS LATENCY: 41.7571 cycles
STLB RQ	ACCESS:   12520249	FORWARD:          0	MERGED:    1563531	TO_CACHE:   10956718

STLB Hit, L1D data hit: 0
STLB Hit, L2C data hit: 0
STLB Hit, LLC data hit: 0
STLB Hit, LLC data miss: 0
STLB STLB hints to L2: 0
L1D TOTAL     ACCESS:   25831216  HIT:   23261556  MISS:    2569660  HIT %:    90.0521  MISS %:    9.94789   MPKI: 12.8483
L1D LOAD      ACCESS:   14417429  HIT:   13312686  MISS:    1104743  HIT %:    92.3374  MISS %:    7.66255   MPKI: 5.52372
L1D RFO       ACCESS:    7374987  HIT:    7178428  MISS:     196559  HIT %:    97.3348  MISS %:    2.66521   MPKI: 0.982795
L1D PREFETCH  ACCESS:    4038800  HIT:    2770442  MISS:    1268358  HIT %:    68.5957  MISS %:    31.4043   MPKI: 6.34179
L1D PREFETCH  REQUESTED:    8457777  ISSUED:    8457729  USEFUL:     501852  USELESS:     766502
L1D USEFUL LOAD PREFETCHES:     501852 PREFETCH ISSUED TO LOWER LEVEL:    1389762  ACCURACY: 36.1106
L1D TIMELY PREFETCHES:     501852 LATE PREFETCHES: 117545 DROPPED PREFETCHES: 0
L1D PREFETCHES SAME FILL-ORIGIN LEVEL: 1389762 DIFFERENT FILL-ORIGIN LEVEL: 0
L1D AVERAGE MISS LATENCY: 200.256 cycles
L1D RQ	ACCESS:   25697934	FORWARD:          0	MERGED:   10917446	TO_CACHE:   14610380
L1D WQ	ACCESS:    8483880	FORWARD:     174157	MERGED:     503053	TO_CACHE:    7980827
L1D PQ	ACCESS:    4230895	FORWARD:          0	MERGED:         12	TO_CACHE:    4226834

L1D UNIQUE REGIONS ACCESSED: 0
L1D REGIONS CONFLICTS: 0
L1D Cross Page Prefetch Requests: 0
L1D Same Page Prefetch Requests: 5302305
L1D ROI Sum of L1D PQ occupancy: 102927130
L1D PREFETCHES PUSHED FROM L2C: 0
L1I TOTAL     ACCESS:   38868636  HIT:   38122950  MISS:     745686  HIT %:    98.0815  MISS %:    1.91848   MPKI: 3.72843
L1I LOAD      ACCESS:   38868636  HIT:   38122950  MISS:     745686  HIT %:    98.0815  MISS %:    1.91848   MPKI: 3.72843
L1I PREFETCH  REQUESTED:          0  ISSUED:          0  USEFUL:          0  USELESS:          0
L1I USEFUL LOAD PREFETCHES:          0 PREFETCH ISSUED TO LOWER LEVEL:          0  ACCURACY: -nan
L1I TIMELY PREFETCHES:          0 LATE PREFETCHES: 0 DROPPED PREFETCHES: 0
L1I PREFETCHES SAME FILL-ORIGIN LEVEL: 0 DIFFERENT FILL-ORIGIN LEVEL: 0
L1I AVERAGE MISS LATENCY: 67.4761 cycles
L1I RQ	ACCESS:   61105804	FORWARD:          0	MERGED:   21941181	TO_CACHE:   39164623

BTB BRANCH_DIRECT_JUMP	ACCESS:          0  HIT:          0  MISS:          0
BTB BRANCH_INDIRECT	ACCESS:          0  HIT:          0  MISS:          0
BTB BRANCH_CONDITIONAL	ACCESS:          0  HIT:          0  MISS:          0
BTB BRANCH_DIRECT_CALL	ACCESS:          0  HIT:          0  MISS:          0
BTB BRANCH_INDIRECT_CALL	ACCESS:          0  HIT:          0  MISS:          0
BTB BRANCH_RETURN	ACCESS:          0  HIT:          0  MISS:          0
BTB BRANCH_OTHER ACCESS:          0  HIT:          0  MISS:          0

L2C TOTAL     ACCESS:   10702942  HIT:    7951756  MISS:    2751186  HIT %:     74.295  MISS %:     25.705   MPKI: 13.7559
L2C LOAD      ACCESS:    1732871  HIT:     607566  MISS:    1125305  HIT %:    35.0612  MISS %:    64.9388   MPKI: 5.62652
L2C DATA LOAD MPKI: 3.90068
L2C INSTRUCTION LOAD MPKI: 1.72585
L2C RFO       ACCESS:     192693  HIT:      68111  MISS:     124582  HIT %:    35.3469  MISS %:    64.6531   MPKI: 0.62291
L2C PREFETCH  ACCESS:    1389760  HIT:     179723  MISS:    1210037  HIT %:    12.9319  MISS %:    87.0681   MPKI: 6.05018
L2C DATA PREFETCH MPKI: 6.05018
L2C INSTRUCTION PREFETCH MPKI: 0
L2C WRITEBACK ACCESS:     631810  HIT:     587139  MISS:      44671  HIT %:    92.9297  MISS %:    7.07032   MPKI: 0.223355
L2C LOAD TRANSLATION ACCESS:    5710252  HIT:    5464067  MISS:     246185  HIT %:    95.6887  MISS %:    4.31128   MPKI: 1.23093
L2C TRANSLATION FROM L1D PREFETCHER ACCESS:    1045556  HIT:    1045150  MISS:        406  HIT %:    99.9612  MISS %:   0.038831   MPKI: 0.00203
L2C PREFETCH  REQUESTED:          0  ISSUED:          0  USEFUL:      31156  USELESS:    1179154
L2C USEFUL LOAD PREFETCHES:      31156 PREFETCH ISSUED TO LOWER LEVEL:    1210038  ACCURACY: 2.5748
L2C TIMELY PREFETCHES:      31156 LATE PREFETCHES: 0 DROPPED PREFETCHES: 0
L2C PREFETCHES SAME FILL-ORIGIN LEVEL: 0 DIFFERENT FILL-ORIGIN LEVEL: 0
L2C AVERAGE MISS LATENCY: 221.201 cycles
L2C RQ	ACCESS:    8681391	FORWARD:          0	MERGED:          0	TO_CACHE:    8681384
L2C WQ	ACCESS:     631810	FORWARD:          7	MERGED:          0	TO_CACHE:     631810
L2C PQ	ACCESS:    1389762	FORWARD:          0	MERGED:          0	TO_CACHE:    1389762

L2C Instructions Evicting Data 240804
L2C Translations Evicting Data 192351
L2C Data Evicting Data 1692426
L2C Instructions Evicting Instructions 72522
L2C Translations Evicting Instructions 29940
L2C Data Evicting Instructions 235567
L2C Instructions Evicting Translations 31844
L2C Translations Evicting Translations 24300
L2C Data Evicting Translations 186761
L2C Dense regions hint from L2: 0
PSCL5 TOTAL     ACCESS:    6293399  HIT:    6293399  MISS:          0  HIT %:        100  MISS %:          0   MPKI: 0
PSCL5 LOAD TRANSLATION ACCESS:    5274141  HIT:    5274141  MISS:          0  HIT %:        100  MISS %:          0   MPKI: 0
PSCL5 TRANSLATION FROM L1D PREFETCHER ACCESS:    1019258  HIT:    1019258  MISS:          0  HIT %:        100  MISS %:          0   MPKI: 0
PSCL5 PREFETCH  REQUESTED:          0  ISSUED:          0  USEFUL:          0  USELESS:          0
PSCL5 USEFUL LOAD PREFETCHES:          0 PREFETCH ISSUED TO LOWER LEVEL:          0  ACCURACY: -nan
PSCL5 TIMELY PREFETCHES:          0 LATE PREFETCHES: 0 DROPPED PREFETCHES: 0
PSCL5 PREFETCHES SAME FILL-ORIGIN LEVEL: 0 DIFFERENT FILL-ORIGIN LEVEL: 0

PSCL4 TOTAL     ACCESS:    6148386  HIT:    6147822  MISS:        564  HIT %:    99.9908  MISS %: 0.00917314   MPKI: 0.00282
PSCL4 LOAD TRANSLATION ACCESS:    5221214  HIT:    5220650  MISS:        564  HIT %:    99.9892  MISS %:  0.0108021   MPKI: 0.00282
PSCL4 TRANSLATION FROM L1D PREFETCHER ACCESS:     927172  HIT:     927172  MISS:          0  HIT %:        100  MISS %:          0   MPKI: 0
PSCL4 PREFETCH  REQUESTED:          0  ISSUED:          0  USEFUL:          0  USELESS:          0
PSCL4 USEFUL LOAD PREFETCHES:          0 PREFETCH ISSUED TO LOWER LEVEL:          0  ACCURACY: -nan
PSCL4 TIMELY PREFETCHES:          0 LATE PREFETCHES: 0 DROPPED PREFETCHES: 0
PSCL4 PREFETCHES SAME FILL-ORIGIN LEVEL: 0 DIFFERENT FILL-ORIGIN LEVEL: 0

PSCL3 TOTAL     ACCESS:    6268858  HIT:    6262134  MISS:       6724  HIT %:    99.8927  MISS %:    0.10726   MPKI: 0.03362
PSCL3 LOAD TRANSLATION ACCESS:    5254589  HIT:    5247865  MISS:       6724  HIT %:     99.872  MISS %:   0.127964   MPKI: 0.03362
PSCL3 TRANSLATION FROM L1D PREFETCHER ACCESS:    1014269  HIT:    1014269  MISS:          0  HIT %:        100  MISS %:          0   MPKI: 0
PSCL3 PREFETCH  REQUESTED:          0  ISSUED:          0  USEFUL:          0  USELESS:          0
PSCL3 USEFUL LOAD PREFETCHES:          0 PREFETCH ISSUED TO LOWER LEVEL:          0  ACCURACY: -nan
PSCL3 TIMELY PREFETCHES:          0 LATE PREFETCHES: 0 DROPPED PREFETCHES: 0
PSCL3 PREFETCHES SAME FILL-ORIGIN LEVEL: 0 DIFFERENT FILL-ORIGIN LEVEL: 0

PSCL2 TOTAL     ACCESS:    6293399  HIT:    5838158  MISS:     455241  HIT %:    92.7664  MISS %:    7.23363   MPKI: 2.27621
PSCL2 LOAD TRANSLATION ACCESS:    5300099  HIT:    4844858  MISS:     455241  HIT %:    91.4107  MISS %:    8.58929   MPKI: 2.27621
PSCL2 TRANSLATION FROM L1D PREFETCHER ACCESS:     993300  HIT:     993300  MISS:          0  HIT %:        100  MISS %:          0   MPKI: 0
PSCL2 PREFETCH  REQUESTED:          0  ISSUED:          0  USEFUL:          0  USELESS:          0
PSCL2 USEFUL LOAD PREFETCHES:          0 PREFETCH ISSUED TO LOWER LEVEL:          0  ACCURACY: -nan
PSCL2 TIMELY PREFETCHES:          0 LATE PREFETCHES: 0 DROPPED PREFETCHES: 0
PSCL2 PREFETCHES SAME FILL-ORIGIN LEVEL: 0 DIFFERENT FILL-ORIGIN LEVEL: 0

LLC TOTAL     ACCESS:    3222332  HIT:    1183275  MISS:    2039057  HIT %:    36.7211  MISS %:    63.2789   MPKI: 10.1953
LLC LOAD      ACCESS:    1125304  HIT:     391172  MISS:     734132  HIT %:    34.7615  MISS %:    65.2385   MPKI: 3.67066
LLC RFO       ACCESS:     124582  HIT:      42275  MISS:      82307  HIT %:    33.9335  MISS %:    66.0665   MPKI: 0.411535
LLC PREFETCH  ACCESS:    1210037  HIT:     152125  MISS:    1057912  HIT %:    12.5719  MISS %:    87.4281   MPKI: 5.28956
LLC WRITEBACK ACCESS:     515818  HIT:     492483  MISS:      23335  HIT %:    95.4761  MISS %:    4.52388   MPKI: 0.116675
LLC LOAD TRANSLATION ACCESS:     246185  HIT:     104923  MISS:     141262  HIT %:    42.6196  MISS %:    57.3804   MPKI: 0.70631
LLC TRANSLATION FROM L1D PREFETCHER ACCESS:        406  HIT:        297  MISS:        109  HIT %:    73.1527  MISS %:    26.8473   MPKI: 0.000545
LLC PREFETCH  REQUESTED:          0  ISSUED:          0  USEFUL:      81233  USELESS:    4142435
LLC USEFUL LOAD PREFETCHES:      81233 PREFETCH ISSUED TO LOWER LEVEL:    4226912  ACCURACY: 1.9218
LLC TIMELY PREFETCHES:      81233 LATE PREFETCHES: 0 DROPPED PREFETCHES: 0
LLC PREFETCHES SAME FILL-ORIGIN LEVEL: 0 DIFFERENT FILL-ORIGIN LEVEL: 0
LLC AVERAGE MISS LATENCY: 1019 cycles
LLC RQ	ACCESS:    5693746	FORWARD:          0	MERGED:          0	TO_CACHE:    5693741
LLC WQ	ACCESS:    1812007	FORWARD:          5	MERGED:          0	TO_CACHE:    1812007
LLC PQ	ACCESS:    4904892	FORWARD:          0	MERGED:          0	TO_CACHE:    4904892

LLC Dense regions hint to LLC: 0

RAW hits: 1377215
Loads Generated: 27075150
Loads sent to L1D: 25697934
Stores Generated: 8483873
Stores sent to L1D: 8483880
Major fault: 0 Minor fault: 46937
Allocated PAGES: 190112

CPU 2 cumulative IPC: 0.562822 instructions: 200000000 cycles: 355352247
ITLB TOTAL     ACCESS:   30180561  HIT:   28576202  MISS:    1604359  HIT %:    94.6841  MISS %:    5.31587   MPKI: 8.02179
ITLB LOAD TRANSLATION ACCESS:   30180561  HIT:   28576202  MISS:    1604359  HIT %:    94.6841  MISS %:    5.31587   MPKI: 8.02179
ITLB PREFETCH  REQUESTED:          0  ISSUED:          0  USEFUL:          0  USELESS:          0
ITLB USEFUL LOAD PREFETCHES:          0 PREFETCH ISSUED TO LOWER LEVEL:          0  ACCURACY: -nan
ITLB TIMELY PREFETCHES:          0 LATE PREFETCHES: 0 DROPPED PREFETCHES: 0
ITLB PREFETCHES SAME FILL-ORIGIN LEVEL: 0 DIFFERENT FILL-ORIGIN LEVEL: 0
ITLB AVERAGE MISS LATENCY: 43.7588 cycles
ITLB RQ	ACCESS:   40803433	FORWARD:          0	MERGED:    8392313	TO_CACHE:   32411120

DTLB TOTAL     ACCESS:   17218124  HIT:   10869023  MISS:    6349101  HIT %:    63.1255  MISS %:    36.8745   MPKI: 31.7455
DTLB LOAD TRANSLATION ACCESS:   17218124  HIT:   10869023  MISS:    6349101  HIT %:    63.1255  MISS %:    36.8745   MPKI: 31.7455
DTLB PREFETCH  REQUESTED:          0  ISSUED:          0  USEFUL:          0  USELESS:          0
DTLB USEFUL LOAD PREFETCHES:          0 PREFETCH ISSUED TO LOWER LEVEL:          0  ACCURACY: -nan
DTLB TIMELY PREFETCHES:          0 LATE PREFETCHES: 0 DROPPED PREFETCHES: 0
DTLB PREFETCHES SAME FILL-ORIGIN LEVEL: 0 DIFFERENT FILL-ORIGIN LEVEL: 0
DTLB AVERAGE MISS LATENCY: 36.5847 cycles
DTLB RQ	ACCESS:   22444077	FORWARD:          0	MERGED:    3760402	TO_CACHE:   18683675

STLB TOTAL     ACCESS:   10557818  HIT:    4538613  MISS:    6019205  HIT %:    42.9882  MISS %:    57.0118   MPKI: 30.096
STLB LOAD TRANSLATION ACCESS:    7953460  HIT:    2970790  MISS:    4982670  HIT %:    37.3522  MISS %:    62.6478   MPKI: 24.9134
STLB TRANSLATION FROM L1D PREFETCHER ACCESS:    2604358  HIT:    1567823  MISS:    1036535  HIT %:       60.2  MISS %:       39.8   MPKI: 5.18267
STLB PREFETCH  REQUESTED:          0  ISSUED:          0  USEFUL:     341722  USELESS:     753892
STLB USEFUL LOAD PREFETCHES:     341722 PREFETCH ISSUED TO LOWER LEVEL:          0  ACCURACY: inf
STLB TIMELY PREFETCHES:     341722 LATE PREFETCHES: 0 DROPPED PREFETCHES: 0
STLB PREFETCHES SAME FILL-ORIGIN LEVEL: 0 DIFFERENT FILL-ORIGIN LEVEL: 0
STLB AVERAGE MISS LATENCY: 44.2325 cycles
STLB RQ	ACCESS:   12659899	FORWARD:          0	MERGED:    1679309	TO_CACHE:   10980590

STLB Hit, L1D data hit: 0
STLB Hit, L2C data hit: 0
STLB Hit, LLC data hit: 0
STLB Hit, LLC data miss: 0
STLB STLB hints to L2: 0
L1D TOTAL     ACCESS:   24964183  HIT:   22655219  MISS:    2308964  HIT %:    90.7509  MISS %:    9.24911   MPKI: 11.5448
L1D LOAD      ACCESS:   14160166  HIT:   13209179  MISS:     950987  HIT %:    93.2841  MISS %:    6.71593   MPKI: 4.75493
L1D RFO       ACCESS:    6742257  HIT:    6608619  MISS:     133638  HIT %:    98.0179  MISS %:     1.9821   MPKI: 0.66819
L1D PREFETCH  ACCESS:    4061760  HIT:    2837421  MISS:    1224339  HIT %:    69.8569  MISS %:    30.1431   MPKI: 6.12169
L1D PREFETCH  REQUESTED:    8836521  ISSUED:    8836472  USEFUL:     468646  USELESS:     816470
L1D USEFUL LOAD PREFETCHES:     468646 PREFETCH ISSUED TO LOWER LEVEL:    1380935  ACCURACY: 33.9369
L1D TIMELY PREFETCHES:     468646 LATE PREFETCHES: 92316 DROPPED PREFETCHES: 0
L1D PREFETCHES SAME FILL-ORIGIN LEVEL: 1380935 DIFFERENT FILL-ORIGIN LEVEL: 0
L1D AVERAGE MISS LATENCY: 221.208 cycles
L1D RQ	ACCESS:   26242447	FORWARD:          0	MERGED:   11119197	TO_CACHE:   14933207
L1D WQ	ACCESS:    7967398	FORWARD:     194180	MERGED:     456528	TO_CACHE:    7510870
L1D PQ	ACCESS:    4420309	FORWARD:          0	MERGED:          9	TO_CACHE:    4416163

L1D UNIQUE REGIONS ACCESSED: 0
L1D REGIONS CONFLICTS: 0
L1D Cross Page Prefetch Requests: 0
L1D Same Page Prefetch Requests: 5470950
L1D ROI Sum of L1D PQ occupancy: 109082261
L1D PREFETCHES PUSHED FROM L2C: 0
L1I TOTAL     ACCESS:   38821716  HIT:   38416547  MISS:     405169  HIT %:    98.9563  MISS %:    1.04367   MPKI: 2.02584
L1I LOAD      ACCESS:   38821716  HIT:   38416547  MISS:     405169  HIT %:    98.9563  MISS %:    1.04367   MPKI: 2.02584
L1I PREFETCH  REQUESTED:          0  ISSUED:          0  USEFUL:          0  USELESS:          0
L1I USEFUL LOAD PREFETCHES:          0 PREFETCH ISSUED TO LOWER LEVEL:          0  ACCURACY: -nan
L1I TIMELY PREFETCHES:          0 LATE PREFETCHES: 0 DROPPED PREFETCHES: 0
L1I PREFETCHES SAME FILL-ORIGIN LEVEL: 0 DIFFERENT FILL-ORIGIN LEVEL: 0
L1I AVERAGE MISS LATENCY: 90.6228 cycles
L1I RQ	ACCESS:   63019616	FORWARD:          0	MERGED:   22216183	TO_CACHE:   40803433

BTB BRANCH_DIRECT_JUMP	ACCESS:          0  HIT:          0  MISS:          0
BTB BRANCH_INDIRECT	ACCESS:          0  HIT:          0  MISS:          0
BTB BRANCH_CONDITIONAL	ACCESS:          0  HIT:          0  MISS:          0
BTB BRANCH_DIRECT_CALL	ACCESS:          0  HIT:          0  MISS:          0
BTB BRANCH_INDIRECT_CALL	ACCESS:          0  HIT:          0  MISS:          0
BTB BRANCH_RETURN	ACCESS:          0  HIT:          0  MISS:          0
BTB BRANCH_OTHER ACCESS:          0  HIT:          0  MISS:          0

L2C TOTAL     ACCESS:    9698064  HIT:    7176632  MISS:    2521432  HIT %:    74.0007  MISS %:    25.9993   MPKI: 12.6072
L2C LOAD      ACCESS:    1267883  HIT:     287347  MISS:     980536  HIT %:    22.6635  MISS %:    77.3365   MPKI: 4.90268
L2C DATA LOAD MPKI: 3.63454
L2C INSTRUCTION LOAD MPKI: 1.26814
L2C RFO       ACCESS:     129992  HIT:      37011  MISS:      92981  HIT %:    28.4718  MISS %:    71.5282   MPKI: 0.464905
L2C PREFETCH  ACCESS:    1316250  HIT:     152098  MISS:    1164152  HIT %:    11.5554  MISS %:    88.4446   MPKI: 5.82076
L2C DATA PREFETCH MPKI: 5.82076
L2C INSTRUCTION PREFETCH MPKI: 0
L2C WRITEBACK ACCESS:     463056  HIT:     425390  MISS:      37666  HIT %:    91.8658  MISS %:    8.13422   MPKI: 0.18833
[...]
LLC WQ	ACCESS:    1812007	FORWARD:          5	MERGED:          0	TO_CACHE:    1812007
LLC PQ	ACCESS:    4904892	FORWARD:          0	MERGED:          0	TO_CACHE:    4904892

LLC Dense regions hint to LLC: 0

RAW hits: 1227576
Loads Generated: 26370962
Loads sent to L1D: 25143386
Stores Generated: 7629161
Stores sent to L1D: 7629161
Major fault: 0 Minor fault: 47230
Allocated PAGES: 190112

CPU 3 cumulative IPC: 0.583583 instructions: 200000000 cycles: 342710344
ITLB TOTAL     ACCESS:   30314663  HIT:   28754149  MISS:    1560514  HIT %:    94.8523  MISS %:    5.14772   MPKI: 7.80257
ITLB LOAD TRANSLATION ACCESS:   30314663  HIT:   28754149  MISS:    1560514  HIT %:    94.8523  MISS %:    5.14772   MPKI: 7.80257
ITLB PREFETCH  REQUESTED:          0  ISSUED:          0  USEFUL:          0  USELESS:          0
ITLB USEFUL LOAD PREFETCHES:          0 PREFETCH ISSUED TO LOWER LEVEL:          0  ACCURACY: -nan
ITLB TIMELY PREFETCHES:          0 LATE PREFETCHES: 0 DROPPED PREFETCHES: 0
ITLB PREFETCHES SAME FILL-ORIGIN LEVEL: 0 DIFFERENT FILL-ORIGIN LEVEL: 0
ITLB AVERAGE MISS LATENCY: 45.0165 cycles
ITLB RQ	ACCESS:   42268270	FORWARD:          0	MERGED:    8378211	TO_CACHE:   33890059

DTLB TOTAL     ACCESS:   16992563  HIT:   10920102  MISS:    6072461  HIT %:     64.264  MISS %:     35.736   MPKI: 30.3623
DTLB LOAD TRANSLATION ACCESS:   16992563  HIT:   10920102  MISS:    6072461  HIT %:     64.264  MISS %:     35.736   MPKI: 30.3623
DTLB PREFETCH  REQUESTED:          0  ISSUED:          0  USEFUL:          0  USELESS:          0
DTLB USEFUL LOAD PREFETCHES:          0 PREFETCH ISSUED TO LOWER LEVEL:          0  ACCURACY: -nan
DTLB TIMELY PREFETCHES:          0 LATE PREFETCHES: 0 DROPPED PREFETCHES: 0
DTLB PREFETCHES SAME FILL-ORIGIN LEVEL: 0 DIFFERENT FILL-ORIGIN LEVEL: 0
DTLB AVERAGE MISS LATENCY: 37.5001 cycles
DTLB RQ	ACCESS:   22941827	FORWARD:          0	MERGED:    3820216	TO_CACHE:   19121611

STLB TOTAL     ACCESS:   10226653  HIT:    4422774  MISS:    5803879  HIT %:    43.2475  MISS %:    56.7525   MPKI: 29.0194
STLB LOAD TRANSLATION ACCESS:    7632975  HIT:    2836985  MISS:    4795990  HIT %:    37.1675  MISS %:    62.8325   MPKI: 23.9799
STLB TRANSLATION FROM L1D PREFETCHER ACCESS:    2593678  HIT:    1585789  MISS:    1007889  HIT %:    61.1406  MISS %:    38.8594   MPKI: 5.03944
STLB PREFETCH  REQUESTED:          0  ISSUED:          0  USEFUL:     338871  USELESS:     773912
STLB USEFUL LOAD PREFETCHES:     338871 PREFETCH ISSUED TO LOWER LEVEL:          0  ACCURACY: inf
STLB TIMELY PREFETCHES:     338871 LATE PREFETCHES: 0 DROPPED PREFETCHES: 0
STLB PREFETCHES SAME FILL-ORIGIN LEVEL: 0 DIFFERENT FILL-ORIGIN LEVEL: 0
STLB AVERAGE MISS LATENCY: 45.1728 cycles
STLB RQ	ACCESS:   12689727	FORWARD:          0	MERGED:    1681966	TO_CACHE:   11007761

STLB Hit, L1D data hit: 0
STLB Hit, L2C data hit: 0
STLB Hit, LLC data hit: 0
STLB Hit, LLC data miss: 0
STLB STLB hints to L2: 0
L1D TOTAL     ACCESS:   24418249  HIT:   22113587  MISS:    2304662  HIT %:    90.5617  MISS %:    9.43828   MPKI: 11.5233
L1D LOAD      ACCESS:   13922598  HIT:   12989012  MISS:     933586  HIT %:    93.2945  MISS %:    6.70554   MPKI: 4.66793
L1D RFO       ACCESS:    6521530  HIT:    6372299  MISS:     149231  HIT %:    97.7117  MISS %:    2.28828   MPKI: 0.746155
L1D PREFETCH  ACCESS:    3974121  HIT:    2752276  MISS:    1221845  HIT %:     69.255  MISS %:     30.745   MPKI: 6.10923
L1D PREFETCH  REQUESTED:    9053946  ISSUED:    9053907  USEFUL:     534240  USELESS:     811512
L1D USEFUL LOAD PREFETCHES:     534240 PREFETCH ISSUED TO LOWER LEVEL:    1468853  ACCURACY: 36.3712
L1D TIMELY PREFETCHES:     534240 LATE PREFETCHES: 119953 DROPPED PREFETCHES: 0
L1D PREFETCHES SAME FILL-ORIGIN LEVEL: 1468853 DIFFERENT FILL-ORIGIN LEVEL: 0
L1D AVERAGE MISS LATENCY: 224.81 cycles
L1D RQ	ACCESS:   27545027	FORWARD:          0	MERGED:   12036248	TO_CACHE:   15306161
L1D WQ	ACCESS:    8096915	FORWARD:     206124	MERGED:     461249	TO_CACHE:    7635666
L1D PQ	ACCESS:    4528721	FORWARD:          0	MERGED:         29	TO_CACHE:    4525186

L1D UNIQUE REGIONS ACCESSED: 0
L1D REGIONS CONFLICTS: 0
L1D Cross Page Prefetch Requests: 0
L1D Same Page Prefetch Requests: 5568454
L1D ROI Sum of L1D PQ occupancy: 109836283
L1D PREFETCHES PUSHED FROM L2C: 0
L1I TOTAL     ACCESS:   38626278  HIT:   38247617  MISS:     378661  HIT %:    99.0197  MISS %:    0.98032   MPKI: 1.89331
L1I LOAD      ACCESS:   38626278  HIT:   38247617  MISS:     378661  HIT %:    99.0197  MISS %:    0.98032   MPKI: 1.89331
L1I PREFETCH  REQUESTED:          0  ISSUED:          0  USEFUL:          0  USELESS:          0
L1I USEFUL LOAD PREFETCHES:          0 PREFETCH ISSUED TO LOWER LEVEL:          0  ACCURACY: -nan
L1I TIMELY PREFETCHES:          0 LATE PREFETCHES: 0 DROPPED PREFETCHES: 0
L1I PREFETCHES SAME FILL-ORIGIN LEVEL: 0 DIFFERENT FILL-ORIGIN LEVEL: 0
L1I AVERAGE MISS LATENCY: 92.9233 cycles
L1I RQ	ACCESS:   65662584	FORWARD:          0	MERGED:   23394314	TO_CACHE:   42268270

BTB BRANCH_DIRECT_JUMP	ACCESS:          0  HIT:          0  MISS:          0
BTB BRANCH_INDIRECT	ACCESS:          0  HIT:          0  MISS:          0
BTB BRANCH_CONDITIONAL	ACCESS:          0  HIT:          0  MISS:          0
BTB BRANCH_DIRECT_CALL	ACCESS:          0  HIT:          0  MISS:          0
BTB BRANCH_INDIRECT_CALL	ACCESS:          0  HIT:          0  MISS:          0
BTB BRANCH_RETURN	ACCESS:          0  HIT:          0  MISS:          0
BTB BRANCH_OTHER ACCESS:          0  HIT:          0  MISS:          0

L2C TOTAL     ACCESS:    9374308  HIT:    6897906  MISS:    2476402  HIT %:    73.5831  MISS %:    26.4169   MPKI: 12.382
L2C LOAD      ACCESS:    1204952  HIT:     279154  MISS:     925798  HIT %:    23.1672  MISS %:    76.8328   MPKI: 4.62899
L2C DATA LOAD MPKI: 3.46048
L2C INSTRUCTION LOAD MPKI: 1.16851
L2C RFO       ACCESS:     146110  HIT:      40724  MISS:     105386  HIT %:    27.8722  MISS %:    72.1278   MPKI: 0.52693
L2C PREFETCH  ACCESS:    1332240  HIT:     157718  MISS:    1174522  HIT %:    11.8386  MISS %:    88.1614   MPKI: 5.87261
L2C DATA PREFETCH MPKI: 5.87261
L2C INSTRUCTION PREFETCH MPKI: 0
L2C WRITEBACK ACCESS:     476392  HIT:     439914  MISS:      36478  HIT %:    92.3429  MISS %:    7.65714   MPKI: 0.18239
L2C LOAD TRANSLATION ACCESS:    5183962  HIT:    4950097  MISS:     233865  HIT %:    95.4887  MISS %:    4.51132   MPKI: 1.16932
L2C TRANSLATION FROM L1D PREFETCHER ACCESS:    1030652  HIT:    1030299  MISS:        353  HIT %:    99.9657  MISS %:  0.0342502   MPKI: 0.001765
L2C PREFETCH  REQUESTED:          0  ISSUED:          0  USEFUL:      25623  USELESS:    1267854
L2C USEFUL LOAD PREFETCHES:      25623 PREFETCH ISSUED TO LOWER LEVEL:    1294605  ACCURACY: 1.97921
L2C TIMELY PREFETCHES:      25623 LATE PREFETCHES: 0 DROPPED PREFETCHES: 0
L2C PREFETCHES SAME FILL-ORIGIN LEVEL: 0 DIFFERENT FILL-ORIGIN LEVEL: 0
L2C AVERAGE MISS LATENCY: 243.747 cycles
L2C RQ	ACCESS:    8196855	FORWARD:          0	MERGED:          0	TO_CACHE:    8196845
L2C WQ	ACCESS:     518710	FORWARD:         12	MERGED:          0	TO_CACHE:     518710
L2C PQ	ACCESS:    1468853	FORWARD:          0	MERGED:          0	TO_CACHE:    1468851

L2C Instructions Evicting Data 191735
L2C Translations Evicting Data 208818
L2C Data Evicting Data 1778935
L2C Instructions Evicting Instructions 39406
L2C Translations Evicting Instructions 23344
L2C Data Evicting Instructions 190078
L2C Instructions Evicting Translations 25313
L2C Translations Evicting Translations 25589
L2C Data Evicting Translations 203344
L2C Dense regions hint from L2: 0
PSCL5 TOTAL     ACCESS:    5803878  HIT:    5803878  MISS:          0  HIT %:        100  MISS %:          0   MPKI: 0
PSCL5 LOAD TRANSLATION ACCESS:    4795989  HIT:    4795989  MISS:          0  HIT %:        100  MISS %:          0   MPKI: 0
PSCL5 TRANSLATION FROM L1D PREFETCHER ACCESS:    1007889  HIT:    1007889  MISS:          0  HIT %:        100  MISS %:          0   MPKI: 0
PSCL5 PREFETCH  REQUESTED:          0  ISSUED:          0  USEFUL:          0  USELESS:          0
PSCL5 USEFUL LOAD PREFETCHES:          0 PREFETCH ISSUED TO LOWER LEVEL:          0  ACCURACY: -nan
PSCL5 TIMELY PREFETCHES:          0 LATE PREFETCHES: 0 DROPPED PREFETCHES: 0
PSCL5 PREFETCHES SAME FILL-ORIGIN LEVEL: 0 DIFFERENT FILL-ORIGIN LEVEL: 0

PSCL4 TOTAL     ACCESS:    5635824  HIT:    5635154  MISS:        670  HIT %:    99.9881  MISS %:  0.0118882   MPKI: 0.00335
PSCL4 LOAD TRANSLATION ACCESS:    4735773  HIT:    4735103  MISS:        670  HIT %:    99.9859  MISS %:  0.0141476   MPKI: 0.00335
PSCL4 TRANSLATION FROM L1D PREFETCHER ACCESS:     900051  HIT:     900051  MISS:          0  HIT %:        100  MISS %:          0   MPKI: 0
PSCL4 PREFETCH  REQUESTED:          0  ISSUED:          0  USEFUL:          0  USELESS:          0
PSCL4 USEFUL LOAD PREFETCHES:          0 PREFETCH ISSUED TO LOWER LEVEL:          0  ACCURACY: -nan
PSCL4 TIMELY PREFETCHES:          0 LATE PREFETCHES: 0 DROPPED PREFETCHES: 0
PSCL4 PREFETCHES SAME FILL-ORIGIN LEVEL: 0 DIFFERENT FILL-ORIGIN LEVEL: 0

PSCL3 TOTAL     ACCESS:    5788612  HIT:    5785160  MISS:       3452  HIT %:    99.9404  MISS %:  0.0596343   MPKI: 0.01726
PSCL3 LOAD TRANSLATION ACCESS:    4783380  HIT:    4779928  MISS:       3452  HIT %:    99.9278  MISS %:  0.0721665   MPKI: 0.01726
PSCL3 TRANSLATION FROM L1D PREFETCHER ACCESS:    1005232  HIT:    1005232  MISS:          0  HIT %:        100  MISS %:          0   MPKI: 0
PSCL3 PREFETCH  REQUESTED:          0  ISSUED:          0  USEFUL:          0  USELESS:          0
PSCL3 USEFUL LOAD PREFETCHES:          0 PREFETCH ISSUED TO LOWER LEVEL:          0  ACCURACY: -nan
PSCL3 TIMELY PREFETCHES:          0 LATE PREFETCHES: 0 DROPPED PREFETCHES: 0
PSCL3 PREFETCHES SAME FILL-ORIGIN LEVEL: 0 DIFFERENT FILL-ORIGIN LEVEL: 0

PSCL2 TOTAL     ACCESS:    5803878  HIT:    5397132  MISS:     406746  HIT %:    92.9918  MISS %:    7.00818   MPKI: 2.03373
PSCL2 LOAD TRANSLATION ACCESS:    4818605  HIT:    4411859  MISS:     406746  HIT %:    91.5588  MISS %:    8.44116   MPKI: 2.03373
PSCL2 TRANSLATION FROM L1D PREFETCHER ACCESS:     985273  HIT:     985273  MISS:          0  HIT %:        100  MISS %:          0   MPKI: 0
PSCL2 PREFETCH  REQUESTED:          0  ISSUED:          0  USEFUL:          0  USELESS:          0
PSCL2 USEFUL LOAD PREFETCHES:          0 PREFETCH ISSUED TO LOWER LEVEL:          0  ACCURACY: -nan
PSCL2 TIMELY PREFETCHES:          0 LATE PREFETCHES: 0 DROPPED PREFETCHES: 0
PSCL2 PREFETCHES SAME FILL-ORIGIN LEVEL: 0 DIFFERENT FILL-ORIGIN LEVEL: 0

LLC TOTAL     ACCESS:    2849289  HIT:     992777  MISS:    1856512  HIT %:     34.843  MISS %:     65.157   MPKI: 9.28256
LLC LOAD      ACCESS:     925798  HIT:     309002  MISS:     616796  HIT %:    33.3768  MISS %:    66.6232   MPKI: 3.08398
LLC RFO       ACCESS:     105386  HIT:      28191  MISS:      77195  HIT %:    26.7502  MISS %:    73.2498   MPKI: 0.385975
LLC PREFETCH  ACCESS:    1174522  HIT:     165974  MISS:    1008548  HIT %:    14.1312  MISS %:    85.8688   MPKI: 5.04274
LLC WRITEBACK ACCESS:     409365  HIT:     387134  MISS:      22231  HIT %:    94.5694  MISS %:    5.43061   MPKI: 0.111155
LLC LOAD TRANSLATION ACCESS:     233865  HIT:     102234  MISS:     131631  HIT %:     43.715  MISS %:     56.285   MPKI: 0.658155
LLC TRANSLATION FROM L1D PREFETCHER ACCESS:        353  HIT:        242  MISS:        111  HIT %:    68.5552  MISS %:    31.4448   MPKI: 0.000555
LLC PREFETCH  REQUESTED:          0  ISSUED:          0  USEFUL:      81233  USELESS:    4142435
LLC USEFUL LOAD PREFETCHES:      81233 PREFETCH ISSUED TO LOWER LEVEL:    4226912  ACCURACY: 1.9218
LLC TIMELY PREFETCHES:      81233 LATE PREFETCHES: 0 DROPPED PREFETCHES: 0
LLC PREFETCHES SAME FILL-ORIGIN LEVEL: 0 DIFFERENT FILL-ORIGIN LEVEL: 0
LLC AVERAGE MISS LATENCY: 1119.2 cycles
LLC RQ	ACCESS:    5693746	FORWARD:          0	MERGED:          0	TO_CACHE:    5693741
LLC WQ	ACCESS:    1812007	FORWARD:          5	MERGED:          0	TO_CACHE:    1812007
LLC PQ	ACCESS:    4904892	FORWARD:          0	MERGED:          0	TO_CACHE:    4904892

LLC Dense regions hint to LLC: 0

RAW hits: 1214370
Loads Generated: 26597278
Loads sent to L1D: 25382907
Stores Generated: 7447733
Stores sent to L1D: 7447733
Major fault: 0 Minor fault: 48623
Allocated PAGES: 190112

stream: 
stream:times selected: 5253872
stream:pref_filled: 842239
stream:pref_useful: 109985
stream:pref_late: 40726
stream:misses: 191982
stream:misses_by_poll: 0

CS: 
CS:times selected: 1303084
CS:pref_filled: 464219
CS:pref_useful: 434224
CS:pref_late: 41317
CS:misses: 121610
CS:misses_by_poll: 1302

CPLX: 
CPLX:times selected: 3899380
CPLX:pref_filled: 282087
CPLX:pref_useful: 34150
CPLX:pref_late: 1063
CPLX:misses: 705083
CPLX:misses_by_poll: 849

NL_L1: 
NL:times selected: 29200
NL:pref_filled: 8465
NL:pref_useful: 1789
NL:pref_late: 384
NL:misses: 10571
NL:misses_by_poll: 1

total selections: 10485536
total_filled: 1274265
total_useful: 445061
total_late: 84249
total_polluted: 2152
total_misses_after_warmup: 1112997
conflicts: 2430944
Degree Incremented Times: 300995
Degree Decremented Times: 881578

L1 IP Table Write Accesses: 53942094
L1 IP Table Read Accesses: 51511150
L1 RST Write Accesses: 16397292
L1 RST Read Accesses: 32794584
L1 CSPT Write Accesses: 16397292
L1 CSPT Read Accesses: 28263116
L1 RR Filter Tag Write Accesses: 17667096
L1 RR Filter Tag Read Accesses: 847790376
L1 IP Table Tag Write Accesses: 59324402
L1 IP Table Tag Read Accesses: 59324402
L1 RST Tag Write Accesses: 0
L1 RST Tag Read Accesses: 155082307
L1 RR Filter Write Accesses: 0
L1 RR Filter Read Accesses: 30604686
test: 8759329

stream: 
stream:times selected: 5208010
stream:pref_filled: 810317
stream:pref_useful: 137495
stream:pref_late: 47385
stream:misses: 192785
stream:misses_by_poll: 0

CS: 
CS:times selected: 1409274
CS:pref_filled: 536872
CS:pref_useful: 498548
CS:pref_late: 71855
CS:misses: 247013
CS:misses_by_poll: 1599

CPLX: 
CPLX:times selected: 3743973
CPLX:pref_filled: 258410
CPLX:pref_useful: 35387
CPLX:pref_late: 1706
CPLX:misses: 673830
CPLX:misses_by_poll: 442

NL_L1: 
NL:times selected: 27162
NL:pref_filled: 8243
NL:pref_useful: 2348
NL:pref_late: 466
NL:misses: 8926
NL:misses_by_poll: 0

total selections: 10388419
total_filled: 1268358
total_useful: 501852
total_late: 122440
total_polluted: 2041
total_misses_after_warmup: 1297694
conflicts: 2430944
Degree Incremented Times: 300995
Degree Decremented Times: 881578

L1 IP Table Write Accesses: 53942094
L1 IP Table Read Accesses: 51511150
L1 RST Write Accesses: 16397292
L1 RST Read Accesses: 32794584
L1 CSPT Write Accesses: 16397292
L1 CSPT Read Accesses: 28263116
L1 RR Filter Tag Write Accesses: 17667096
L1 RR Filter Tag Read Accesses: 847790376
L1 IP Table Tag Write Accesses: 59324402
L1 IP Table Tag Read Accesses: 59324402
L1 RST Tag Write Accesses: 0
L1 RST Tag Read Accesses: 155082307
L1 RR Filter Write Accesses: 0
L1 RR Filter Read Accesses: 30604686
test: 8759329

stream: 
stream:times selected: 5167522
stream:pref_filled: 815158
stream:pref_useful: 107293
stream:pref_late: 41046
stream:misses: 189393
stream:misses_by_poll: 0

CS: 
CS:times selected: 1259199
CS:pref_filled: 497079
CS:pref_useful: 464891
CS:pref_late: 53308
CS:misses: 212074
CS:misses_by_poll: 1441

CPLX: 
CPLX:times selected: 3847845
CPLX:pref_filled: 276025
CPLX:pref_useful: 31686
CPLX:pref_late: 887
CPLX:misses: 690531
CPLX:misses_by_poll: 527

NL_L1: 
NL:times selected: 24915
NL:pref_filled: 8512
NL:pref_useful: 1803
NL:pref_late: 361
NL:misses: 6809
NL:misses_by_poll: 0

total selections: 10299481
total_filled: 1284969
total_useful: 468646
total_late: 96601
total_polluted: 1968
total_misses_after_warmup: 1176353
conflicts: 2430944
Degree Incremented Times: 300995
Degree Decremented Times: 881578

L1 IP Table Write Accesses: 53942094
L1 IP Table Read Accesses: 51511150
L1 RST Write Accesses: 16397292
L1 RST Read Accesses: 32794584
L1 CSPT Write Accesses: 16397292
L1 CSPT Read Accesses: 28263116
L1 RR Filter Tag Write Accesses: 17667096
L1 RR Filter Tag Read Accesses: 847790376
L1 IP Table Tag Write Accesses: 59324402
L1 IP Table Tag Read Accesses: 59324402
L1 RST Tag Write Accesses: 0
L1 RST Tag Read Accesses: 155082307
L1 RR Filter Write Accesses: 0
L1 RR Filter Read Accesses: 30604686
test: 8759329

stream: 
stream:times selected: 5382640
stream:pref_filled: 808574
stream:pref_useful: 109657
stream:pref_late: 40213
stream:misses: 185756
stream:misses_by_poll: 0

CS: 
CS:times selected: 1474573
CS:pref_filled: 571222
CS:pref_useful: 540867
CS:pref_late: 81284
CS:misses: 329121
CS:misses_by_poll: 1999

CPLX: 
CPLX:times selected: 3856478
CPLX:pref_filled: 273793
CPLX:pref_useful: 31586
CPLX:pref_late: 932
CPLX:misses: 680515
CPLX:misses_by_poll: 567

NL_L1: 
NL:times selected: 26463
NL:pref_filled: 8122
NL:pref_useful: 1941
NL:pref_late: 359
NL:misses: 10035
NL:misses_by_poll: 0

total selections: 10740154
total_filled: 1345774
total_useful: 534240
total_late: 123970
total_polluted: 2566
total_misses_after_warmup: 1291053
conflicts: 2430944
Degree Incremented Times: 300995
Degree Decremented Times: 881578

L1 IP Table Write Accesses: 53942094
L1 IP Table Read Accesses: 51511150
L1 RST Write Accesses: 16397292
L1 RST Read Accesses: 32794584
L1 CSPT Write Accesses: 16397292
L1 CSPT Read Accesses: 28263116
L1 RR Filter Tag Write Accesses: 17667096
L1 RR Filter Tag Read Accesses: 847790376
L1 IP Table Tag Write Accesses: 59324402
L1 IP Table Tag Read Accesses: 59324402
L1 RST Tag Write Accesses: 0
L1 RST Tag Read Accesses: 155082307
L1 RR Filter Write Accesses: 0
L1 RR Filter Read Accesses: 30604686
test: 8759329

DRAM Statistics
 CHANNEL 0
 RQ ROW_BUFFER_HIT:     471987  ROW_BUFFER_MISS:    7487234
 DBUS_CONGESTED:        112
 WQ ROW_BUFFER_HIT:     125373  ROW_BUFFER_MISS:    1501012  FULL:          0

 AVG_CONGESTED_CYCLE: 5
 All warmup complete: 5
Channel 0 Bank busy for read cycles: 0
Channel 0 Bank busy for write cycles: 0
Channel 0
Rank 0
0banks busy for read cycles: 377599
0banks busy for write cycles: 842
1banks busy for read cycles: 28860563
1banks busy for write cycles: 409882
2banks busy for read cycles: 56541299
2banks busy for write cycles: 416987
3banks busy for read cycles: 71408968
3banks busy for write cycles: 434023
4banks busy for read cycles: 67213795
4banks busy for write cycles: 446082
5banks busy for read cycles: 48482412
5banks busy for write cycles: 503245
6banks busy for read cycles: 27684333
6banks busy for write cycles: 979635
7banks busy for read cycles: 12939205
7banks busy for write cycles: 6695814
8banks busy for read cycles: 6271163
8banks busy for write cycles: 43133336

CPU 0 Branch Prediction Accuracy: 98.8328% MPKI: 1.63268 Average ROB Occupancy at Mispredict: 73.2364
Branch types
NOT_BRANCH: 0 0%
BRANCH_DIRECT_JUMP: 0 0%
BRANCH_INDIRECT: 0 0%
BRANCH_CONDITIONAL: 0 0%
BRANCH_DIRECT_CALL: 0 0%
BRANCH_INDIRECT_CALL: 0 0%
BRANCH_RETURN: 0 0%
BRANCH_OTHER: 0 0%


CPU 1 Branch Prediction Accuracy: 98.8261% MPKI: 1.65896 Average ROB Occupancy at Mispredict: 69.0979
Branch types
NOT_BRANCH: 0 0%
BRANCH_DIRECT_JUMP: 0 0%
BRANCH_INDIRECT: 0 0%
BRANCH_CONDITIONAL: 0 0%
BRANCH_DIRECT_CALL: 0 0%
BRANCH_INDIRECT_CALL: 0 0%
BRANCH_RETURN: 0 0%
BRANCH_OTHER: 0 0%


CPU 2 Branch Prediction Accuracy: 98.9309% MPKI: 1.49205 Average ROB Occupancy at Mispredict: 72.9726
Branch types
NOT_BRANCH: 0 0%
BRANCH_DIRECT_JUMP: 0 0%
BRANCH_INDIRECT: 0 0%
BRANCH_CONDITIONAL: 0 0%
BRANCH_DIRECT_CALL: 0 0%
BRANCH_INDIRECT_CALL: 0 0%
BRANCH_RETURN: 0 0%
BRANCH_OTHER: 0 0%


CPU 3 Branch Prediction Accuracy: 98.9762% MPKI: 1.41956 Average ROB Occupancy at Mispredict: 73.9078
Branch types
NOT_BRANCH: 0 0%
BRANCH_DIRECT_JUMP: 0 0%
BRANCH_INDIRECT: 0 0%
BRANCH_CONDITIONAL: 0 0%
BRANCH_DIRECT_CALL: 0 0%
BRANCH_INDIRECT_CALL: 0 0%
BRANCH_RETURN: 0 0%
BRANCH_OTHER: 0 0%

DRAM PAGES: 1048576
Allocated PAGES: 190112
