
*** ChampSim Multicore Out-of-Order Simulator ***

Warmup Instructions: 50000000
Simulation Instructions: 200000000
Number of CPUs: 4
LLC sets: 8192
LLC ways: 16
Off-chip DRAM Size: 4096 MB Channels: 1 Width: 64-bit Data Rate: 6400 MT/s
CPU 0 runs ./traces/spec/473.astar-42B.champsimtrace.xz
.xz
CPU 1 runs ./traces/spec/473.astar-42B.champsimtrace.xz
.xz
CPU 2 runs ./traces/spec/473.astar-42B.champsimtrace.xz
.xz
CPU 3 runs ./traces/spec/473.astar-42B.champsimtrace.xz
.xz
BTB has LRU replacement policy
ITLB has LRU replacement policy
DTLB has LRU replacement policy
STLB has LRU replacement policy
L1I has LRU replacement policy
IP Table Entries: 1024
CSPT Entries: 128
RR_ENTRIES: 32
RST_ENTRIES: 8
L1D has LRU replacement policy
Initialize SRRIP state for L2C
Initialize DRRIP state for LLC
BTB has LRU replacement policy
ITLB has LRU replacement policy
DTLB has LRU replacement policy
STLB has LRU replacement policy
L1I has LRU replacement policy
IP Table Entries: 1024
CSPT Entries: 128
RR_ENTRIES: 32
RST_ENTRIES: 8
L1D has LRU replacement policy
Initialize SRRIP state for L2C
Initialize DRRIP state for LLC
BTB has LRU replacement policy
ITLB has LRU replacement policy
DTLB has LRU replacement policy
STLB has LRU replacement policy
L1I has LRU replacement policy
IP Table Entries: 1024
CSPT Entries: 128
RR_ENTRIES: 32
RST_ENTRIES: 8
L1D has LRU replacement policy
Initialize SRRIP state for L2C
Initialize DRRIP state for LLC
BTB has LRU replacement policy
ITLB has LRU replacement policy
DTLB has LRU replacement policy
STLB has LRU replacement policy
L1I has LRU replacement policy
IP Table Entries: 1024
CSPT Entries: 128
RR_ENTRIES: 32
RST_ENTRIES: 8
L1D has LRU replacement policy
Initialize SRRIP state for L2C
Initialize DRRIP state for LLC
Heartbeat CPU 0 instructions: 10000001 cycles: 2840702 heartbeat IPC: 3.52026 cumulative IPC: 3.52026 (Simulation time: 0 hr 4 min 5 sec) 
Heartbeat CPU 2 instructions: 10000001 cycles: 2841027 heartbeat IPC: 3.51985 cumulative IPC: 3.51985 (Simulation time: 0 hr 4 min 5 sec) 
Heartbeat CPU 1 instructions: 10000001 cycles: 2841047 heartbeat IPC: 3.51983 cumulative IPC: 3.51983 (Simulation time: 0 hr 4 min 5 sec) 
Heartbeat CPU 3 instructions: 10000001 cycles: 2841087 heartbeat IPC: 3.51978 cumulative IPC: 3.51978 (Simulation time: 0 hr 4 min 5 sec) 
Heartbeat CPU 0 instructions: 20000001 cycles: 5671996 heartbeat IPC: 3.53195 cumulative IPC: 3.5261 (Simulation time: 0 hr 7 min 54 sec) 
Heartbeat CPU 1 instructions: 20000001 cycles: 5672375 heartbeat IPC: 3.53191 cumulative IPC: 3.52586 (Simulation time: 0 hr 7 min 54 sec) 
Heartbeat CPU 3 instructions: 20000002 cycles: 5672522 heartbeat IPC: 3.53178 cumulative IPC: 3.52577 (Simulation time: 0 hr 7 min 54 sec) 
Heartbeat CPU 2 instructions: 20000001 cycles: 5672570 heartbeat IPC: 3.53164 cumulative IPC: 3.52574 (Simulation time: 0 hr 7 min 54 sec) 
Heartbeat CPU 0 instructions: 30000001 cycles: 8504868 heartbeat IPC: 3.52999 cumulative IPC: 3.52739 (Simulation time: 0 hr 12 min 7 sec) 
Heartbeat CPU 1 instructions: 30000001 cycles: 8505269 heartbeat IPC: 3.52996 cumulative IPC: 3.52723 (Simulation time: 0 hr 12 min 7 sec) 
Heartbeat CPU 2 instructions: 30000001 cycles: 8505499 heartbeat IPC: 3.52992 cumulative IPC: 3.52713 (Simulation time: 0 hr 12 min 7 sec) 
Heartbeat CPU 3 instructions: 30000001 cycles: 8505588 heartbeat IPC: 3.52974 cumulative IPC: 3.52709 (Simulation time: 0 hr 12 min 7 sec) 
Heartbeat CPU 0 instructions: 40000000 cycles: 11332585 heartbeat IPC: 3.53642 cumulative IPC: 3.52964 (Simulation time: 0 hr 15 min 55 sec) 
Heartbeat CPU 1 instructions: 40000000 cycles: 11333184 heartbeat IPC: 3.53617 cumulative IPC: 3.52946 (Simulation time: 0 hr 15 min 55 sec) 
Heartbeat CPU 2 instructions: 40000000 cycles: 11333408 heartbeat IPC: 3.53618 cumulative IPC: 3.52939 (Simulation time: 0 hr 15 min 55 sec) 
Heartbeat CPU 3 instructions: 40000000 cycles: 11333600 heartbeat IPC: 3.53605 cumulative IPC: 3.52933 (Simulation time: 0 hr 15 min 55 sec) 
Heartbeat CPU 0 instructions: 50000001 cycles: 14160733 heartbeat IPC: 3.53588 cumulative IPC: 3.53089 (Simulation time: 0 hr 20 min 7 sec) 
Heartbeat CPU 1 instructions: 50000001 cycles: 14161294 heartbeat IPC: 3.53593 cumulative IPC: 3.53075 (Simulation time: 0 hr 20 min 7 sec) 
Heartbeat CPU 2 instructions: 50000001 cycles: 14161737 heartbeat IPC: 3.53566 cumulative IPC: 3.53064 (Simulation time: 0 hr 20 min 7 sec) 
Heartbeat CPU 3 instructions: 50000002 cycles: 14161909 heartbeat IPC: 3.53568 cumulative IPC: 3.5306 (Simulation time: 0 hr 20 min 7 sec) 

Warmup complete CPU 0 instructions: 50002630 cycles: 14161909 (Simulation time: 0 hr 20 min 7 sec) 
Warmup complete CPU 1 instructions: 50001265 cycles: 14161909 (Simulation time: 0 hr 20 min 7 sec) 
Warmup complete CPU 2 instructions: 50000562 cycles: 14161909 (Simulation time: 0 hr 20 min 7 sec) 
Warmup complete CPU 3 instructions: 50000002 cycles: 14161909 (Simulation time: 0 hr 20 min 7 sec) 

Heartbeat CPU 0 instructions: 60000001 cycles: 35908952 heartbeat IPC: 0.459808 cumulative IPC: 0.459712 (Simulation time: 0 hr 23 min 28 sec) 
Heartbeat CPU 1 instructions: 60000001 cycles: 35960835 heartbeat IPC: 0.458725 cumulative IPC: 0.45868 (Simulation time: 0 hr 23 min 28 sec) 
Heartbeat CPU 2 instructions: 60000001 cycles: 35970242 heartbeat IPC: 0.458537 cumulative IPC: 0.458515 (Simulation time: 0 hr 23 min 29 sec) 
Heartbeat CPU 3 instructions: 60000001 cycles: 36027735 heartbeat IPC: 0.457335 cumulative IPC: 0.457335 (Simulation time: 0 hr 23 min 29 sec) 
Heartbeat CPU 0 instructions: 70000002 cycles: 56527778 heartbeat IPC: 0.484994 cumulative IPC: 0.472016 (Simulation time: 0 hr 26 min 29 sec) 
Heartbeat CPU 1 instructions: 70000002 cycles: 56601632 heartbeat IPC: 0.484477 cumulative IPC: 0.471227 (Simulation time: 0 hr 26 min 29 sec) 
Heartbeat CPU 2 instructions: 70000002 cycles: 56642468 heartbeat IPC: 0.483741 cumulative IPC: 0.47079 (Simulation time: 0 hr 26 min 30 sec) 
Heartbeat CPU 3 instructions: 70000002 cycles: 56667297 heartbeat IPC: 0.484506 cumulative IPC: 0.470529 (Simulation time: 0 hr 26 min 30 sec) 
Heartbeat CPU 0 instructions: 80000003 cycles: 78122379 heartbeat IPC: 0.463079 cumulative IPC: 0.468999 (Simulation time: 0 hr 29 min 36 sec) 
Heartbeat CPU 1 instructions: 80000003 cycles: 78130911 heartbeat IPC: 0.464484 cumulative IPC: 0.468957 (Simulation time: 0 hr 29 min 36 sec) 
Heartbeat CPU 2 instructions: 80000003 cycles: 78172995 heartbeat IPC: 0.464457 cumulative IPC: 0.46866 (Simulation time: 0 hr 29 min 36 sec) 
Heartbeat CPU 3 instructions: 80000003 cycles: 78247024 heartbeat IPC: 0.463398 cumulative IPC: 0.468127 (Simulation time: 0 hr 29 min 37 sec) 
Heartbeat CPU 0 instructions: 90000000 cycles: 101388054 heartbeat IPC: 0.429818 cumulative IPC: 0.458548 (Simulation time: 0 hr 32 min 44 sec) 
Heartbeat CPU 1 instructions: 90000000 cycles: 101438356 heartbeat IPC: 0.429047 cumulative IPC: 0.458299 (Simulation time: 0 hr 32 min 44 sec) 
Heartbeat CPU 2 instructions: 90000000 cycles: 101466022 heartbeat IPC: 0.429313 cumulative IPC: 0.458162 (Simulation time: 0 hr 32 min 44 sec) 
Heartbeat CPU 3 instructions: 90000000 cycles: 101489715 heartbeat IPC: 0.430243 cumulative IPC: 0.458044 (Simulation time: 0 hr 32 min 45 sec) 
Heartbeat CPU 0 instructions: 100000000 cycles: 122753012 heartbeat IPC: 0.468056 cumulative IPC: 0.460419 (Simulation time: 0 hr 35 min 46 sec) 
Heartbeat CPU 1 instructions: 100000000 cycles: 122889751 heartbeat IPC: 0.46617 cumulative IPC: 0.459852 (Simulation time: 0 hr 35 min 47 sec) 
Heartbeat CPU 2 instructions: 100000000 cycles: 122933535 heartbeat IPC: 0.46582 cumulative IPC: 0.459674 (Simulation time: 0 hr 35 min 48 sec) 
Heartbeat CPU 3 instructions: 100000000 cycles: 122953189 heartbeat IPC: 0.465908 cumulative IPC: 0.459596 (Simulation time: 0 hr 35 min 48 sec) 
Heartbeat CPU 0 instructions: 110000000 cycles: 144200652 heartbeat IPC: 0.466252 cumulative IPC: 0.461381 (Simulation time: 0 hr 38 min 53 sec) 
Heartbeat CPU 1 instructions: 110000000 cycles: 144352189 heartbeat IPC: 0.46593 cumulative IPC: 0.460854 (Simulation time: 0 hr 38 min 55 sec) 
Heartbeat CPU 2 instructions: 110000000 cycles: 144441012 heartbeat IPC: 0.464955 cumulative IPC: 0.460545 (Simulation time: 0 hr 38 min 55 sec) 
Heartbeat CPU 3 instructions: 110000000 cycles: 144472652 heartbeat IPC: 0.464696 cumulative IPC: 0.460438 (Simulation time: 0 hr 38 min 56 sec) 
Heartbeat CPU 0 instructions: 120000000 cycles: 168160962 heartbeat IPC: 0.417357 cumulative IPC: 0.454531 (Simulation time: 0 hr 42 min 17 sec) 
Heartbeat CPU 1 instructions: 120000000 cycles: 168344493 heartbeat IPC: 0.4168 cumulative IPC: 0.453999 (Simulation time: 0 hr 42 min 18 sec) 
Heartbeat CPU 2 instructions: 120000000 cycles: 168439288 heartbeat IPC: 0.416697 cumulative IPC: 0.453725 (Simulation time: 0 hr 42 min 19 sec) 
Heartbeat CPU 3 instructions: 120000000 cycles: 168483055 heartbeat IPC: 0.416486 cumulative IPC: 0.4536 (Simulation time: 0 hr 42 min 19 sec) 
Heartbeat CPU 0 instructions: 130000001 cycles: 192427220 heartbeat IPC: 0.412095 cumulative IPC: 0.448755 (Simulation time: 0 hr 45 min 35 sec) 
Heartbeat CPU 1 instructions: 130000001 cycles: 192597092 heartbeat IPC: 0.412327 cumulative IPC: 0.448335 (Simulation time: 0 hr 45 min 37 sec) 
Heartbeat CPU 2 instructions: 130000001 cycles: 192695931 heartbeat IPC: 0.412258 cumulative IPC: 0.448091 (Simulation time: 0 hr 45 min 38 sec) 
Heartbeat CPU 3 instructions: 130000001 cycles: 192760275 heartbeat IPC: 0.411909 cumulative IPC: 0.447932 (Simulation time: 0 hr 45 min 39 sec) 
Heartbeat CPU 0 instructions: 140000003 cycles: 213467205 heartbeat IPC: 0.475286 cumulative IPC: 0.451555 (Simulation time: 0 hr 48 min 46 sec) 
Heartbeat CPU 1 instructions: 140000003 cycles: 213702153 heartbeat IPC: 0.47382 cumulative IPC: 0.451031 (Simulation time: 0 hr 48 min 48 sec) 
Heartbeat CPU 2 instructions: 140000003 cycles: 213798814 heartbeat IPC: 0.473869 cumulative IPC: 0.450816 (Simulation time: 0 hr 48 min 49 sec) 
Heartbeat CPU 3 instructions: 140000003 cycles: 213889515 heartbeat IPC: 0.473278 cumulative IPC: 0.450614 (Simulation time: 0 hr 48 min 49 sec) 
Heartbeat CPU 0 instructions: 150000000 cycles: 234422851 heartbeat IPC: 0.477198 cumulative IPC: 0.453995 (Simulation time: 0 hr 51 min 52 sec) 
Heartbeat CPU 1 instructions: 150000000 cycles: 234730319 heartbeat IPC: 0.475552 cumulative IPC: 0.453368 (Simulation time: 0 hr 51 min 55 sec) 
Heartbeat CPU 2 instructions: 150000000 cycles: 234784756 heartbeat IPC: 0.476509 cumulative IPC: 0.45326 (Simulation time: 0 hr 51 min 56 sec) 
Heartbeat CPU 3 instructions: 150000000 cycles: 234908200 heartbeat IPC: 0.475767 cumulative IPC: 0.453009 (Simulation time: 0 hr 51 min 57 sec) 
Heartbeat CPU 0 instructions: 160000003 cycles: 254681062 heartbeat IPC: 0.493627 cumulative IPC: 0.457333 (Simulation time: 0 hr 55 min 10 sec) 
Heartbeat CPU 1 instructions: 160000003 cycles: 254959649 heartbeat IPC: 0.494332 cumulative IPC: 0.45681 (Simulation time: 0 hr 55 min 13 sec) 
Heartbeat CPU 2 instructions: 160000003 cycles: 254983226 heartbeat IPC: 0.495087 cumulative IPC: 0.456768 (Simulation time: 0 hr 55 min 13 sec) 
Heartbeat CPU 3 instructions: 160000003 cycles: 255146993 heartbeat IPC: 0.494101 cumulative IPC: 0.45646 (Simulation time: 0 hr 55 min 14 sec) 
Heartbeat CPU 0 instructions: 170000000 cycles: 276678331 heartbeat IPC: 0.454602 cumulative IPC: 0.457104 (Simulation time: 0 hr 58 min 24 sec) 
Heartbeat CPU 1 instructions: 170000000 cycles: 276933422 heartbeat IPC: 0.455088 cumulative IPC: 0.456666 (Simulation time: 0 hr 58 min 26 sec) 
Heartbeat CPU 2 instructions: 170000000 cycles: 276979164 heartbeat IPC: 0.454629 cumulative IPC: 0.456589 (Simulation time: 0 hr 58 min 26 sec) 
Heartbeat CPU 3 instructions: 170000000 cycles: 277122088 heartbeat IPC: 0.45506 cumulative IPC: 0.456343 (Simulation time: 0 hr 58 min 27 sec) 
Heartbeat CPU 0 instructions: 180000003 cycles: 300107360 heartbeat IPC: 0.426821 cumulative IPC: 0.454623 (Simulation time: 1 hr 1 min 49 sec) 
Heartbeat CPU 1 instructions: 180000001 cycles: 300358941 heartbeat IPC: 0.426885 cumulative IPC: 0.454228 (Simulation time: 1 hr 1 min 51 sec) 
Heartbeat CPU 2 instructions: 180000001 cycles: 300372522 heartbeat IPC: 0.427472 cumulative IPC: 0.454209 (Simulation time: 1 hr 1 min 51 sec) 
Heartbeat CPU 3 instructions: 180000003 cycles: 300514412 heartbeat IPC: 0.427491 cumulative IPC: 0.453986 (Simulation time: 1 hr 1 min 53 sec) 
Heartbeat CPU 0 instructions: 190000000 cycles: 323835689 heartbeat IPC: 0.421437 cumulative IPC: 0.45208 (Simulation time: 1 hr 5 min 28 sec) 
Heartbeat CPU 1 instructions: 190000000 cycles: 324113813 heartbeat IPC: 0.420966 cumulative IPC: 0.451679 (Simulation time: 1 hr 5 min 30 sec) 
Heartbeat CPU 2 instructions: 190000000 cycles: 324130050 heartbeat IPC: 0.420919 cumulative IPC: 0.451658 (Simulation time: 1 hr 5 min 31 sec) 
Heartbeat CPU 3 instructions: 190000000 cycles: 324155520 heartbeat IPC: 0.422992 cumulative IPC: 0.451622 (Simulation time: 1 hr 5 min 31 sec) 
Heartbeat CPU 0 instructions: 200000001 cycles: 346864679 heartbeat IPC: 0.434235 cumulative IPC: 0.450845 (Simulation time: 1 hr 8 min 49 sec) 
Heartbeat CPU 1 instructions: 200000001 cycles: 347150800 heartbeat IPC: 0.434085 cumulative IPC: 0.450462 (Simulation time: 1 hr 8 min 51 sec) 
Heartbeat CPU 2 instructions: 200000001 cycles: 347219574 heartbeat IPC: 0.433097 cumulative IPC: 0.450371 (Simulation time: 1 hr 8 min 52 sec) 
Heartbeat CPU 3 instructions: 200000001 cycles: 347250562 heartbeat IPC: 0.432993 cumulative IPC: 0.450331 (Simulation time: 1 hr 8 min 52 sec) 
Heartbeat CPU 0 instructions: 210000001 cycles: 370898476 heartbeat IPC: 0.416081 cumulative IPC: 0.448503 (Simulation time: 1 hr 12 min 6 sec) 
Heartbeat CPU 1 instructions: 210000001 cycles: 371177753 heartbeat IPC: 0.416199 cumulative IPC: 0.448156 (Simulation time: 1 hr 12 min 9 sec) 
Heartbeat CPU 2 instructions: 210000001 cycles: 371279734 heartbeat IPC: 0.415625 cumulative IPC: 0.44803 (Simulation time: 1 hr 12 min 9 sec) 
Heartbeat CPU 3 instructions: 210000001 cycles: 371392003 heartbeat IPC: 0.414225 cumulative IPC: 0.447891 (Simulation time: 1 hr 12 min 10 sec) 
Heartbeat CPU 0 instructions: 220000000 cycles: 392214035 heartbeat IPC: 0.469141 cumulative IPC: 0.449666 (Simulation time: 1 hr 15 min 2 sec) 
Heartbeat CPU 1 instructions: 220000000 cycles: 392462867 heartbeat IPC: 0.469812 cumulative IPC: 0.449374 (Simulation time: 1 hr 15 min 4 sec) 
Heartbeat CPU 2 instructions: 220000000 cycles: 392550628 heartbeat IPC: 0.470126 cumulative IPC: 0.449272 (Simulation time: 1 hr 15 min 5 sec) 
Heartbeat CPU 3 instructions: 220000000 cycles: 392714605 heartbeat IPC: 0.468986 cumulative IPC: 0.449079 (Simulation time: 1 hr 15 min 6 sec) 
Heartbeat CPU 0 instructions: 230000000 cycles: 413660892 heartbeat IPC: 0.466269 cumulative IPC: 0.450558 (Simulation time: 1 hr 18 min 8 sec) 
Heartbeat CPU 1 instructions: 230000000 cycles: 413902207 heartbeat IPC: 0.466432 cumulative IPC: 0.450289 (Simulation time: 1 hr 18 min 11 sec) 
Heartbeat CPU 2 instructions: 230000000 cycles: 414038102 heartbeat IPC: 0.465387 cumulative IPC: 0.450138 (Simulation time: 1 hr 18 min 12 sec) 
Heartbeat CPU 3 instructions: 230000000 cycles: 414204245 heartbeat IPC: 0.46534 cumulative IPC: 0.449952 (Simulation time: 1 hr 18 min 14 sec) 
Heartbeat CPU 0 instructions: 240000000 cycles: 434509123 heartbeat IPC: 0.479657 cumulative IPC: 0.452001 (Simulation time: 1 hr 21 min 13 sec) 
Heartbeat CPU 1 instructions: 240000000 cycles: 434821540 heartbeat IPC: 0.478027 cumulative IPC: 0.451669 (Simulation time: 1 hr 21 min 15 sec) 
Heartbeat CPU 2 instructions: 240000000 cycles: 434940716 heartbeat IPC: 0.478409 cumulative IPC: 0.451542 (Simulation time: 1 hr 21 min 16 sec) 
Heartbeat CPU 3 instructions: 240000000 cycles: 435138995 heartbeat IPC: 0.477675 cumulative IPC: 0.451331 (Simulation time: 1 hr 21 min 17 sec) 
Heartbeat CPU 0 instructions: 250000003 cycles: 456708581 heartbeat IPC: 0.450462 cumulative IPC: 0.451924 (Simulation time: 1 hr 24 min 24 sec) 
Finished CPU 0 instructions: 200000003 cycles: 442552388 cumulative IPC: 0.451924 (Simulation time: 1 hr 24 min 24 sec) 
Heartbeat CPU 1 instructions: 250000003 cycles: 457049682 heartbeat IPC: 0.44988 cumulative IPC: 0.451579 (Simulation time: 1 hr 24 min 27 sec) 
Finished CPU 1 instructions: 200000000 cycles: 442889685 cumulative IPC: 0.45158 (Simulation time: 1 hr 24 min 27 sec) 
Heartbeat CPU 2 instructions: 250000003 cycles: 457126060 heartbeat IPC: 0.450748 cumulative IPC: 0.451503 (Simulation time: 1 hr 24 min 28 sec) 
Finished CPU 2 instructions: 200000002 cycles: 442964735 cumulative IPC: 0.451503 (Simulation time: 1 hr 24 min 28 sec) 
Heartbeat CPU 3 instructions: 250000003 cycles: 457358681 heartbeat IPC: 0.450051 cumulative IPC: 0.451267 (Simulation time: 1 hr 24 min 30 sec) 
Finished CPU 3 instructions: 200000001 cycles: 443196772 cumulative IPC: 0.451267 (Simulation time: 1 hr 24 min 30 sec) 

ChampSim completed all CPUs

Total Simulation Statistics (not including warmup)

CPU 0 cumulative IPC: 0.451934 instructions: 200295567 cycles: 443196772
ITLB TOTAL     ACCESS:   34534460  HIT:   34534452  MISS:          8  HIT %:        100  MISS %: 2.31653e-05   MPKI: 3.9941e-05
ITLB LOAD      ACCESS:          0  HIT:          0  MISS:          0  HIT %:       -nan  MISS %:       -nan   MPKI: 0
ITLB RFO       ACCESS:          0  HIT:          0  MISS:          0  HIT %:       -nan  MISS %:       -nan   MPKI: 0
ITLB PREFETCH  ACCESS:          0  HIT:          0  MISS:          0  HIT %:       -nan  MISS %:       -nan   MPKI: 0
ITLB WRITEBACK ACCESS:          0  HIT:          0  MISS:          0  HIT %:       -nan  MISS %:       -nan   MPKI: 0
DTLB TOTAL     ACCESS:   42721459  HIT:   37992927  MISS:    4728532  HIT %:    88.9317  MISS %:    11.0683   MPKI: 23.6078
DTLB LOAD      ACCESS:          0  HIT:          0  MISS:          0  HIT %:       -nan  MISS %:       -nan   MPKI: 0
DTLB RFO       ACCESS:          0  HIT:          0  MISS:          0  HIT %:       -nan  MISS %:       -nan   MPKI: 0
DTLB PREFETCH  ACCESS:          0  HIT:          0  MISS:          0  HIT %:       -nan  MISS %:       -nan   MPKI: 0
DTLB WRITEBACK ACCESS:          0  HIT:          0  MISS:          0  HIT %:       -nan  MISS %:       -nan   MPKI: 0
STLB TOTAL     ACCESS:    6385944  HIT:    5319589  MISS:    1066355  HIT %:    83.3015  MISS %:    16.6985   MPKI: 5.32391
STLB LOAD      ACCESS:          0  HIT:          0  MISS:          0  HIT %:       -nan  MISS %:       -nan   MPKI: 0
STLB RFO       ACCESS:          0  HIT:          0  MISS:          0  HIT %:       -nan  MISS %:       -nan   MPKI: 0
STLB PREFETCH  ACCESS:          0  HIT:          0  MISS:          0  HIT %:       -nan  MISS %:       -nan   MPKI: 0
STLB WRITEBACK ACCESS:          0  HIT:          0  MISS:          0  HIT %:       -nan  MISS %:       -nan   MPKI: 0
L1D TOTAL     ACCESS:   48442044  HIT:   41502630  MISS:    6939414  HIT %:    85.6748  MISS %:    14.3252   MPKI: 34.6459
L1D LOAD      ACCESS:   37972740  HIT:   32554725  MISS:    5418015  HIT %:    85.7318  MISS %:    14.2682   MPKI: 27.0501
L1D RFO       ACCESS:    8506860  HIT:    8410955  MISS:      95905  HIT %:    98.8726  MISS %:    1.12738   MPKI: 0.478817
L1D PREFETCH  ACCESS:    1962444  HIT:     536950  MISS:    1425494  HIT %:    27.3613  MISS %:    72.6387   MPKI: 7.11695
L1D WRITEBACK ACCESS:          0  HIT:          0  MISS:          0  HIT %:       -nan  MISS %:       -nan   MPKI: 0
L1I TOTAL     ACCESS:   38003387  HIT:   38003273  MISS:        114  HIT %:    99.9997  MISS %: 0.000299973   MPKI: 0.000569159
L1I LOAD      ACCESS:   38003387  HIT:   38003273  MISS:        114  HIT %:    99.9997  MISS %: 0.000299973   MPKI: 0.000569159
L1I RFO       ACCESS:          0  HIT:          0  MISS:          0  HIT %:       -nan  MISS %:       -nan   MPKI: 0
L1I PREFETCH  ACCESS:          0  HIT:          0  MISS:          0  HIT %:       -nan  MISS %:       -nan   MPKI: 0
L1I WRITEBACK ACCESS:          0  HIT:          0  MISS:          0  HIT %:       -nan  MISS %:       -nan   MPKI: 0
L2C TOTAL     ACCESS:    9933746  HIT:    6936954  MISS:    2996792  HIT %:    69.8322  MISS %:    30.1678   MPKI: 14.9618
L2C LOAD      ACCESS:    5413316  HIT:    3323172  MISS:    2090144  HIT %:    61.3888  MISS %:    38.6112   MPKI: 10.4353
L2C RFO       ACCESS:      95901  HIT:      83134  MISS:      12767  HIT %:    86.6873  MISS %:    13.3127   MPKI: 0.0637408
L2C PREFETCH  ACCESS:    1430143  HIT:     676763  MISS:     753380  HIT %:    47.3214  MISS %:    52.6786   MPKI: 3.76134
L2C WRITEBACK ACCESS:    1928024  HIT:    1824678  MISS:     103346  HIT %:    94.6398  MISS %:     5.3602   MPKI: 0.515967
PSCL5 TOTAL     ACCESS:    1066355  HIT:    1066355  MISS:          0  HIT %:        100  MISS %:          0   MPKI: 0
PSCL5 LOAD      ACCESS:          0  HIT:          0  MISS:          0  HIT %:       -nan  MISS %:       -nan   MPKI: 0
PSCL5 RFO       ACCESS:          0  HIT:          0  MISS:          0  HIT %:       -nan  MISS %:       -nan   MPKI: 0
PSCL5 PREFETCH  ACCESS:          0  HIT:          0  MISS:          0  HIT %:       -nan  MISS %:       -nan   MPKI: 0
PSCL5 WRITEBACK ACCESS:          0  HIT:          0  MISS:          0  HIT %:       -nan  MISS %:       -nan   MPKI: 0
PSCL4 TOTAL     ACCESS:    1066355  HIT:    1066355  MISS:          0  HIT %:        100  MISS %:          0   MPKI: 0
PSCL4 LOAD      ACCESS:          0  HIT:          0  MISS:          0  HIT %:       -nan  MISS %:       -nan   MPKI: 0
PSCL4 RFO       ACCESS:          0  HIT:          0  MISS:          0  HIT %:       -nan  MISS %:       -nan   MPKI: 0
PSCL4 PREFETCH  ACCESS:          0  HIT:          0  MISS:          0  HIT %:       -nan  MISS %:       -nan   MPKI: 0
PSCL4 WRITEBACK ACCESS:          0  HIT:          0  MISS:          0  HIT %:       -nan  MISS %:       -nan   MPKI: 0
PSCL3 TOTAL     ACCESS:    1066355  HIT:    1066355  MISS:          0  HIT %:        100  MISS %:          0   MPKI: 0
PSCL3 LOAD      ACCESS:          0  HIT:          0  MISS:          0  HIT %:       -nan  MISS %:       -nan   MPKI: 0
PSCL3 RFO       ACCESS:          0  HIT:          0  MISS:          0  HIT %:       -nan  MISS %:       -nan   MPKI: 0
PSCL3 PREFETCH  ACCESS:          0  HIT:          0  MISS:          0  HIT %:       -nan  MISS %:       -nan   MPKI: 0
PSCL3 WRITEBACK ACCESS:          0  HIT:          0  MISS:          0  HIT %:       -nan  MISS %:       -nan   MPKI: 0
PSCL2 TOTAL     ACCESS:    1066355  HIT:    1066335  MISS:         20  HIT %:    99.9981  MISS %: 0.00187555   MPKI: 9.98524e-05
PSCL2 LOAD      ACCESS:          0  HIT:          0  MISS:          0  HIT %:       -nan  MISS %:       -nan   MPKI: 0
PSCL2 RFO       ACCESS:          0  HIT:          0  MISS:          0  HIT %:       -nan  MISS %:       -nan   MPKI: 0
PSCL2 PREFETCH  ACCESS:          0  HIT:          0  MISS:          0  HIT %:       -nan  MISS %:       -nan   MPKI: 0
PSCL2 WRITEBACK ACCESS:          0  HIT:          0  MISS:          0  HIT %:       -nan  MISS %:       -nan   MPKI: 0

stream: 
stream:times selected: 3405482
stream:pref_filled: 1228404
stream:pref_useful: 386808
stream:pref_late: 4779
stream:misses: 1653423
stream:misses_by_poll: 0

CS: 
CS:times selected: 521110
CS:pref_filled: 46865
CS:pref_useful: 12501
CS:pref_late: 26
CS:misses: 93316
CS:misses_by_poll: 19

CPLX: 
CPLX:times selected: 3400804
CPLX:pref_filled: 463544
CPLX:pref_useful: 21028
CPLX:pref_late: 413
CPLX:misses: 5394009
CPLX:misses_by_poll: 446

NL_L1: 
NL:times selected: 9852
NL:pref_filled: 4701
NL:pref_useful: 1643
NL:pref_late: 9
NL:misses: 19098
NL:misses_by_poll: 0

total selections: 7337248
total_filled: 1425494
total_useful: 352496
total_late: 6185
total_polluted: 465
total_misses_after_warmup: 5749566
conflicts: 1134
Degree Incremented Times: 0
Degree Decremented Times: 3091577

L1 IP Table Write Accesses: 153096368
L1 IP Table Read Accesses: 153095234
L1 RST Write Accesses: 11074319
L1 RST Read Accesses: 22148638
L1 CSPT Write Accesses: 11074319
L1 CSPT Read Accesses: 22137744
L1 RR Filter Tag Write Accesses: 7959487
L1 RR Filter Tag Read Accesses: 515621539
L1 IP Table Tag Write Accesses: 153096879
L1 IP Table Tag Read Accesses: 153096879
L1 RST Tag Write Accesses: 0
L1 RST Tag Read Accesses: 102705129
L1 RR Filter Write Accesses: 0
L1 RR Filter Read Accesses: 17446889
test: 7362298
LLC TOTAL     ACCESS:    3732409  HIT:    2961214  MISS:     771195  HIT %:    79.3379  MISS %:    20.6621   MPKI: 3.85028
LLC LOAD      ACCESS:    2089736  HIT:    1842154  MISS:     247582  HIT %:    88.1525  MISS %:    11.8475   MPKI: 1.23608
LLC RFO       ACCESS:      12766  HIT:      12120  MISS:        646  HIT %:    94.9397  MISS %:    5.06032   MPKI: 0.00322523
LLC PREFETCH  ACCESS:     753366  HIT:     252237  MISS:     501129  HIT %:    33.4813  MISS %:    66.5187   MPKI: 2.50195
LLC WRITEBACK ACCESS:     839386  HIT:     821510  MISS:      17876  HIT %:    97.8703  MISS %:    2.12965   MPKI: 0.0892481

RAW hits: 734080
Loads Generated: 60705662
Loads sent to L1D: 59971578
Stores Generated: 8517024
Stores sent to L1D: 8517024

CPU 1 cumulative IPC: 0.451584 instructions: 200140618 cycles: 443196772
ITLB TOTAL     ACCESS:   34507472  HIT:   34507464  MISS:          8  HIT %:        100  MISS %: 2.31834e-05   MPKI: 3.99719e-05
ITLB LOAD      ACCESS:          0  HIT:          0  MISS:          0  HIT %:       -nan  MISS %:       -nan   MPKI: 0
ITLB RFO       ACCESS:          0  HIT:          0  MISS:          0  HIT %:       -nan  MISS %:       -nan   MPKI: 0
ITLB PREFETCH  ACCESS:          0  HIT:          0  MISS:          0  HIT %:       -nan  MISS %:       -nan   MPKI: 0
ITLB WRITEBACK ACCESS:          0  HIT:          0  MISS:          0  HIT %:       -nan  MISS %:       -nan   MPKI: 0
DTLB TOTAL     ACCESS:   42688307  HIT:   37963157  MISS:    4725150  HIT %:     88.931  MISS %:     11.069   MPKI: 23.6092
DTLB LOAD      ACCESS:          0  HIT:          0  MISS:          0  HIT %:       -nan  MISS %:       -nan   MPKI: 0
DTLB RFO       ACCESS:          0  HIT:          0  MISS:          0  HIT %:       -nan  MISS %:       -nan   MPKI: 0
DTLB PREFETCH  ACCESS:          0  HIT:          0  MISS:          0  HIT %:       -nan  MISS %:       -nan   MPKI: 0
DTLB WRITEBACK ACCESS:          0  HIT:          0  MISS:          0  HIT %:       -nan  MISS %:       -nan   MPKI: 0
STLB TOTAL     ACCESS:    6379697  HIT:    5314667  MISS:    1065030  HIT %:    83.3059  MISS %:    16.6941   MPKI: 5.32141
STLB LOAD      ACCESS:          0  HIT:          0  MISS:          0  HIT %:       -nan  MISS %:       -nan   MPKI: 0
STLB RFO       ACCESS:          0  HIT:          0  MISS:          0  HIT %:       -nan  MISS %:       -nan   MPKI: 0
STLB PREFETCH  ACCESS:          0  HIT:          0  MISS:          0  HIT %:       -nan  MISS %:       -nan   MPKI: 0
STLB WRITEBACK ACCESS:          0  HIT:          0  MISS:          0  HIT %:       -nan  MISS %:       -nan   MPKI: 0
L1D TOTAL     ACCESS:   48405264  HIT:   41471692  MISS:    6933572  HIT %:     85.676  MISS %:     14.324   MPKI: 34.6435
L1D LOAD      ACCESS:   37945430  HIT:   32530581  MISS:    5414849  HIT %:    85.7299  MISS %:    14.2701   MPKI: 27.0552
L1D RFO       ACCESS:    8500108  HIT:    8404247  MISS:      95861  HIT %:    98.8722  MISS %:    1.12776   MPKI: 0.478968
L1D PREFETCH  ACCESS:    1959726  HIT:     536864  MISS:    1422862  HIT %:    27.3949  MISS %:    72.6051   MPKI: 7.10931
L1D WRITEBACK ACCESS:          0  HIT:          0  MISS:          0  HIT %:       -nan  MISS %:       -nan   MPKI: 0
L1I TOTAL     ACCESS:   37973541  HIT:   37973427  MISS:        114  HIT %:    99.9997  MISS %: 0.000300209   MPKI: 0.0005696
L1I LOAD      ACCESS:   37973541  HIT:   37973427  MISS:        114  HIT %:    99.9997  MISS %: 0.000300209   MPKI: 0.0005696
L1I RFO       ACCESS:          0  HIT:          0  MISS:          0  HIT %:       -nan  MISS %:       -nan   MPKI: 0
L1I PREFETCH  ACCESS:          0  HIT:          0  MISS:          0  HIT %:       -nan  MISS %:       -nan   MPKI: 0
L1I WRITEBACK ACCESS:          0  HIT:          0  MISS:          0  HIT %:       -nan  MISS %:       -nan   MPKI: 0
L2C TOTAL     ACCESS:    9925162  HIT:    6955288  MISS:    2969874  HIT %:    70.0773  MISS %:    29.9227   MPKI: 14.8389
L2C LOAD      ACCESS:    5410042  HIT:    3341029  MISS:    2069013  HIT %:    61.7561  MISS %:    38.2439   MPKI: 10.3378
L2C RFO       ACCESS:      95858  HIT:      81883  MISS:      13975  HIT %:    85.4211  MISS %:    14.5789   MPKI: 0.0698259
L2C PREFETCH  ACCESS:    1427617  HIT:     677261  MISS:     750356  HIT %:      47.44  MISS %:      52.56   MPKI: 3.74914
L2C WRITEBACK ACCESS:    1926608  HIT:    1829690  MISS:      96918  HIT %:    94.9695  MISS %:     5.0305   MPKI: 0.48425
PSCL5 TOTAL     ACCESS:    1065030  HIT:    1065030  MISS:          0  HIT %:        100  MISS %:          0   MPKI: 0
PSCL5 LOAD      ACCESS:          0  HIT:          0  MISS:          0  HIT %:       -nan  MISS %:       -nan   MPKI: 0
PSCL5 RFO       ACCESS:          0  HIT:          0  MISS:          0  HIT %:       -nan  MISS %:       -nan   MPKI: 0
PSCL5 PREFETCH  ACCESS:          0  HIT:          0  MISS:          0  HIT %:       -nan  MISS %:       -nan   MPKI: 0
PSCL5 WRITEBACK ACCESS:          0  HIT:          0  MISS:          0  HIT %:       -nan  MISS %:       -nan   MPKI: 0
PSCL4 TOTAL     ACCESS:    1065030  HIT:    1065030  MISS:          0  HIT %:        100  MISS %:          0   MPKI: 0
PSCL4 LOAD      ACCESS:          0  HIT:          0  MISS:          0  HIT %:       -nan  MISS %:       -nan   MPKI: 0
PSCL4 RFO       ACCESS:          0  HIT:          0  MISS:          0  HIT %:       -nan  MISS %:       -nan   MPKI: 0
PSCL4 PREFETCH  ACCESS:          0  HIT:          0  MISS:          0  HIT %:       -nan  MISS %:       -nan   MPKI: 0
PSCL4 WRITEBACK ACCESS:          0  HIT:          0  MISS:          0  HIT %:       -nan  MISS %:       -nan   MPKI: 0
PSCL3 TOTAL     ACCESS:    1065030  HIT:    1065030  MISS:          0  HIT %:        100  MISS %:          0   MPKI: 0
PSCL3 LOAD      ACCESS:          0  HIT:          0  MISS:          0  HIT %:       -nan  MISS %:       -nan   MPKI: 0
PSCL3 RFO       ACCESS:          0  HIT:          0  MISS:          0  HIT %:       -nan  MISS %:       -nan   MPKI: 0
PSCL3 PREFETCH  ACCESS:          0  HIT:          0  MISS:          0  HIT %:       -nan  MISS %:       -nan   MPKI: 0
PSCL3 WRITEBACK ACCESS:          0  HIT:          0  MISS:          0  HIT %:       -nan  MISS %:       -nan   MPKI: 0
PSCL2 TOTAL     ACCESS:    1065030  HIT:    1065010  MISS:         20  HIT %:    99.9981  MISS %: 0.00187788   MPKI: 9.99297e-05
PSCL2 LOAD      ACCESS:          0  HIT:          0  MISS:          0  HIT %:       -nan  MISS %:       -nan   MPKI: 0
PSCL2 RFO       ACCESS:          0  HIT:          0  MISS:          0  HIT %:       -nan  MISS %:       -nan   MPKI: 0
PSCL2 PREFETCH  ACCESS:          0  HIT:          0  MISS:          0  HIT %:       -nan  MISS %:       -nan   MPKI: 0
PSCL2 WRITEBACK ACCESS:          0  HIT:          0  MISS:          0  HIT %:       -nan  MISS %:       -nan   MPKI: 0

stream: 
stream:times selected: 3403665
stream:pref_filled: 1117631
stream:pref_useful: 351489
stream:pref_late: 4338
stream:misses: 1654532
stream:misses_by_poll: 0

CS: 
CS:times selected: 520550
CS:pref_filled: 41464
CS:pref_useful: 11622
CS:pref_late: 19
CS:misses: 95091
CS:misses_by_poll: 16

CPLX: 
CPLX:times selected: 3397899
CPLX:pref_filled: 433649
CPLX:pref_useful: 19975
CPLX:pref_late: 375
CPLX:misses: 5410366
CPLX:misses_by_poll: 450

NL_L1: 
NL:times selected: 11234
NL:pref_filled: 4544
NL:pref_useful: 1723
NL:pref_late: 14
NL:misses: 20364
NL:misses_by_poll: 1

total selections: 7333348
total_filled: 1422862
total_useful: 351435
total_late: 5603
total_polluted: 467
total_misses_after_warmup: 5744037
conflicts: 1134
Degree Incremented Times: 0
Degree Decremented Times: 3091577

L1 IP Table Write Accesses: 153096368
L1 IP Table Read Accesses: 153095234
L1 RST Write Accesses: 11074319
L1 RST Read Accesses: 22148638
L1 CSPT Write Accesses: 11074319
L1 CSPT Read Accesses: 22137744
L1 RR Filter Tag Write Accesses: 7959487
L1 RR Filter Tag Read Accesses: 515621539
L1 IP Table Tag Write Accesses: 153096879
L1 IP Table Tag Read Accesses: 153096879
L1 RST Tag Write Accesses: 0
L1 RST Tag Read Accesses: 102705129
L1 RR Filter Write Accesses: 0
L1 RR Filter Read Accesses: 17446889
test: 7362298
LLC TOTAL     ACCESS:    3705922  HIT:    2933983  MISS:     771939  HIT %:    79.1701  MISS %:    20.8299   MPKI: 3.85698
LLC LOAD      ACCESS:    2068671  HIT:    1819879  MISS:     248792  HIT %:    87.9733  MISS %:    12.0267   MPKI: 1.24309
LLC RFO       ACCESS:      13975  HIT:      13321  MISS:        654  HIT %:    95.3202  MISS %:    4.67979   MPKI: 0.0032677
LLC PREFETCH  ACCESS:     750340  HIT:     249698  MISS:     500642  HIT %:     33.278  MISS %:     66.722   MPKI: 2.50145
LLC WRITEBACK ACCESS:     833324  HIT:     815110  MISS:      18214  HIT %:    97.8143  MISS %:     2.1857   MPKI: 0.091006

RAW hits: 733583
Loads Generated: 60658916
Loads sent to L1D: 59925332
Stores Generated: 8510461
Stores sent to L1D: 8510461

CPU 2 cumulative IPC: 0.451505 instructions: 200105489 cycles: 443196772
ITLB TOTAL     ACCESS:   34501317  HIT:   34501309  MISS:          8  HIT %:        100  MISS %: 2.31875e-05   MPKI: 3.99789e-05
ITLB LOAD      ACCESS:          0  HIT:          0  MISS:          0  HIT %:       -nan  MISS %:       -nan   MPKI: 0
ITLB RFO       ACCESS:          0  HIT:          0  MISS:          0  HIT %:       -nan  MISS %:       -nan   MPKI: 0
ITLB PREFETCH  ACCESS:          0  HIT:          0  MISS:          0  HIT %:       -nan  MISS %:       -nan   MPKI: 0
ITLB WRITEBACK ACCESS:          0  HIT:          0  MISS:          0  HIT %:       -nan  MISS %:       -nan   MPKI: 0
DTLB TOTAL     ACCESS:   42680679  HIT:   37956203  MISS:    4724476  HIT %:    88.9306  MISS %:    11.0694   MPKI: 23.6099
DTLB LOAD      ACCESS:          0  HIT:          0  MISS:          0  HIT %:       -nan  MISS %:       -nan   MPKI: 0
DTLB RFO       ACCESS:          0  HIT:          0  MISS:          0  HIT %:       -nan  MISS %:       -nan   MPKI: 0
DTLB PREFETCH  ACCESS:          0  HIT:          0  MISS:          0  HIT %:       -nan  MISS %:       -nan   MPKI: 0
DTLB WRITEBACK ACCESS:          0  HIT:          0  MISS:          0  HIT %:       -nan  MISS %:       -nan   MPKI: 0
STLB TOTAL     ACCESS:    6382710  HIT:    5317971  MISS:    1064739  HIT %:    83.3184  MISS %:    16.6816   MPKI: 5.32089
STLB LOAD      ACCESS:          0  HIT:          0  MISS:          0  HIT %:       -nan  MISS %:       -nan   MPKI: 0
STLB RFO       ACCESS:          0  HIT:          0  MISS:          0  HIT %:       -nan  MISS %:       -nan   MPKI: 0
STLB PREFETCH  ACCESS:          0  HIT:          0  MISS:          0  HIT %:       -nan  MISS %:       -nan   MPKI: 0
STLB WRITEBACK ACCESS:          0  HIT:          0  MISS:          0  HIT %:       -nan  MISS %:       -nan   MPKI: 0
L1D TOTAL     ACCESS:   48404517  HIT:   41468478  MISS:    6936039  HIT %:    85.6707  MISS %:    14.3293   MPKI: 34.6619
L1D LOAD      ACCESS:   37940607  HIT:   32527439  MISS:    5413168  HIT %:    85.7325  MISS %:    14.2675   MPKI: 27.0516
L1D RFO       ACCESS:    8498862  HIT:    8402891  MISS:      95971  HIT %:    98.8708  MISS %:    1.12922   MPKI: 0.479602
L1D PREFETCH  ACCESS:    1965048  HIT:     538148  MISS:    1426900  HIT %:     27.386  MISS %:     72.614   MPKI: 7.13074
L1D WRITEBACK ACCESS:          0  HIT:          0  MISS:          0  HIT %:       -nan  MISS %:       -nan   MPKI: 0
L1I TOTAL     ACCESS:   37966773  HIT:   37966659  MISS:        114  HIT %:    99.9997  MISS %: 0.000300263   MPKI: 0.0005697
L1I LOAD      ACCESS:   37966773  HIT:   37966659  MISS:        114  HIT %:    99.9997  MISS %: 0.000300263   MPKI: 0.0005697
L1I RFO       ACCESS:          0  HIT:          0  MISS:          0  HIT %:       -nan  MISS %:       -nan   MPKI: 0
L1I PREFETCH  ACCESS:          0  HIT:          0  MISS:          0  HIT %:       -nan  MISS %:       -nan   MPKI: 0
L1I WRITEBACK ACCESS:          0  HIT:          0  MISS:          0  HIT %:       -nan  MISS %:       -nan   MPKI: 0
L2C TOTAL     ACCESS:    9927176  HIT:    6979275  MISS:    2947901  HIT %:    70.3047  MISS %:    29.6953   MPKI: 14.7317
L2C LOAD      ACCESS:    5408432  HIT:    3356524  MISS:    2051908  HIT %:    62.0609  MISS %:    37.9391   MPKI: 10.2541
L2C RFO       ACCESS:      95966  HIT:      82878  MISS:      13088  HIT %:    86.3618  MISS %:    13.6382   MPKI: 0.0654055
L2C PREFETCH  ACCESS:    1431584  HIT:     680811  MISS:     750773  HIT %:    47.5565  MISS %:    52.4435   MPKI: 3.75189
L2C WRITEBACK ACCESS:    1926448  HIT:    1835027  MISS:      91421  HIT %:    95.2544  MISS %:    4.74557   MPKI: 0.456864
PSCL5 TOTAL     ACCESS:    1064739  HIT:    1064739  MISS:          0  HIT %:        100  MISS %:          0   MPKI: 0
PSCL5 LOAD      ACCESS:          0  HIT:          0  MISS:          0  HIT %:       -nan  MISS %:       -nan   MPKI: 0
PSCL5 RFO       ACCESS:          0  HIT:          0  MISS:          0  HIT %:       -nan  MISS %:       -nan   MPKI: 0
PSCL5 PREFETCH  ACCESS:          0  HIT:          0  MISS:          0  HIT %:       -nan  MISS %:       -nan   MPKI: 0
PSCL5 WRITEBACK ACCESS:          0  HIT:          0  MISS:          0  HIT %:       -nan  MISS %:       -nan   MPKI: 0
PSCL4 TOTAL     ACCESS:    1064739  HIT:    1064739  MISS:          0  HIT %:        100  MISS %:          0   MPKI: 0
PSCL4 LOAD      ACCESS:          0  HIT:          0  MISS:          0  HIT %:       -nan  MISS %:       -nan   MPKI: 0
PSCL4 RFO       ACCESS:          0  HIT:          0  MISS:          0  HIT %:       -nan  MISS %:       -nan   MPKI: 0
PSCL4 PREFETCH  ACCESS:          0  HIT:          0  MISS:          0  HIT %:       -nan  MISS %:       -nan   MPKI: 0
PSCL4 WRITEBACK ACCESS:          0  HIT:          0  MISS:          0  HIT %:       -nan  MISS %:       -nan   MPKI: 0
PSCL3 TOTAL     ACCESS:    1064739  HIT:    1064739  MISS:          0  HIT %:        100  MISS %:          0   MPKI: 0
PSCL3 LOAD      ACCESS:          0  HIT:          0  MISS:          0  HIT %:       -nan  MISS %:       -nan   MPKI: 0
PSCL3 RFO       ACCESS:          0  HIT:          0  MISS:          0  HIT %:       -nan  MISS %:       -nan   MPKI: 0
PSCL3 PREFETCH  ACCESS:          0  HIT:          0  MISS:          0  HIT %:       -nan  MISS %:       -nan   MPKI: 0
PSCL3 WRITEBACK ACCESS:          0  HIT:          0  MISS:          0  HIT %:       -nan  MISS %:       -nan   MPKI: 0
PSCL2 TOTAL     ACCESS:    1064739  HIT:    1064719  MISS:         20  HIT %:    99.9981  MISS %: 0.00187839   MPKI: 9.99473e-05
PSCL2 LOAD      ACCESS:          0  HIT:          0  MISS:          0  HIT %:       -nan  MISS %:       -nan   MPKI: 0
PSCL2 RFO       ACCESS:          0  HIT:          0  MISS:          0  HIT %:       -nan  MISS %:       -nan   MPKI: 0
PSCL2 PREFETCH  ACCESS:          0  HIT:          0  MISS:          0  HIT %:       -nan  MISS %:       -nan   MPKI: 0
PSCL2 WRITEBACK ACCESS:          0  HIT:          0  MISS:          0  HIT %:       -nan  MISS %:       -nan   MPKI: 0

stream: 
stream:times selected: 3403101
stream:pref_filled: 1085601
stream:pref_useful: 342532
stream:pref_late: 4115
stream:misses: 1655581
stream:misses_by_poll: 0

CS: 
CS:times selected: 520561
CS:pref_filled: 40427
CS:pref_useful: 11463
CS:pref_late: 21
CS:misses: 95065
CS:misses_by_poll: 21

CPLX: 
CPLX:times selected: 3397737
CPLX:pref_filled: 420856
CPLX:pref_useful: 19627
CPLX:pref_late: 383
CPLX:misses: 5407547
CPLX:misses_by_poll: 426

NL_L1: 
NL:times selected: 13039
NL:pref_filled: 4575
NL:pref_useful: 1777
NL:pref_late: 16
NL:misses: 23632
NL:misses_by_poll: 0

total selections: 7334438
total_filled: 1426900
total_useful: 352577
total_late: 5357
total_polluted: 447
total_misses_after_warmup: 5740386
conflicts: 1134
Degree Incremented Times: 0
Degree Decremented Times: 3091577

L1 IP Table Write Accesses: 153096368
L1 IP Table Read Accesses: 153095234
L1 RST Write Accesses: 11074319
L1 RST Read Accesses: 22148638
L1 CSPT Write Accesses: 11074319
L1 CSPT Read Accesses: 22137744
L1 RR Filter Tag Write Accesses: 7959487
L1 RR Filter Tag Read Accesses: 515621539
L1 IP Table Tag Write Accesses: 153096879
L1 IP Table Tag Read Accesses: 153096879
L1 RST Tag Write Accesses: 0
L1 RST Tag Read Accesses: 102705129
L1 RR Filter Write Accesses: 0
L1 RR Filter Read Accesses: 17446889
test: 7362298
LLC TOTAL     ACCESS:    3679340  HIT:    2908296  MISS:     771044  HIT %:     79.044  MISS %:     20.956   MPKI: 3.85319
LLC LOAD      ACCESS:    2051550  HIT:    1802793  MISS:     248757  HIT %:    87.8747  MISS %:    12.1253   MPKI: 1.24313
LLC RFO       ACCESS:      13087  HIT:      12442  MISS:        645  HIT %:    95.0714  MISS %:    4.92856   MPKI: 0.0032233
LLC PREFETCH  ACCESS:     750761  HIT:     250657  MISS:     500104  HIT %:    33.3871  MISS %:    66.6129   MPKI: 2.4992
LLC WRITEBACK ACCESS:     823231  HIT:     805331  MISS:      17900  HIT %:    97.8256  MISS %:    2.17436   MPKI: 0.0894528

RAW hits: 733150
Loads Generated: 60648344
Loads sent to L1D: 59915193
Stores Generated: 8508986
Stores sent to L1D: 8508986

CPU 3 cumulative IPC: 0.451267 instructions: 200000001 cycles: 443196772
ITLB TOTAL     ACCESS:   34482821  HIT:   34482813  MISS:          8  HIT %:        100  MISS %:   2.32e-05   MPKI: 4e-05
ITLB LOAD      ACCESS:          0  HIT:          0  MISS:          0  HIT %:       -nan  MISS %:       -nan   MPKI: 0
ITLB RFO       ACCESS:          0  HIT:          0  MISS:          0  HIT %:       -nan  MISS %:       -nan   MPKI: 0
ITLB PREFETCH  ACCESS:          0  HIT:          0  MISS:          0  HIT %:       -nan  MISS %:       -nan   MPKI: 0
ITLB WRITEBACK ACCESS:          0  HIT:          0  MISS:          0  HIT %:       -nan  MISS %:       -nan   MPKI: 0
DTLB TOTAL     ACCESS:   42657747  HIT:   37935542  MISS:    4722205  HIT %:      88.93  MISS %:      11.07   MPKI: 23.611
DTLB LOAD      ACCESS:          0  HIT:          0  MISS:          0  HIT %:       -nan  MISS %:       -nan   MPKI: 0
DTLB RFO       ACCESS:          0  HIT:          0  MISS:          0  HIT %:       -nan  MISS %:       -nan   MPKI: 0
DTLB PREFETCH  ACCESS:          0  HIT:          0  MISS:          0  HIT %:       -nan  MISS %:       -nan   MPKI: 0
DTLB WRITEBACK ACCESS:          0  HIT:          0  MISS:          0  HIT %:       -nan  MISS %:       -nan   MPKI: 0
STLB TOTAL     ACCESS:    6378615  HIT:    5314829  MISS:    1063786  HIT %:    83.3226  MISS %:    16.6774   MPKI: 5.31893
STLB LOAD      ACCESS:          0  HIT:          0  MISS:          0  HIT %:       -nan  MISS %:       -nan   MPKI: 0
STLB RFO       ACCESS:          0  HIT:          0  MISS:          0  HIT %:       -nan  MISS %:       -nan   MPKI: 0
STLB PREFETCH  ACCESS:          0  HIT:          0  MISS:          0  HIT %:       -nan  MISS %:       -nan   MPKI: 0
STLB WRITEBACK ACCESS:          0  HIT:          0  MISS:          0  HIT %:       -nan  MISS %:       -nan   MPKI: 0
L1D TOTAL     ACCESS:   48377043  HIT:   41445210  MISS:    6931833  HIT %:    85.6712  MISS %:    14.3288   MPKI: 34.6592
L1D LOAD      ACCESS:   37920351  HIT:   32509286  MISS:    5411065  HIT %:    85.7304  MISS %:    14.2696   MPKI: 27.0553
L1D RFO       ACCESS:    8494156  HIT:    8398390  MISS:      95766  HIT %:    98.8726  MISS %:    1.12743   MPKI: 0.47883
L1D PREFETCH  ACCESS:    1962536  HIT:     537534  MISS:    1425002  HIT %:    27.3898  MISS %:    72.6102   MPKI: 7.12501
L1D WRITEBACK ACCESS:          0  HIT:          0  MISS:          0  HIT %:       -nan  MISS %:       -nan   MPKI: 0
L1I TOTAL     ACCESS:   37946328  HIT:   37946214  MISS:        114  HIT %:    99.9997  MISS %: 0.000300424   MPKI: 0.00057
L1I LOAD      ACCESS:   37946328  HIT:   37946214  MISS:        114  HIT %:    99.9997  MISS %: 0.000300424   MPKI: 0.00057
L1I RFO       ACCESS:          0  HIT:          0  MISS:          0  HIT %:       -nan  MISS %:       -nan   MPKI: 0
L1I PREFETCH  ACCESS:          0  HIT:          0  MISS:          0  HIT %:       -nan  MISS %:       -nan   MPKI: 0
L1I WRITEBACK ACCESS:          0  HIT:          0  MISS:          0  HIT %:       -nan  MISS %:       -nan   MPKI: 0
L2C TOTAL     ACCESS:    9920983  HIT:    6958620  MISS:    2962363  HIT %:    70.1404  MISS %:    29.8596   MPKI: 14.8118
L2C LOAD      ACCESS:    5406217  HIT:    3342324  MISS:    2063893  HIT %:    61.8237  MISS %:    38.1763   MPKI: 10.3195
L2C RFO       ACCESS:      95762  HIT:      81961  MISS:      13801  HIT %:    85.5882  MISS %:    14.4118   MPKI: 0.069005
L2C PREFETCH  ACCESS:    1429805  HIT:     678568  MISS:     751237  HIT %:    47.4588  MISS %:    52.5412   MPKI: 3.75618
L2C WRITEBACK ACCESS:    1925406  HIT:    1830470  MISS:      94936  HIT %:    95.0693  MISS %:     4.9307   MPKI: 0.47468
PSCL5 TOTAL     ACCESS:    1063786  HIT:    1063786  MISS:          0  HIT %:        100  MISS %:          0   MPKI: 0
PSCL5 LOAD      ACCESS:          0  HIT:          0  MISS:          0  HIT %:       -nan  MISS %:       -nan   MPKI: 0
PSCL5 RFO       ACCESS:          0  HIT:          0  MISS:          0  HIT %:       -nan  MISS %:       -nan   MPKI: 0
PSCL5 PREFETCH  ACCESS:          0  HIT:          0  MISS:          0  HIT %:       -nan  MISS %:       -nan   MPKI: 0
PSCL5 WRITEBACK ACCESS:          0  HIT:          0  MISS:          0  HIT %:       -nan  MISS %:       -nan   MPKI: 0
PSCL4 TOTAL     ACCESS:    1063786  HIT:    1063786  MISS:          0  HIT %:        100  MISS %:          0   MPKI: 0
PSCL4 LOAD      ACCESS:          0  HIT:          0  MISS:          0  HIT %:       -nan  MISS %:       -nan   MPKI: 0
PSCL4 RFO       ACCESS:          0  HIT:          0  MISS:          0  HIT %:       -nan  MISS %:       -nan   MPKI: 0
PSCL4 PREFETCH  ACCESS:          0  HIT:          0  MISS:          0  HIT %:       -nan  MISS %:       -nan   MPKI: 0
PSCL4 WRITEBACK ACCESS:          0  HIT:          0  MISS:          0  HIT %:       -nan  MISS %:       -nan   MPKI: 0
PSCL3 TOTAL     ACCESS:    1063786  HIT:    1063786  MISS:          0  HIT %:        100  MISS %:          0   MPKI: 0
PSCL3 LOAD      ACCESS:          0  HIT:          0  MISS:          0  HIT %:       -nan  MISS %:       -nan   MPKI: 0
PSCL3 RFO       ACCESS:          0  HIT:          0  MISS:          0  HIT %:       -nan  MISS %:       -nan   MPKI: 0
PSCL3 PREFETCH  ACCESS:          0  HIT:          0  MISS:          0  HIT %:       -nan  MISS %:       -nan   MPKI: 0
PSCL3 WRITEBACK ACCESS:          0  HIT:          0  MISS:          0  HIT %:       -nan  MISS %:       -nan   MPKI: 0
PSCL2 TOTAL     ACCESS:    1063786  HIT:    1063766  MISS:         20  HIT %:    99.9981  MISS %: 0.00188008   MPKI: 0.0001
PSCL2 LOAD      ACCESS:          0  HIT:          0  MISS:          0  HIT %:       -nan  MISS %:       -nan   MPKI: 0
PSCL2 RFO       ACCESS:          0  HIT:          0  MISS:          0  HIT %:       -nan  MISS %:       -nan   MPKI: 0
PSCL2 PREFETCH  ACCESS:          0  HIT:          0  MISS:          0  HIT %:       -nan  MISS %:       -nan   MPKI: 0
PSCL2 WRITEBACK ACCESS:          0  HIT:          0  MISS:          0  HIT %:       -nan  MISS %:       -nan   MPKI: 0

stream: 
stream:times selected: 3401677
stream:pref_filled: 1063498
stream:pref_useful: 337131
stream:pref_late: 4050
stream:misses: 1654589
stream:misses_by_poll: 0

CS: 
CS:times selected: 520207
CS:pref_filled: 39228
CS:pref_useful: 10994
CS:pref_late: 21
CS:misses: 95259
CS:misses_by_poll: 16

CPLX: 
CPLX:times selected: 3396035
CPLX:pref_filled: 411383
CPLX:pref_useful: 19056
CPLX:pref_late: 392
CPLX:misses: 5409835
CPLX:misses_by_poll: 424

NL_L1: 
NL:times selected: 11958
NL:pref_filled: 4191
NL:pref_useful: 1629
NL:pref_late: 18
NL:misses: 22005
NL:misses_by_poll: 0

total selections: 7329877
total_filled: 1425002
total_useful: 351657
total_late: 5299
total_polluted: 440
total_misses_after_warmup: 5738236
conflicts: 1134
Degree Incremented Times: 0
Degree Decremented Times: 3091577

L1 IP Table Write Accesses: 153096368
L1 IP Table Read Accesses: 153095234
L1 RST Write Accesses: 11074319
L1 RST Read Accesses: 22148638
L1 CSPT Write Accesses: 11074319
L1 CSPT Read Accesses: 22137744
L1 RR Filter Tag Write Accesses: 7959487
L1 RR Filter Tag Read Accesses: 515621539
L1 IP Table Tag Write Accesses: 153096879
L1 IP Table Tag Read Accesses: 153096879
L1 RST Tag Write Accesses: 0
L1 RST Tag Read Accesses: 102705129
L1 RR Filter Write Accesses: 0
L1 RR Filter Read Accesses: 17446889
test: 7362298
LLC TOTAL     ACCESS:    3697312  HIT:    2925879  MISS:     771433  HIT %:    79.1353  MISS %:    20.8647   MPKI: 3.85716
LLC LOAD      ACCESS:    2063550  HIT:    1813999  MISS:     249551  HIT %:    87.9067  MISS %:    12.0933   MPKI: 1.24775
LLC RFO       ACCESS:      13800  HIT:      13141  MISS:        659  HIT %:    95.2246  MISS %:    4.77536   MPKI: 0.003295
LLC PREFETCH  ACCESS:     751221  HIT:     251849  MISS:     499372  HIT %:    33.5253  MISS %:    66.4747   MPKI: 2.49686
LLC WRITEBACK ACCESS:     830245  HIT:     811999  MISS:      18246  HIT %:    97.8023  MISS %:    2.19766   MPKI: 0.09123

RAW hits: 732994
Loads Generated: 60616556
Loads sent to L1D: 59883562
Stores Generated: 8504451
Stores sent to L1D: 8504456

Region of Interest Statistics

CPU 0 cumulative IPC: 0.451924 instructions: 200000003 cycles: 442552388
ITLB TOTAL     ACCESS:   34482910  HIT:   34482902  MISS:          8  HIT %:        100  MISS %: 2.31999e-05   MPKI: 4e-05
ITLB LOAD TRANSLATION ACCESS:   34482910  HIT:   34482902  MISS:          8  HIT %:        100  MISS %: 2.31999e-05   MPKI: 4e-05
ITLB PREFETCH  REQUESTED:          0  ISSUED:          0  USEFUL:          0  USELESS:          0
ITLB USEFUL LOAD PREFETCHES:          0 PREFETCH ISSUED TO LOWER LEVEL:          0  ACCURACY: -nan
ITLB TIMELY PREFETCHES:          0 LATE PREFETCHES: 0 DROPPED PREFETCHES: 0
ITLB PREFETCHES SAME FILL-ORIGIN LEVEL: 0 DIFFERENT FILL-ORIGIN LEVEL: 0
ITLB AVERAGE MISS LATENCY: 198.75 cycles
ITLB RQ	ACCESS:   38003409	FORWARD:          0	MERGED:    3468947	TO_CACHE:   34534462

DTLB TOTAL     ACCESS:   42658738  HIT:   37936531  MISS:    4722207  HIT %:    88.9303  MISS %:    11.0697   MPKI: 23.611
DTLB LOAD TRANSLATION ACCESS:   42658738  HIT:   37936531  MISS:    4722207  HIT %:    88.9303  MISS %:    11.0697   MPKI: 23.611
DTLB PREFETCH  REQUESTED:          0  ISSUED:          0  USEFUL:          0  USELESS:          0
DTLB USEFUL LOAD PREFETCHES:          0 PREFETCH ISSUED TO LOWER LEVEL:          0  ACCURACY: -nan
DTLB TIMELY PREFETCHES:          0 LATE PREFETCHES: 0 DROPPED PREFETCHES: 0
DTLB PREFETCHES SAME FILL-ORIGIN LEVEL: 0 DIFFERENT FILL-ORIGIN LEVEL: 0
DTLB AVERAGE MISS LATENCY: 14.341 cycles
DTLB RQ	ACCESS:   46818409	FORWARD:          0	MERGED:    4049492	TO_CACHE:   42768917

STLB TOTAL     ACCESS:    6377196  HIT:    5313361  MISS:    1063835  HIT %:    83.3181  MISS %:    16.6819   MPKI: 5.31917
STLB LOAD TRANSLATION ACCESS:    4722215  HIT:    3658737  MISS:    1063478  HIT %:    77.4793  MISS %:    22.5207   MPKI: 5.31739
STLB TRANSLATION FROM L1D PREFETCHER ACCESS:    1654981  HIT:    1654624  MISS:        357  HIT %:    99.9784  MISS %:  0.0215712   MPKI: 0.001785
STLB PREFETCH  REQUESTED:          0  ISSUED:          0  USEFUL:        357  USELESS:          0
STLB USEFUL LOAD PREFETCHES:        357 PREFETCH ISSUED TO LOWER LEVEL:          0  ACCURACY: inf
STLB TIMELY PREFETCHES:        357 LATE PREFETCHES: 0 DROPPED PREFETCHES: 0
STLB PREFETCHES SAME FILL-ORIGIN LEVEL: 0 DIFFERENT FILL-ORIGIN LEVEL: 0
STLB AVERAGE MISS LATENCY: 23.5748 cycles
STLB RQ	ACCESS:    6718372	FORWARD:          0	MERGED:     332428	TO_CACHE:    6385944

STLB Hit, L1D data hit: 0
STLB Hit, L2C data hit: 0
STLB Hit, LLC data hit: 0
STLB Hit, LLC data miss: 0
STLB STLB hints to L2: 0
L1D TOTAL     ACCESS:   48370940  HIT:   41441301  MISS:    6929639  HIT %:     85.674  MISS %:     14.326   MPKI: 34.6482
L1D LOAD      ACCESS:   37917172  HIT:   32506289  MISS:    5410883  HIT %:    85.7297  MISS %:    14.2703   MPKI: 27.0544
L1D RFO       ACCESS:    8494281  HIT:    8398586  MISS:      95695  HIT %:    98.8734  MISS %:    1.12658   MPKI: 0.478475
L1D PREFETCH  ACCESS:    1959487  HIT:     536426  MISS:    1423061  HIT %:    27.3758  MISS %:    72.6242   MPKI: 7.1153
L1D PREFETCH  REQUESTED:    3979665  ISSUED:    3979665  USEFUL:     352496  USELESS:    1073148
L1D USEFUL LOAD PREFETCHES:     352496 PREFETCH ISSUED TO LOWER LEVEL:    1430211  ACCURACY: 24.6464
L1D TIMELY PREFETCHES:     352496 LATE PREFETCHES: 4717 DROPPED PREFETCHES: 0
L1D PREFETCHES SAME FILL-ORIGIN LEVEL: 1430211 DIFFERENT FILL-ORIGIN LEVEL: 0
L1D AVERAGE MISS LATENCY: 46.364 cycles
L1D RQ	ACCESS:   59971578	FORWARD:          0	MERGED:   21650462	TO_CACHE:   38304206
L1D WQ	ACCESS:    8517024	FORWARD:      16911	MERGED:       2821	TO_CACHE:    8514203
L1D PQ	ACCESS:    1989833	FORWARD:          0	MERGED:          0	TO_CACHE:    1989832

L1D UNIQUE REGIONS ACCESSED: 0
L1D REGIONS CONFLICTS: 0
L1D Cross Page Prefetch Requests: 0
L1D Same Page Prefetch Requests: 2452297
L1D ROI Sum of L1D PQ occupancy: 21982165
L1D PREFETCHES PUSHED FROM L2C: 0
L1I TOTAL     ACCESS:   37946446  HIT:   37946332  MISS:        114  HIT %:    99.9997  MISS %: 0.000300423   MPKI: 0.00057
L1I LOAD      ACCESS:   37946446  HIT:   37946332  MISS:        114  HIT %:    99.9997  MISS %: 0.000300423   MPKI: 0.00057
L1I PREFETCH  REQUESTED:          0  ISSUED:          0  USEFUL:          0  USELESS:          0
L1I USEFUL LOAD PREFETCHES:          0 PREFETCH ISSUED TO LOWER LEVEL:          0  ACCURACY: -nan
L1I TIMELY PREFETCHES:          0 LATE PREFETCHES: 0 DROPPED PREFETCHES: 0
L1I PREFETCHES SAME FILL-ORIGIN LEVEL: 0 DIFFERENT FILL-ORIGIN LEVEL: 0
L1I AVERAGE MISS LATENCY: 242.281 cycles
L1I RQ	ACCESS:   58447023	FORWARD:          0	MERGED:   20443614	TO_CACHE:   38003409

BTB TOTAL     ACCESS:   35701406  HIT:   35696818  MISS:       4588  HIT %:    99.9871  MISS %:   0.012851   MPKI: 0.02294
BTB BRANCH_DIRECT_JUMP	ACCESS:      26872  HIT:      26845  MISS:         27
BTB BRANCH_INDIRECT	ACCESS:          0  HIT:          0  MISS:          0
BTB BRANCH_CONDITIONAL	ACCESS:   35665556  HIT:   35665465  MISS:         91
BTB BRANCH_DIRECT_CALL	ACCESS:       4489  HIT:       4469  MISS:         20
BTB BRANCH_INDIRECT_CALL	ACCESS:          0  HIT:          0  MISS:          0
BTB BRANCH_RETURN	ACCESS:       4489  HIT:         39  MISS:       4450
BTB BRANCH_OTHER ACCESS:          0  HIT:          0  MISS:          0

L2C TOTAL     ACCESS:    9918701  HIT:    6926188  MISS:    2992513  HIT %:    69.8296  MISS %:    30.1704   MPKI: 14.9626
L2C LOAD      ACCESS:    5406188  HIT:    3318924  MISS:    2087264  HIT %:    61.3912  MISS %:    38.6088   MPKI: 10.4363
L2C DATA LOAD MPKI: 10.4357
L2C INSTRUCTION LOAD MPKI: 0.00057
L2C RFO       ACCESS:      95691  HIT:      82949  MISS:      12742  HIT %:    86.6842  MISS %:    13.3158   MPKI: 0.06371
L2C PREFETCH  ACCESS:    1427706  HIT:     675520  MISS:     752186  HIT %:    47.3151  MISS %:    52.6849   MPKI: 3.76093
L2C DATA PREFETCH MPKI: 3.76093
L2C INSTRUCTION PREFETCH MPKI: 0
L2C WRITEBACK ACCESS:    1925274  HIT:    1822030  MISS:     103244  HIT %:    94.6374  MISS %:    5.36256   MPKI: 0.51622
L2C LOAD TRANSLATION ACCESS:    1063485  HIT:    1026458  MISS:      37027  HIT %:    96.5183  MISS %:    3.48167   MPKI: 0.185135
L2C TRANSLATION FROM L1D PREFETCHER ACCESS:        357  HIT:        307  MISS:         50  HIT %:    85.9944  MISS %:    14.0056   MPKI: 0.00025
L2C PREFETCH  REQUESTED:          0  ISSUED:          0  USEFUL:     103191  USELESS:     650274
L2C USEFUL LOAD PREFETCHES:     103191 PREFETCH ISSUED TO LOWER LEVEL:     753380  ACCURACY: 13.6971
L2C TIMELY PREFETCHES:     103191 LATE PREFETCHES: 0 DROPPED PREFETCHES: 0
L2C PREFETCHES SAME FILL-ORIGIN LEVEL: 0 DIFFERENT FILL-ORIGIN LEVEL: 0
L2C AVERAGE MISS LATENCY: 77.9412 cycles
L2C RQ	ACCESS:    6575679	FORWARD:          0	MERGED:          0	TO_CACHE:    6575579
L2C WQ	ACCESS:    1928024	FORWARD:        168	MERGED:          0	TO_CACHE:    1928024
L2C PQ	ACCESS:    1430211	FORWARD:          0	MERGED:          0	TO_CACHE:    1430143

L2C Instructions Evicting Data 111
L2C Translations Evicting Data 37013
L2C Data Evicting Data 2820337
L2C Instructions Evicting Instructions 0
L2C Translations Evicting Instructions 0
L2C Data Evicting Instructions 111
L2C Instructions Evicting Translations 3
L2C Translations Evicting Translations 142
L2C Data Evicting Translations 35729
L2C Dense regions hint from L2: 0
PSCL5 TOTAL     ACCESS:    1063835  HIT:    1063835  MISS:          0  HIT %:        100  MISS %:          0   MPKI: 0
PSCL5 LOAD TRANSLATION ACCESS:    1063478  HIT:    1063478  MISS:          0  HIT %:        100  MISS %:          0   MPKI: 0
PSCL5 TRANSLATION FROM L1D PREFETCHER ACCESS:        357  HIT:        357  MISS:          0  HIT %:        100  MISS %:          0   MPKI: 0
PSCL5 PREFETCH  REQUESTED:          0  ISSUED:          0  USEFUL:          0  USELESS:          0
PSCL5 USEFUL LOAD PREFETCHES:          0 PREFETCH ISSUED TO LOWER LEVEL:          0  ACCURACY: -nan
PSCL5 TIMELY PREFETCHES:          0 LATE PREFETCHES: 0 DROPPED PREFETCHES: 0
PSCL5 PREFETCHES SAME FILL-ORIGIN LEVEL: 0 DIFFERENT FILL-ORIGIN LEVEL: 0

PSCL4 TOTAL     ACCESS:    1063835  HIT:    1063835  MISS:          0  HIT %:        100  MISS %:          0   MPKI: 0
PSCL4 LOAD TRANSLATION ACCESS:    1063478  HIT:    1063478  MISS:          0  HIT %:        100  MISS %:          0   MPKI: 0
PSCL4 TRANSLATION FROM L1D PREFETCHER ACCESS:        357  HIT:        357  MISS:          0  HIT %:        100  MISS %:          0   MPKI: 0
PSCL4 PREFETCH  REQUESTED:          0  ISSUED:          0  USEFUL:          0  USELESS:          0
PSCL4 USEFUL LOAD PREFETCHES:          0 PREFETCH ISSUED TO LOWER LEVEL:          0  ACCURACY: -nan
PSCL4 TIMELY PREFETCHES:          0 LATE PREFETCHES: 0 DROPPED PREFETCHES: 0
PSCL4 PREFETCHES SAME FILL-ORIGIN LEVEL: 0 DIFFERENT FILL-ORIGIN LEVEL: 0

PSCL3 TOTAL     ACCESS:    1063835  HIT:    1063835  MISS:          0  HIT %:        100  MISS %:          0   MPKI: 0
PSCL3 LOAD TRANSLATION ACCESS:    1063478  HIT:    1063478  MISS:          0  HIT %:        100  MISS %:          0   MPKI: 0
PSCL3 TRANSLATION FROM L1D PREFETCHER ACCESS:        357  HIT:        357  MISS:          0  HIT %:        100  MISS %:          0   MPKI: 0
PSCL3 PREFETCH  REQUESTED:          0  ISSUED:          0  USEFUL:          0  USELESS:          0
PSCL3 USEFUL LOAD PREFETCHES:          0 PREFETCH ISSUED TO LOWER LEVEL:          0  ACCURACY: -nan
PSCL3 TIMELY PREFETCHES:          0 LATE PREFETCHES: 0 DROPPED PREFETCHES: 0
PSCL3 PREFETCHES SAME FILL-ORIGIN LEVEL: 0 DIFFERENT FILL-ORIGIN LEVEL: 0

PSCL2 TOTAL     ACCESS:    1063835  HIT:    1063815  MISS:         20  HIT %:    99.9981  MISS %: 0.00187999   MPKI: 0.0001
PSCL2 LOAD TRANSLATION ACCESS:    1063478  HIT:    1063458  MISS:         20  HIT %:    99.9981  MISS %: 0.00188062   MPKI: 0.0001
PSCL2 TRANSLATION FROM L1D PREFETCHER ACCESS:        357  HIT:        357  MISS:          0  HIT %:        100  MISS %:          0   MPKI: 0
PSCL2 PREFETCH  REQUESTED:          0  ISSUED:          0  USEFUL:          0  USELESS:          0
PSCL2 USEFUL LOAD PREFETCHES:          0 PREFETCH ISSUED TO LOWER LEVEL:          0  ACCURACY: -nan
PSCL2 TIMELY PREFETCHES:          0 LATE PREFETCHES: 0 DROPPED PREFETCHES: 0
PSCL2 PREFETCHES SAME FILL-ORIGIN LEVEL: 0 DIFFERENT FILL-ORIGIN LEVEL: 0

LLC TOTAL     ACCESS:    3726965  HIT:    2956785  MISS:     770180  HIT %:    79.3349  MISS %:    20.6651   MPKI: 3.8509
LLC LOAD      ACCESS:    2086857  HIT:    1839514  MISS:     247343  HIT %:    88.1476  MISS %:    11.8524   MPKI: 1.23671
LLC RFO       ACCESS:      12741  HIT:      12095  MISS:        646  HIT %:    94.9298  MISS %:    5.07025   MPKI: 0.00323
LLC PREFETCH  ACCESS:     752172  HIT:     251801  MISS:     500371  HIT %:    33.4765  MISS %:    66.5235   MPKI: 2.50185
LLC WRITEBACK ACCESS:     838118  HIT:     820255  MISS:      17863  HIT %:    97.8687  MISS %:    2.13132   MPKI: 0.089315
LLC LOAD TRANSLATION ACCESS:      37027  HIT:      33072  MISS:       3955  HIT %:    89.3186  MISS %:    10.6814   MPKI: 0.019775
LLC TRANSLATION FROM L1D PREFETCHER ACCESS:         50  HIT:         48  MISS:          2  HIT %:         96  MISS %:          4   MPKI: 1e-05
LLC PREFETCH  REQUESTED:          0  ISSUED:          0  USEFUL:     483190  USELESS:    1504197
LLC USEFUL LOAD PREFETCHES:     483190 PREFETCH ISSUED TO LOWER LEVEL:    2001247  ACCURACY: 24.1444
LLC TIMELY PREFETCHES:     483190 LATE PREFETCHES: 0 DROPPED PREFETCHES: 0
LLC PREFETCHES SAME FILL-ORIGIN LEVEL: 0 DIFFERENT FILL-ORIGIN LEVEL: 0
LLC AVERAGE MISS LATENCY: 763.189 cycles
LLC RQ	ACCESS:    8484562	FORWARD:          0	MERGED:          0	TO_CACHE:    8483108
LLC WQ	ACCESS:    3326187	FORWARD:       1512	MERGED:          0	TO_CACHE:    3326187
LLC PQ	ACCESS:    3005746	FORWARD:          0	MERGED:          0	TO_CACHE:    3005688

LLC Dense regions hint to LLC: 0

RAW hits: 733163
Loads Generated: 60616559
Loads sent to L1D: 59883396
Stores Generated: 8504427
Stores sent to L1D: 8504424
Major fault: 0 Minor fault: 5974
Allocated PAGES: 23896

CPU 1 cumulative IPC: 0.45158 instructions: 200000000 cycles: 442889685
ITLB TOTAL     ACCESS:   34482883  HIT:   34482875  MISS:          8  HIT %:        100  MISS %: 2.31999e-05   MPKI: 4e-05
ITLB LOAD TRANSLATION ACCESS:   34482883  HIT:   34482875  MISS:          8  HIT %:        100  MISS %: 2.31999e-05   MPKI: 4e-05
ITLB PREFETCH  REQUESTED:          0  ISSUED:          0  USEFUL:          0  USELESS:          0
ITLB USEFUL LOAD PREFETCHES:          0 PREFETCH ISSUED TO LOWER LEVEL:          0  ACCURACY: -nan
ITLB TIMELY PREFETCHES:          0 LATE PREFETCHES: 0 DROPPED PREFETCHES: 0
ITLB PREFETCHES SAME FILL-ORIGIN LEVEL: 0 DIFFERENT FILL-ORIGIN LEVEL: 0
ITLB AVERAGE MISS LATENCY: 198.75 cycles
ITLB RQ	ACCESS:   37973563	FORWARD:          0	MERGED:    3466090	TO_CACHE:   34507473

DTLB TOTAL     ACCESS:   42658449  HIT:   37936234  MISS:    4722215  HIT %:    88.9302  MISS %:    11.0698   MPKI: 23.6111
DTLB LOAD TRANSLATION ACCESS:   42658449  HIT:   37936234  MISS:    4722215  HIT %:    88.9302  MISS %:    11.0698   MPKI: 23.6111
DTLB PREFETCH  REQUESTED:          0  ISSUED:          0  USEFUL:          0  USELESS:          0
DTLB USEFUL LOAD PREFETCHES:          0 PREFETCH ISSUED TO LOWER LEVEL:          0  ACCURACY: -nan
DTLB TIMELY PREFETCHES:          0 LATE PREFETCHES: 0 DROPPED PREFETCHES: 0
DTLB PREFETCHES SAME FILL-ORIGIN LEVEL: 0 DIFFERENT FILL-ORIGIN LEVEL: 0
DTLB AVERAGE MISS LATENCY: 14.335 cycles
DTLB RQ	ACCESS:   46782223	FORWARD:          0	MERGED:    4046524	TO_CACHE:   42735699

STLB TOTAL     ACCESS:    6375565  HIT:    5311749  MISS:    1063816  HIT %:    83.3142  MISS %:    16.6858   MPKI: 5.31908
STLB LOAD TRANSLATION ACCESS:    4722223  HIT:    3658764  MISS:    1063459  HIT %:    77.4797  MISS %:    22.5203   MPKI: 5.31729
STLB TRANSLATION FROM L1D PREFETCHER ACCESS:    1653342  HIT:    1652985  MISS:        357  HIT %:    99.9784  MISS %:  0.0215926   MPKI: 0.001785
STLB PREFETCH  REQUESTED:          0  ISSUED:          0  USEFUL:        357  USELESS:          0
STLB USEFUL LOAD PREFETCHES:        357 PREFETCH ISSUED TO LOWER LEVEL:          0  ACCURACY: inf
STLB TIMELY PREFETCHES:        357 LATE PREFETCHES: 0 DROPPED PREFETCHES: 0
STLB PREFETCHES SAME FILL-ORIGIN LEVEL: 0 DIFFERENT FILL-ORIGIN LEVEL: 0
STLB AVERAGE MISS LATENCY: 23.578 cycles
STLB RQ	ACCESS:    6712375	FORWARD:          0	MERGED:     332678	TO_CACHE:    6379697

STLB Hit, L1D data hit: 0
STLB Hit, L2C data hit: 0
STLB Hit, LLC data hit: 0
STLB Hit, LLC data miss: 0
STLB STLB hints to L2: 0
L1D TOTAL     ACCESS:   48371368  HIT:   41442453  MISS:    6928915  HIT %:    85.6756  MISS %:    14.3244   MPKI: 34.6446
L1D LOAD      ACCESS:   37918953  HIT:   32507482  MISS:    5411471  HIT %:    85.7288  MISS %:    14.2712   MPKI: 27.0574
L1D RFO       ACCESS:    8494123  HIT:    8398362  MISS:      95761  HIT %:    98.8726  MISS %:    1.12738   MPKI: 0.478805
L1D PREFETCH  ACCESS:    1958292  HIT:     536609  MISS:    1421683  HIT %:    27.4019  MISS %:    72.5981   MPKI: 7.10841
L1D PREFETCH  REQUESTED:    3974434  ISSUED:    3974434  USEFUL:     351435  USELESS:    1071557
L1D USEFUL LOAD PREFETCHES:     351435 PREFETCH ISSUED TO LOWER LEVEL:    1427683  ACCURACY: 24.6158
L1D TIMELY PREFETCHES:     351435 LATE PREFETCHES: 4821 DROPPED PREFETCHES: 0
L1D PREFETCHES SAME FILL-ORIGIN LEVEL: 1427683 DIFFERENT FILL-ORIGIN LEVEL: 0
L1D AVERAGE MISS LATENCY: 46.3514 cycles
L1D RQ	ACCESS:   59925332	FORWARD:          0	MERGED:   21633758	TO_CACHE:   38274583
L1D WQ	ACCESS:    8510461	FORWARD:      16991	MERGED:       2821	TO_CACHE:    8507640
L1D PQ	ACCESS:    1987217	FORWARD:          0	MERGED:          0	TO_CACHE:    1987217

L1D UNIQUE REGIONS ACCESSED: 0
L1D REGIONS CONFLICTS: 0
L1D Cross Page Prefetch Requests: 0
L1D Same Page Prefetch Requests: 2257144
L1D ROI Sum of L1D PQ occupancy: 21955116
L1D PREFETCHES PUSHED FROM L2C: 0
L1I TOTAL     ACCESS:   37946403  HIT:   37946289  MISS:        114  HIT %:    99.9997  MISS %: 0.000300424   MPKI: 0.00057
L1I LOAD      ACCESS:   37946403  HIT:   37946289  MISS:        114  HIT %:    99.9997  MISS %: 0.000300424   MPKI: 0.00057
L1I PREFETCH  REQUESTED:          0  ISSUED:          0  USEFUL:          0  USELESS:          0
L1I USEFUL LOAD PREFETCHES:          0 PREFETCH ISSUED TO LOWER LEVEL:          0  ACCURACY: -nan
L1I TIMELY PREFETCHES:          0 LATE PREFETCHES: 0 DROPPED PREFETCHES: 0
L1I PREFETCHES SAME FILL-ORIGIN LEVEL: 0 DIFFERENT FILL-ORIGIN LEVEL: 0
L1I AVERAGE MISS LATENCY: 236.43 cycles
L1I RQ	ACCESS:   58401691	FORWARD:          0	MERGED:   20428128	TO_CACHE:   37973563

BTB TOTAL     ACCESS:   35701366  HIT:   35696778  MISS:       4588  HIT %:    99.9871  MISS %:   0.012851   MPKI: 0.02294
BTB BRANCH_DIRECT_JUMP	ACCESS:      26872  HIT:      26845  MISS:         27
BTB BRANCH_INDIRECT	ACCESS:          0  HIT:          0  MISS:          0
BTB BRANCH_CONDITIONAL	ACCESS:   35665516  HIT:   35665425  MISS:         91
BTB BRANCH_DIRECT_CALL	ACCESS:       4489  HIT:       4469  MISS:         20
BTB BRANCH_INDIRECT_CALL	ACCESS:          0  HIT:          0  MISS:          0
BTB BRANCH_RETURN	ACCESS:       4489  HIT:         39  MISS:       4450
BTB BRANCH_OTHER ACCESS:          0  HIT:          0  MISS:          0

L2C TOTAL     ACCESS:    9917986  HIT:    6950030  MISS:    2967956  HIT %:     70.075  MISS %:     29.925   MPKI: 14.8398
L2C LOAD      ACCESS:    5406666  HIT:    3338886  MISS:    2067780  HIT %:     61.755  MISS %:     38.245   MPKI: 10.3389
L2C DATA LOAD MPKI: 10.3383
L2C INSTRUCTION LOAD MPKI: 0.00057
L2C RFO       ACCESS:      95758  HIT:      81798  MISS:      13960  HIT %:    85.4216  MISS %:    14.5784   MPKI: 0.0698
L2C PREFETCH  ACCESS:    1426436  HIT:     676661  MISS:     749775  HIT %:    47.4372  MISS %:    52.5628   MPKI: 3.74887
L2C DATA PREFETCH MPKI: 3.74887
L2C INSTRUCTION PREFETCH MPKI: 0
L2C WRITEBACK ACCESS:    1925303  HIT:    1828434  MISS:      96869  HIT %:    94.9686  MISS %:    5.03136   MPKI: 0.484345
L2C LOAD TRANSLATION ACCESS:    1063466  HIT:    1023960  MISS:      39506  HIT %:    96.2852  MISS %:    3.71483   MPKI: 0.19753
L2C TRANSLATION FROM L1D PREFETCHER ACCESS:        357  HIT:        291  MISS:         66  HIT %:    81.5126  MISS %:    18.4874   MPKI: 0.00033
L2C PREFETCH  REQUESTED:          0  ISSUED:          0  USEFUL:     103378  USELESS:     647013
L2C USEFUL LOAD PREFETCHES:     103378 PREFETCH ISSUED TO LOWER LEVEL:     750356  ACCURACY: 13.7772
L2C TIMELY PREFETCHES:     103378 LATE PREFETCHES: 0 DROPPED PREFETCHES: 0
L2C PREFETCHES SAME FILL-ORIGIN LEVEL: 0 DIFFERENT FILL-ORIGIN LEVEL: 0
L2C AVERAGE MISS LATENCY: 78.5766 cycles
L2C RQ	ACCESS:    6571040	FORWARD:          0	MERGED:          0	TO_CACHE:    6570937
L2C WQ	ACCESS:    1926608	FORWARD:        169	MERGED:          0	TO_CACHE:    1926608
L2C PQ	ACCESS:    1427683	FORWARD:          0	MERGED:          0	TO_CACHE:    1427617

L2C Instructions Evicting Data 109
L2C Translations Evicting Data 39383
L2C Data Evicting Data 2795082
L2C Instructions Evicting Instructions 0
L2C Translations Evicting Instructions 9
L2C Data Evicting Instructions 104
L2C Instructions Evicting Translations 5
L2C Translations Evicting Translations 220
L2C Data Evicting Translations 38044
L2C Dense regions hint from L2: 0
PSCL5 TOTAL     ACCESS:    1063816  HIT:    1063816  MISS:          0  HIT %:        100  MISS %:          0   MPKI: 0
PSCL5 LOAD TRANSLATION ACCESS:    1063459  HIT:    1063459  MISS:          0  HIT %:        100  MISS %:          0   MPKI: 0
PSCL5 TRANSLATION FROM L1D PREFETCHER ACCESS:        357  HIT:        357  MISS:          0  HIT %:        100  MISS %:          0   MPKI: 0
PSCL5 PREFETCH  REQUESTED:          0  ISSUED:          0  USEFUL:          0  USELESS:          0
PSCL5 USEFUL LOAD PREFETCHES:          0 PREFETCH ISSUED TO LOWER LEVEL:          0  ACCURACY: -nan
PSCL5 TIMELY PREFETCHES:          0 LATE PREFETCHES: 0 DROPPED PREFETCHES: 0
PSCL5 PREFETCHES SAME FILL-ORIGIN LEVEL: 0 DIFFERENT FILL-ORIGIN LEVEL: 0

PSCL4 TOTAL     ACCESS:    1063816  HIT:    1063816  MISS:          0  HIT %:        100  MISS %:          0   MPKI: 0
PSCL4 LOAD TRANSLATION ACCESS:    1063459  HIT:    1063459  MISS:          0  HIT %:        100  MISS %:          0   MPKI: 0
PSCL4 TRANSLATION FROM L1D PREFETCHER ACCESS:        357  HIT:        357  MISS:          0  HIT %:        100  MISS %:          0   MPKI: 0
PSCL4 PREFETCH  REQUESTED:          0  ISSUED:          0  USEFUL:          0  USELESS:          0
PSCL4 USEFUL LOAD PREFETCHES:          0 PREFETCH ISSUED TO LOWER LEVEL:          0  ACCURACY: -nan
PSCL4 TIMELY PREFETCHES:          0 LATE PREFETCHES: 0 DROPPED PREFETCHES: 0
PSCL4 PREFETCHES SAME FILL-ORIGIN LEVEL: 0 DIFFERENT FILL-ORIGIN LEVEL: 0

PSCL3 TOTAL     ACCESS:    1063816  HIT:    1063816  MISS:          0  HIT %:        100  MISS %:          0   MPKI: 0
PSCL3 LOAD TRANSLATION ACCESS:    1063459  HIT:    1063459  MISS:          0  HIT %:        100  MISS %:          0   MPKI: 0
PSCL3 TRANSLATION FROM L1D PREFETCHER ACCESS:        357  HIT:        357  MISS:          0  HIT %:        100  MISS %:          0   MPKI: 0
PSCL3 PREFETCH  REQUESTED:          0  ISSUED:          0  USEFUL:          0  USELESS:          0
PSCL3 USEFUL LOAD PREFETCHES:          0 PREFETCH ISSUED TO LOWER LEVEL:          0  ACCURACY: -nan
PSCL3 TIMELY PREFETCHES:          0 LATE PREFETCHES: 0 DROPPED PREFETCHES: 0
PSCL3 PREFETCHES SAME FILL-ORIGIN LEVEL: 0 DIFFERENT FILL-ORIGIN LEVEL: 0

PSCL2 TOTAL     ACCESS:    1063816  HIT:    1063796  MISS:         20  HIT %:    99.9981  MISS %: 0.00188002   MPKI: 0.0001
PSCL2 LOAD TRANSLATION ACCESS:    1063459  HIT:    1063439  MISS:         20  HIT %:    99.9981  MISS %: 0.00188066   MPKI: 0.0001
PSCL2 TRANSLATION FROM L1D PREFETCHER ACCESS:        357  HIT:        357  MISS:          0  HIT %:        100  MISS %:          0   MPKI: 0
PSCL2 PREFETCH  REQUESTED:          0  ISSUED:          0  USEFUL:          0  USELESS:          0
PSCL2 USEFUL LOAD PREFETCHES:          0 PREFETCH ISSUED TO LOWER LEVEL:          0  ACCURACY: -nan
PSCL2 TIMELY PREFETCHES:          0 LATE PREFETCHES: 0 DROPPED PREFETCHES: 0
PSCL2 PREFETCHES SAME FILL-ORIGIN LEVEL: 0 DIFFERENT FILL-ORIGIN LEVEL: 0

LLC TOTAL     ACCESS:    3703507  HIT:    2932063  MISS:     771444  HIT %:    79.1699  MISS %:    20.8301   MPKI: 3.85722
LLC LOAD      ACCESS:    2067439  HIT:    1818767  MISS:     248672  HIT %:     87.972  MISS %:     12.028   MPKI: 1.24336
LLC RFO       ACCESS:      13960  HIT:      13306  MISS:        654  HIT %:    95.3152  MISS %:    4.68481   MPKI: 0.00327
LLC PREFETCH  ACCESS:     749759  HIT:     249482  MISS:     500277  HIT %:     33.275  MISS %:     66.725   MPKI: 2.50138
LLC WRITEBACK ACCESS:     832777  HIT:     814571  MISS:      18206  HIT %:    97.8138  MISS %:    2.18618   MPKI: 0.09103
LLC LOAD TRANSLATION ACCESS:      39506  HIT:      35874  MISS:       3632  HIT %:    90.8065  MISS %:    9.19354   MPKI: 0.01816
LLC TRANSLATION FROM L1D PREFETCHER ACCESS:         66  HIT:         63  MISS:          3  HIT %:    95.4545  MISS %:    4.54545   MPKI: 1.5e-05
LLC PREFETCH  REQUESTED:          0  ISSUED:          0  USEFUL:     483190  USELESS:    1504197
LLC USEFUL LOAD PREFETCHES:     483190 PREFETCH ISSUED TO LOWER LEVEL:    2001247  ACCURACY: 24.1444
LLC TIMELY PREFETCHES:     483190 LATE PREFETCHES: 0 DROPPED PREFETCHES: 0
LLC PREFETCHES SAME FILL-ORIGIN LEVEL: 0 DIFFERENT FILL-ORIGIN LEVEL: 0
LLC AVERAGE MISS LATENCY: 761.938 cycles
LLC RQ	ACCESS:    8484562	FORWARD:          0	MERGED:          0	TO_CACHE:    8483108
LLC WQ	ACCESS:    3326187	FORWARD:       1512	MERGED:          0	TO_CACHE:    3326187
LLC PQ	ACCESS:    3005746	FORWARD:          0	MERGED:          0	TO_CACHE:    3005688

LLC Dense regions hint to LLC: 0

RAW hits: 733152
Loads Generated: 60616545
Loads sent to L1D: 59883393
Stores Generated: 8504463
Stores sent to L1D: 8504463
Major fault: 0 Minor fault: 5974
Allocated PAGES: 23896

CPU 2 cumulative IPC: 0.451503 instructions: 200000002 cycles: 442964735
ITLB TOTAL     ACCESS:   34482935  HIT:   34482927  MISS:          8  HIT %:        100  MISS %: 2.31999e-05   MPKI: 4e-05
ITLB LOAD TRANSLATION ACCESS:   34482935  HIT:   34482927  MISS:          8  HIT %:        100  MISS %: 2.31999e-05   MPKI: 4e-05
ITLB PREFETCH  REQUESTED:          0  ISSUED:          0  USEFUL:          0  USELESS:          0
ITLB USEFUL LOAD PREFETCHES:          0 PREFETCH ISSUED TO LOWER LEVEL:          0  ACCURACY: -nan
ITLB TIMELY PREFETCHES:          0 LATE PREFETCHES: 0 DROPPED PREFETCHES: 0
ITLB PREFETCHES SAME FILL-ORIGIN LEVEL: 0 DIFFERENT FILL-ORIGIN LEVEL: 0
ITLB AVERAGE MISS LATENCY: 198.75 cycles
ITLB RQ	ACCESS:   37966794	FORWARD:          0	MERGED:    3465476	TO_CACHE:   34501318

DTLB TOTAL     ACCESS:   42658260  HIT:   37936055  MISS:    4722205  HIT %:    88.9302  MISS %:    11.0698   MPKI: 23.611
DTLB LOAD TRANSLATION ACCESS:   42658260  HIT:   37936055  MISS:    4722205  HIT %:    88.9302  MISS %:    11.0698   MPKI: 23.611
DTLB PREFETCH  REQUESTED:          0  ISSUED:          0  USEFUL:          0  USELESS:          0
DTLB USEFUL LOAD PREFETCHES:          0 PREFETCH ISSUED TO LOWER LEVEL:          0  ACCURACY: -nan
DTLB TIMELY PREFETCHES:          0 LATE PREFETCHES: 0 DROPPED PREFETCHES: 0
DTLB PREFETCHES SAME FILL-ORIGIN LEVEL: 0 DIFFERENT FILL-ORIGIN LEVEL: 0
DTLB AVERAGE MISS LATENCY: 14.3426 cycles
DTLB RQ	ACCESS:   46773977	FORWARD:          0	MERGED:    4045941	TO_CACHE:   42728036

STLB TOTAL     ACCESS:    6379571  HIT:    5315782  MISS:    1063789  HIT %:    83.3251  MISS %:    16.6749   MPKI: 5.31894
STLB LOAD TRANSLATION ACCESS:    4722213  HIT:    3658781  MISS:    1063432  HIT %:    77.4802  MISS %:    22.5198   MPKI: 5.31716
STLB TRANSLATION FROM L1D PREFETCHER ACCESS:    1657358  HIT:    1657001  MISS:        357  HIT %:    99.9785  MISS %:  0.0215403   MPKI: 0.001785
STLB PREFETCH  REQUESTED:          0  ISSUED:          0  USEFUL:        357  USELESS:          0
STLB USEFUL LOAD PREFETCHES:        357 PREFETCH ISSUED TO LOWER LEVEL:          0  ACCURACY: inf
STLB TIMELY PREFETCHES:        357 LATE PREFETCHES: 0 DROPPED PREFETCHES: 0
STLB PREFETCHES SAME FILL-ORIGIN LEVEL: 0 DIFFERENT FILL-ORIGIN LEVEL: 0
STLB AVERAGE MISS LATENCY: 23.6178 cycles
STLB RQ	ACCESS:    6716897	FORWARD:          0	MERGED:     334187	TO_CACHE:    6382710

STLB Hit, L1D data hit: 0
STLB Hit, L2C data hit: 0
STLB Hit, LLC data hit: 0
STLB Hit, LLC data miss: 0
STLB STLB hints to L2: 0
L1D TOTAL     ACCESS:   48379090  HIT:   41446579  MISS:    6932511  HIT %:    85.6704  MISS %:    14.3296   MPKI: 34.6626
L1D LOAD      ACCESS:   37920743  HIT:   32510161  MISS:    5410582  HIT %:    85.7319  MISS %:    14.2681   MPKI: 27.0529
L1D RFO       ACCESS:    8494347  HIT:    8398451  MISS:      95896  HIT %:    98.8711  MISS %:    1.12894   MPKI: 0.47948
L1D PREFETCH  ACCESS:    1964000  HIT:     537967  MISS:    1426033  HIT %:    27.3914  MISS %:    72.6086   MPKI: 7.13016
L1D PREFETCH  REQUESTED:    3984826  ISSUED:    3984826  USEFUL:     352577  USELESS:    1074453
L1D USEFUL LOAD PREFETCHES:     352577 PREFETCH ISSUED TO LOWER LEVEL:    1431654  ACCURACY: 24.6272
L1D TIMELY PREFETCHES:     352577 LATE PREFETCHES: 4754 DROPPED PREFETCHES: 0
L1D PREFETCHES SAME FILL-ORIGIN LEVEL: 1431654 DIFFERENT FILL-ORIGIN LEVEL: 0
L1D AVERAGE MISS LATENCY: 46.2811 cycles
L1D RQ	ACCESS:   59915193	FORWARD:          0	MERGED:   21630322	TO_CACHE:   38267812
L1D WQ	ACCESS:    8508986	FORWARD:      17059	MERGED:       2821	TO_CACHE:    8506165
L1D PQ	ACCESS:    1992413	FORWARD:          0	MERGED:          0	TO_CACHE:    1992413

L1D UNIQUE REGIONS ACCESSED: 0
L1D REGIONS CONFLICTS: 0
L1D Cross Page Prefetch Requests: 0
L1D Same Page Prefetch Requests: 2185922
L1D ROI Sum of L1D PQ occupancy: 22011208
L1D PREFETCHES PUSHED FROM L2C: 0
L1I TOTAL     ACCESS:   37946470  HIT:   37946356  MISS:        114  HIT %:    99.9997  MISS %: 0.000300423   MPKI: 0.00057
L1I LOAD      ACCESS:   37946470  HIT:   37946356  MISS:        114  HIT %:    99.9997  MISS %: 0.000300423   MPKI: 0.00057
L1I PREFETCH  REQUESTED:          0  ISSUED:          0  USEFUL:          0  USELESS:          0
L1I USEFUL LOAD PREFETCHES:          0 PREFETCH ISSUED TO LOWER LEVEL:          0  ACCURACY: -nan
L1I TIMELY PREFETCHES:          0 LATE PREFETCHES: 0 DROPPED PREFETCHES: 0
L1I PREFETCHES SAME FILL-ORIGIN LEVEL: 0 DIFFERENT FILL-ORIGIN LEVEL: 0
L1I AVERAGE MISS LATENCY: 238.377 cycles
L1I RQ	ACCESS:   58391331	FORWARD:          0	MERGED:   20424537	TO_CACHE:   37966794

BTB TOTAL     ACCESS:   35701404  HIT:   35696812  MISS:       4592  HIT %:    99.9871  MISS %:  0.0128622   MPKI: 0.02296
BTB BRANCH_DIRECT_JUMP	ACCESS:      26872  HIT:      26845  MISS:         27
BTB BRANCH_INDIRECT	ACCESS:          0  HIT:          0  MISS:          0
BTB BRANCH_CONDITIONAL	ACCESS:   35665554  HIT:   35665459  MISS:         95
BTB BRANCH_DIRECT_CALL	ACCESS:       4489  HIT:       4469  MISS:         20
BTB BRANCH_INDIRECT_CALL	ACCESS:          0  HIT:          0  MISS:          0
BTB BRANCH_RETURN	ACCESS:       4489  HIT:         39  MISS:       4450
BTB BRANCH_OTHER ACCESS:          0  HIT:          0  MISS:          0

L2C TOTAL     ACCESS:    9921716  HIT:    6975356  MISS:    2946360  HIT %:    70.3039  MISS %:    29.6961   MPKI: 14.7318
L2C LOAD      ACCESS:    5405847  HIT:    3354945  MISS:    2050902  HIT %:    62.0614  MISS %:    37.9386   MPKI: 10.2545
L2C DATA LOAD MPKI: 10.2539
L2C INSTRUCTION LOAD MPKI: 0.00057
L2C RFO       ACCESS:      95891  HIT:      82813  MISS:      13078  HIT %:    86.3616  MISS %:    13.6384   MPKI: 0.06539
L2C PREFETCH  ACCESS:    1430716  HIT:     680401  MISS:     750315  HIT %:    47.5567  MISS %:    52.4433   MPKI: 3.75157
L2C DATA PREFETCH MPKI: 3.75157
L2C INSTRUCTION PREFETCH MPKI: 0
L2C WRITEBACK ACCESS:    1925466  HIT:    1834080  MISS:      91386  HIT %:    95.2538  MISS %:    4.74618   MPKI: 0.45693
L2C LOAD TRANSLATION ACCESS:    1063439  HIT:    1022822  MISS:      40617  HIT %:    96.1806  MISS %:     3.8194   MPKI: 0.203085
[...]

LLC Dense regions hint to LLC: 0

RAW hits: 732811
Loads Generated: 60616579
Loads sent to L1D: 59883768
Stores Generated: 8504466
Stores sent to L1D: 8504463
Major fault: 0 Minor fault: 5974
Allocated PAGES: 23896

CPU 3 cumulative IPC: 0.451267 instructions: 200000001 cycles: 443196772
ITLB TOTAL     ACCESS:   34482821  HIT:   34482813  MISS:          8  HIT %:        100  MISS %:   2.32e-05   MPKI: 4e-05
ITLB LOAD TRANSLATION ACCESS:   34482821  HIT:   34482813  MISS:          8  HIT %:        100  MISS %:   2.32e-05   MPKI: 4e-05
ITLB PREFETCH  REQUESTED:          0  ISSUED:          0  USEFUL:          0  USELESS:          0
ITLB USEFUL LOAD PREFETCHES:          0 PREFETCH ISSUED TO LOWER LEVEL:          0  ACCURACY: -nan
ITLB TIMELY PREFETCHES:          0 LATE PREFETCHES: 0 DROPPED PREFETCHES: 0
ITLB PREFETCHES SAME FILL-ORIGIN LEVEL: 0 DIFFERENT FILL-ORIGIN LEVEL: 0
ITLB AVERAGE MISS LATENCY: 198.75 cycles
ITLB RQ	ACCESS:   37946350	FORWARD:          0	MERGED:    3463527	TO_CACHE:   34482823

DTLB TOTAL     ACCESS:   42657747  HIT:   37935542  MISS:    4722205  HIT %:      88.93  MISS %:      11.07   MPKI: 23.611
DTLB LOAD TRANSLATION ACCESS:   42657747  HIT:   37935542  MISS:    4722205  HIT %:      88.93  MISS %:      11.07   MPKI: 23.611
DTLB PREFETCH  REQUESTED:          0  ISSUED:          0  USEFUL:          0  USELESS:          0
DTLB USEFUL LOAD PREFETCHES:          0 PREFETCH ISSUED TO LOWER LEVEL:          0  ACCURACY: -nan
DTLB TIMELY PREFETCHES:          0 LATE PREFETCHES: 0 DROPPED PREFETCHES: 0
DTLB PREFETCHES SAME FILL-ORIGIN LEVEL: 0 DIFFERENT FILL-ORIGIN LEVEL: 0
DTLB AVERAGE MISS LATENCY: 14.3134 cycles
DTLB RQ	ACCESS:   46749156	FORWARD:          0	MERGED:    4044038	TO_CACHE:   42705118

STLB TOTAL     ACCESS:    6378615  HIT:    5314829  MISS:    1063786  HIT %:    83.3226  MISS %:    16.6774   MPKI: 5.31893
STLB LOAD TRANSLATION ACCESS:    4722214  HIT:    3658785  MISS:    1063429  HIT %:    77.4803  MISS %:    22.5197   MPKI: 5.31714
STLB TRANSLATION FROM L1D PREFETCHER ACCESS:    1656401  HIT:    1656044  MISS:        357  HIT %:    99.9784  MISS %:  0.0215528   MPKI: 0.001785
STLB PREFETCH  REQUESTED:          0  ISSUED:          0  USEFUL:        357  USELESS:          0
STLB USEFUL LOAD PREFETCHES:        357 PREFETCH ISSUED TO LOWER LEVEL:          0  ACCURACY: inf
STLB TIMELY PREFETCHES:        357 LATE PREFETCHES: 0 DROPPED PREFETCHES: 0
STLB PREFETCHES SAME FILL-ORIGIN LEVEL: 0 DIFFERENT FILL-ORIGIN LEVEL: 0
STLB AVERAGE MISS LATENCY: 23.5077 cycles
STLB RQ	ACCESS:    6712162	FORWARD:          0	MERGED:     333547	TO_CACHE:    6378615

STLB Hit, L1D data hit: 0
STLB Hit, L2C data hit: 0
STLB Hit, LLC data hit: 0
STLB Hit, LLC data miss: 0
STLB STLB hints to L2: 0
L1D TOTAL     ACCESS:   48377043  HIT:   41445210  MISS:    6931833  HIT %:    85.6712  MISS %:    14.3288   MPKI: 34.6592
L1D LOAD      ACCESS:   37920351  HIT:   32509286  MISS:    5411065  HIT %:    85.7304  MISS %:    14.2696   MPKI: 27.0553
L1D RFO       ACCESS:    8494156  HIT:    8398390  MISS:      95766  HIT %:    98.8726  MISS %:    1.12743   MPKI: 0.47883
L1D PREFETCH  ACCESS:    1962536  HIT:     537534  MISS:    1425002  HIT %:    27.3898  MISS %:    72.6102   MPKI: 7.12501
L1D PREFETCH  REQUESTED:    3979896  ISSUED:    3979896  USEFUL:     351657  USELESS:    1073398
L1D USEFUL LOAD PREFETCHES:     351657 PREFETCH ISSUED TO LOWER LEVEL:    1429862  ACCURACY: 24.5938
L1D TIMELY PREFETCHES:     351657 LATE PREFETCHES: 4860 DROPPED PREFETCHES: 0
L1D PREFETCHES SAME FILL-ORIGIN LEVEL: 1429862 DIFFERENT FILL-ORIGIN LEVEL: 0
L1D AVERAGE MISS LATENCY: 46.3229 cycles
L1D RQ	ACCESS:   59883562	FORWARD:          0	MERGED:   21618958	TO_CACHE:   38247521
L1D WQ	ACCESS:    8504456	FORWARD:      17083	MERGED:       2821	TO_CACHE:    8501635
L1D PQ	ACCESS:    1989948	FORWARD:          0	MERGED:          0	TO_CACHE:    1989948

L1D UNIQUE REGIONS ACCESSED: 0
L1D REGIONS CONFLICTS: 0
L1D Cross Page Prefetch Requests: 0
L1D Same Page Prefetch Requests: 2136139
L1D ROI Sum of L1D PQ occupancy: 21984178
L1D PREFETCHES PUSHED FROM L2C: 0
L1I TOTAL     ACCESS:   37946328  HIT:   37946214  MISS:        114  HIT %:    99.9997  MISS %: 0.000300424   MPKI: 0.00057
L1I LOAD      ACCESS:   37946328  HIT:   37946214  MISS:        114  HIT %:    99.9997  MISS %: 0.000300424   MPKI: 0.00057
L1I PREFETCH  REQUESTED:          0  ISSUED:          0  USEFUL:          0  USELESS:          0
L1I USEFUL LOAD PREFETCHES:          0 PREFETCH ISSUED TO LOWER LEVEL:          0  ACCURACY: -nan
L1I TIMELY PREFETCHES:          0 LATE PREFETCHES: 0 DROPPED PREFETCHES: 0
L1I PREFETCHES SAME FILL-ORIGIN LEVEL: 0 DIFFERENT FILL-ORIGIN LEVEL: 0
L1I AVERAGE MISS LATENCY: 245.781 cycles
L1I RQ	ACCESS:   58360507	FORWARD:          0	MERGED:   20414157	TO_CACHE:   37946350

BTB TOTAL     ACCESS:   35701299  HIT:   35696694  MISS:       4605  HIT %:    99.9871  MISS %:  0.0128987   MPKI: 0.023025
BTB BRANCH_DIRECT_JUMP	ACCESS:      26872  HIT:      26845  MISS:         27
BTB BRANCH_INDIRECT	ACCESS:          0  HIT:          0  MISS:          0
BTB BRANCH_CONDITIONAL	ACCESS:   35665449  HIT:   35665341  MISS:        108
BTB BRANCH_DIRECT_CALL	ACCESS:       4489  HIT:       4469  MISS:         20
BTB BRANCH_INDIRECT_CALL	ACCESS:          0  HIT:          0  MISS:          0
BTB BRANCH_RETURN	ACCESS:       4489  HIT:         39  MISS:       4450
BTB BRANCH_OTHER ACCESS:          0  HIT:          0  MISS:          0

L2C TOTAL     ACCESS:    9920983  HIT:    6958620  MISS:    2962363  HIT %:    70.1404  MISS %:    29.8596   MPKI: 14.8118
L2C LOAD      ACCESS:    5406217  HIT:    3342324  MISS:    2063893  HIT %:    61.8237  MISS %:    38.1763   MPKI: 10.3195
L2C DATA LOAD MPKI: 10.3189
L2C INSTRUCTION LOAD MPKI: 0.00057
L2C RFO       ACCESS:      95762  HIT:      81961  MISS:      13801  HIT %:    85.5882  MISS %:    14.4118   MPKI: 0.069005
L2C PREFETCH  ACCESS:    1429805  HIT:     678568  MISS:     751237  HIT %:    47.4588  MISS %:    52.5412   MPKI: 3.75618
L2C DATA PREFETCH MPKI: 3.75618
L2C INSTRUCTION PREFETCH MPKI: 0
L2C WRITEBACK ACCESS:    1925406  HIT:    1830470  MISS:      94936  HIT %:    95.0693  MISS %:     4.9307   MPKI: 0.47468
L2C LOAD TRANSLATION ACCESS:    1063436  HIT:    1025004  MISS:      38432  HIT %:    96.3861  MISS %:    3.61395   MPKI: 0.19216
L2C TRANSLATION FROM L1D PREFETCHER ACCESS:        357  HIT:        293  MISS:         64  HIT %:    82.0728  MISS %:    17.9272   MPKI: 0.00032
L2C PREFETCH  REQUESTED:          0  ISSUED:          0  USEFUL:     102705  USELESS:     647597
L2C USEFUL LOAD PREFETCHES:     102705 PREFETCH ISSUED TO LOWER LEVEL:     751237  ACCURACY: 13.6715
L2C TIMELY PREFETCHES:     102705 LATE PREFETCHES: 0 DROPPED PREFETCHES: 0
L2C PREFETCHES SAME FILL-ORIGIN LEVEL: 0 DIFFERENT FILL-ORIGIN LEVEL: 0
L2C AVERAGE MISS LATENCY: 78.702 cycles
L2C RQ	ACCESS:    6565877	FORWARD:          0	MERGED:          0	TO_CACHE:    6565771
L2C WQ	ACCESS:    1925406	FORWARD:        163	MERGED:          0	TO_CACHE:    1925406
L2C PQ	ACCESS:    1429862	FORWARD:          0	MERGED:          0	TO_CACHE:    1429805

L2C Instructions Evicting Data 113
L2C Translations Evicting Data 37827
L2C Data Evicting Data 2792129
L2C Instructions Evicting Instructions 0
L2C Translations Evicting Instructions 0
L2C Data Evicting Instructions 114
L2C Instructions Evicting Translations 1
L2C Translations Evicting Translations 669
L2C Data Evicting Translations 36573
L2C Dense regions hint from L2: 0
PSCL5 TOTAL     ACCESS:    1063786  HIT:    1063786  MISS:          0  HIT %:        100  MISS %:          0   MPKI: 0
PSCL5 LOAD TRANSLATION ACCESS:    1063429  HIT:    1063429  MISS:          0  HIT %:        100  MISS %:          0   MPKI: 0
PSCL5 TRANSLATION FROM L1D PREFETCHER ACCESS:        357  HIT:        357  MISS:          0  HIT %:        100  MISS %:          0   MPKI: 0
PSCL5 PREFETCH  REQUESTED:          0  ISSUED:          0  USEFUL:          0  USELESS:          0
PSCL5 USEFUL LOAD PREFETCHES:          0 PREFETCH ISSUED TO LOWER LEVEL:          0  ACCURACY: -nan
PSCL5 TIMELY PREFETCHES:          0 LATE PREFETCHES: 0 DROPPED PREFETCHES: 0
PSCL5 PREFETCHES SAME FILL-ORIGIN LEVEL: 0 DIFFERENT FILL-ORIGIN LEVEL: 0

PSCL4 TOTAL     ACCESS:    1063786  HIT:    1063786  MISS:          0  HIT %:        100  MISS %:          0   MPKI: 0
PSCL4 LOAD TRANSLATION ACCESS:    1063429  HIT:    1063429  MISS:          0  HIT %:        100  MISS %:          0   MPKI: 0
PSCL4 TRANSLATION FROM L1D PREFETCHER ACCESS:        357  HIT:        357  MISS:          0  HIT %:        100  MISS %:          0   MPKI: 0
PSCL4 PREFETCH  REQUESTED:          0  ISSUED:          0  USEFUL:          0  USELESS:          0
PSCL4 USEFUL LOAD PREFETCHES:          0 PREFETCH ISSUED TO LOWER LEVEL:          0  ACCURACY: -nan
PSCL4 TIMELY PREFETCHES:          0 LATE PREFETCHES: 0 DROPPED PREFETCHES: 0
PSCL4 PREFETCHES SAME FILL-ORIGIN LEVEL: 0 DIFFERENT FILL-ORIGIN LEVEL: 0

PSCL3 TOTAL     ACCESS:    1063786  HIT:    1063786  MISS:          0  HIT %:        100  MISS %:          0   MPKI: 0
PSCL3 LOAD TRANSLATION ACCESS:    1063429  HIT:    1063429  MISS:          0  HIT %:        100  MISS %:          0   MPKI: 0
PSCL3 TRANSLATION FROM L1D PREFETCHER ACCESS:        357  HIT:        357  MISS:          0  HIT %:        100  MISS %:          0   MPKI: 0
PSCL3 PREFETCH  REQUESTED:          0  ISSUED:          0  USEFUL:          0  USELESS:          0
PSCL3 USEFUL LOAD PREFETCHES:          0 PREFETCH ISSUED TO LOWER LEVEL:          0  ACCURACY: -nan
PSCL3 TIMELY PREFETCHES:          0 LATE PREFETCHES: 0 DROPPED PREFETCHES: 0
PSCL3 PREFETCHES SAME FILL-ORIGIN LEVEL: 0 DIFFERENT FILL-ORIGIN LEVEL: 0

PSCL2 TOTAL     ACCESS:    1063786  HIT:    1063766  MISS:         20  HIT %:    99.9981  MISS %: 0.00188008   MPKI: 0.0001
PSCL2 LOAD TRANSLATION ACCESS:    1063429  HIT:    1063409  MISS:         20  HIT %:    99.9981  MISS %: 0.00188071   MPKI: 0.0001
PSCL2 TRANSLATION FROM L1D PREFETCHER ACCESS:        357  HIT:        357  MISS:          0  HIT %:        100  MISS %:          0   MPKI: 0
PSCL2 PREFETCH  REQUESTED:          0  ISSUED:          0  USEFUL:          0  USELESS:          0
PSCL2 USEFUL LOAD PREFETCHES:          0 PREFETCH ISSUED TO LOWER LEVEL:          0  ACCURACY: -nan
PSCL2 TIMELY PREFETCHES:          0 LATE PREFETCHES: 0 DROPPED PREFETCHES: 0
PSCL2 PREFETCHES SAME FILL-ORIGIN LEVEL: 0 DIFFERENT FILL-ORIGIN LEVEL: 0

LLC TOTAL     ACCESS:    3697312  HIT:    2925879  MISS:     771433  HIT %:    79.1353  MISS %:    20.8647   MPKI: 3.85716
LLC LOAD      ACCESS:    2063550  HIT:    1813999  MISS:     249551  HIT %:    87.9067  MISS %:    12.0933   MPKI: 1.24775
LLC RFO       ACCESS:      13800  HIT:      13141  MISS:        659  HIT %:    95.2246  MISS %:    4.77536   MPKI: 0.003295
LLC PREFETCH  ACCESS:     751221  HIT:     251849  MISS:     499372  HIT %:    33.5253  MISS %:    66.4747   MPKI: 2.49686
LLC WRITEBACK ACCESS:     830245  HIT:     811999  MISS:      18246  HIT %:    97.8023  MISS %:    2.19766   MPKI: 0.09123
LLC LOAD TRANSLATION ACCESS:      38432  HIT:      34829  MISS:       3603  HIT %:     90.625  MISS %:      9.375   MPKI: 0.018015
LLC TRANSLATION FROM L1D PREFETCHER ACCESS:         64  HIT:         62  MISS:          2  HIT %:     96.875  MISS %:      3.125   MPKI: 1e-05
LLC PREFETCH  REQUESTED:          0  ISSUED:          0  USEFUL:     483190  USELESS:    1504197
LLC USEFUL LOAD PREFETCHES:     483190 PREFETCH ISSUED TO LOWER LEVEL:    2001247  ACCURACY: 24.1444
LLC TIMELY PREFETCHES:     483190 LATE PREFETCHES: 0 DROPPED PREFETCHES: 0
LLC PREFETCHES SAME FILL-ORIGIN LEVEL: 0 DIFFERENT FILL-ORIGIN LEVEL: 0
LLC AVERAGE MISS LATENCY: 761.949 cycles
LLC RQ	ACCESS:    8484562	FORWARD:          0	MERGED:          0	TO_CACHE:    8483108
LLC WQ	ACCESS:    3326187	FORWARD:       1512	MERGED:          0	TO_CACHE:    3326187
LLC PQ	ACCESS:    3005746	FORWARD:          0	MERGED:          0	TO_CACHE:    3005688

LLC Dense regions hint to LLC: 0

RAW hits: 732994
Loads Generated: 60616556
Loads sent to L1D: 59883562
Stores Generated: 8504451
Stores sent to L1D: 8504456
Major fault: 0 Minor fault: 5974
Allocated PAGES: 23896

stream: 
stream:times selected: 3405482
stream:pref_filled: 1228404
stream:pref_useful: 386808
stream:pref_late: 4779
stream:misses: 1653423
stream:misses_by_poll: 0

CS: 
CS:times selected: 521110
CS:pref_filled: 46865
CS:pref_useful: 12501
CS:pref_late: 26
CS:misses: 93316
CS:misses_by_poll: 19

CPLX: 
CPLX:times selected: 3400804
CPLX:pref_filled: 463544
CPLX:pref_useful: 21028
CPLX:pref_late: 413
CPLX:misses: 5394009
CPLX:misses_by_poll: 446

NL_L1: 
NL:times selected: 9852
NL:pref_filled: 4701
NL:pref_useful: 1643
NL:pref_late: 9
NL:misses: 19098
NL:misses_by_poll: 0

total selections: 7337248
total_filled: 1425494
total_useful: 352496
total_late: 6185
total_polluted: 465
total_misses_after_warmup: 5749566
conflicts: 1134
Degree Incremented Times: 0
Degree Decremented Times: 3091577

L1 IP Table Write Accesses: 153096368
L1 IP Table Read Accesses: 153095234
L1 RST Write Accesses: 11074319
L1 RST Read Accesses: 22148638
L1 CSPT Write Accesses: 11074319
L1 CSPT Read Accesses: 22137744
L1 RR Filter Tag Write Accesses: 7959487
L1 RR Filter Tag Read Accesses: 515621539
L1 IP Table Tag Write Accesses: 153096879
L1 IP Table Tag Read Accesses: 153096879
L1 RST Tag Write Accesses: 0
L1 RST Tag Read Accesses: 102705129
L1 RR Filter Write Accesses: 0
L1 RR Filter Read Accesses: 17446889
test: 7362298

stream: 
stream:times selected: 3403665
stream:pref_filled: 1117631
stream:pref_useful: 351489
stream:pref_late: 4338
stream:misses: 1654532
stream:misses_by_poll: 0

CS: 
CS:times selected: 520550
CS:pref_filled: 41464
CS:pref_useful: 11622
CS:pref_late: 19
CS:misses: 95091
CS:misses_by_poll: 16

CPLX: 
CPLX:times selected: 3397899
CPLX:pref_filled: 433649
CPLX:pref_useful: 19975
CPLX:pref_late: 375
CPLX:misses: 5410366
CPLX:misses_by_poll: 450

NL_L1: 
NL:times selected: 11234
NL:pref_filled: 4544
NL:pref_useful: 1723
NL:pref_late: 14
NL:misses: 20364
NL:misses_by_poll: 1

total selections: 7333348
total_filled: 1422862
total_useful: 351435
total_late: 5603
total_polluted: 467
total_misses_after_warmup: 5744037
conflicts: 1134
Degree Incremented Times: 0
Degree Decremented Times: 3091577

L1 IP Table Write Accesses: 153096368
L1 IP Table Read Accesses: 153095234
L1 RST Write Accesses: 11074319
L1 RST Read Accesses: 22148638
L1 CSPT Write Accesses: 11074319
L1 CSPT Read Accesses: 22137744
L1 RR Filter Tag Write Accesses: 7959487
L1 RR Filter Tag Read Accesses: 515621539
L1 IP Table Tag Write Accesses: 153096879
L1 IP Table Tag Read Accesses: 153096879
L1 RST Tag Write Accesses: 0
L1 RST Tag Read Accesses: 102705129
L1 RR Filter Write Accesses: 0
L1 RR Filter Read Accesses: 17446889
test: 7362298

stream: 
stream:times selected: 3403101
stream:pref_filled: 1085601
stream:pref_useful: 342532
stream:pref_late: 4115
stream:misses: 1655581
stream:misses_by_poll: 0

CS: 
CS:times selected: 520561
CS:pref_filled: 40427
CS:pref_useful: 11463
CS:pref_late: 21
CS:misses: 95065
CS:misses_by_poll: 21

CPLX: 
CPLX:times selected: 3397737
CPLX:pref_filled: 420856
CPLX:pref_useful: 19627
CPLX:pref_late: 383
CPLX:misses: 5407547
CPLX:misses_by_poll: 426

NL_L1: 
NL:times selected: 13039
NL:pref_filled: 4575
NL:pref_useful: 1777
NL:pref_late: 16
NL:misses: 23632
NL:misses_by_poll: 0

total selections: 7334438
total_filled: 1426900
total_useful: 352577
total_late: 5357
total_polluted: 447
total_misses_after_warmup: 5740386
conflicts: 1134
Degree Incremented Times: 0
Degree Decremented Times: 3091577

L1 IP Table Write Accesses: 153096368
L1 IP Table Read Accesses: 153095234
L1 RST Write Accesses: 11074319
L1 RST Read Accesses: 22148638
L1 CSPT Write Accesses: 11074319
L1 CSPT Read Accesses: 22137744
L1 RR Filter Tag Write Accesses: 7959487
L1 RR Filter Tag Read Accesses: 515621539
L1 IP Table Tag Write Accesses: 153096879
L1 IP Table Tag Read Accesses: 153096879
L1 RST Tag Write Accesses: 0
L1 RST Tag Read Accesses: 102705129
L1 RR Filter Write Accesses: 0
L1 RR Filter Read Accesses: 17446889
test: 7362298

stream: 
stream:times selected: 3401677
stream:pref_filled: 1063498
stream:pref_useful: 337131
stream:pref_late: 4050
stream:misses: 1654589
stream:misses_by_poll: 0

CS: 
CS:times selected: 520207
CS:pref_filled: 39228
CS:pref_useful: 10994
CS:pref_late: 21
CS:misses: 95259
CS:misses_by_poll: 16

CPLX: 
CPLX:times selected: 3396035
CPLX:pref_filled: 411383
CPLX:pref_useful: 19056
CPLX:pref_late: 392
CPLX:misses: 5409835
CPLX:misses_by_poll: 424

NL_L1: 
NL:times selected: 11958
NL:pref_filled: 4191
NL:pref_useful: 1629
NL:pref_late: 18
NL:misses: 22005
NL:misses_by_poll: 0

total selections: 7329877
total_filled: 1425002
total_useful: 351657
total_late: 5299
total_polluted: 440
total_misses_after_warmup: 5738236
conflicts: 1134
Degree Incremented Times: 0
Degree Decremented Times: 3091577

L1 IP Table Write Accesses: 153096368
L1 IP Table Read Accesses: 153095234
L1 RST Write Accesses: 11074319
L1 RST Read Accesses: 22148638
L1 CSPT Write Accesses: 11074319
L1 CSPT Read Accesses: 22137744
L1 RR Filter Tag Write Accesses: 7959487
L1 RR Filter Tag Read Accesses: 515621539
L1 IP Table Tag Write Accesses: 153096879
L1 IP Table Tag Read Accesses: 153096879
L1 RST Tag Write Accesses: 0
L1 RST Tag Read Accesses: 102705129
L1 RR Filter Write Accesses: 0
L1 RR Filter Read Accesses: 17446889
test: 7362298

DRAM Statistics
 CHANNEL 0
 RQ ROW_BUFFER_HIT:     375896  ROW_BUFFER_MISS:    2635704
 DBUS_CONGESTED:       1582
 WQ ROW_BUFFER_HIT:     249068  ROW_BUFFER_MISS:     918959  FULL:          0

 AVG_CONGESTED_CYCLE: 4
 All warmup complete: 5
Channel 0 Bank busy for read cycles: 0
Channel 0 Bank busy for write cycles: 0
Channel 0
Rank 0
0banks busy for read cycles: 79723141
0banks busy for write cycles: 267874
1banks busy for read cycles: 150640032
1banks busy for write cycles: 42704705
2banks busy for read cycles: 71043621
2banks busy for write cycles: 25403245
3banks busy for read cycles: 24801928
3banks busy for write cycles: 15884979
4banks busy for read cycles: 8017607
4banks busy for write cycles: 9941474
5banks busy for read cycles: 2315932
5banks busy for write cycles: 6056666
6banks busy for read cycles: 498244
6banks busy for write cycles: 3467099
7banks busy for read cycles: 67368
7banks busy for write cycles: 1722290
8banks busy for read cycles: 4183
8banks busy for write cycles: 636385

CPU 0 Branch Prediction Accuracy: 84.4283% MPKI: 29.3941 Average ROB Occupancy at Mispredict: 15.5066
Branch types
NOT_BRANCH: 162486077 81.1232%
BRANCH_DIRECT_JUMP: 26872 0.0134162%
BRANCH_INDIRECT: 0 0%
BRANCH_CONDITIONAL: 37773650 18.859%
BRANCH_DIRECT_CALL: 4492 0.00224269%
BRANCH_INDIRECT_CALL: 0 0%
BRANCH_RETURN: 4492 0.00224269%
BRANCH_OTHER: 0 0%


CPU 1 Branch Prediction Accuracy: 84.4285% MPKI: 29.3938 Average ROB Occupancy at Mispredict: 15.5029
Branch types
NOT_BRANCH: 162360393 81.1232%
BRANCH_DIRECT_JUMP: 26872 0.0134266%
BRANCH_INDIRECT: 0 0%
BRANCH_CONDITIONAL: 37744392 18.8589%
BRANCH_DIRECT_CALL: 4491 0.00224392%
BRANCH_INDIRECT_CALL: 0 0%
BRANCH_RETURN: 4491 0.00224392%
BRANCH_OTHER: 0 0%


CPU 2 Branch Prediction Accuracy: 84.4285% MPKI: 29.3939 Average ROB Occupancy at Mispredict: 15.5026
Branch types
NOT_BRANCH: 162331881 81.1232%
BRANCH_DIRECT_JUMP: 26872 0.0134289%
BRANCH_INDIRECT: 0 0%
BRANCH_CONDITIONAL: 37737745 18.8589%
BRANCH_DIRECT_CALL: 4490 0.00224382%
BRANCH_INDIRECT_CALL: 0 0%
BRANCH_RETURN: 4490 0.00224382%
BRANCH_OTHER: 0 0%


CPU 3 Branch Prediction Accuracy: 84.4288% MPKI: 29.3935 Average ROB Occupancy at Mispredict: 15.4997
Branch types
NOT_BRANCH: 162246023 81.123%
BRANCH_DIRECT_JUMP: 26872 0.013436%
BRANCH_INDIRECT: 0 0%
BRANCH_CONDITIONAL: 37717802 18.8589%
BRANCH_DIRECT_CALL: 4489 0.0022445%
BRANCH_INDIRECT_CALL: 0 0%
BRANCH_RETURN: 4489 0.0022445%
BRANCH_OTHER: 0 0%

DRAM PAGES: 1048576
Allocated PAGES: 23896
