
*** ChampSim Multicore Out-of-Order Simulator ***

Warmup Instructions: 50000000
Simulation Instructions: 200000000
Number of CPUs: 4
LLC sets: 8192
LLC ways: 16
Off-chip DRAM Size: 4096 MB Channels: 1 Width: 64-bit Data Rate: 6400 MT/s
CPU 0 runs ./traces/gap/pr-3.trace.gz
.gz
CPU 1 runs ./traces/gap/pr-3.trace.gz
.gz
CPU 2 runs ./traces/gap/pr-3.trace.gz
.gz
CPU 3 runs ./traces/gap/pr-3.trace.gz
.gz
BTB has LRU replacement policy
ITLB has LRU replacement policy
DTLB has LRU replacement policy
STLB has LRU replacement policy
L1I has LRU replacement policy
IP Table Entries: 1024
CSPT Entries: 128
RR_ENTRIES: 32
RST_ENTRIES: 8
L1D has LRU replacement policy
Initialize SRRIP state for L2C
Initialize DRRIP state for LLC
BTB has LRU replacement policy
ITLB has LRU replacement policy
DTLB has LRU replacement policy
STLB has LRU replacement policy
L1I has LRU replacement policy
IP Table Entries: 1024
CSPT Entries: 128
RR_ENTRIES: 32
RST_ENTRIES: 8
L1D has LRU replacement policy
Initialize SRRIP state for L2C
Initialize DRRIP state for LLC
BTB has LRU replacement policy
ITLB has LRU replacement policy
DTLB has LRU replacement policy
STLB has LRU replacement policy
L1I has LRU replacement policy
IP Table Entries: 1024
CSPT Entries: 128
RR_ENTRIES: 32
RST_ENTRIES: 8
L1D has LRU replacement policy
Initialize SRRIP state for L2C
Initialize DRRIP state for LLC
BTB has LRU replacement policy
ITLB has LRU replacement policy
DTLB has LRU replacement policy
STLB has LRU replacement policy
L1I has LRU replacement policy
IP Table Entries: 1024
CSPT Entries: 128
RR_ENTRIES: 32
RST_ENTRIES: 8
L1D has LRU replacement policy
Initialize SRRIP state for L2C
Initialize DRRIP state for LLC
Heartbeat CPU 0 instructions: 10000002 cycles: 3333886 heartbeat IPC: 2.9995 cumulative IPC: 2.9995 (Simulation time: 0 hr 2 min 33 sec) 
Heartbeat CPU 1 instructions: 10000002 cycles: 3333917 heartbeat IPC: 2.99948 cumulative IPC: 2.99948 (Simulation time: 0 hr 2 min 33 sec) 
Heartbeat CPU 2 instructions: 10000002 cycles: 3333952 heartbeat IPC: 2.99944 cumulative IPC: 2.99944 (Simulation time: 0 hr 2 min 33 sec) 
Heartbeat CPU 3 instructions: 10000002 cycles: 3333954 heartbeat IPC: 2.99944 cumulative IPC: 2.99944 (Simulation time: 0 hr 2 min 33 sec) 
Heartbeat CPU 1 instructions: 20000002 cycles: 9995497 heartbeat IPC: 1.50115 cumulative IPC: 2.0009 (Simulation time: 0 hr 8 min 19 sec) 
Heartbeat CPU 2 instructions: 20000002 cycles: 10046990 heartbeat IPC: 1.48964 cumulative IPC: 1.99065 (Simulation time: 0 hr 8 min 22 sec) 
Heartbeat CPU 0 instructions: 20000002 cycles: 10068850 heartbeat IPC: 1.48479 cumulative IPC: 1.98632 (Simulation time: 0 hr 8 min 23 sec) 
Heartbeat CPU 3 instructions: 20000002 cycles: 10081429 heartbeat IPC: 1.48204 cumulative IPC: 1.98385 (Simulation time: 0 hr 8 min 23 sec) 
Heartbeat CPU 1 instructions: 30000001 cycles: 17149619 heartbeat IPC: 1.3978 cumulative IPC: 1.74931 (Simulation time: 0 hr 15 min 4 sec) 
Heartbeat CPU 0 instructions: 30000001 cycles: 17235824 heartbeat IPC: 1.39529 cumulative IPC: 1.74056 (Simulation time: 0 hr 15 min 9 sec) 
Heartbeat CPU 2 instructions: 30000001 cycles: 17267248 heartbeat IPC: 1.38499 cumulative IPC: 1.73739 (Simulation time: 0 hr 15 min 11 sec) 
Heartbeat CPU 3 instructions: 30000001 cycles: 17331849 heartbeat IPC: 1.37923 cumulative IPC: 1.73092 (Simulation time: 0 hr 15 min 14 sec) 
Heartbeat CPU 1 instructions: 40000000 cycles: 24326576 heartbeat IPC: 1.39335 cumulative IPC: 1.64429 (Simulation time: 0 hr 20 min 59 sec) 
Heartbeat CPU 0 instructions: 40000000 cycles: 24414524 heartbeat IPC: 1.39301 cumulative IPC: 1.63837 (Simulation time: 0 hr 21 min 3 sec) 
Heartbeat CPU 2 instructions: 40000000 cycles: 24498763 heartbeat IPC: 1.38284 cumulative IPC: 1.63274 (Simulation time: 0 hr 21 min 7 sec) 
Heartbeat CPU 3 instructions: 40000000 cycles: 24599630 heartbeat IPC: 1.37594 cumulative IPC: 1.62604 (Simulation time: 0 hr 21 min 12 sec) 
Heartbeat CPU 1 instructions: 50000000 cycles: 31505170 heartbeat IPC: 1.39303 cumulative IPC: 1.58704 (Simulation time: 0 hr 27 min 34 sec) 
Heartbeat CPU 0 instructions: 50000000 cycles: 31596026 heartbeat IPC: 1.39247 cumulative IPC: 1.58248 (Simulation time: 0 hr 27 min 39 sec) 
Heartbeat CPU 2 instructions: 50000000 cycles: 31731333 heartbeat IPC: 1.38263 cumulative IPC: 1.57573 (Simulation time: 0 hr 27 min 46 sec) 
Heartbeat CPU 3 instructions: 50000000 cycles: 31872347 heartbeat IPC: 1.375 cumulative IPC: 1.56876 (Simulation time: 0 hr 27 min 52 sec) 

Warmup complete CPU 0 instructions: 50382404 cycles: 31872348 (Simulation time: 0 hr 27 min 52 sec) 
Warmup complete CPU 1 instructions: 50515326 cycles: 31872348 (Simulation time: 0 hr 27 min 52 sec) 
Warmup complete CPU 2 instructions: 50194657 cycles: 31872348 (Simulation time: 0 hr 27 min 52 sec) 
Warmup complete CPU 3 instructions: 50000001 cycles: 31872348 (Simulation time: 0 hr 27 min 52 sec) 

Heartbeat CPU 1 instructions: 60000003 cycles: 210277042 heartbeat IPC: 0.0559372 cumulative IPC: 0.0531638 (Simulation time: 0 hr 44 min 30 sec) 
Heartbeat CPU 2 instructions: 60000003 cycles: 222924634 heartbeat IPC: 0.0523031 cumulative IPC: 0.0513228 (Simulation time: 0 hr 45 min 39 sec) 
Heartbeat CPU 0 instructions: 60000003 cycles: 223031378 heartbeat IPC: 0.052237 cumulative IPC: 0.050312 (Simulation time: 0 hr 45 min 40 sec) 
Heartbeat CPU 3 instructions: 60000003 cycles: 226827475 heartbeat IPC: 0.0512939 cumulative IPC: 0.0512939 (Simulation time: 0 hr 46 min 0 sec) 
Heartbeat CPU 1 instructions: 70000001 cycles: 398808319 heartbeat IPC: 0.0530416 cumulative IPC: 0.053101 (Simulation time: 1 hr 0 min 59 sec) 
Heartbeat CPU 2 instructions: 70000001 cycles: 418368408 heartbeat IPC: 0.0511656 cumulative IPC: 0.0512433 (Simulation time: 1 hr 2 min 36 sec) 
Heartbeat CPU 0 instructions: 70000001 cycles: 422295964 heartbeat IPC: 0.0501845 cumulative IPC: 0.050247 (Simulation time: 1 hr 2 min 56 sec) 
Heartbeat CPU 3 instructions: 70000001 cycles: 422755907 heartbeat IPC: 0.051039 cumulative IPC: 0.0511661 (Simulation time: 1 hr 2 min 58 sec) 
Heartbeat CPU 1 instructions: 80000003 cycles: 587644330 heartbeat IPC: 0.052956 cumulative IPC: 0.0530518 (Simulation time: 1 hr 18 min 57 sec) 
Heartbeat CPU 2 instructions: 80000003 cycles: 613586695 heartbeat IPC: 0.0512247 cumulative IPC: 0.0512371 (Simulation time: 1 hr 21 min 32 sec) 
Heartbeat CPU 3 instructions: 80000003 cycles: 618833427 heartbeat IPC: 0.0510002 cumulative IPC: 0.0511107 (Simulation time: 1 hr 22 min 5 sec) 
Heartbeat CPU 0 instructions: 80000003 cycles: 621563991 heartbeat IPC: 0.0501837 cumulative IPC: 0.0502256 (Simulation time: 1 hr 22 min 23 sec) 
Heartbeat CPU 1 instructions: 90000000 cycles: 775051845 heartbeat IPC: 0.0533596 cumulative IPC: 0.0531294 (Simulation time: 1 hr 35 min 50 sec) 
Heartbeat CPU 2 instructions: 90000000 cycles: 808863952 heartbeat IPC: 0.0512092 cumulative IPC: 0.0512301 (Simulation time: 1 hr 38 min 38 sec) 
Heartbeat CPU 3 instructions: 90000000 cycles: 813784183 heartbeat IPC: 0.051295 cumulative IPC: 0.0511567 (Simulation time: 1 hr 39 min 8 sec) 
Heartbeat CPU 0 instructions: 90000000 cycles: 820153601 heartbeat IPC: 0.0503551 cumulative IPC: 0.0502582 (Simulation time: 1 hr 39 min 47 sec) 
Heartbeat CPU 1 instructions: 100000002 cycles: 964818880 heartbeat IPC: 0.0526962 cumulative IPC: 0.0530413 (Simulation time: 1 hr 54 min 17 sec) 
Heartbeat CPU 2 instructions: 100000002 cycles: 1004942177 heartbeat IPC: 0.0510001 cumulative IPC: 0.0511837 (Simulation time: 1 hr 58 min 16 sec) 
Heartbeat CPU 3 instructions: 100000002 cycles: 1009886921 heartbeat IPC: 0.0509937 cumulative IPC: 0.051124 (Simulation time: 1 hr 58 min 46 sec) 
Heartbeat CPU 0 instructions: 100000002 cycles: 1020517372 heartbeat IPC: 0.0499092 cumulative IPC: 0.0501875 (Simulation time: 1 hr 59 min 54 sec) 
Heartbeat CPU 1 instructions: 110000000 cycles: 1153948274 heartbeat IPC: 0.0528738 cumulative IPC: 0.0530131 (Simulation time: 2 hr 13 min 56 sec) 
Heartbeat CPU 2 instructions: 110000000 cycles: 1200283261 heartbeat IPC: 0.0511925 cumulative IPC: 0.0511852 (Simulation time: 2 hr 18 min 18 sec) 
Heartbeat CPU 3 instructions: 110000000 cycles: 1205412232 heartbeat IPC: 0.0511443 cumulative IPC: 0.0511274 (Simulation time: 2 hr 18 min 44 sec) 
Heartbeat CPU 0 instructions: 110000000 cycles: 1220023153 heartbeat IPC: 0.0501239 cumulative IPC: 0.0501768 (Simulation time: 2 hr 19 min 56 sec) 
Heartbeat CPU 1 instructions: 120000001 cycles: 1343018900 heartbeat IPC: 0.0528903 cumulative IPC: 0.0529954 (Simulation time: 2 hr 32 min 18 sec) 
Heartbeat CPU 2 instructions: 120000001 cycles: 1397046535 heartbeat IPC: 0.0508225 cumulative IPC: 0.0511329 (Simulation time: 2 hr 37 min 50 sec) 
Heartbeat CPU 3 instructions: 120000001 cycles: 1402429526 heartbeat IPC: 0.050757 cumulative IPC: 0.0510741 (Simulation time: 2 hr 38 min 26 sec) 
Heartbeat CPU 0 instructions: 120000001 cycles: 1420442259 heartbeat IPC: 0.0498954 cumulative IPC: 0.0501362 (Simulation time: 2 hr 40 min 25 sec) 
Heartbeat CPU 1 instructions: 130000001 cycles: 1531421062 heartbeat IPC: 0.0530779 cumulative IPC: 0.0530057 (Simulation time: 2 hr 50 min 34 sec) 
Heartbeat CPU 2 instructions: 130000001 cycles: 1592199037 heartbeat IPC: 0.051242 cumulative IPC: 0.0511466 (Simulation time: 2 hr 56 min 52 sec) 
Heartbeat CPU 3 instructions: 130000001 cycles: 1598158723 heartbeat IPC: 0.051091 cumulative IPC: 0.0510762 (Simulation time: 2 hr 57 min 24 sec) 
Heartbeat CPU 0 instructions: 130000001 cycles: 1619591780 heartbeat IPC: 0.0502135 cumulative IPC: 0.0501459 (Simulation time: 2 hr 59 min 13 sec) 
Heartbeat CPU 1 instructions: 140000002 cycles: 1721082509 heartbeat IPC: 0.0527255 cumulative IPC: 0.0529743 (Simulation time: 3 hr 8 min 49 sec) 
Heartbeat CPU 2 instructions: 140000002 cycles: 1787840430 heartbeat IPC: 0.0511139 cumulative IPC: 0.0511429 (Simulation time: 3 hr 14 min 42 sec) 
Heartbeat CPU 3 instructions: 140000002 cycles: 1794058404 heartbeat IPC: 0.0510465 cumulative IPC: 0.0510729 (Simulation time: 3 hr 15 min 18 sec) 
Heartbeat CPU 0 instructions: 140000002 cycles: 1819353659 heartbeat IPC: 0.0500596 cumulative IPC: 0.0501362 (Simulation time: 3 hr 17 min 47 sec) 
Heartbeat CPU 1 instructions: 150000000 cycles: 1909627296 heartbeat IPC: 0.0530378 cumulative IPC: 0.0529806 (Simulation time: 3 hr 25 min 38 sec) 
Heartbeat CPU 2 instructions: 150000000 cycles: 1982731484 heartbeat IPC: 0.0513107 cumulative IPC: 0.0511597 (Simulation time: 3 hr 31 min 41 sec) 
Heartbeat CPU 3 instructions: 150000000 cycles: 1988920791 heartbeat IPC: 0.0513183 cumulative IPC: 0.0510974 (Simulation time: 3 hr 32 min 12 sec) 
Heartbeat CPU 0 instructions: 150000000 cycles: 2018269383 heartbeat IPC: 0.0502725 cumulative IPC: 0.0501499 (Simulation time: 3 hr 35 min 16 sec) 
Heartbeat CPU 1 instructions: 160000002 cycles: 2098035764 heartbeat IPC: 0.0530762 cumulative IPC: 0.0529894 (Simulation time: 3 hr 43 min 12 sec) 
Heartbeat CPU 2 instructions: 160000002 cycles: 2177490619 heartbeat IPC: 0.0513455 cumulative IPC: 0.0511766 (Simulation time: 3 hr 51 min 18 sec) 
Heartbeat CPU 3 instructions: 160000002 cycles: 2183560890 heartbeat IPC: 0.0513769 cumulative IPC: 0.0511226 (Simulation time: 3 hr 51 min 56 sec) 
Heartbeat CPU 0 instructions: 160000002 cycles: 2216543746 heartbeat IPC: 0.0504352 cumulative IPC: 0.0501758 (Simulation time: 3 hr 55 min 24 sec) 
Heartbeat CPU 1 instructions: 170000003 cycles: 2285687467 heartbeat IPC: 0.0532902 cumulative IPC: 0.0530144 (Simulation time: 4 hr 1 min 31 sec) 
Heartbeat CPU 2 instructions: 170000003 cycles: 2372250497 heartbeat IPC: 0.0513453 cumulative IPC: 0.0511906 (Simulation time: 4 hr 8 min 24 sec) 
Heartbeat CPU 3 instructions: 170000003 cycles: 2378231972 heartbeat IPC: 0.0513687 cumulative IPC: 0.0511431 (Simulation time: 4 hr 8 min 52 sec) 
Heartbeat CPU 0 instructions: 170000003 cycles: 2414739152 heartbeat IPC: 0.0504553 cumulative IPC: 0.050199 (Simulation time: 4 hr 12 min 17 sec) 
Heartbeat CPU 1 instructions: 180000002 cycles: 2473855599 heartbeat IPC: 0.053144 cumulative IPC: 0.0530244 (Simulation time: 4 hr 17 min 19 sec) 
Heartbeat CPU 2 instructions: 180000002 cycles: 2566904750 heartbeat IPC: 0.0513731 cumulative IPC: 0.0512046 (Simulation time: 4 hr 25 min 23 sec) 
Heartbeat CPU 3 instructions: 180000002 cycles: 2573391763 heartbeat IPC: 0.0512401 cumulative IPC: 0.0511505 (Simulation time: 4 hr 25 min 56 sec) 
Heartbeat CPU 1 instructions: 190000001 cycles: 2609057785 heartbeat IPC: 0.0739633 cumulative IPC: 0.0541229 (Simulation time: 4 hr 29 min 13 sec) 
Heartbeat CPU 0 instructions: 180000002 cycles: 2615682847 heartbeat IPC: 0.0497652 cumulative IPC: 0.0501653 (Simulation time: 4 hr 30 min 1 sec) 
Heartbeat CPU 1 instructions: 200000001 cycles: 2649955192 heartbeat IPC: 0.244514 cumulative IPC: 0.057097 (Simulation time: 4 hr 33 min 6 sec) 
Heartbeat CPU 2 instructions: 190000000 cycles: 2712015065 heartbeat IPC: 0.0689131 cumulative IPC: 0.0521634 (Simulation time: 4 hr 38 min 49 sec) 
Heartbeat CPU 3 instructions: 190000000 cycles: 2721258055 heartbeat IPC: 0.0676287 cumulative IPC: 0.0520565 (Simulation time: 4 hr 40 min 8 sec) 
Heartbeat CPU 2 instructions: 200000001 cycles: 2757035327 heartbeat IPC: 0.222122 cumulative IPC: 0.0549712 (Simulation time: 4 hr 43 min 45 sec) 
Heartbeat CPU 3 instructions: 200000001 cycles: 2763564421 heartbeat IPC: 0.236371 cumulative IPC: 0.054911 (Simulation time: 4 hr 44 min 23 sec) 
Heartbeat CPU 0 instructions: 190000001 cycles: 2767775580 heartbeat IPC: 0.0657494 cumulative IPC: 0.0510316 (Simulation time: 4 hr 44 min 56 sec) 
Heartbeat CPU 0 instructions: 200000001 cycles: 2810156811 heartbeat IPC: 0.235954 cumulative IPC: 0.0538525 (Simulation time: 4 hr 49 min 3 sec) 
Heartbeat CPU 1 instructions: 210000003 cycles: 2850101542 heartbeat IPC: 0.0499634 cumulative IPC: 0.0565904 (Simulation time: 4 hr 52 min 39 sec) 
Heartbeat CPU 2 instructions: 210000003 cycles: 2955987850 heartbeat IPC: 0.0502633 cumulative IPC: 0.0546508 (Simulation time: 5 hr 2 min 24 sec) 
Heartbeat CPU 3 instructions: 210000003 cycles: 2962334856 heartbeat IPC: 0.0503093 cumulative IPC: 0.0545989 (Simulation time: 5 hr 2 min 55 sec) 
Heartbeat CPU 0 instructions: 210000003 cycles: 3008111471 heartbeat IPC: 0.0505166 cumulative IPC: 0.0536306 (Simulation time: 5 hr 6 min 39 sec) 
Heartbeat CPU 1 instructions: 220000000 cycles: 3038412281 heartbeat IPC: 0.0531037 cumulative IPC: 0.056372 (Simulation time: 5 hr 9 min 10 sec) 
Heartbeat CPU 2 instructions: 220000000 cycles: 3151065419 heartbeat IPC: 0.0512616 cumulative IPC: 0.0544389 (Simulation time: 5 hr 18 min 40 sec) 
Heartbeat CPU 3 instructions: 220000000 cycles: 3157800648 heartbeat IPC: 0.0511598 cumulative IPC: 0.0543838 (Simulation time: 5 hr 19 min 14 sec) 
Heartbeat CPU 0 instructions: 220000000 cycles: 3206987767 heartbeat IPC: 0.0502825 cumulative IPC: 0.0534209 (Simulation time: 5 hr 23 min 22 sec) 
Heartbeat CPU 1 instructions: 230000000 cycles: 3227410802 heartbeat IPC: 0.0529105 cumulative IPC: 0.0561673 (Simulation time: 5 hr 24 min 59 sec) 
Heartbeat CPU 2 instructions: 230000000 cycles: 3345842664 heartbeat IPC: 0.0513407 cumulative IPC: 0.0542568 (Simulation time: 5 hr 36 min 36 sec) 
Heartbeat CPU 3 instructions: 230000000 cycles: 3352112017 heartbeat IPC: 0.0514638 cumulative IPC: 0.054213 (Simulation time: 5 hr 37 min 12 sec) 
Heartbeat CPU 0 instructions: 230000000 cycles: 3405519509 heartbeat IPC: 0.0503698 cumulative IPC: 0.0532414 (Simulation time: 5 hr 42 min 29 sec) 
Heartbeat CPU 1 instructions: 240000003 cycles: 3415275529 heartbeat IPC: 0.0532298 cumulative IPC: 0.0560042 (Simulation time: 5 hr 43 min 23 sec) 
Heartbeat CPU 2 instructions: 240000003 cycles: 3542005145 heartbeat IPC: 0.0509782 cumulative IPC: 0.0540735 (Simulation time: 5 hr 56 min 2 sec) 
Heartbeat CPU 3 instructions: 240000003 cycles: 3548603360 heartbeat IPC: 0.0508928 cumulative IPC: 0.0540274 (Simulation time: 5 hr 56 min 39 sec) 
Heartbeat CPU 1 instructions: 250000001 cycles: 3603785528 heartbeat IPC: 0.0530476 cumulative IPC: 0.0558481 (Simulation time: 6 hr 1 min 53 sec) 
Heartbeat CPU 0 instructions: 240000003 cycles: 3605522193 heartbeat IPC: 0.0499993 cumulative IPC: 0.0530599 (Simulation time: 6 hr 2 min 2 sec) 
Finished CPU 1 instructions: 200000000 cycles: 3581405026 cumulative IPC: 0.055844 (Simulation time: 6 hr 2 min 41 sec) 
Heartbeat CPU 2 instructions: 250000001 cycles: 3735965325 heartbeat IPC: 0.051557 cumulative IPC: 0.0539418 (Simulation time: 6 hr 14 min 7 sec) 
Finished CPU 2 instructions: 200000001 cycles: 3707896563 cumulative IPC: 0.0539389 (Simulation time: 6 hr 14 min 26 sec) 
Heartbeat CPU 3 instructions: 250000001 cycles: 3742955531 heartbeat IPC: 0.051453 cumulative IPC: 0.0538926 (Simulation time: 6 hr 14 min 41 sec) 
Finished CPU 3 instructions: 200000000 cycles: 3711083183 cumulative IPC: 0.0538926 (Simulation time: 6 hr 14 min 41 sec) 
Heartbeat CPU 1 instructions: 260000002 cycles: 3792716002 heartbeat IPC: 0.0529295 cumulative IPC: 0.0557015 (Simulation time: 6 hr 19 min 4 sec) 
Heartbeat CPU 0 instructions: 250000001 cycles: 3803593029 heartbeat IPC: 0.050487 cumulative IPC: 0.0529248 (Simulation time: 6 hr 19 min 57 sec) 
Finished CPU 0 instructions: 200000000 cycles: 3779168744 cumulative IPC: 0.0529217 (Simulation time: 6 hr 20 min 34 sec) 

ChampSim completed all CPUs

Total Simulation Statistics (not including warmup)

CPU 0 cumulative IPC: 0.0529217 instructions: 200000000 cycles: 3779168744
ITLB TOTAL     ACCESS:   60001181  HIT:   60001181  MISS:          0  HIT %:        100  MISS %:          0   MPKI: 0
ITLB LOAD      ACCESS:          0  HIT:          0  MISS:          0  HIT %:       -nan  MISS %:       -nan   MPKI: 0
ITLB RFO       ACCESS:          0  HIT:          0  MISS:          0  HIT %:       -nan  MISS %:       -nan   MPKI: 0
ITLB PREFETCH  ACCESS:          0  HIT:          0  MISS:          0  HIT %:       -nan  MISS %:       -nan   MPKI: 0
ITLB WRITEBACK ACCESS:          0  HIT:          0  MISS:          0  HIT %:       -nan  MISS %:       -nan   MPKI: 0
DTLB TOTAL     ACCESS:   67112020  HIT:   44221973  MISS:   22890047  HIT %:    65.8928  MISS %:    34.1072   MPKI: 114.45
DTLB LOAD      ACCESS:          0  HIT:          0  MISS:          0  HIT %:       -nan  MISS %:       -nan   MPKI: 0
DTLB RFO       ACCESS:          0  HIT:          0  MISS:          0  HIT %:       -nan  MISS %:       -nan   MPKI: 0
DTLB PREFETCH  ACCESS:          0  HIT:          0  MISS:          0  HIT %:       -nan  MISS %:       -nan   MPKI: 0
DTLB WRITEBACK ACCESS:          0  HIT:          0  MISS:          0  HIT %:       -nan  MISS %:       -nan   MPKI: 0
STLB TOTAL     ACCESS:   57034722  HIT:   56993888  MISS:      40834  HIT %:    99.9284  MISS %:   0.071595   MPKI: 0.20417
STLB LOAD      ACCESS:          0  HIT:          0  MISS:          0  HIT %:       -nan  MISS %:       -nan   MPKI: 0
STLB RFO       ACCESS:          0  HIT:          0  MISS:          0  HIT %:       -nan  MISS %:       -nan   MPKI: 0
STLB PREFETCH  ACCESS:          0  HIT:          0  MISS:          0  HIT %:       -nan  MISS %:       -nan   MPKI: 0
STLB WRITEBACK ACCESS:          0  HIT:          0  MISS:          0  HIT %:       -nan  MISS %:       -nan   MPKI: 0
L1D TOTAL     ACCESS:  105752425  HIT:   39635413  MISS:   66117012  HIT %:    37.4794  MISS %:    62.5206   MPKI: 330.585
L1D LOAD      ACCESS:   64360042  HIT:   32220670  MISS:   32139372  HIT %:    50.0632  MISS %:    49.9368   MPKI: 160.697
L1D RFO       ACCESS:    2459460  HIT:    2393904  MISS:      65556  HIT %:    97.3345  MISS %:    2.66546   MPKI: 0.32778
L1D PREFETCH  ACCESS:   38932923  HIT:    5020839  MISS:   33912084  HIT %:    12.8961  MISS %:    87.1039   MPKI: 169.56
L1D WRITEBACK ACCESS:          0  HIT:          0  MISS:          0  HIT %:       -nan  MISS %:       -nan   MPKI: 0
L1I TOTAL     ACCESS:   61126828  HIT:   61126805  MISS:         23  HIT %:        100  MISS %: 3.76267e-05   MPKI: 0.000115
L1I LOAD      ACCESS:   61126828  HIT:   61126805  MISS:         23  HIT %:        100  MISS %: 3.76267e-05   MPKI: 0.000115
L1I RFO       ACCESS:          0  HIT:          0  MISS:          0  HIT %:       -nan  MISS %:       -nan   MPKI: 0
L1I PREFETCH  ACCESS:          0  HIT:          0  MISS:          0  HIT %:       -nan  MISS %:       -nan   MPKI: 0
L1I WRITEBACK ACCESS:          0  HIT:          0  MISS:          0  HIT %:       -nan  MISS %:       -nan   MPKI: 0
L2C TOTAL     ACCESS:   66326921  HIT:   13818725  MISS:   52508196  HIT %:    20.8343  MISS %:    79.1657   MPKI: 262.541
L2C LOAD      ACCESS:   31776104  HIT:    7203952  MISS:   24572152  HIT %:     22.671  MISS %:     77.329   MPKI: 122.861
L2C RFO       ACCESS:      65556  HIT:        173  MISS:      65383  HIT %:   0.263897  MISS %:    99.7361   MPKI: 0.326915
L2C PREFETCH  ACCESS:   34275364  HIT:    6446132  MISS:   27829232  HIT %:    18.8069  MISS %:    81.1931   MPKI: 139.146
L2C WRITEBACK ACCESS:     169026  HIT:     136104  MISS:      32922  HIT %:    80.5225  MISS %:    19.4775   MPKI: 0.16461
PSCL5 TOTAL     ACCESS:      40834  HIT:      40834  MISS:          0  HIT %:        100  MISS %:          0   MPKI: 0
PSCL5 LOAD      ACCESS:          0  HIT:          0  MISS:          0  HIT %:       -nan  MISS %:       -nan   MPKI: 0
PSCL5 RFO       ACCESS:          0  HIT:          0  MISS:          0  HIT %:       -nan  MISS %:       -nan   MPKI: 0
PSCL5 PREFETCH  ACCESS:          0  HIT:          0  MISS:          0  HIT %:       -nan  MISS %:       -nan   MPKI: 0
PSCL5 WRITEBACK ACCESS:          0  HIT:          0  MISS:          0  HIT %:       -nan  MISS %:       -nan   MPKI: 0
PSCL4 TOTAL     ACCESS:      40834  HIT:      40834  MISS:          0  HIT %:        100  MISS %:          0   MPKI: 0
PSCL4 LOAD      ACCESS:          0  HIT:          0  MISS:          0  HIT %:       -nan  MISS %:       -nan   MPKI: 0
PSCL4 RFO       ACCESS:          0  HIT:          0  MISS:          0  HIT %:       -nan  MISS %:       -nan   MPKI: 0
PSCL4 PREFETCH  ACCESS:          0  HIT:          0  MISS:          0  HIT %:       -nan  MISS %:       -nan   MPKI: 0
PSCL4 WRITEBACK ACCESS:          0  HIT:          0  MISS:          0  HIT %:       -nan  MISS %:       -nan   MPKI: 0
PSCL3 TOTAL     ACCESS:      40834  HIT:      40834  MISS:          0  HIT %:        100  MISS %:          0   MPKI: 0
PSCL3 LOAD      ACCESS:          0  HIT:          0  MISS:          0  HIT %:       -nan  MISS %:       -nan   MPKI: 0
PSCL3 RFO       ACCESS:          0  HIT:          0  MISS:          0  HIT %:       -nan  MISS %:       -nan   MPKI: 0
PSCL3 PREFETCH  ACCESS:          0  HIT:          0  MISS:          0  HIT %:       -nan  MISS %:       -nan   MPKI: 0
PSCL3 WRITEBACK ACCESS:          0  HIT:          0  MISS:          0  HIT %:       -nan  MISS %:       -nan   MPKI: 0
PSCL2 TOTAL     ACCESS:      40834  HIT:      40750  MISS:         84  HIT %:    99.7943  MISS %:   0.205711   MPKI: 0.00042
PSCL2 LOAD      ACCESS:          0  HIT:          0  MISS:          0  HIT %:       -nan  MISS %:       -nan   MPKI: 0
PSCL2 RFO       ACCESS:          0  HIT:          0  MISS:          0  HIT %:       -nan  MISS %:       -nan   MPKI: 0
PSCL2 PREFETCH  ACCESS:          0  HIT:          0  MISS:          0  HIT %:       -nan  MISS %:       -nan   MPKI: 0
PSCL2 WRITEBACK ACCESS:          0  HIT:          0  MISS:          0  HIT %:       -nan  MISS %:       -nan   MPKI: 0

stream: 
stream:times selected: 43737389
stream:pref_filled: 37404126
stream:pref_useful: 947300
stream:pref_late: 291096
stream:misses: 9285795
stream:misses_by_poll: 0

CS: 
CS:times selected: 4055653
CS:pref_filled: 3144477
CS:pref_useful: 2832627
CS:pref_late: 108236
CS:misses: 572973
CS:misses_by_poll: 3292

CPLX: 
CPLX:times selected: 39317837
CPLX:pref_filled: 750932
CPLX:pref_useful: 28885
CPLX:pref_late: 15483
CPLX:misses: 29080125
CPLX:misses_by_poll: 302

NL_L1: 
NL:times selected: 54252
NL:pref_filled: 52904
NL:pref_useful: 570
NL:pref_late: 186
NL:misses: 53354
NL:misses_by_poll: 0

total selections: 87165131
total_filled: 33912084
total_useful: 3038814
total_late: 419706
total_polluted: 3594
total_misses_after_warmup: 32458888
conflicts: 205
Degree Incremented Times: 1251838
Degree Decremented Times: 2719136

L1 IP Table Write Accesses: 265080911
L1 IP Table Read Accesses: 265080706
L1 RST Write Accesses: 148101982
L1 RST Read Accesses: 296203964
L1 CSPT Write Accesses: 148101982
L1 CSPT Read Accesses: 281960341
L1 RR Filter Tag Write Accesses: 161252213
L1 RR Filter Tag Read Accesses: 5812270588
L1 IP Table Tag Write Accesses: 265081100
L1 IP Table Tag Read Accesses: 265081100
L1 RST Tag Write Accesses: 0
L1 RST Tag Read Accesses: 1329774033
L1 RR Filter Write Accesses: 0
L1 RR Filter Read Accesses: 186656795
test: 94610685
LLC TOTAL     ACCESS:   52613618  HIT:   30383726  MISS:   22229892  HIT %:    57.7488  MISS %:    42.2512   MPKI: 111.149
LLC LOAD      ACCESS:   24572152  HIT:   15308308  MISS:    9263844  HIT %:    62.2994  MISS %:    37.7006   MPKI: 46.3192
LLC RFO       ACCESS:      65383  HIT:       6161  MISS:      59222  HIT %:    9.42294  MISS %:    90.5771   MPKI: 0.29611
LLC PREFETCH  ACCESS:   27829232  HIT:   14940712  MISS:   12888520  HIT %:    53.6871  MISS %:    46.3129   MPKI: 64.4426
LLC WRITEBACK ACCESS:     138344  HIT:     126130  MISS:      12214  HIT %:    91.1713  MISS %:    8.82872   MPKI: 0.06107

RAW hits: 24
Loads Generated: 77353015
Loads sent to L1D: 77352991
Stores Generated: 3301237
Stores sent to L1D: 3301237

CPU 1 cumulative IPC: 0.055689 instructions: 210458047 cycles: 3779168744
ITLB TOTAL     ACCESS:   63230123  HIT:   63230123  MISS:          0  HIT %:        100  MISS %:          0   MPKI: 0
ITLB LOAD      ACCESS:          0  HIT:          0  MISS:          0  HIT %:       -nan  MISS %:       -nan   MPKI: 0
ITLB RFO       ACCESS:          0  HIT:          0  MISS:          0  HIT %:       -nan  MISS %:       -nan   MPKI: 0
ITLB PREFETCH  ACCESS:          0  HIT:          0  MISS:          0  HIT %:       -nan  MISS %:       -nan   MPKI: 0
ITLB WRITEBACK ACCESS:          0  HIT:          0  MISS:          0  HIT %:       -nan  MISS %:       -nan   MPKI: 0
DTLB TOTAL     ACCESS:   70708490  HIT:   46580643  MISS:   24127847  HIT %:     65.877  MISS %:     34.123   MPKI: 114.644
DTLB LOAD      ACCESS:          0  HIT:          0  MISS:          0  HIT %:       -nan  MISS %:       -nan   MPKI: 0
DTLB RFO       ACCESS:          0  HIT:          0  MISS:          0  HIT %:       -nan  MISS %:       -nan   MPKI: 0
DTLB PREFETCH  ACCESS:          0  HIT:          0  MISS:          0  HIT %:       -nan  MISS %:       -nan   MPKI: 0
DTLB WRITEBACK ACCESS:          0  HIT:          0  MISS:          0  HIT %:       -nan  MISS %:       -nan   MPKI: 0
STLB TOTAL     ACCESS:   60161744  HIT:   60118894  MISS:      42850  HIT %:    99.9288  MISS %:  0.0712247   MPKI: 0.203604
STLB LOAD      ACCESS:          0  HIT:          0  MISS:          0  HIT %:       -nan  MISS %:       -nan   MPKI: 0
STLB RFO       ACCESS:          0  HIT:          0  MISS:          0  HIT %:       -nan  MISS %:       -nan   MPKI: 0
STLB PREFETCH  ACCESS:          0  HIT:          0  MISS:          0  HIT %:       -nan  MISS %:       -nan   MPKI: 0
STLB WRITEBACK ACCESS:          0  HIT:          0  MISS:          0  HIT %:       -nan  MISS %:       -nan   MPKI: 0
L1D TOTAL     ACCESS:  111511560  HIT:   41732947  MISS:   69778613  HIT %:    37.4248  MISS %:    62.5752   MPKI: 331.556
L1D LOAD      ACCESS:   67859139  HIT:   33953185  MISS:   33905954  HIT %:    50.0348  MISS %:    49.9652   MPKI: 161.106
L1D RFO       ACCESS:    2584293  HIT:    2518737  MISS:      65556  HIT %:    97.4633  MISS %:    2.53671   MPKI: 0.311492
L1D PREFETCH  ACCESS:   41068128  HIT:    5261025  MISS:   35807103  HIT %:    12.8105  MISS %:    87.1895   MPKI: 170.139
L1D WRITEBACK ACCESS:          0  HIT:          0  MISS:          0  HIT %:       -nan  MISS %:       -nan   MPKI: 0
L1I TOTAL     ACCESS:   64416511  HIT:   64416488  MISS:         23  HIT %:        100  MISS %: 3.57051e-05   MPKI: 0.000109285
L1I LOAD      ACCESS:   64416511  HIT:   64416488  MISS:         23  HIT %:        100  MISS %: 3.57051e-05   MPKI: 0.000109285
L1I RFO       ACCESS:          0  HIT:          0  MISS:          0  HIT %:       -nan  MISS %:       -nan   MPKI: 0
L1I PREFETCH  ACCESS:          0  HIT:          0  MISS:          0  HIT %:       -nan  MISS %:       -nan   MPKI: 0
L1I WRITEBACK ACCESS:          0  HIT:          0  MISS:          0  HIT %:       -nan  MISS %:       -nan   MPKI: 0
L2C TOTAL     ACCESS:   69996192  HIT:   14666343  MISS:   55329849  HIT %:    20.9531  MISS %:    79.0469   MPKI: 262.902
L2C LOAD      ACCESS:   33534287  HIT:    7648358  MISS:   25885929  HIT %:    22.8076  MISS %:    77.1924   MPKI: 122.998
L2C RFO       ACCESS:      65556  HIT:        122  MISS:      65434  HIT %:     0.1861  MISS %:    99.8139   MPKI: 0.310912
L2C PREFETCH  ACCESS:   36178781  HIT:    6841460  MISS:   29337321  HIT %:    18.9101  MISS %:    81.0899   MPKI: 139.397
L2C WRITEBACK ACCESS:     174677  HIT:     142491  MISS:      32186  HIT %:     81.574  MISS %:     18.426   MPKI: 0.152933
PSCL5 TOTAL     ACCESS:      42850  HIT:      42850  MISS:          0  HIT %:        100  MISS %:          0   MPKI: 0
PSCL5 LOAD      ACCESS:          0  HIT:          0  MISS:          0  HIT %:       -nan  MISS %:       -nan   MPKI: 0
PSCL5 RFO       ACCESS:          0  HIT:          0  MISS:          0  HIT %:       -nan  MISS %:       -nan   MPKI: 0
PSCL5 PREFETCH  ACCESS:          0  HIT:          0  MISS:          0  HIT %:       -nan  MISS %:       -nan   MPKI: 0
PSCL5 WRITEBACK ACCESS:          0  HIT:          0  MISS:          0  HIT %:       -nan  MISS %:       -nan   MPKI: 0
PSCL4 TOTAL     ACCESS:      42850  HIT:      42850  MISS:          0  HIT %:        100  MISS %:          0   MPKI: 0
PSCL4 LOAD      ACCESS:          0  HIT:          0  MISS:          0  HIT %:       -nan  MISS %:       -nan   MPKI: 0
PSCL4 RFO       ACCESS:          0  HIT:          0  MISS:          0  HIT %:       -nan  MISS %:       -nan   MPKI: 0
PSCL4 PREFETCH  ACCESS:          0  HIT:          0  MISS:          0  HIT %:       -nan  MISS %:       -nan   MPKI: 0
PSCL4 WRITEBACK ACCESS:          0  HIT:          0  MISS:          0  HIT %:       -nan  MISS %:       -nan   MPKI: 0
PSCL3 TOTAL     ACCESS:      42850  HIT:      42850  MISS:          0  HIT %:        100  MISS %:          0   MPKI: 0
PSCL3 LOAD      ACCESS:          0  HIT:          0  MISS:          0  HIT %:       -nan  MISS %:       -nan   MPKI: 0
PSCL3 RFO       ACCESS:          0  HIT:          0  MISS:          0  HIT %:       -nan  MISS %:       -nan   MPKI: 0
PSCL3 PREFETCH  ACCESS:          0  HIT:          0  MISS:          0  HIT %:       -nan  MISS %:       -nan   MPKI: 0
PSCL3 WRITEBACK ACCESS:          0  HIT:          0  MISS:          0  HIT %:       -nan  MISS %:       -nan   MPKI: 0
PSCL2 TOTAL     ACCESS:      42850  HIT:      42762  MISS:         88  HIT %:    99.7946  MISS %:   0.205368   MPKI: 0.000418136
PSCL2 LOAD      ACCESS:          0  HIT:          0  MISS:          0  HIT %:       -nan  MISS %:       -nan   MPKI: 0
PSCL2 RFO       ACCESS:          0  HIT:          0  MISS:          0  HIT %:       -nan  MISS %:       -nan   MPKI: 0
PSCL2 PREFETCH  ACCESS:          0  HIT:          0  MISS:          0  HIT %:       -nan  MISS %:       -nan   MPKI: 0
PSCL2 WRITEBACK ACCESS:          0  HIT:          0  MISS:          0  HIT %:       -nan  MISS %:       -nan   MPKI: 0

stream: 
stream:times selected: 45736958
stream:pref_filled: 38713855
stream:pref_useful: 806798
stream:pref_late: 295003
stream:misses: 9708093
stream:misses_by_poll: 0

CS: 
CS:times selected: 4211593
CS:pref_filled: 3288885
CS:pref_useful: 2960692
CS:pref_late: 109392
CS:misses: 839814
CS:misses_by_poll: 3375

CPLX: 
CPLX:times selected: 41144992
CPLX:pref_filled: 788625
CPLX:pref_useful: 31257
CPLX:pref_late: 15890
CPLX:misses: 30430906
CPLX:misses_by_poll: 293

NL_L1: 
NL:times selected: 54209
NL:pref_filled: 52856
NL:pref_useful: 587
NL:pref_late: 174
NL:misses: 53267
NL:misses_by_poll: 0

total selections: 91147752
total_filled: 35807103
total_useful: 3217202
total_late: 425305
total_polluted: 3668
total_misses_after_warmup: 34258327
conflicts: 205
Degree Incremented Times: 1251838
Degree Decremented Times: 2719136

L1 IP Table Write Accesses: 265080911
L1 IP Table Read Accesses: 265080706
L1 RST Write Accesses: 148101982
L1 RST Read Accesses: 296203964
L1 CSPT Write Accesses: 148101982
L1 CSPT Read Accesses: 281960341
L1 RR Filter Tag Write Accesses: 161252213
L1 RR Filter Tag Read Accesses: 5812270588
L1 IP Table Tag Write Accesses: 265081100
L1 IP Table Tag Read Accesses: 265081100
L1 RST Tag Write Accesses: 0
L1 RST Tag Read Accesses: 1329774033
L1 RR Filter Write Accesses: 0
L1 RR Filter Read Accesses: 186656795
test: 94610685
LLC TOTAL     ACCESS:   55438996  HIT:   34097396  MISS:   21341600  HIT %:    61.5044  MISS %:    38.4956   MPKI: 101.405
LLC LOAD      ACCESS:   25885929  HIT:   17115242  MISS:    8770687  HIT %:    66.1179  MISS %:    33.8821   MPKI: 41.6743
LLC RFO       ACCESS:      65434  HIT:       6680  MISS:      58754  HIT %:    10.2088  MISS %:    89.7912   MPKI: 0.279172
LLC PREFETCH  ACCESS:   29337321  HIT:   16843375  MISS:   12493946  HIT %:    57.4128  MISS %:    42.5872   MPKI: 59.3655
LLC WRITEBACK ACCESS:     141333  HIT:     129408  MISS:      11925  HIT %:    91.5625  MISS %:    8.43752   MPKI: 0.0566621

RAW hits: 24
Loads Generated: 81472705
Loads sent to L1D: 81472681
Stores Generated: 3422753
Stores sent to L1D: 3422753

CPU 2 cumulative IPC: 0.053885 instructions: 203640668 cycles: 3779168744
ITLB TOTAL     ACCESS:   61124430  HIT:   61124430  MISS:          0  HIT %:        100  MISS %:          0   MPKI: 0
ITLB LOAD      ACCESS:          0  HIT:          0  MISS:          0  HIT %:       -nan  MISS %:       -nan   MPKI: 0
ITLB RFO       ACCESS:          0  HIT:          0  MISS:          0  HIT %:       -nan  MISS %:       -nan   MPKI: 0
ITLB PREFETCH  ACCESS:          0  HIT:          0  MISS:          0  HIT %:       -nan  MISS %:       -nan   MPKI: 0
ITLB WRITEBACK ACCESS:          0  HIT:          0  MISS:          0  HIT %:       -nan  MISS %:       -nan   MPKI: 0
DTLB TOTAL     ACCESS:   68366231  HIT:   45028570  MISS:   23337661  HIT %:    65.8638  MISS %:    34.1362   MPKI: 114.602
DTLB LOAD      ACCESS:          0  HIT:          0  MISS:          0  HIT %:       -nan  MISS %:       -nan   MPKI: 0
DTLB RFO       ACCESS:          0  HIT:          0  MISS:          0  HIT %:       -nan  MISS %:       -nan   MPKI: 0
DTLB PREFETCH  ACCESS:          0  HIT:          0  MISS:          0  HIT %:       -nan  MISS %:       -nan   MPKI: 0
DTLB WRITEBACK ACCESS:          0  HIT:          0  MISS:          0  HIT %:       -nan  MISS %:       -nan   MPKI: 0
STLB TOTAL     ACCESS:   58143934  HIT:   58102401  MISS:      41533  HIT %:    99.9286  MISS %:  0.0714314   MPKI: 0.203952
STLB LOAD      ACCESS:          0  HIT:          0  MISS:          0  HIT %:       -nan  MISS %:       -nan   MPKI: 0
STLB RFO       ACCESS:          0  HIT:          0  MISS:          0  HIT %:       -nan  MISS %:       -nan   MPKI: 0
STLB PREFETCH  ACCESS:          0  HIT:          0  MISS:          0  HIT %:       -nan  MISS %:       -nan   MPKI: 0
STLB WRITEBACK ACCESS:          0  HIT:          0  MISS:          0  HIT %:       -nan  MISS %:       -nan   MPKI: 0
L1D TOTAL     ACCESS:  107774686  HIT:   40376562  MISS:   67398124  HIT %:    37.4639  MISS %:    62.5361   MPKI: 330.966
L1D LOAD      ACCESS:   65580069  HIT:   32821112  MISS:   32758957  HIT %:    50.0474  MISS %:    49.9526   MPKI: 160.866
L1D RFO       ACCESS:    2507455  HIT:    2441899  MISS:      65556  HIT %:    97.3856  MISS %:    2.61444   MPKI: 0.32192
L1D PREFETCH  ACCESS:   39687162  HIT:    5113551  MISS:   34573611  HIT %:    12.8846  MISS %:    87.1154   MPKI: 169.778
L1D WRITEBACK ACCESS:          0  HIT:          0  MISS:          0  HIT %:       -nan  MISS %:       -nan   MPKI: 0
L1I TOTAL     ACCESS:   62271975  HIT:   62271952  MISS:         23  HIT %:        100  MISS %: 3.69348e-05   MPKI: 0.000112944
L1I LOAD      ACCESS:   62271975  HIT:   62271952  MISS:         23  HIT %:        100  MISS %: 3.69348e-05   MPKI: 0.000112944
L1I RFO       ACCESS:          0  HIT:          0  MISS:          0  HIT %:       -nan  MISS %:       -nan   MPKI: 0
L1I PREFETCH  ACCESS:          0  HIT:          0  MISS:          0  HIT %:       -nan  MISS %:       -nan   MPKI: 0
L1I WRITEBACK ACCESS:          0  HIT:          0  MISS:          0  HIT %:       -nan  MISS %:       -nan   MPKI: 0
L2C TOTAL     ACCESS:   67610759  HIT:   14198683  MISS:   53412076  HIT %:    21.0006  MISS %:    78.9994   MPKI: 262.286
L2C LOAD      ACCESS:   32396369  HIT:    7402956  MISS:   24993413  HIT %:    22.8512  MISS %:    77.1488   MPKI: 122.733
L2C RFO       ACCESS:      65556  HIT:        206  MISS:      65350  HIT %:   0.314235  MISS %:    99.6858   MPKI: 0.320908
L2C PREFETCH  ACCESS:   34936206  HIT:    6623062  MISS:   28313144  HIT %:    18.9576  MISS %:    81.0424   MPKI: 139.035
L2C WRITEBACK ACCESS:     171056  HIT:     139592  MISS:      31464  HIT %:     81.606  MISS %:     18.394   MPKI: 0.154507
PSCL5 TOTAL     ACCESS:      41533  HIT:      41533  MISS:          0  HIT %:        100  MISS %:          0   MPKI: 0
PSCL5 LOAD      ACCESS:          0  HIT:          0  MISS:          0  HIT %:       -nan  MISS %:       -nan   MPKI: 0
PSCL5 RFO       ACCESS:          0  HIT:          0  MISS:          0  HIT %:       -nan  MISS %:       -nan   MPKI: 0
PSCL5 PREFETCH  ACCESS:          0  HIT:          0  MISS:          0  HIT %:       -nan  MISS %:       -nan   MPKI: 0
PSCL5 WRITEBACK ACCESS:          0  HIT:          0  MISS:          0  HIT %:       -nan  MISS %:       -nan   MPKI: 0
PSCL4 TOTAL     ACCESS:      41533  HIT:      41533  MISS:          0  HIT %:        100  MISS %:          0   MPKI: 0
PSCL4 LOAD      ACCESS:          0  HIT:          0  MISS:          0  HIT %:       -nan  MISS %:       -nan   MPKI: 0
PSCL4 RFO       ACCESS:          0  HIT:          0  MISS:          0  HIT %:       -nan  MISS %:       -nan   MPKI: 0
PSCL4 PREFETCH  ACCESS:          0  HIT:          0  MISS:          0  HIT %:       -nan  MISS %:       -nan   MPKI: 0
PSCL4 WRITEBACK ACCESS:          0  HIT:          0  MISS:          0  HIT %:       -nan  MISS %:       -nan   MPKI: 0
PSCL3 TOTAL     ACCESS:      41533  HIT:      41533  MISS:          0  HIT %:        100  MISS %:          0   MPKI: 0
PSCL3 LOAD      ACCESS:          0  HIT:          0  MISS:          0  HIT %:       -nan  MISS %:       -nan   MPKI: 0
PSCL3 RFO       ACCESS:          0  HIT:          0  MISS:          0  HIT %:       -nan  MISS %:       -nan   MPKI: 0
PSCL3 PREFETCH  ACCESS:          0  HIT:          0  MISS:          0  HIT %:       -nan  MISS %:       -nan   MPKI: 0
PSCL3 WRITEBACK ACCESS:          0  HIT:          0  MISS:          0  HIT %:       -nan  MISS %:       -nan   MPKI: 0
PSCL2 TOTAL     ACCESS:      41533  HIT:      41447  MISS:         86  HIT %:    99.7929  MISS %:   0.207064   MPKI: 0.000422313
PSCL2 LOAD      ACCESS:          0  HIT:          0  MISS:          0  HIT %:       -nan  MISS %:       -nan   MPKI: 0
PSCL2 RFO       ACCESS:          0  HIT:          0  MISS:          0  HIT %:       -nan  MISS %:       -nan   MPKI: 0
PSCL2 PREFETCH  ACCESS:          0  HIT:          0  MISS:          0  HIT %:       -nan  MISS %:       -nan   MPKI: 0
PSCL2 WRITEBACK ACCESS:          0  HIT:          0  MISS:          0  HIT %:       -nan  MISS %:       -nan   MPKI: 0

stream: 
stream:times selected: 44390631
stream:pref_filled: 37544240
stream:pref_useful: 766057
stream:pref_late: 290286
stream:misses: 9428336
stream:misses_by_poll: 0

CS: 
CS:times selected: 4104932
CS:pref_filled: 3190892
CS:pref_useful: 2875643
CS:pref_late: 107994
CS:misses: 814941
CS:misses_by_poll: 3314

CPLX: 
CPLX:times selected: 39916156
CPLX:pref_filled: 761947
CPLX:pref_useful: 29238
CPLX:pref_late: 15678
CPLX:misses: 29522501
CPLX:misses_by_poll: 340

NL_L1: 
NL:times selected: 54226
NL:pref_filled: 52856
NL:pref_useful: 593
NL:pref_late: 170
NL:misses: 53301
NL:misses_by_poll: 0

total selections: 88465945
total_filled: 34573611
total_useful: 3097151
total_late: 418774
total_polluted: 3654
total_misses_after_warmup: 33049018
conflicts: 205
Degree Incremented Times: 1251838
Degree Decremented Times: 2719136

L1 IP Table Write Accesses: 265080911
L1 IP Table Read Accesses: 265080706
L1 RST Write Accesses: 148101982
L1 RST Read Accesses: 296203964
L1 CSPT Write Accesses: 148101982
L1 CSPT Read Accesses: 281960341
L1 RR Filter Tag Write Accesses: 161252213
L1 RR Filter Tag Read Accesses: 5812270588
L1 IP Table Tag Write Accesses: 265081100
L1 IP Table Tag Read Accesses: 265081100
L1 RST Tag Write Accesses: 0
L1 RST Tag Read Accesses: 1329774033
L1 RR Filter Write Accesses: 0
L1 RR Filter Read Accesses: 186656795
test: 94610685
LLC TOTAL     ACCESS:   53518726  HIT:   31606286  MISS:   21912440  HIT %:    59.0565  MISS %:    40.9435   MPKI: 107.603
LLC LOAD      ACCESS:   24993413  HIT:   15900037  MISS:    9093376  HIT %:    63.6169  MISS %:    36.3831   MPKI: 44.654
LLC RFO       ACCESS:      65350  HIT:       7133  MISS:      58217  HIT %:    10.9151  MISS %:    89.0849   MPKI: 0.285881
LLC PREFETCH  ACCESS:   28313144  HIT:   15572455  MISS:   12740689  HIT %:    55.0008  MISS %:    44.9992   MPKI: 62.5646
LLC WRITEBACK ACCESS:     138114  HIT:     123827  MISS:      14287  HIT %:    89.6556  MISS %:    10.3444   MPKI: 0.0701579

RAW hits: 24
Loads Generated: 78786357
Loads sent to L1D: 78786333
Stores Generated: 3345049
Stores sent to L1D: 3345049

CPU 3 cumulative IPC: 0.0538437 instructions: 203484386 cycles: 3779168744
ITLB TOTAL     ACCESS:   61078684  HIT:   61078684  MISS:          0  HIT %:        100  MISS %:          0   MPKI: 0
ITLB LOAD      ACCESS:          0  HIT:          0  MISS:          0  HIT %:       -nan  MISS %:       -nan   MPKI: 0
ITLB RFO       ACCESS:          0  HIT:          0  MISS:          0  HIT %:       -nan  MISS %:       -nan   MPKI: 0
ITLB PREFETCH  ACCESS:          0  HIT:          0  MISS:          0  HIT %:       -nan  MISS %:       -nan   MPKI: 0
ITLB WRITEBACK ACCESS:          0  HIT:          0  MISS:          0  HIT %:       -nan  MISS %:       -nan   MPKI: 0
DTLB TOTAL     ACCESS:   68304290  HIT:   44989776  MISS:   23314514  HIT %:    65.8667  MISS %:    34.1333   MPKI: 114.576
DTLB LOAD      ACCESS:          0  HIT:          0  MISS:          0  HIT %:       -nan  MISS %:       -nan   MPKI: 0
DTLB RFO       ACCESS:          0  HIT:          0  MISS:          0  HIT %:       -nan  MISS %:       -nan   MPKI: 0
DTLB PREFETCH  ACCESS:          0  HIT:          0  MISS:          0  HIT %:       -nan  MISS %:       -nan   MPKI: 0
DTLB WRITEBACK ACCESS:          0  HIT:          0  MISS:          0  HIT %:       -nan  MISS %:       -nan   MPKI: 0
STLB TOTAL     ACCESS:   58092463  HIT:   58050957  MISS:      41506  HIT %:    99.9286  MISS %:  0.0714482   MPKI: 0.203976
STLB LOAD      ACCESS:          0  HIT:          0  MISS:          0  HIT %:       -nan  MISS %:       -nan   MPKI: 0
STLB RFO       ACCESS:          0  HIT:          0  MISS:          0  HIT %:       -nan  MISS %:       -nan   MPKI: 0
STLB PREFETCH  ACCESS:          0  HIT:          0  MISS:          0  HIT %:       -nan  MISS %:       -nan   MPKI: 0
STLB WRITEBACK ACCESS:          0  HIT:          0  MISS:          0  HIT %:       -nan  MISS %:       -nan   MPKI: 0
L1D TOTAL     ACCESS:  107658218  HIT:   40314349  MISS:   67343869  HIT %:    37.4466  MISS %:    62.5534   MPKI: 330.953
L1D LOAD      ACCESS:   65519545  HIT:   32785111  MISS:   32734434  HIT %:    50.0387  MISS %:    49.9613   MPKI: 160.87
L1D RFO       ACCESS:    2489594  HIT:    2424037  MISS:      65557  HIT %:    97.3668  MISS %:    2.63324   MPKI: 0.322172
L1D PREFETCH  ACCESS:   39649079  HIT:    5105201  MISS:   34543878  HIT %:     12.876  MISS %:     87.124   MPKI: 169.762
L1D WRITEBACK ACCESS:          0  HIT:          0  MISS:          0  HIT %:       -nan  MISS %:       -nan   MPKI: 0
L1I TOTAL     ACCESS:   62224998  HIT:   62224975  MISS:         23  HIT %:        100  MISS %: 3.69626e-05   MPKI: 0.000113031
L1I LOAD      ACCESS:   62224998  HIT:   62224975  MISS:         23  HIT %:        100  MISS %: 3.69626e-05   MPKI: 0.000113031
L1I RFO       ACCESS:          0  HIT:          0  MISS:          0  HIT %:       -nan  MISS %:       -nan   MPKI: 0
L1I PREFETCH  ACCESS:          0  HIT:          0  MISS:          0  HIT %:       -nan  MISS %:       -nan   MPKI: 0
L1I WRITEBACK ACCESS:          0  HIT:          0  MISS:          0  HIT %:       -nan  MISS %:       -nan   MPKI: 0
L2C TOTAL     ACCESS:   67556377  HIT:   13991949  MISS:   53564428  HIT %:    20.7115  MISS %:    79.2885   MPKI: 263.236
L2C LOAD      ACCESS:   32370062  HIT:    7294362  MISS:   25075700  HIT %:    22.5343  MISS %:    77.4657   MPKI: 123.232
L2C RFO       ACCESS:      65556  HIT:        185  MISS:      65371  HIT %:   0.282201  MISS %:    99.7178   MPKI: 0.321258
L2C PREFETCH  ACCESS:   34908264  HIT:    6526268  MISS:   28381996  HIT %:    18.6955  MISS %:    81.3045   MPKI: 139.48
L2C WRITEBACK ACCESS:     170951  HIT:     138721  MISS:      32230  HIT %:    81.1466  MISS %:    18.8534   MPKI: 0.158391
PSCL5 TOTAL     ACCESS:      41506  HIT:      41506  MISS:          0  HIT %:        100  MISS %:          0   MPKI: 0
PSCL5 LOAD      ACCESS:          0  HIT:          0  MISS:          0  HIT %:       -nan  MISS %:       -nan   MPKI: 0
PSCL5 RFO       ACCESS:          0  HIT:          0  MISS:          0  HIT %:       -nan  MISS %:       -nan   MPKI: 0
PSCL5 PREFETCH  ACCESS:          0  HIT:          0  MISS:          0  HIT %:       -nan  MISS %:       -nan   MPKI: 0
PSCL5 WRITEBACK ACCESS:          0  HIT:          0  MISS:          0  HIT %:       -nan  MISS %:       -nan   MPKI: 0
PSCL4 TOTAL     ACCESS:      41506  HIT:      41506  MISS:          0  HIT %:        100  MISS %:          0   MPKI: 0
PSCL4 LOAD      ACCESS:          0  HIT:          0  MISS:          0  HIT %:       -nan  MISS %:       -nan   MPKI: 0
PSCL4 RFO       ACCESS:          0  HIT:          0  MISS:          0  HIT %:       -nan  MISS %:       -nan   MPKI: 0
PSCL4 PREFETCH  ACCESS:          0  HIT:          0  MISS:          0  HIT %:       -nan  MISS %:       -nan   MPKI: 0
PSCL4 WRITEBACK ACCESS:          0  HIT:          0  MISS:          0  HIT %:       -nan  MISS %:       -nan   MPKI: 0
PSCL3 TOTAL     ACCESS:      41506  HIT:      41506  MISS:          0  HIT %:        100  MISS %:          0   MPKI: 0
PSCL3 LOAD      ACCESS:          0  HIT:          0  MISS:          0  HIT %:       -nan  MISS %:       -nan   MPKI: 0
PSCL3 RFO       ACCESS:          0  HIT:          0  MISS:          0  HIT %:       -nan  MISS %:       -nan   MPKI: 0
PSCL3 PREFETCH  ACCESS:          0  HIT:          0  MISS:          0  HIT %:       -nan  MISS %:       -nan   MPKI: 0
PSCL3 WRITEBACK ACCESS:          0  HIT:          0  MISS:          0  HIT %:       -nan  MISS %:       -nan   MPKI: 0
PSCL2 TOTAL     ACCESS:      41506  HIT:      41421  MISS:         85  HIT %:    99.7952  MISS %:    0.20479   MPKI: 0.000417722
PSCL2 LOAD      ACCESS:          0  HIT:          0  MISS:          0  HIT %:       -nan  MISS %:       -nan   MPKI: 0
PSCL2 RFO       ACCESS:          0  HIT:          0  MISS:          0  HIT %:       -nan  MISS %:       -nan   MPKI: 0
PSCL2 PREFETCH  ACCESS:          0  HIT:          0  MISS:          0  HIT %:       -nan  MISS %:       -nan   MPKI: 0
PSCL2 WRITEBACK ACCESS:          0  HIT:          0  MISS:          0  HIT %:       -nan  MISS %:       -nan   MPKI: 0

stream: 
stream:times selected: 44324857
stream:pref_filled: 37481831
stream:pref_useful: 763908
stream:pref_late: 291734
stream:misses: 9413301
stream:misses_by_poll: 0

CS: 
CS:times selected: 4100596
CS:pref_filled: 3185738
CS:pref_useful: 2870808
CS:pref_late: 108425
CS:misses: 859564
CS:misses_by_poll: 3290

CPLX: 
CPLX:times selected: 39855346
CPLX:pref_filled: 761390
CPLX:pref_useful: 29421
CPLX:pref_late: 15445
CPLX:misses: 29479000
CPLX:misses_by_poll: 382

NL_L1: 
NL:times selected: 54323
NL:pref_filled: 52997
NL:pref_useful: 601
NL:pref_late: 170
NL:misses: 53395
NL:misses_by_poll: 0

total selections: 88335122
total_filled: 34543878
total_useful: 3093396
total_late: 420222
total_polluted: 3672
total_misses_after_warmup: 32990894
conflicts: 205
Degree Incremented Times: 1251838
Degree Decremented Times: 2719136

L1 IP Table Write Accesses: 265080911
L1 IP Table Read Accesses: 265080706
L1 RST Write Accesses: 148101982
L1 RST Read Accesses: 296203964
L1 CSPT Write Accesses: 148101982
L1 CSPT Read Accesses: 281960341
L1 RR Filter Tag Write Accesses: 161252213
L1 RR Filter Tag Read Accesses: 5812270588
L1 IP Table Tag Write Accesses: 265081100
L1 IP Table Tag Read Accesses: 265081100
L1 RST Tag Write Accesses: 0
L1 RST Tag Read Accesses: 1329774033
L1 RR Filter Write Accesses: 0
L1 RR Filter Read Accesses: 186656795
test: 94610685
LLC TOTAL     ACCESS:   53671415  HIT:   31753229  MISS:   21918186  HIT %:    59.1623  MISS %:    40.8377   MPKI: 107.714
LLC LOAD      ACCESS:   25075700  HIT:   15988893  MISS:    9086807  HIT %:    63.7625  MISS %:    36.2375   MPKI: 44.656
LLC RFO       ACCESS:      65371  HIT:       4982  MISS:      60389  HIT %:    7.62112  MISS %:    92.3789   MPKI: 0.296775
LLC PREFETCH  ACCESS:   28381996  HIT:   15631540  MISS:   12750456  HIT %:    55.0755  MISS %:    44.9245   MPKI: 62.6606
LLC WRITEBACK ACCESS:     139217  HIT:     124679  MISS:      14538  HIT %:    89.5573  MISS %:    10.4427   MPKI: 0.0714453

RAW hits: 28
Loads Generated: 78725115
Loads sent to L1D: 78725087
Stores Generated: 3342597
Stores sent to L1D: 3342597

Region of Interest Statistics

CPU 0 cumulative IPC: 0.0529217 instructions: 200000000 cycles: 3779168744
ITLB TOTAL     ACCESS:   60001181  HIT:   60001181  MISS:          0  HIT %:        100  MISS %:          0   MPKI: 0
ITLB LOAD TRANSLATION ACCESS:   60001181  HIT:   60001181  MISS:          0  HIT %:        100  MISS %:          0   MPKI: 0
ITLB PREFETCH  REQUESTED:          0  ISSUED:          0  USEFUL:          0  USELESS:          0
ITLB USEFUL LOAD PREFETCHES:          0 PREFETCH ISSUED TO LOWER LEVEL:          0  ACCURACY: -nan
ITLB TIMELY PREFETCHES:          0 LATE PREFETCHES: 0 DROPPED PREFETCHES: 0
ITLB PREFETCHES SAME FILL-ORIGIN LEVEL: 0 DIFFERENT FILL-ORIGIN LEVEL: 0
ITLB AVERAGE MISS LATENCY: -nan cycles
ITLB RQ	ACCESS:   61126829	FORWARD:          0	MERGED:    1125649	TO_CACHE:   60001180

DTLB TOTAL     ACCESS:   67112020  HIT:   44221973  MISS:   22890047  HIT %:    65.8928  MISS %:    34.1072   MPKI: 114.45
DTLB LOAD TRANSLATION ACCESS:   67112020  HIT:   44221973  MISS:   22890047  HIT %:    65.8928  MISS %:    34.1072   MPKI: 114.45
DTLB PREFETCH  REQUESTED:          0  ISSUED:          0  USEFUL:          0  USELESS:          0
DTLB USEFUL LOAD PREFETCHES:          0 PREFETCH ISSUED TO LOWER LEVEL:          0  ACCURACY: -nan
DTLB TIMELY PREFETCHES:          0 LATE PREFETCHES: 0 DROPPED PREFETCHES: 0
DTLB PREFETCHES SAME FILL-ORIGIN LEVEL: 0 DIFFERENT FILL-ORIGIN LEVEL: 0
DTLB AVERAGE MISS LATENCY: 9.2109 cycles
DTLB RQ	ACCESS:   67914827	FORWARD:          0	MERGED:     791964	TO_CACHE:   67122863

STLB TOTAL     ACCESS:   57034722  HIT:   56993888  MISS:      40834  HIT %:    99.9284  MISS %:   0.071595   MPKI: 0.20417
STLB LOAD TRANSLATION ACCESS:   22890046  HIT:   22849212  MISS:      40834  HIT %:    99.8216  MISS %:   0.178392   MPKI: 0.20417
STLB TRANSLATION FROM L1D PREFETCHER ACCESS:   34144676  HIT:   34144676  MISS:          0  HIT %:        100  MISS %:          0   MPKI: 0
STLB PREFETCH  REQUESTED:          0  ISSUED:          0  USEFUL:          0  USELESS:          0
STLB USEFUL LOAD PREFETCHES:          0 PREFETCH ISSUED TO LOWER LEVEL:          0  ACCURACY: -nan
STLB TIMELY PREFETCHES:          0 LATE PREFETCHES: 0 DROPPED PREFETCHES: 0
STLB PREFETCHES SAME FILL-ORIGIN LEVEL: 0 DIFFERENT FILL-ORIGIN LEVEL: 0
STLB AVERAGE MISS LATENCY: 113.014 cycles
STLB RQ	ACCESS:   62193852	FORWARD:          0	MERGED:    5159130	TO_CACHE:   57034722

STLB Hit, L1D data hit: 0
STLB Hit, L2C data hit: 0
STLB Hit, LLC data hit: 0
STLB Hit, LLC data miss: 0
STLB STLB hints to L2: 0
L1D TOTAL     ACCESS:  105752425  HIT:   39635413  MISS:   66117012  HIT %:    37.4794  MISS %:    62.5206   MPKI: 330.585
L1D LOAD      ACCESS:   64360042  HIT:   32220670  MISS:   32139372  HIT %:    50.0632  MISS %:    49.9368   MPKI: 160.697
L1D RFO       ACCESS:    2459460  HIT:    2393904  MISS:      65556  HIT %:    97.3345  MISS %:    2.66546   MPKI: 0.32778
L1D PREFETCH  ACCESS:   38932923  HIT:    5020839  MISS:   33912084  HIT %:    12.8961  MISS %:    87.1039   MPKI: 169.56
L1D PREFETCH  REQUESTED:   78607612  ISSUED:   78607612  USEFUL:    3038814  USELESS:   30873250
L1D USEFUL LOAD PREFETCHES:    3038814 PREFETCH ISSUED TO LOWER LEVEL:   34275364  ACCURACY: 8.86588
L1D TIMELY PREFETCHES:    3038814 LATE PREFETCHES: 363280 DROPPED PREFETCHES: 0
L1D PREFETCHES SAME FILL-ORIGIN LEVEL: 34275364 DIFFERENT FILL-ORIGIN LEVEL: 0
L1D AVERAGE MISS LATENCY: 106.284 cycles
L1D RQ	ACCESS:   77352991	FORWARD:          0	MERGED:   12739389	TO_CACHE:   64613593
L1D WQ	ACCESS:    3301237	FORWARD:          9	MERGED:          3	TO_CACHE:    3301234
L1D PQ	ACCESS:   39303806	FORWARD:          0	MERGED:          0	TO_CACHE:   39303806

L1D UNIQUE REGIONS ACCESSED: 0
L1D REGIONS CONFLICTS: 0
L1D Cross Page Prefetch Requests: 0
L1D Same Page Prefetch Requests: 47851190
L1D ROI Sum of L1D PQ occupancy: 436750326
L1D PREFETCHES PUSHED FROM L2C: 0
L1I TOTAL     ACCESS:   61126828  HIT:   61126805  MISS:         23  HIT %:        100  MISS %: 3.76267e-05   MPKI: 0.000115
L1I LOAD      ACCESS:   61126828  HIT:   61126805  MISS:         23  HIT %:        100  MISS %: 3.76267e-05   MPKI: 0.000115
L1I PREFETCH  REQUESTED:          0  ISSUED:          0  USEFUL:          0  USELESS:          0
L1I USEFUL LOAD PREFETCHES:          0 PREFETCH ISSUED TO LOWER LEVEL:          0  ACCURACY: -nan
L1I TIMELY PREFETCHES:          0 LATE PREFETCHES: 0 DROPPED PREFETCHES: 0
L1I PREFETCHES SAME FILL-ORIGIN LEVEL: 0 DIFFERENT FILL-ORIGIN LEVEL: 0
L1I AVERAGE MISS LATENCY: 248.13 cycles
L1I RQ	ACCESS:   72156036	FORWARD:          0	MERGED:   11029207	TO_CACHE:   61126829

BTB TOTAL     ACCESS:   37026028  HIT:   37025859  MISS:        169  HIT %:    99.9995  MISS %: 0.000456436   MPKI: 0.000845
BTB BRANCH_DIRECT_JUMP	ACCESS:         66  HIT:         33  MISS:         33
BTB BRANCH_INDIRECT	ACCESS:          4  HIT:          0  MISS:          4
BTB BRANCH_CONDITIONAL	ACCESS:   37025892  HIT:   37025806  MISS:         86
BTB BRANCH_DIRECT_CALL	ACCESS:         28  HIT:         10  MISS:         18
BTB BRANCH_INDIRECT_CALL	ACCESS:          5  HIT:          1  MISS:          4
BTB BRANCH_RETURN	ACCESS:         33  HIT:          9  MISS:         24
BTB BRANCH_OTHER ACCESS:          0  HIT:          0  MISS:          0

L2C TOTAL     ACCESS:   66326921  HIT:   13818725  MISS:   52508196  HIT %:    20.8343  MISS %:    79.1657   MPKI: 262.541
L2C LOAD      ACCESS:   31776104  HIT:    7203952  MISS:   24572152  HIT %:     22.671  MISS %:     77.329   MPKI: 122.861
L2C DATA LOAD MPKI: 122.861
L2C INSTRUCTION LOAD MPKI: 0.000115
L2C RFO       ACCESS:      65556  HIT:        173  MISS:      65383  HIT %:   0.263897  MISS %:    99.7361   MPKI: 0.326915
L2C PREFETCH  ACCESS:   34275364  HIT:    6446132  MISS:   27829232  HIT %:    18.8069  MISS %:    81.1931   MPKI: 139.146
L2C DATA PREFETCH MPKI: 139.146
L2C INSTRUCTION PREFETCH MPKI: 0
L2C WRITEBACK ACCESS:     169026  HIT:     136104  MISS:      32922  HIT %:    80.5225  MISS %:    19.4775   MPKI: 0.16461
L2C LOAD TRANSLATION ACCESS:      40871  HIT:      32364  MISS:       8507  HIT %:    79.1857  MISS %:    20.8143   MPKI: 0.042535
L2C PREFETCH  REQUESTED:          0  ISSUED:          0  USEFUL:    1071161  USELESS:   26758122
L2C USEFUL LOAD PREFETCHES:    1071161 PREFETCH ISSUED TO LOWER LEVEL:   27829232  ACCURACY: 3.84905
L2C TIMELY PREFETCHES:    1071161 LATE PREFETCHES: 0 DROPPED PREFETCHES: 0
L2C PREFETCHES SAME FILL-ORIGIN LEVEL: 0 DIFFERENT FILL-ORIGIN LEVEL: 0
L2C AVERAGE MISS LATENCY: 118.96 cycles
L2C RQ	ACCESS:   31882542	FORWARD:          0	MERGED:          0	TO_CACHE:   31882531
L2C WQ	ACCESS:     169026	FORWARD:         11	MERGED:          0	TO_CACHE:     169026
L2C PQ	ACCESS:   34275364	FORWARD:          0	MERGED:          0	TO_CACHE:   34275364

L2C Instructions Evicting Data 23
L2C Translations Evicting Data 8505
L2C Data Evicting Data 52458240
L2C Instructions Evicting Instructions 0
L2C Translations Evicting Instructions 2
L2C Data Evicting Instructions 17
L2C Instructions Evicting Translations 0
L2C Translations Evicting Translations 0
L2C Data Evicting Translations 8487
L2C Dense regions hint from L2: 0
PSCL5 TOTAL     ACCESS:      40834  HIT:      40834  MISS:          0  HIT %:        100  MISS %:          0   MPKI: 0
PSCL5 LOAD TRANSLATION ACCESS:      40834  HIT:      40834  MISS:          0  HIT %:        100  MISS %:          0   MPKI: 0
PSCL5 PREFETCH  REQUESTED:          0  ISSUED:          0  USEFUL:          0  USELESS:          0
PSCL5 USEFUL LOAD PREFETCHES:          0 PREFETCH ISSUED TO LOWER LEVEL:          0  ACCURACY: -nan
PSCL5 TIMELY PREFETCHES:          0 LATE PREFETCHES: 0 DROPPED PREFETCHES: 0
PSCL5 PREFETCHES SAME FILL-ORIGIN LEVEL: 0 DIFFERENT FILL-ORIGIN LEVEL: 0

PSCL4 TOTAL     ACCESS:      40834  HIT:      40834  MISS:          0  HIT %:        100  MISS %:          0   MPKI: 0
PSCL4 LOAD TRANSLATION ACCESS:      40834  HIT:      40834  MISS:          0  HIT %:        100  MISS %:          0   MPKI: 0
PSCL4 PREFETCH  REQUESTED:          0  ISSUED:          0  USEFUL:          0  USELESS:          0
PSCL4 USEFUL LOAD PREFETCHES:          0 PREFETCH ISSUED TO LOWER LEVEL:          0  ACCURACY: -nan
PSCL4 TIMELY PREFETCHES:          0 LATE PREFETCHES: 0 DROPPED PREFETCHES: 0
PSCL4 PREFETCHES SAME FILL-ORIGIN LEVEL: 0 DIFFERENT FILL-ORIGIN LEVEL: 0

PSCL3 TOTAL     ACCESS:      40834  HIT:      40834  MISS:          0  HIT %:        100  MISS %:          0   MPKI: 0
PSCL3 LOAD TRANSLATION ACCESS:      40834  HIT:      40834  MISS:          0  HIT %:        100  MISS %:          0   MPKI: 0
PSCL3 PREFETCH  REQUESTED:          0  ISSUED:          0  USEFUL:          0  USELESS:          0
PSCL3 USEFUL LOAD PREFETCHES:          0 PREFETCH ISSUED TO LOWER LEVEL:          0  ACCURACY: -nan
PSCL3 TIMELY PREFETCHES:          0 LATE PREFETCHES: 0 DROPPED PREFETCHES: 0
PSCL3 PREFETCHES SAME FILL-ORIGIN LEVEL: 0 DIFFERENT FILL-ORIGIN LEVEL: 0

PSCL2 TOTAL     ACCESS:      40834  HIT:      40750  MISS:         84  HIT %:    99.7943  MISS %:   0.205711   MPKI: 0.00042
PSCL2 LOAD TRANSLATION ACCESS:      40834  HIT:      40750  MISS:         84  HIT %:    99.7943  MISS %:   0.205711   MPKI: 0.00042
PSCL2 PREFETCH  REQUESTED:          0  ISSUED:          0  USEFUL:          0  USELESS:          0
PSCL2 USEFUL LOAD PREFETCHES:          0 PREFETCH ISSUED TO LOWER LEVEL:          0  ACCURACY: -nan
PSCL2 TIMELY PREFETCHES:          0 LATE PREFETCHES: 0 DROPPED PREFETCHES: 0
PSCL2 PREFETCHES SAME FILL-ORIGIN LEVEL: 0 DIFFERENT FILL-ORIGIN LEVEL: 0

LLC TOTAL     ACCESS:   52613618  HIT:   30383726  MISS:   22229892  HIT %:    57.7488  MISS %:    42.2512   MPKI: 111.149
LLC LOAD      ACCESS:   24572152  HIT:   15308308  MISS:    9263844  HIT %:    62.2994  MISS %:    37.7006   MPKI: 46.3192
LLC RFO       ACCESS:      65383  HIT:       6161  MISS:      59222  HIT %:    9.42294  MISS %:    90.5771   MPKI: 0.29611
LLC PREFETCH  ACCESS:   27829232  HIT:   14940712  MISS:   12888520  HIT %:    53.6871  MISS %:    46.3129   MPKI: 64.4426
LLC WRITEBACK ACCESS:     138344  HIT:     126130  MISS:      12214  HIT %:    91.1713  MISS %:    8.82872   MPKI: 0.06107
LLC LOAD TRANSLATION ACCESS:       8507  HIT:       2415  MISS:       6092  HIT %:    28.3884  MISS %:    71.6116   MPKI: 0.03046
LLC PREFETCH  REQUESTED:          0  ISSUED:          0  USEFUL:    5665290  USELESS:   45208983
LLC USEFUL LOAD PREFETCHES:    5665290 PREFETCH ISSUED TO LOWER LEVEL:   50873613  ACCURACY: 11.136
LLC TIMELY PREFETCHES:    5665290 LATE PREFETCHES: 0 DROPPED PREFETCHES: 0
LLC PREFETCHES SAME FILL-ORIGIN LEVEL: 0 DIFFERENT FILL-ORIGIN LEVEL: 0
LLC AVERAGE MISS LATENCY: 827.954 cycles
LLC RQ	ACCESS:  100824056	FORWARD:          0	MERGED:          0	TO_CACHE:  100824056
LLC WQ	ACCESS:     557008	FORWARD:          0	MERGED:          0	TO_CACHE:     557008
LLC PQ	ACCESS:  113861695	FORWARD:          0	MERGED:          0	TO_CACHE:  113861695

LLC Dense regions hint to LLC: 0

RAW hits: 24
Loads Generated: 77353015
Loads sent to L1D: 77352991
Stores Generated: 3301237
Stores sent to L1D: 3301237
Major fault: 0 Minor fault: 34900
Allocated PAGES: 139600

CPU 1 cumulative IPC: 0.055844 instructions: 200000000 cycles: 3581405026
ITLB TOTAL     ACCESS:   59975319  HIT:   59975319  MISS:          0  HIT %:        100  MISS %:          0   MPKI: 0
ITLB LOAD TRANSLATION ACCESS:   59975319  HIT:   59975319  MISS:          0  HIT %:        100  MISS %:          0   MPKI: 0
ITLB PREFETCH  REQUESTED:          0  ISSUED:          0  USEFUL:          0  USELESS:          0
ITLB USEFUL LOAD PREFETCHES:          0 PREFETCH ISSUED TO LOWER LEVEL:          0  ACCURACY: -nan
ITLB TIMELY PREFETCHES:          0 LATE PREFETCHES: 0 DROPPED PREFETCHES: 0
ITLB PREFETCHES SAME FILL-ORIGIN LEVEL: 0 DIFFERENT FILL-ORIGIN LEVEL: 0
ITLB AVERAGE MISS LATENCY: -nan cycles
ITLB RQ	ACCESS:   64416513	FORWARD:          0	MERGED:    1186390	TO_CACHE:   63230123

DTLB TOTAL     ACCESS:   67106907  HIT:   44209682  MISS:   22897225  HIT %:    65.8795  MISS %:    34.1205   MPKI: 114.486
DTLB LOAD TRANSLATION ACCESS:   67106907  HIT:   44209682  MISS:   22897225  HIT %:    65.8795  MISS %:    34.1205   MPKI: 114.486
DTLB PREFETCH  REQUESTED:          0  ISSUED:          0  USEFUL:          0  USELESS:          0
DTLB USEFUL LOAD PREFETCHES:          0 PREFETCH ISSUED TO LOWER LEVEL:          0  ACCURACY: -nan
DTLB TIMELY PREFETCHES:          0 LATE PREFETCHES: 0 DROPPED PREFETCHES: 0
DTLB PREFETCHES SAME FILL-ORIGIN LEVEL: 0 DIFFERENT FILL-ORIGIN LEVEL: 0
DTLB AVERAGE MISS LATENCY: 9.69944 cycles
DTLB RQ	ACCESS:   71545965	FORWARD:          0	MERGED:     826044	TO_CACHE:   70719921

STLB TOTAL     ACCESS:   57043484  HIT:   57002646  MISS:      40838  HIT %:    99.9284  MISS %:   0.071591   MPKI: 0.20419
STLB LOAD TRANSLATION ACCESS:   22897225  HIT:   22856387  MISS:      40838  HIT %:    99.8216  MISS %:   0.178353   MPKI: 0.20419
STLB TRANSLATION FROM L1D PREFETCHER ACCESS:   34146259  HIT:   34146259  MISS:          0  HIT %:        100  MISS %:          0   MPKI: 0
STLB PREFETCH  REQUESTED:          0  ISSUED:          0  USEFUL:          0  USELESS:          0
STLB USEFUL LOAD PREFETCHES:          0 PREFETCH ISSUED TO LOWER LEVEL:          0  ACCURACY: -nan
STLB TIMELY PREFETCHES:          0 LATE PREFETCHES: 0 DROPPED PREFETCHES: 0
STLB PREFETCHES SAME FILL-ORIGIN LEVEL: 0 DIFFERENT FILL-ORIGIN LEVEL: 0
STLB AVERAGE MISS LATENCY: 115.52 cycles
STLB RQ	ACCESS:   65575757	FORWARD:          0	MERGED:    5414013	TO_CACHE:   60161744

STLB Hit, L1D data hit: 0
STLB Hit, L2C data hit: 0
STLB Hit, LLC data hit: 0
STLB Hit, LLC data miss: 0
STLB STLB hints to L2: 0
L1D TOTAL     ACCESS:  105726430  HIT:   39604939  MISS:   66121491  HIT %:    37.4598  MISS %:    62.5402   MPKI: 330.607
L1D LOAD      ACCESS:   64349111  HIT:   32219474  MISS:   32129637  HIT %:    50.0698  MISS %:    49.9302   MPKI: 160.648
L1D RFO       ACCESS:    2463353  HIT:    2397797  MISS:      65556  HIT %:    97.3387  MISS %:    2.66125   MPKI: 0.32778
L1D PREFETCH  ACCESS:   38913966  HIT:    4987668  MISS:   33926298  HIT %:    12.8172  MISS %:    87.1828   MPKI: 169.631
L1D PREFETCH  REQUESTED:   82895820  ISSUED:   82895820  USEFUL:    3217202  USELESS:   32589896
L1D USEFUL LOAD PREFETCHES:    3217202 PREFETCH ISSUED TO LOWER LEVEL:   36178782  ACCURACY: 8.89251
L1D TIMELY PREFETCHES:    3217202 LATE PREFETCHES: 371679 DROPPED PREFETCHES: 0
L1D PREFETCHES SAME FILL-ORIGIN LEVEL: 36178782 DIFFERENT FILL-ORIGIN LEVEL: 0
L1D AVERAGE MISS LATENCY: 105.688 cycles
L1D RQ	ACCESS:   81472681	FORWARD:          0	MERGED:   13349457	TO_CACHE:   68123215
L1D WQ	ACCESS:    3422753	FORWARD:          9	MERGED:          3	TO_CACHE:    3422750
L1D PQ	ACCESS:   41447910	FORWARD:          0	MERGED:          0	TO_CACHE:   41447910

L1D UNIQUE REGIONS ACCESSED: 0
L1D REGIONS CONFLICTS: 0
L1D Cross Page Prefetch Requests: 0
L1D Same Page Prefetch Requests: 49580174
L1D ROI Sum of L1D PQ occupancy: 460543359
L1D PREFETCHES PUSHED FROM L2C: 0
L1I TOTAL     ACCESS:   61101253  HIT:   61101230  MISS:         23  HIT %:        100  MISS %: 3.76424e-05   MPKI: 0.000115
L1I LOAD      ACCESS:   61101253  HIT:   61101230  MISS:         23  HIT %:        100  MISS %: 3.76424e-05   MPKI: 0.000115
L1I PREFETCH  REQUESTED:          0  ISSUED:          0  USEFUL:          0  USELESS:          0
L1I USEFUL LOAD PREFETCHES:          0 PREFETCH ISSUED TO LOWER LEVEL:          0  ACCURACY: -nan
L1I TIMELY PREFETCHES:          0 LATE PREFETCHES: 0 DROPPED PREFETCHES: 0
L1I PREFETCHES SAME FILL-ORIGIN LEVEL: 0 DIFFERENT FILL-ORIGIN LEVEL: 0
L1I AVERAGE MISS LATENCY: 259.174 cycles
L1I RQ	ACCESS:   75994653	FORWARD:          0	MERGED:   11578140	TO_CACHE:   64416513

BTB TOTAL     ACCESS:   37025624  HIT:   37025455  MISS:        169  HIT %:    99.9995  MISS %: 0.000456441   MPKI: 0.000845
BTB BRANCH_DIRECT_JUMP	ACCESS:         66  HIT:         33  MISS:         33
BTB BRANCH_INDIRECT	ACCESS:          4  HIT:          0  MISS:          4
BTB BRANCH_CONDITIONAL	ACCESS:   37025488  HIT:   37025402  MISS:         86
BTB BRANCH_DIRECT_CALL	ACCESS:         28  HIT:         10  MISS:         18
BTB BRANCH_INDIRECT_CALL	ACCESS:          5  HIT:          1  MISS:          4
BTB BRANCH_RETURN	ACCESS:         33  HIT:          9  MISS:         24
BTB BRANCH_OTHER ACCESS:          0  HIT:          0  MISS:          0

L2C TOTAL     ACCESS:   66331496  HIT:   13917914  MISS:   52413582  HIT %:    20.9824  MISS %:    79.0176   MPKI: 262.068
L2C LOAD      ACCESS:   31777051  HIT:    7256736  MISS:   24520315  HIT %:    22.8364  MISS %:    77.1636   MPKI: 122.602
L2C DATA LOAD MPKI: 122.601
L2C INSTRUCTION LOAD MPKI: 0.000115
L2C RFO       ACCESS:      65556  HIT:        122  MISS:      65434  HIT %:     0.1861  MISS %:    99.8139   MPKI: 0.32717
L2C PREFETCH  ACCESS:   34278896  HIT:    6491592  MISS:   27787304  HIT %:    18.9376  MISS %:    81.0624   MPKI: 138.937
L2C DATA PREFETCH MPKI: 138.937
L2C INSTRUCTION PREFETCH MPKI: 0
L2C WRITEBACK ACCESS:     169118  HIT:     137133  MISS:      31985  HIT %:    81.0872  MISS %:    18.9128   MPKI: 0.159925
L2C LOAD TRANSLATION ACCESS:      40875  HIT:      32331  MISS:       8544  HIT %:    79.0972  MISS %:    20.9028   MPKI: 0.04272
L2C PREFETCH  REQUESTED:          0  ISSUED:          0  USEFUL:    1127219  USELESS:   28210276
L2C USEFUL LOAD PREFETCHES:    1127219 PREFETCH ISSUED TO LOWER LEVEL:   29337322  ACCURACY: 3.84227
L2C TIMELY PREFETCHES:    1127219 LATE PREFETCHES: 0 DROPPED PREFETCHES: 0
L2C PREFETCHES SAME FILL-ORIGIN LEVEL: 0 DIFFERENT FILL-ORIGIN LEVEL: 0
L2C AVERAGE MISS LATENCY: 117.504 cycles
L2C RQ	ACCESS:   33642746	FORWARD:          0	MERGED:          0	TO_CACHE:   33642735
L2C WQ	ACCESS:     174677	FORWARD:         11	MERGED:          0	TO_CACHE:     174677
L2C PQ	ACCESS:   36178782	FORWARD:          0	MERGED:          0	TO_CACHE:   36178782

L2C Instructions Evicting Data 23
L2C Translations Evicting Data 8976
L2C Data Evicting Data 55279681
L2C Instructions Evicting Instructions 0
L2C Translations Evicting Instructions 0
L2C Data Evicting Instructions 23
L2C Instructions Evicting Translations 0
L2C Translations Evicting Translations 3
L2C Data Evicting Translations 8957
L2C Dense regions hint from L2: 0
PSCL5 TOTAL     ACCESS:      40838  HIT:      40838  MISS:          0  HIT %:        100  MISS %:          0   MPKI: 0
PSCL5 LOAD TRANSLATION ACCESS:      40838  HIT:      40838  MISS:          0  HIT %:        100  MISS %:          0   MPKI: 0
PSCL5 PREFETCH  REQUESTED:          0  ISSUED:          0  USEFUL:          0  USELESS:          0
PSCL5 USEFUL LOAD PREFETCHES:          0 PREFETCH ISSUED TO LOWER LEVEL:          0  ACCURACY: -nan
PSCL5 TIMELY PREFETCHES:          0 LATE PREFETCHES: 0 DROPPED PREFETCHES: 0
PSCL5 PREFETCHES SAME FILL-ORIGIN LEVEL: 0 DIFFERENT FILL-ORIGIN LEVEL: 0

PSCL4 TOTAL     ACCESS:      40838  HIT:      40838  MISS:          0  HIT %:        100  MISS %:          0   MPKI: 0
PSCL4 LOAD TRANSLATION ACCESS:      40838  HIT:      40838  MISS:          0  HIT %:        100  MISS %:          0   MPKI: 0
PSCL4 PREFETCH  REQUESTED:          0  ISSUED:          0  USEFUL:          0  USELESS:          0
PSCL4 USEFUL LOAD PREFETCHES:          0 PREFETCH ISSUED TO LOWER LEVEL:          0  ACCURACY: -nan
PSCL4 TIMELY PREFETCHES:          0 LATE PREFETCHES: 0 DROPPED PREFETCHES: 0
PSCL4 PREFETCHES SAME FILL-ORIGIN LEVEL: 0 DIFFERENT FILL-ORIGIN LEVEL: 0

PSCL3 TOTAL     ACCESS:      40838  HIT:      40838  MISS:          0  HIT %:        100  MISS %:          0   MPKI: 0
PSCL3 LOAD TRANSLATION ACCESS:      40838  HIT:      40838  MISS:          0  HIT %:        100  MISS %:          0   MPKI: 0
PSCL3 PREFETCH  REQUESTED:          0  ISSUED:          0  USEFUL:          0  USELESS:          0
PSCL3 USEFUL LOAD PREFETCHES:          0 PREFETCH ISSUED TO LOWER LEVEL:          0  ACCURACY: -nan
PSCL3 TIMELY PREFETCHES:          0 LATE PREFETCHES: 0 DROPPED PREFETCHES: 0
PSCL3 PREFETCHES SAME FILL-ORIGIN LEVEL: 0 DIFFERENT FILL-ORIGIN LEVEL: 0

PSCL2 TOTAL     ACCESS:      40838  HIT:      40754  MISS:         84  HIT %:    99.7943  MISS %:   0.205691   MPKI: 0.00042
PSCL2 LOAD TRANSLATION ACCESS:      40838  HIT:      40754  MISS:         84  HIT %:    99.7943  MISS %:   0.205691   MPKI: 0.00042
PSCL2 PREFETCH  REQUESTED:          0  ISSUED:          0  USEFUL:          0  USELESS:          0
PSCL2 USEFUL LOAD PREFETCHES:          0 PREFETCH ISSUED TO LOWER LEVEL:          0  ACCURACY: -nan
PSCL2 TIMELY PREFETCHES:          0 LATE PREFETCHES: 0 DROPPED PREFETCHES: 0
PSCL2 PREFETCHES SAME FILL-ORIGIN LEVEL: 0 DIFFERENT FILL-ORIGIN LEVEL: 0

LLC TOTAL     ACCESS:   52519067  HIT:   32293810  MISS:   20225257  HIT %:    61.4897  MISS %:    38.5103   MPKI: 101.126
LLC LOAD      ACCESS:   24520315  HIT:   16211489  MISS:    8308826  HIT %:    66.1145  MISS %:    33.8855   MPKI: 41.5441
LLC RFO       ACCESS:      65434  HIT:       6680  MISS:      58754  HIT %:    10.2088  MISS %:    89.7912   MPKI: 0.29377
LLC PREFETCH  ACCESS:   27787304  HIT:   15947301  MISS:   11840003  HIT %:    57.3906  MISS %:    42.6094   MPKI: 59.2
LLC WRITEBACK ACCESS:     137470  HIT:     125787  MISS:      11683  HIT %:    91.5014  MISS %:    8.49858   MPKI: 0.058415
LLC LOAD TRANSLATION ACCESS:       8544  HIT:       2553  MISS:       5991  HIT %:    29.8806  MISS %:    70.1194   MPKI: 0.029955
LLC PREFETCH  REQUESTED:          0  ISSUED:          0  USEFUL:    5665290  USELESS:   45208983
LLC USEFUL LOAD PREFETCHES:    5665290 PREFETCH ISSUED TO LOWER LEVEL:   50873613  ACCURACY: 11.136
LLC TIMELY PREFETCHES:    5665290 LATE PREFETCHES: 0 DROPPED PREFETCHES: 0
LLC PREFETCHES SAME FILL-ORIGIN LEVEL: 0 DIFFERENT FILL-ORIGIN LEVEL: 0
LLC AVERAGE MISS LATENCY: 910.017 cycles
LLC RQ	ACCESS:  100824056	FORWARD:          0	MERGED:          0	TO_CACHE:  100824056
LLC WQ	ACCESS:     557008	FORWARD:          0	MERGED:          0	TO_CACHE:     557008
LLC PQ	ACCESS:  113861695	FORWARD:          0	MERGED:          0	TO_CACHE:  113861695

LLC Dense regions hint to LLC: 0

RAW hits: 24
Loads Generated: 77352695
Loads sent to L1D: 77352670
Stores Generated: 3301813
Stores sent to L1D: 3301813
Major fault: 0 Minor fault: 34900
Allocated PAGES: 139600

CPU 2 cumulative IPC: 0.0539389 instructions: 200000001 cycles: 3707896563
ITLB TOTAL     ACCESS:   60006853  HIT:   60006853  MISS:          0  HIT %:        100  MISS %:          0   MPKI: 0
ITLB LOAD TRANSLATION ACCESS:   60006853  HIT:   60006853  MISS:          0  HIT %:        100  MISS %:          0   MPKI: 0
ITLB PREFETCH  REQUESTED:          0  ISSUED:          0  USEFUL:          0  USELESS:          0
ITLB USEFUL LOAD PREFETCHES:          0 PREFETCH ISSUED TO LOWER LEVEL:          0  ACCURACY: -nan
ITLB TIMELY PREFETCHES:          0 LATE PREFETCHES: 0 DROPPED PREFETCHES: 0
ITLB PREFETCHES SAME FILL-ORIGIN LEVEL: 0 DIFFERENT FILL-ORIGIN LEVEL: 0
ITLB AVERAGE MISS LATENCY: -nan cycles
ITLB RQ	ACCESS:   62271976	FORWARD:          0	MERGED:    1147546	TO_CACHE:   61124430

DTLB TOTAL     ACCESS:   67111766  HIT:   44223878  MISS:   22887888  HIT %:    65.8959  MISS %:    34.1041   MPKI: 114.439
DTLB LOAD TRANSLATION ACCESS:   67111766  HIT:   44223878  MISS:   22887888  HIT %:    65.8959  MISS %:    34.1041   MPKI: 114.439
DTLB PREFETCH  REQUESTED:          0  ISSUED:          0  USEFUL:          0  USELESS:          0
DTLB USEFUL LOAD PREFETCHES:          0 PREFETCH ISSUED TO LOWER LEVEL:          0  ACCURACY: -nan
DTLB TIMELY PREFETCHES:          0 LATE PREFETCHES: 0 DROPPED PREFETCHES: 0
DTLB PREFETCHES SAME FILL-ORIGIN LEVEL: 0 DIFFERENT FILL-ORIGIN LEVEL: 0
DTLB AVERAGE MISS LATENCY: 9.38861 cycles
DTLB RQ	ACCESS:   69181495	FORWARD:          0	MERGED:     804163	TO_CACHE:   68377332

STLB TOTAL     ACCESS:   57036591  HIT:   56995759  MISS:      40832  HIT %:    99.9284  MISS %:  0.0715891   MPKI: 0.20416
STLB LOAD TRANSLATION ACCESS:   22887888  HIT:   22847056  MISS:      40832  HIT %:    99.8216  MISS %:     0.1784   MPKI: 0.20416
STLB TRANSLATION FROM L1D PREFETCHER ACCESS:   34148703  HIT:   34148703  MISS:          0  HIT %:        100  MISS %:          0   MPKI: 0
STLB PREFETCH  REQUESTED:          0  ISSUED:          0  USEFUL:          0  USELESS:          0
STLB USEFUL LOAD PREFETCHES:          0 PREFETCH ISSUED TO LOWER LEVEL:          0  ACCURACY: -nan
STLB TIMELY PREFETCHES:          0 LATE PREFETCHES: 0 DROPPED PREFETCHES: 0
STLB PREFETCHES SAME FILL-ORIGIN LEVEL: 0 DIFFERENT FILL-ORIGIN LEVEL: 0
STLB AVERAGE MISS LATENCY: 113.423 cycles
STLB RQ	ACCESS:   63395349	FORWARD:          0	MERGED:    5251416	TO_CACHE:   58143933

STLB Hit, L1D data hit: 0
STLB Hit, L2C data hit: 0
STLB Hit, LLC data hit: 0
STLB Hit, LLC data miss: 0
STLB STLB hints to L2: 0
L1D TOTAL     ACCESS:  105757397  HIT:   39636574  MISS:   66120823  HIT %:    37.4788  MISS %:    62.5212   MPKI: 330.604
L1D LOAD      ACCESS:   64358862  HIT:   32223347  MISS:   32135515  HIT %:    50.0682  MISS %:    49.9318   MPKI: 160.678
L1D RFO       ACCESS:    2463317  HIT:    2397761  MISS:      65556  HIT %:    97.3387  MISS %:    2.66129   MPKI: 0.32778
L1D PREFETCH  ACCESS:   38935218  HIT:    5015466  MISS:   33919752  HIT %:    12.8816  MISS %:    87.1184   MPKI: 169.599
L1D PREFETCH  REQUESTED:   80115376  ISSUED:   80115376  USEFUL:    3097151  USELESS:   31476439
L1D USEFUL LOAD PREFETCHES:    3097151 PREFETCH ISSUED TO LOWER LEVEL:   34936207  ACCURACY: 8.86516
L1D TIMELY PREFETCHES:    3097151 LATE PREFETCHES: 362595 DROPPED PREFETCHES: 0
L1D PREFETCHES SAME FILL-ORIGIN LEVEL: 34936207 DIFFERENT FILL-ORIGIN LEVEL: 0
L1D AVERAGE MISS LATENCY: 106.089 cycles
L1D RQ	ACCESS:   78786333	FORWARD:          0	MERGED:   12949875	TO_CACHE:   65836449
L1D WQ	ACCESS:    3345049	FORWARD:          9	MERGED:          3	TO_CACHE:    3345046
L1D PQ	ACCESS:   40057688	FORWARD:          0	MERGED:          0	TO_CACHE:   40057688

L1D UNIQUE REGIONS ACCESSED: 0
L1D REGIONS CONFLICTS: 0
L1D Cross Page Prefetch Requests: 0
L1D Same Page Prefetch Requests: 48124122
L1D ROI Sum of L1D PQ occupancy: 445118138
L1D PREFETCHES PUSHED FROM L2C: 0
L1I TOTAL     ACCESS:   61132335  HIT:   61132312  MISS:         23  HIT %:        100  MISS %: 3.76233e-05   MPKI: 0.000115
L1I LOAD      ACCESS:   61132335  HIT:   61132312  MISS:         23  HIT %:        100  MISS %: 3.76233e-05   MPKI: 0.000115
L1I PREFETCH  REQUESTED:          0  ISSUED:          0  USEFUL:          0  USELESS:          0
L1I USEFUL LOAD PREFETCHES:          0 PREFETCH ISSUED TO LOWER LEVEL:          0  ACCURACY: -nan
L1I TIMELY PREFETCHES:          0 LATE PREFETCHES: 0 DROPPED PREFETCHES: 0
L1I PREFETCHES SAME FILL-ORIGIN LEVEL: 0 DIFFERENT FILL-ORIGIN LEVEL: 0
L1I AVERAGE MISS LATENCY: 252.348 cycles
L1I RQ	ACCESS:   73498153	FORWARD:          0	MERGED:   11226177	TO_CACHE:   62271976

BTB TOTAL     ACCESS:   37026332  HIT:   37026163  MISS:        169  HIT %:    99.9995  MISS %: 0.000456432   MPKI: 0.000845
BTB BRANCH_DIRECT_JUMP	ACCESS:         66  HIT:         33  MISS:         33
BTB BRANCH_INDIRECT	ACCESS:          4  HIT:          0  MISS:          4
BTB BRANCH_CONDITIONAL	ACCESS:   37026196  HIT:   37026110  MISS:         86
BTB BRANCH_DIRECT_CALL	ACCESS:         28  HIT:         10  MISS:         18
BTB BRANCH_INDIRECT_CALL	ACCESS:          5  HIT:          1  MISS:          4
BTB BRANCH_RETURN	ACCESS:         33  HIT:          9  MISS:         24
BTB BRANCH_OTHER ACCESS:          0  HIT:          0  MISS:          0

L2C TOTAL     ACCESS:   66330740  HIT:   13925014  MISS:   52405726  HIT %:    20.9933  MISS %:    79.0067   MPKI: 262.029
L2C LOAD      ACCESS:   31776267  HIT:    7259686  MISS:   24516581  HIT %:    22.8463  MISS %:    77.1537   MPKI: 122.583
L2C DATA LOAD MPKI: 122.583
L2C INSTRUCTION LOAD MPKI: 0.000115
L2C RFO       ACCESS:      65556  HIT:        206  MISS:      65350  HIT %:   0.314235  MISS %:    99.6858   MPKI: 0.32675
L2C PREFETCH  ACCESS:   34279009  HIT:    6495179  MISS:   27783830  HIT %:     18.948  MISS %:     81.052   MPKI: 138.919
L2C DATA PREFETCH MPKI: 138.919
L2C INSTRUCTION PREFETCH MPKI: 0
L2C WRITEBACK ACCESS:     169039  HIT:     137616  MISS:      31423  HIT %:    81.4108  MISS %:    18.5892   MPKI: 0.157115
L2C LOAD TRANSLATION ACCESS:      40869  HIT:      32327  MISS:       8542  HIT %:    79.0991  MISS %:    20.9009   MPKI: 0.04271
L2C PREFETCH  REQUESTED:          0  ISSUED:          0  USEFUL:    1092238  USELESS:   27220873
L2C USEFUL LOAD PREFETCHES:    1092238 PREFETCH ISSUED TO LOWER LEVEL:   28313145  ACCURACY: 3.85771
L2C TIMELY PREFETCHES:    1092238 LATE PREFETCHES: 0 DROPPED PREFETCHES: 0
L2C PREFETCHES SAME FILL-ORIGIN LEVEL: 0 DIFFERENT FILL-ORIGIN LEVEL: 0
L2C AVERAGE MISS LATENCY: 118.658 cycles
L2C RQ	ACCESS:   32503513	FORWARD:          0	MERGED:          0	TO_CACHE:   32503497
L2C WQ	ACCESS:     171056	FORWARD:         16	MERGED:          0	TO_CACHE:     171056
L2C PQ	ACCESS:   34936207	FORWARD:          0	MERGED:          0	TO_CACHE:   34936207

L2C Instructions Evicting Data 23
L2C Translations Evicting Data 8704
L2C Data Evicting Data 53363184
L2C Instructions Evicting Instructions 0
L2C Translations Evicting Instructions 0
L2C Data Evicting Instructions 21
L2C Instructions Evicting Translations 0
L2C Translations Evicting Translations 1
L2C Data Evicting Translations 8679
L2C Dense regions hint from L2: 0
PSCL5 TOTAL     ACCESS:      40832  HIT:      40832  MISS:          0  HIT %:        100  MISS %:          0   MPKI: 0
PSCL5 LOAD TRANSLATION ACCESS:      40832  HIT:      40832  MISS:          0  HIT %:        100  MISS %:          0   MPKI: 0
PSCL5 PREFETCH  REQUESTED:          0  ISSUED:          0  USEFUL:          0  USELESS:          0
[...]
LLC USEFUL LOAD PREFETCHES:    5665290 PREFETCH ISSUED TO LOWER LEVEL:   50873613  ACCURACY: 11.136
LLC TIMELY PREFETCHES:    5665290 LATE PREFETCHES: 0 DROPPED PREFETCHES: 0
LLC PREFETCHES SAME FILL-ORIGIN LEVEL: 0 DIFFERENT FILL-ORIGIN LEVEL: 0
LLC AVERAGE MISS LATENCY: 855.836 cycles
LLC RQ	ACCESS:  100824056	FORWARD:          0	MERGED:          0	TO_CACHE:  100824056
LLC WQ	ACCESS:     557008	FORWARD:          0	MERGED:          0	TO_CACHE:     557008
LLC PQ	ACCESS:  113861695	FORWARD:          0	MERGED:          0	TO_CACHE:  113861695

LLC Dense regions hint to LLC: 0

RAW hits: 24
Loads Generated: 77353176
Loads sent to L1D: 77353151
Stores Generated: 3300911
Stores sent to L1D: 3300911
Major fault: 0 Minor fault: 34900
Allocated PAGES: 139600

CPU 3 cumulative IPC: 0.0538926 instructions: 200000000 cycles: 3711083183
ITLB TOTAL     ACCESS:   60007440  HIT:   60007440  MISS:          0  HIT %:        100  MISS %:          0   MPKI: 0
ITLB LOAD TRANSLATION ACCESS:   60007440  HIT:   60007440  MISS:          0  HIT %:        100  MISS %:          0   MPKI: 0
ITLB PREFETCH  REQUESTED:          0  ISSUED:          0  USEFUL:          0  USELESS:          0
ITLB USEFUL LOAD PREFETCHES:          0 PREFETCH ISSUED TO LOWER LEVEL:          0  ACCURACY: -nan
ITLB TIMELY PREFETCHES:          0 LATE PREFETCHES: 0 DROPPED PREFETCHES: 0
ITLB PREFETCHES SAME FILL-ORIGIN LEVEL: 0 DIFFERENT FILL-ORIGIN LEVEL: 0
ITLB AVERAGE MISS LATENCY: -nan cycles
ITLB RQ	ACCESS:   62224999	FORWARD:          0	MERGED:    1146316	TO_CACHE:   61078683

DTLB TOTAL     ACCESS:   67103668  HIT:   44218042  MISS:   22885626  HIT %:    65.8951  MISS %:    34.1049   MPKI: 114.428
DTLB LOAD TRANSLATION ACCESS:   67103668  HIT:   44218042  MISS:   22885626  HIT %:    65.8951  MISS %:    34.1049   MPKI: 114.428
DTLB PREFETCH  REQUESTED:          0  ISSUED:          0  USEFUL:          0  USELESS:          0
DTLB USEFUL LOAD PREFETCHES:          0 PREFETCH ISSUED TO LOWER LEVEL:          0  ACCURACY: -nan
DTLB TIMELY PREFETCHES:          0 LATE PREFETCHES: 0 DROPPED PREFETCHES: 0
DTLB PREFETCHES SAME FILL-ORIGIN LEVEL: 0 DIFFERENT FILL-ORIGIN LEVEL: 0
DTLB AVERAGE MISS LATENCY: 9.38233 cycles
DTLB RQ	ACCESS:   69118598	FORWARD:          0	MERGED:     803107	TO_CACHE:   68315491

STLB TOTAL     ACCESS:   57033964  HIT:   56993127  MISS:      40837  HIT %:    99.9284  MISS %:  0.0716012   MPKI: 0.204185
STLB LOAD TRANSLATION ACCESS:   22885626  HIT:   22844789  MISS:      40837  HIT %:    99.8216  MISS %:    0.17844   MPKI: 0.204185
STLB TRANSLATION FROM L1D PREFETCHER ACCESS:   34148338  HIT:   34148338  MISS:          0  HIT %:        100  MISS %:          0   MPKI: 0
STLB PREFETCH  REQUESTED:          0  ISSUED:          0  USEFUL:          0  USELESS:          0
STLB USEFUL LOAD PREFETCHES:          0 PREFETCH ISSUED TO LOWER LEVEL:          0  ACCURACY: -nan
STLB TIMELY PREFETCHES:          0 LATE PREFETCHES: 0 DROPPED PREFETCHES: 0
STLB PREFETCHES SAME FILL-ORIGIN LEVEL: 0 DIFFERENT FILL-ORIGIN LEVEL: 0
STLB AVERAGE MISS LATENCY: 114.321 cycles
STLB RQ	ACCESS:   63335872	FORWARD:          0	MERGED:    5243410	TO_CACHE:   58092462

STLB Hit, L1D data hit: 0
STLB Hit, L2C data hit: 0
STLB Hit, LLC data hit: 0
STLB Hit, LLC data miss: 0
STLB STLB hints to L2: 0
L1D TOTAL     ACCESS:  105727671  HIT:   39606701  MISS:   66120970  HIT %:    37.4611  MISS %:    62.5389   MPKI: 330.605
L1D LOAD      ACCESS:   64350601  HIT:   32212988  MISS:   32137613  HIT %:    50.0586  MISS %:    49.9414   MPKI: 160.688
L1D RFO       ACCESS:    2447600  HIT:    2382043  MISS:      65557  HIT %:    97.3216  MISS %:    2.67842   MPKI: 0.327785
L1D PREFETCH  ACCESS:   38929470  HIT:    5011670  MISS:   33917800  HIT %:    12.8737  MISS %:    87.1263   MPKI: 169.589
L1D PREFETCH  REQUESTED:   80042716  ISSUED:   80042716  USEFUL:    3093396  USELESS:   31450486
L1D USEFUL LOAD PREFETCHES:    3093396 PREFETCH ISSUED TO LOWER LEVEL:   34908265  ACCURACY: 8.8615
L1D TIMELY PREFETCHES:    3093396 LATE PREFETCHES: 364385 DROPPED PREFETCHES: 0
L1D PREFETCHES SAME FILL-ORIGIN LEVEL: 34908265 DIFFERENT FILL-ORIGIN LEVEL: 0
L1D AVERAGE MISS LATENCY: 106.184 cycles
L1D RQ	ACCESS:   78725087	FORWARD:          0	MERGED:   12949075	TO_CACHE:   65776004
L1D WQ	ACCESS:    3342597	FORWARD:          8	MERGED:          3	TO_CACHE:    3342594
L1D PQ	ACCESS:   40021358	FORWARD:          0	MERGED:          0	TO_CACHE:   40021358

L1D UNIQUE REGIONS ACCESSED: 0
L1D REGIONS CONFLICTS: 0
L1D Cross Page Prefetch Requests: 0
L1D Same Page Prefetch Requests: 48044423
L1D ROI Sum of L1D PQ occupancy: 444710608
L1D PREFETCHES PUSHED FROM L2C: 0
L1I TOTAL     ACCESS:   61132760  HIT:   61132737  MISS:         23  HIT %:        100  MISS %: 3.7623e-05   MPKI: 0.000115
L1I LOAD      ACCESS:   61132760  HIT:   61132737  MISS:         23  HIT %:        100  MISS %: 3.7623e-05   MPKI: 0.000115
L1I PREFETCH  REQUESTED:          0  ISSUED:          0  USEFUL:          0  USELESS:          0
L1I USEFUL LOAD PREFETCHES:          0 PREFETCH ISSUED TO LOWER LEVEL:          0  ACCURACY: -nan
L1I TIMELY PREFETCHES:          0 LATE PREFETCHES: 0 DROPPED PREFETCHES: 0
L1I PREFETCHES SAME FILL-ORIGIN LEVEL: 0 DIFFERENT FILL-ORIGIN LEVEL: 0
L1I AVERAGE MISS LATENCY: 394.652 cycles
L1I RQ	ACCESS:   73444335	FORWARD:          0	MERGED:   11219336	TO_CACHE:   62224999

BTB TOTAL     ACCESS:   37026577  HIT:   37026405  MISS:        172  HIT %:    99.9995  MISS %: 0.000464531   MPKI: 0.00086
BTB BRANCH_DIRECT_JUMP	ACCESS:         66  HIT:         33  MISS:         33
BTB BRANCH_INDIRECT	ACCESS:          4  HIT:          0  MISS:          4
BTB BRANCH_CONDITIONAL	ACCESS:   37026441  HIT:   37026352  MISS:         89
BTB BRANCH_DIRECT_CALL	ACCESS:         28  HIT:         10  MISS:         18
BTB BRANCH_INDIRECT_CALL	ACCESS:          5  HIT:          1  MISS:          4
BTB BRANCH_RETURN	ACCESS:         33  HIT:          9  MISS:         24
BTB BRANCH_OTHER ACCESS:          0  HIT:          0  MISS:          0

L2C TOTAL     ACCESS:   66330894  HIT:   13734577  MISS:   52596317  HIT %:    20.7062  MISS %:    79.2938   MPKI: 262.982
L2C LOAD      ACCESS:   31776626  HIT:    7159923  MISS:   24616703  HIT %:     22.532  MISS %:     77.468   MPKI: 123.084
L2C DATA LOAD MPKI: 123.083
L2C INSTRUCTION LOAD MPKI: 0.000115
L2C RFO       ACCESS:      65556  HIT:        185  MISS:      65371  HIT %:   0.282201  MISS %:    99.7178   MPKI: 0.326855
L2C PREFETCH  ACCESS:   34278801  HIT:    6405725  MISS:   27873076  HIT %:    18.6871  MISS %:    81.3129   MPKI: 139.365
L2C DATA PREFETCH MPKI: 139.365
L2C INSTRUCTION PREFETCH MPKI: 0
L2C WRITEBACK ACCESS:     169037  HIT:     136852  MISS:      32185  HIT %:    80.9598  MISS %:    19.0402   MPKI: 0.160925
L2C LOAD TRANSLATION ACCESS:      40874  HIT:      31892  MISS:       8982  HIT %:    78.0252  MISS %:    21.9748   MPKI: 0.04491
L2C PREFETCH  REQUESTED:          0  ISSUED:          0  USEFUL:    1079032  USELESS:   27302903
L2C USEFUL LOAD PREFETCHES:    1079032 PREFETCH ISSUED TO LOWER LEVEL:   28381996  ACCURACY: 3.80182
L2C TIMELY PREFETCHES:    1079032 LATE PREFETCHES: 0 DROPPED PREFETCHES: 0
L2C PREFETCHES SAME FILL-ORIGIN LEVEL: 0 DIFFERENT FILL-ORIGIN LEVEL: 0
L2C AVERAGE MISS LATENCY: 118.413 cycles
L2C RQ	ACCESS:   32477173	FORWARD:          0	MERGED:          0	TO_CACHE:   32477163
L2C WQ	ACCESS:     170951	FORWARD:         10	MERGED:          0	TO_CACHE:     170951
L2C PQ	ACCESS:   34908265	FORWARD:          0	MERGED:          0	TO_CACHE:   34908265

L2C Instructions Evicting Data 23
L2C Translations Evicting Data 9131
L2C Data Evicting Data 53513919
L2C Instructions Evicting Instructions 0
L2C Translations Evicting Instructions 0
L2C Data Evicting Instructions 22
L2C Instructions Evicting Translations 0
L2C Translations Evicting Translations 0
L2C Data Evicting Translations 9103
L2C Dense regions hint from L2: 0
PSCL5 TOTAL     ACCESS:      40837  HIT:      40837  MISS:          0  HIT %:        100  MISS %:          0   MPKI: 0
PSCL5 LOAD TRANSLATION ACCESS:      40837  HIT:      40837  MISS:          0  HIT %:        100  MISS %:          0   MPKI: 0
PSCL5 PREFETCH  REQUESTED:          0  ISSUED:          0  USEFUL:          0  USELESS:          0
PSCL5 USEFUL LOAD PREFETCHES:          0 PREFETCH ISSUED TO LOWER LEVEL:          0  ACCURACY: -nan
PSCL5 TIMELY PREFETCHES:          0 LATE PREFETCHES: 0 DROPPED PREFETCHES: 0
PSCL5 PREFETCHES SAME FILL-ORIGIN LEVEL: 0 DIFFERENT FILL-ORIGIN LEVEL: 0

PSCL4 TOTAL     ACCESS:      40837  HIT:      40837  MISS:          0  HIT %:        100  MISS %:          0   MPKI: 0
PSCL4 LOAD TRANSLATION ACCESS:      40837  HIT:      40837  MISS:          0  HIT %:        100  MISS %:          0   MPKI: 0
PSCL4 PREFETCH  REQUESTED:          0  ISSUED:          0  USEFUL:          0  USELESS:          0
PSCL4 USEFUL LOAD PREFETCHES:          0 PREFETCH ISSUED TO LOWER LEVEL:          0  ACCURACY: -nan
PSCL4 TIMELY PREFETCHES:          0 LATE PREFETCHES: 0 DROPPED PREFETCHES: 0
PSCL4 PREFETCHES SAME FILL-ORIGIN LEVEL: 0 DIFFERENT FILL-ORIGIN LEVEL: 0

PSCL3 TOTAL     ACCESS:      40837  HIT:      40837  MISS:          0  HIT %:        100  MISS %:          0   MPKI: 0
PSCL3 LOAD TRANSLATION ACCESS:      40837  HIT:      40837  MISS:          0  HIT %:        100  MISS %:          0   MPKI: 0
PSCL3 PREFETCH  REQUESTED:          0  ISSUED:          0  USEFUL:          0  USELESS:          0
PSCL3 USEFUL LOAD PREFETCHES:          0 PREFETCH ISSUED TO LOWER LEVEL:          0  ACCURACY: -nan
PSCL3 TIMELY PREFETCHES:          0 LATE PREFETCHES: 0 DROPPED PREFETCHES: 0
PSCL3 PREFETCHES SAME FILL-ORIGIN LEVEL: 0 DIFFERENT FILL-ORIGIN LEVEL: 0

PSCL2 TOTAL     ACCESS:      40837  HIT:      40753  MISS:         84  HIT %:    99.7943  MISS %:   0.205696   MPKI: 0.00042
PSCL2 LOAD TRANSLATION ACCESS:      40837  HIT:      40753  MISS:         84  HIT %:    99.7943  MISS %:   0.205696   MPKI: 0.00042
PSCL2 PREFETCH  REQUESTED:          0  ISSUED:          0  USEFUL:          0  USELESS:          0
PSCL2 USEFUL LOAD PREFETCHES:          0 PREFETCH ISSUED TO LOWER LEVEL:          0  ACCURACY: -nan
PSCL2 TIMELY PREFETCHES:          0 LATE PREFETCHES: 0 DROPPED PREFETCHES: 0
PSCL2 PREFETCHES SAME FILL-ORIGIN LEVEL: 0 DIFFERENT FILL-ORIGIN LEVEL: 0

LLC TOTAL     ACCESS:   52702007  HIT:   31172831  MISS:   21529176  HIT %:    59.1492  MISS %:    40.8508   MPKI: 107.646
LLC LOAD      ACCESS:   24616703  HIT:   15694423  MISS:    8922280  HIT %:    63.7552  MISS %:    36.2448   MPKI: 44.6114
LLC RFO       ACCESS:      65371  HIT:       4982  MISS:      60389  HIT %:    7.62112  MISS %:    92.3789   MPKI: 0.301945
LLC PREFETCH  ACCESS:   27873077  HIT:   15346202  MISS:   12526875  HIT %:    55.0574  MISS %:    44.9426   MPKI: 62.6344
LLC WRITEBACK ACCESS:     137874  HIT:     124136  MISS:      13738  HIT %:    90.0358  MISS %:    9.96417   MPKI: 0.06869
LLC LOAD TRANSLATION ACCESS:       8982  HIT:       3088  MISS:       5894  HIT %:    34.3799  MISS %:    65.6201   MPKI: 0.02947
LLC PREFETCH  REQUESTED:          0  ISSUED:          0  USEFUL:    5665290  USELESS:   45208983
LLC USEFUL LOAD PREFETCHES:    5665290 PREFETCH ISSUED TO LOWER LEVEL:   50873613  ACCURACY: 11.136
LLC TIMELY PREFETCHES:    5665290 LATE PREFETCHES: 0 DROPPED PREFETCHES: 0
LLC PREFETCHES SAME FILL-ORIGIN LEVEL: 0 DIFFERENT FILL-ORIGIN LEVEL: 0
LLC AVERAGE MISS LATENCY: 854.901 cycles
LLC RQ	ACCESS:  100824056	FORWARD:          0	MERGED:          0	TO_CACHE:  100824056
LLC WQ	ACCESS:     557008	FORWARD:          0	MERGED:          0	TO_CACHE:     557008
LLC PQ	ACCESS:  113861695	FORWARD:          0	MERGED:          0	TO_CACHE:  113861695

LLC Dense regions hint to LLC: 0

RAW hits: 28
Loads Generated: 77353336
Loads sent to L1D: 77353307
Stores Generated: 3300603
Stores sent to L1D: 3300603
Major fault: 0 Minor fault: 34900
Allocated PAGES: 139600

stream: 
stream:times selected: 43737389
stream:pref_filled: 37404126
stream:pref_useful: 947300
stream:pref_late: 291096
stream:misses: 9285795
stream:misses_by_poll: 0

CS: 
CS:times selected: 4055653
CS:pref_filled: 3144477
CS:pref_useful: 2832627
CS:pref_late: 108236
CS:misses: 572973
CS:misses_by_poll: 3292

CPLX: 
CPLX:times selected: 39317837
CPLX:pref_filled: 750932
CPLX:pref_useful: 28885
CPLX:pref_late: 15483
CPLX:misses: 29080125
CPLX:misses_by_poll: 302

NL_L1: 
NL:times selected: 54252
NL:pref_filled: 52904
NL:pref_useful: 570
NL:pref_late: 186
NL:misses: 53354
NL:misses_by_poll: 0

total selections: 87165131
total_filled: 33912084
total_useful: 3038814
total_late: 419706
total_polluted: 3594
total_misses_after_warmup: 32458888
conflicts: 205
Degree Incremented Times: 1251838
Degree Decremented Times: 2719136

L1 IP Table Write Accesses: 265080911
L1 IP Table Read Accesses: 265080706
L1 RST Write Accesses: 148101982
L1 RST Read Accesses: 296203964
L1 CSPT Write Accesses: 148101982
L1 CSPT Read Accesses: 281960341
L1 RR Filter Tag Write Accesses: 161252213
L1 RR Filter Tag Read Accesses: 5812270588
L1 IP Table Tag Write Accesses: 265081100
L1 IP Table Tag Read Accesses: 265081100
L1 RST Tag Write Accesses: 0
L1 RST Tag Read Accesses: 1329774033
L1 RR Filter Write Accesses: 0
L1 RR Filter Read Accesses: 186656795
test: 94610685

stream: 
stream:times selected: 45736958
stream:pref_filled: 38713855
stream:pref_useful: 806798
stream:pref_late: 295003
stream:misses: 9708093
stream:misses_by_poll: 0

CS: 
CS:times selected: 4211593
CS:pref_filled: 3288885
CS:pref_useful: 2960692
CS:pref_late: 109392
CS:misses: 839814
CS:misses_by_poll: 3375

CPLX: 
CPLX:times selected: 41144992
CPLX:pref_filled: 788625
CPLX:pref_useful: 31257
CPLX:pref_late: 15890
CPLX:misses: 30430906
CPLX:misses_by_poll: 293

NL_L1: 
NL:times selected: 54209
NL:pref_filled: 52856
NL:pref_useful: 587
NL:pref_late: 174
NL:misses: 53267
NL:misses_by_poll: 0

total selections: 91147752
total_filled: 35807103
total_useful: 3217202
total_late: 425305
total_polluted: 3668
total_misses_after_warmup: 34258327
conflicts: 205
Degree Incremented Times: 1251838
Degree Decremented Times: 2719136

L1 IP Table Write Accesses: 265080911
L1 IP Table Read Accesses: 265080706
L1 RST Write Accesses: 148101982
L1 RST Read Accesses: 296203964
L1 CSPT Write Accesses: 148101982
L1 CSPT Read Accesses: 281960341
L1 RR Filter Tag Write Accesses: 161252213
L1 RR Filter Tag Read Accesses: 5812270588
L1 IP Table Tag Write Accesses: 265081100
L1 IP Table Tag Read Accesses: 265081100
L1 RST Tag Write Accesses: 0
L1 RST Tag Read Accesses: 1329774033
L1 RR Filter Write Accesses: 0
L1 RR Filter Read Accesses: 186656795
test: 94610685

stream: 
stream:times selected: 44390631
stream:pref_filled: 37544240
stream:pref_useful: 766057
stream:pref_late: 290286
stream:misses: 9428336
stream:misses_by_poll: 0

CS: 
CS:times selected: 4104932
CS:pref_filled: 3190892
CS:pref_useful: 2875643
CS:pref_late: 107994
CS:misses: 814941
CS:misses_by_poll: 3314

CPLX: 
CPLX:times selected: 39916156
CPLX:pref_filled: 761947
CPLX:pref_useful: 29238
CPLX:pref_late: 15678
CPLX:misses: 29522501
CPLX:misses_by_poll: 340

NL_L1: 
NL:times selected: 54226
NL:pref_filled: 52856
NL:pref_useful: 593
NL:pref_late: 170
NL:misses: 53301
NL:misses_by_poll: 0

total selections: 88465945
total_filled: 34573611
total_useful: 3097151
total_late: 418774
total_polluted: 3654
total_misses_after_warmup: 33049018
conflicts: 205
Degree Incremented Times: 1251838
Degree Decremented Times: 2719136

L1 IP Table Write Accesses: 265080911
L1 IP Table Read Accesses: 265080706
L1 RST Write Accesses: 148101982
L1 RST Read Accesses: 296203964
L1 CSPT Write Accesses: 148101982
L1 CSPT Read Accesses: 281960341
L1 RR Filter Tag Write Accesses: 161252213
L1 RR Filter Tag Read Accesses: 5812270588
L1 IP Table Tag Write Accesses: 265081100
L1 IP Table Tag Read Accesses: 265081100
L1 RST Tag Write Accesses: 0
L1 RST Tag Read Accesses: 1329774033
L1 RR Filter Write Accesses: 0
L1 RR Filter Read Accesses: 186656795
test: 94610685

stream: 
stream:times selected: 44324857
stream:pref_filled: 37481831
stream:pref_useful: 763908
stream:pref_late: 291734
stream:misses: 9413301
stream:misses_by_poll: 0

CS: 
CS:times selected: 4100596
CS:pref_filled: 3185738
CS:pref_useful: 2870808
CS:pref_late: 108425
CS:misses: 859564
CS:misses_by_poll: 3290

CPLX: 
CPLX:times selected: 39855346
CPLX:pref_filled: 761390
CPLX:pref_useful: 29421
CPLX:pref_late: 15445
CPLX:misses: 29479000
CPLX:misses_by_poll: 382

NL_L1: 
NL:times selected: 54323
NL:pref_filled: 52997
NL:pref_useful: 601
NL:pref_late: 170
NL:misses: 53395
NL:misses_by_poll: 0

total selections: 88335122
total_filled: 34543878
total_useful: 3093396
total_late: 420222
total_polluted: 3672
total_misses_after_warmup: 32990894
conflicts: 205
Degree Incremented Times: 1251838
Degree Decremented Times: 2719136

L1 IP Table Write Accesses: 265080911
L1 IP Table Read Accesses: 265080706
L1 RST Write Accesses: 148101982
L1 RST Read Accesses: 296203964
L1 CSPT Write Accesses: 148101982
L1 CSPT Read Accesses: 281960341
L1 RR Filter Tag Write Accesses: 161252213
L1 RR Filter Tag Read Accesses: 5812270588
L1 IP Table Tag Write Accesses: 265081100
L1 IP Table Tag Read Accesses: 265081100
L1 RST Tag Write Accesses: 0
L1 RST Tag Read Accesses: 1329774033
L1 RR Filter Write Accesses: 0
L1 RR Filter Read Accesses: 186656795
test: 94610685

DRAM Statistics
 CHANNEL 0
 RQ ROW_BUFFER_HIT:    3281455  ROW_BUFFER_MISS:   84066401
 DBUS_CONGESTED:       2954
 WQ ROW_BUFFER_HIT:      63545  ROW_BUFFER_MISS:     488046  FULL:          0

 AVG_CONGESTED_CYCLE: 5
 All warmup complete: 5
Channel 0 Bank busy for read cycles: 0
Channel 0 Bank busy for write cycles: 0
Channel 0
Rank 0
0banks busy for read cycles: 1912589
0banks busy for write cycles: 0
1banks busy for read cycles: 245597910
1banks busy for write cycles: 1191742
2banks busy for read cycles: 699720109
2banks busy for write cycles: 1169702
3banks busy for read cycles: 1032451721
3banks busy for write cycles: 1144620
4banks busy for read cycles: 942846490
4banks busy for write cycles: 1125183
5banks busy for read cycles: 537436197
5banks busy for write cycles: 1107567
6banks busy for read cycles: 198087162
6banks busy for write cycles: 1184817
7banks busy for read cycles: 46913296
7banks busy for write cycles: 2655831
8banks busy for read cycles: 8153376
8banks busy for write cycles: 56470433

CPU 0 Branch Prediction Accuracy: 96.9573% MPKI: 5.62227 Average ROB Occupancy at Mispredict: 140.142
Branch types
NOT_BRANCH: 162973496 81.4867%
BRANCH_DIRECT_JUMP: 66 3.3e-05%
BRANCH_INDIRECT: 4 2e-06%
BRANCH_CONDITIONAL: 37026116 18.5131%
BRANCH_DIRECT_CALL: 28 1.4e-05%
BRANCH_INDIRECT_CALL: 5 2.5e-06%
BRANCH_RETURN: 33 1.65e-05%
BRANCH_OTHER: 0 0%


CPU 1 Branch Prediction Accuracy: 96.9574% MPKI: 5.62808 Average ROB Occupancy at Mispredict: 140.021
Branch types
NOT_BRANCH: 171432647 81.4569%
BRANCH_DIRECT_JUMP: 66 3.13602e-05%
BRANCH_INDIRECT: 4 1.90062e-06%
BRANCH_CONDITIONAL: 39025264 18.543%
BRANCH_DIRECT_CALL: 28 1.33043e-05%
BRANCH_INDIRECT_CALL: 5 2.37577e-06%
BRANCH_RETURN: 33 1.56801e-05%
BRANCH_OTHER: 0 0%


CPU 2 Branch Prediction Accuracy: 96.9552% MPKI: 5.63452 Average ROB Occupancy at Mispredict: 140.125
Branch types
NOT_BRANCH: 165919590 81.4766%
BRANCH_DIRECT_JUMP: 66 3.241e-05%
BRANCH_INDIRECT: 4 1.96424e-06%
BRANCH_CONDITIONAL: 37720942 18.5233%
BRANCH_DIRECT_CALL: 28 1.37497e-05%
BRANCH_INDIRECT_CALL: 5 2.45531e-06%
BRANCH_RETURN: 33 1.6205e-05%
BRANCH_OTHER: 0 0%


CPU 3 Branch Prediction Accuracy: 96.9561% MPKI: 5.63817 Average ROB Occupancy at Mispredict: 140.088
Branch types
NOT_BRANCH: 165792693 81.4769%
BRANCH_DIRECT_JUMP: 66 3.24349e-05%
BRANCH_INDIRECT: 4 1.96575e-06%
BRANCH_CONDITIONAL: 37691558 18.5231%
BRANCH_DIRECT_CALL: 28 1.37603e-05%
BRANCH_INDIRECT_CALL: 5 2.45719e-06%
BRANCH_RETURN: 33 1.62175e-05%
BRANCH_OTHER: 0 0%

DRAM PAGES: 1048576
Allocated PAGES: 139600
