
*** ChampSim Multicore Out-of-Order Simulator ***

Warmup Instructions: 50000000
Simulation Instructions: 200000000
Number of CPUs: 4
LLC sets: 8192
LLC ways: 16
Off-chip DRAM Size: 4096 MB Channels: 1 Width: 64-bit Data Rate: 6400 MT/s
CPU 0 runs ./traces/spec/433.milc-337B.champsimtrace.xz
.xz
CPU 1 runs ./traces/spec/429.mcf-192B.champsimtrace.xz
.xz
CPU 2 runs ./traces/spec/605.mcf_s-665B.champsimtrace.xz
.xz
CPU 3 runs ./traces/gap/pr-10.trace.gz
.gz
BTB has LRU replacement policy
ITLB has LRU replacement policy
DTLB has LRU replacement policy
STLB has LRU replacement policy
L1I has LRU replacement policy
IP Table Entries: 1024
CSPT Entries: 128
RR_ENTRIES: 32
RST_ENTRIES: 8
L1D has LRU replacement policy
Initialize SRRIP state for L2C
Initialize DRRIP state for LLC
BTB has LRU replacement policy
ITLB has LRU replacement policy
DTLB has LRU replacement policy
STLB has LRU replacement policy
L1I has LRU replacement policy
IP Table Entries: 1024
CSPT Entries: 128
RR_ENTRIES: 32
RST_ENTRIES: 8
L1D has LRU replacement policy
Initialize SRRIP state for L2C
Initialize DRRIP state for LLC
BTB has LRU replacement policy
ITLB has LRU replacement policy
DTLB has LRU replacement policy
STLB has LRU replacement policy
L1I has LRU replacement policy
IP Table Entries: 1024
CSPT Entries: 128
RR_ENTRIES: 32
RST_ENTRIES: 8
L1D has LRU replacement policy
Initialize SRRIP state for L2C
Initialize DRRIP state for LLC
BTB has LRU replacement policy
ITLB has LRU replacement policy
DTLB has LRU replacement policy
STLB has LRU replacement policy
L1I has LRU replacement policy
IP Table Entries: 1024
CSPT Entries: 128
RR_ENTRIES: 32
RST_ENTRIES: 8
L1D has LRU replacement policy
Initialize SRRIP state for L2C
Initialize DRRIP state for LLC
Heartbeat CPU 0 instructions: 10000001 cycles: 2589829 heartbeat IPC: 3.86126 cumulative IPC: 3.86126 (Simulation time: 0 hr 3 min 50 sec) 
Heartbeat CPU 3 instructions: 10000002 cycles: 3335565 heartbeat IPC: 2.99799 cumulative IPC: 2.99799 (Simulation time: 0 hr 4 min 55 sec) 
Heartbeat CPU 2 instructions: 10000000 cycles: 3341556 heartbeat IPC: 2.99262 cumulative IPC: 2.99262 (Simulation time: 0 hr 4 min 55 sec) 
Heartbeat CPU 1 instructions: 10000000 cycles: 3439620 heartbeat IPC: 2.9073 cumulative IPC: 2.9073 (Simulation time: 0 hr 5 min 4 sec) 
Heartbeat CPU 0 instructions: 20000000 cycles: 5180993 heartbeat IPC: 3.85927 cumulative IPC: 3.86026 (Simulation time: 0 hr 7 min 33 sec) 
Heartbeat CPU 2 instructions: 20000000 cycles: 6712984 heartbeat IPC: 2.9661 cumulative IPC: 2.9793 (Simulation time: 0 hr 9 min 45 sec) 
Heartbeat CPU 1 instructions: 20000002 cycles: 6919008 heartbeat IPC: 2.87407 cumulative IPC: 2.89059 (Simulation time: 0 hr 10 min 4 sec) 
Heartbeat CPU 0 instructions: 30000001 cycles: 7771870 heartbeat IPC: 3.8597 cumulative IPC: 3.86007 (Simulation time: 0 hr 11 min 9 sec) 
Heartbeat CPU 3 instructions: 20000000 cycles: 9942235 heartbeat IPC: 1.51362 cumulative IPC: 2.01162 (Simulation time: 0 hr 14 min 9 sec) 
Heartbeat CPU 2 instructions: 30000002 cycles: 10070611 heartbeat IPC: 2.97829 cumulative IPC: 2.97897 (Simulation time: 0 hr 14 min 20 sec) 
Heartbeat CPU 0 instructions: 40000001 cycles: 10362291 heartbeat IPC: 3.86038 cumulative IPC: 3.86015 (Simulation time: 0 hr 14 min 44 sec) 
Heartbeat CPU 1 instructions: 30000003 cycles: 10372734 heartbeat IPC: 2.89542 cumulative IPC: 2.8922 (Simulation time: 0 hr 14 min 45 sec) 
Heartbeat CPU 0 instructions: 50000000 cycles: 12952781 heartbeat IPC: 3.86027 cumulative IPC: 3.86017 (Simulation time: 0 hr 18 min 31 sec) 
Heartbeat CPU 2 instructions: 40000003 cycles: 13425156 heartbeat IPC: 2.98103 cumulative IPC: 2.97948 (Simulation time: 0 hr 19 min 7 sec) 
Heartbeat CPU 1 instructions: 40000003 cycles: 13814959 heartbeat IPC: 2.9051 cumulative IPC: 2.89541 (Simulation time: 0 hr 19 min 38 sec) 
Heartbeat CPU 0 instructions: 60000001 cycles: 16059559 heartbeat IPC: 3.21877 cumulative IPC: 0.622682 (Simulation time: 0 hr 22 min 38 sec) 
Heartbeat CPU 2 instructions: 50000002 cycles: 16782411 heartbeat IPC: 2.97862 cumulative IPC: 2.97931 (Simulation time: 0 hr 23 min 30 sec) 
Heartbeat CPU 3 instructions: 30000003 cycles: 16999559 heartbeat IPC: 1.41697 cumulative IPC: 1.76475 (Simulation time: 0 hr 23 min 44 sec) 
Heartbeat CPU 1 instructions: 50000001 cycles: 17282401 heartbeat IPC: 2.88397 cumulative IPC: 2.89312 (Simulation time: 0 hr 24 min 2 sec) 
Heartbeat CPU 0 instructions: 70000001 cycles: 18656258 heartbeat IPC: 3.85104 cumulative IPC: 1.07203 (Simulation time: 0 hr 25 min 1 sec) 
Heartbeat CPU 0 instructions: 80000003 cycles: 21250871 heartbeat IPC: 3.85414 cumulative IPC: 1.41171 (Simulation time: 0 hr 26 min 56 sec) 
Heartbeat CPU 2 instructions: 60000003 cycles: 22386095 heartbeat IPC: 1.78454 cumulative IPC: 0.446706 (Simulation time: 0 hr 27 min 49 sec) 
Heartbeat CPU 3 instructions: 40000001 cycles: 23769927 heartbeat IPC: 1.47702 cumulative IPC: 1.6828 (Simulation time: 0 hr 28 min 51 sec) 
Heartbeat CPU 0 instructions: 90000002 cycles: 23845414 heartbeat IPC: 3.85424 cumulative IPC: 1.67747 (Simulation time: 0 hr 28 min 55 sec) 
Heartbeat CPU 1 instructions: 60000000 cycles: 24009156 heartbeat IPC: 1.4866 cumulative IPC: 0.416508 (Simulation time: 0 hr 29 min 1 sec) 
Heartbeat CPU 0 instructions: 100000002 cycles: 26440153 heartbeat IPC: 3.85395 cumulative IPC: 1.89106 (Simulation time: 0 hr 30 min 38 sec) 
Heartbeat CPU 2 instructions: 70000003 cycles: 27997154 heartbeat IPC: 1.78219 cumulative IPC: 0.714358 (Simulation time: 0 hr 31 min 51 sec) 
Heartbeat CPU 0 instructions: 110000000 cycles: 29034938 heartbeat IPC: 3.85388 cumulative IPC: 2.06648 (Simulation time: 0 hr 32 min 39 sec) 
Heartbeat CPU 3 instructions: 50000001 cycles: 30444975 heartbeat IPC: 1.49812 cumulative IPC: 1.64231 (Simulation time: 0 hr 33 min 40 sec) 

Warmup complete CPU 0 instructions: 115434272 cycles: 30444975 (Simulation time: 0 hr 33 min 40 sec) 
Warmup complete CPU 1 instructions: 69214628 cycles: 30444975 (Simulation time: 0 hr 33 min 40 sec) 
Warmup complete CPU 2 instructions: 74355255 cycles: 30444975 (Simulation time: 0 hr 33 min 40 sec) 
Warmup complete CPU 3 instructions: 50000001 cycles: 30444975 (Simulation time: 0 hr 33 min 40 sec) 

Heartbeat CPU 0 instructions: 120000003 cycles: 38818769 heartbeat IPC: 1.02209 cumulative IPC: 0.54524 (Simulation time: 0 hr 34 min 33 sec) 
Heartbeat CPU 1 instructions: 70000000 cycles: 43470202 heartbeat IPC: 0.513847 cumulative IPC: 0.0602962 (Simulation time: 0 hr 35 min 8 sec) 
Heartbeat CPU 2 instructions: 80000001 cycles: 54325214 heartbeat IPC: 0.379823 cumulative IPC: 0.236377 (Simulation time: 0 hr 36 min 32 sec) 
Heartbeat CPU 0 instructions: 130000002 cycles: 55765603 heartbeat IPC: 0.590081 cumulative IPC: 0.575252 (Simulation time: 0 hr 36 min 42 sec) 
Heartbeat CPU 0 instructions: 140000002 cycles: 71729048 heartbeat IPC: 0.626431 cumulative IPC: 0.595041 (Simulation time: 0 hr 38 min 44 sec) 
Heartbeat CPU 0 instructions: 150000002 cycles: 87676944 heartbeat IPC: 0.627042 cumulative IPC: 0.603958 (Simulation time: 0 hr 40 min 42 sec) 
Heartbeat CPU 2 instructions: 90000002 cycles: 96960808 heartbeat IPC: 0.234546 cumulative IPC: 0.235203 (Simulation time: 0 hr 41 min 49 sec) 
Heartbeat CPU 0 instructions: 160000001 cycles: 103488748 heartbeat IPC: 0.632439 cumulative IPC: 0.610124 (Simulation time: 0 hr 42 min 35 sec) 
Heartbeat CPU 0 instructions: 170000003 cycles: 119354001 heartbeat IPC: 0.630308 cumulative IPC: 0.613725 (Simulation time: 0 hr 44 min 19 sec) 
Heartbeat CPU 0 instructions: 180000001 cycles: 135159578 heartbeat IPC: 0.632688 cumulative IPC: 0.616588 (Simulation time: 0 hr 46 min 24 sec) 
Heartbeat CPU 2 instructions: 100000000 cycles: 137482219 heartbeat IPC: 0.246783 cumulative IPC: 0.239587 (Simulation time: 0 hr 46 min 42 sec) 
Heartbeat CPU 0 instructions: 190000001 cycles: 150889031 heartbeat IPC: 0.63575 cumulative IPC: 0.61909 (Simulation time: 0 hr 48 min 30 sec) 
Heartbeat CPU 0 instructions: 200000003 cycles: 170526476 heartbeat IPC: 0.509231 cumulative IPC: 0.603689 (Simulation time: 0 hr 50 min 59 sec) 
Heartbeat CPU 2 instructions: 110000000 cycles: 177169964 heartbeat IPC: 0.251967 cumulative IPC: 0.242936 (Simulation time: 0 hr 51 min 44 sec) 
Heartbeat CPU 0 instructions: 210000003 cycles: 200616644 heartbeat IPC: 0.332334 cumulative IPC: 0.555708 (Simulation time: 0 hr 54 min 16 sec) 
Heartbeat CPU 2 instructions: 120000000 cycles: 215378726 heartbeat IPC: 0.26172 cumulative IPC: 0.246817 (Simulation time: 0 hr 55 min 59 sec) 
Heartbeat CPU 0 instructions: 220000000 cycles: 230137533 heartbeat IPC: 0.338743 cumulative IPC: 0.523634 (Simulation time: 0 hr 57 min 46 sec) 
Heartbeat CPU 1 instructions: 80000003 cycles: 233883705 heartbeat IPC: 0.0525173 cumulative IPC: 0.0530153 (Simulation time: 0 hr 58 min 14 sec) 
Heartbeat CPU 2 instructions: 130000000 cycles: 253681450 heartbeat IPC: 0.261078 cumulative IPC: 0.249264 (Simulation time: 1 hr 0 min 39 sec) 
Heartbeat CPU 0 instructions: 230000001 cycles: 259596141 heartbeat IPC: 0.339459 cumulative IPC: 0.499957 (Simulation time: 1 hr 1 min 20 sec) 
Heartbeat CPU 2 instructions: 140000002 cycles: 299503155 heartbeat IPC: 0.218237 cumulative IPC: 0.24398 (Simulation time: 1 hr 5 min 35 sec) 
Heartbeat CPU 0 instructions: 240000002 cycles: 300809542 heartbeat IPC: 0.24264 cumulative IPC: 0.460732 (Simulation time: 1 hr 5 min 43 sec) 
Heartbeat CPU 3 instructions: 60000000 cycles: 332929705 heartbeat IPC: 0.0330595 cumulative IPC: 0.0330595 (Simulation time: 1 hr 8 min 30 sec) 
Heartbeat CPU 0 instructions: 250000001 cycles: 339644149 heartbeat IPC: 0.257502 cumulative IPC: 0.435207 (Simulation time: 1 hr 9 min 20 sec) 
Heartbeat CPU 2 instructions: 150000000 cycles: 346518452 heartbeat IPC: 0.212697 cumulative IPC: 0.239326 (Simulation time: 1 hr 10 min 12 sec) 
Heartbeat CPU 0 instructions: 260000000 cycles: 356998788 heartbeat IPC: 0.576215 cumulative IPC: 0.442701 (Simulation time: 1 hr 11 min 31 sec) 
Heartbeat CPU 0 instructions: 270000001 cycles: 374205088 heartbeat IPC: 0.581183 cumulative IPC: 0.449633 (Simulation time: 1 hr 13 min 26 sec) 
Heartbeat CPU 2 instructions: 160000000 cycles: 385773411 heartbeat IPC: 0.254745 cumulative IPC: 0.24103 (Simulation time: 1 hr 14 min 50 sec) 
Heartbeat CPU 0 instructions: 280000002 cycles: 391686684 heartbeat IPC: 0.57203 cumulative IPC: 0.455556 (Simulation time: 1 hr 15 min 31 sec) 
Heartbeat CPU 0 instructions: 290000002 cycles: 409221350 heartbeat IPC: 0.570299 cumulative IPC: 0.460868 (Simulation time: 1 hr 17 min 31 sec) 
Heartbeat CPU 1 instructions: 90000000 cycles: 421199893 heartbeat IPC: 0.0533857 cumulative IPC: 0.0531929 (Simulation time: 1 hr 19 min 0 sec) 
Heartbeat CPU 2 instructions: 170000003 cycles: 426352256 heartbeat IPC: 0.246434 cumulative IPC: 0.241584 (Simulation time: 1 hr 19 min 39 sec) 
Heartbeat CPU 0 instructions: 300000003 cycles: 426690738 heartbeat IPC: 0.57243 cumulative IPC: 0.465786 (Simulation time: 1 hr 19 min 41 sec) 
Heartbeat CPU 0 instructions: 310000003 cycles: 444183009 heartbeat IPC: 0.571681 cumulative IPC: 0.470263 (Simulation time: 1 hr 21 min 56 sec) 
Finished CPU 0 instructions: 200000000 cycles: 423280165 cumulative IPC: 0.4725 (Simulation time: 1 hr 23 min 4 sec) 
Heartbeat CPU 0 instructions: 320000002 cycles: 461708798 heartbeat IPC: 0.570588 cumulative IPC: 0.47434 (Simulation time: 1 hr 23 min 59 sec) 
Heartbeat CPU 2 instructions: 180000001 cycles: 465688234 heartbeat IPC: 0.25422 cumulative IPC: 0.242726 (Simulation time: 1 hr 24 min 40 sec) 
Heartbeat CPU 0 instructions: 330000000 cycles: 478626796 heartbeat IPC: 0.591086 cumulative IPC: 0.478747 (Simulation time: 1 hr 26 min 10 sec) 
Heartbeat CPU 0 instructions: 340000000 cycles: 495603389 heartbeat IPC: 0.589046 cumulative IPC: 0.482773 (Simulation time: 1 hr 28 min 14 sec) 
Heartbeat CPU 2 instructions: 190000002 cycles: 506111870 heartbeat IPC: 0.24738 cumulative IPC: 0.243121 (Simulation time: 1 hr 29 min 34 sec) 
Heartbeat CPU 0 instructions: 350000003 cycles: 512790074 heartbeat IPC: 0.581846 cumulative IPC: 0.486303 (Simulation time: 1 hr 30 min 24 sec) 
Heartbeat CPU 0 instructions: 360000003 cycles: 529872089 heartbeat IPC: 0.585411 cumulative IPC: 0.489693 (Simulation time: 1 hr 32 min 35 sec) 
Heartbeat CPU 2 instructions: 200000000 cycles: 546863973 heartbeat IPC: 0.245386 cumulative IPC: 0.2433 (Simulation time: 1 hr 34 min 42 sec) 
Heartbeat CPU 0 instructions: 370000000 cycles: 546992316 heartbeat IPC: 0.584104 cumulative IPC: 0.492822 (Simulation time: 1 hr 34 min 43 sec) 
Heartbeat CPU 0 instructions: 380000002 cycles: 564131169 heartbeat IPC: 0.58347 cumulative IPC: 0.495733 (Simulation time: 1 hr 36 min 52 sec) 
Heartbeat CPU 0 instructions: 390000001 cycles: 581309033 heartbeat IPC: 0.582144 cumulative IPC: 0.498427 (Simulation time: 1 hr 38 min 57 sec) 
Heartbeat CPU 2 instructions: 210000000 cycles: 587734247 heartbeat IPC: 0.244677 cumulative IPC: 0.243401 (Simulation time: 1 hr 39 min 47 sec) 
Heartbeat CPU 1 instructions: 100000000 cycles: 588445141 heartbeat IPC: 0.0597924 cumulative IPC: 0.0551709 (Simulation time: 1 hr 39 min 54 sec) 
Heartbeat CPU 0 instructions: 400000000 cycles: 597660421 heartbeat IPC: 0.611569 cumulative IPC: 0.501689 (Simulation time: 1 hr 41 min 9 sec) 
Heartbeat CPU 0 instructions: 410000003 cycles: 613607546 heartbeat IPC: 0.627072 cumulative IPC: 0.505118 (Simulation time: 1 hr 43 min 20 sec) 
Heartbeat CPU 2 instructions: 220000000 cycles: 625308870 heartbeat IPC: 0.266137 cumulative IPC: 0.244837 (Simulation time: 1 hr 44 min 46 sec) 
Heartbeat CPU 0 instructions: 420000001 cycles: 629598901 heartbeat IPC: 0.625338 cumulative IPC: 0.508326 (Simulation time: 1 hr 45 min 17 sec) 
Heartbeat CPU 3 instructions: 70000000 cycles: 630923998 heartbeat IPC: 0.0335577 cumulative IPC: 0.0333067 (Simulation time: 1 hr 45 min 27 sec) 
Heartbeat CPU 0 instructions: 430000002 cycles: 645817020 heartbeat IPC: 0.616594 cumulative IPC: 0.51118 (Simulation time: 1 hr 47 min 18 sec) 
Heartbeat CPU 0 instructions: 440000000 cycles: 662214815 heartbeat IPC: 0.609838 cumulative IPC: 0.51374 (Simulation time: 1 hr 49 min 25 sec) 
Heartbeat CPU 2 instructions: 230000000 cycles: 665105681 heartbeat IPC: 0.251276 cumulative IPC: 0.245241 (Simulation time: 1 hr 49 min 48 sec) 
Heartbeat CPU 0 instructions: 450000003 cycles: 678285892 heartbeat IPC: 0.622236 cumulative IPC: 0.516432 (Simulation time: 1 hr 51 min 34 sec) 
Heartbeat CPU 0 instructions: 460000000 cycles: 694493409 heartbeat IPC: 0.616997 cumulative IPC: 0.518886 (Simulation time: 1 hr 53 min 24 sec) 
Heartbeat CPU 2 instructions: 240000000 cycles: 703076420 heartbeat IPC: 0.263361 cumulative IPC: 0.246264 (Simulation time: 1 hr 54 min 25 sec) 
Heartbeat CPU 0 instructions: 470000001 cycles: 710360570 heartbeat IPC: 0.630233 cumulative IPC: 0.521485 (Simulation time: 1 hr 55 min 28 sec) 
Heartbeat CPU 0 instructions: 480000002 cycles: 725860431 heartbeat IPC: 0.645167 cumulative IPC: 0.524242 (Simulation time: 1 hr 57 min 15 sec) 
Heartbeat CPU 0 instructions: 490000001 cycles: 741093057 heartbeat IPC: 0.656486 cumulative IPC: 0.527076 (Simulation time: 1 hr 59 min 15 sec) 
Heartbeat CPU 2 instructions: 250000002 cycles: 745056418 heartbeat IPC: 0.238209 cumulative IPC: 0.245791 (Simulation time: 1 hr 59 min 48 sec) 
Heartbeat CPU 1 instructions: 110000000 cycles: 750747020 heartbeat IPC: 0.0616136 cumulative IPC: 0.0566226 (Simulation time: 2 hr 0 min 32 sec) 
Heartbeat CPU 0 instructions: 500000002 cycles: 756374387 heartbeat IPC: 0.654393 cumulative IPC: 0.529756 (Simulation time: 2 hr 1 min 13 sec) 
Heartbeat CPU 0 instructions: 510000000 cycles: 771618137 heartbeat IPC: 0.656006 cumulative IPC: 0.532353 (Simulation time: 2 hr 3 min 9 sec) 
Heartbeat CPU 0 instructions: 520000002 cycles: 786785607 heartbeat IPC: 0.659306 cumulative IPC: 0.534899 (Simulation time: 2 hr 5 min 4 sec) 
Heartbeat CPU 2 instructions: 260000002 cycles: 787053120 heartbeat IPC: 0.238114 cumulative IPC: 0.245364 (Simulation time: 2 hr 5 min 6 sec) 
Heartbeat CPU 0 instructions: 530000002 cycles: 801992989 heartbeat IPC: 0.657575 cumulative IPC: 0.537317 (Simulation time: 2 hr 6 min 59 sec) 
Heartbeat CPU 0 instructions: 540000002 cycles: 817106762 heartbeat IPC: 0.661648 cumulative IPC: 0.539706 (Simulation time: 2 hr 9 min 0 sec) 
Heartbeat CPU 2 instructions: 270000000 cycles: 828786506 heartbeat IPC: 0.239616 cumulative IPC: 0.245064 (Simulation time: 2 hr 10 min 19 sec) 
Finished CPU 2 instructions: 200000003 cycles: 816694003 cumulative IPC: 0.24489 (Simulation time: 2 hr 12 min 18 sec) 
Heartbeat CPU 2 instructions: 280000001 cycles: 870570452 heartbeat IPC: 0.239326 cumulative IPC: 0.244779 (Simulation time: 2 hr 14 min 45 sec) 
Heartbeat CPU 0 instructions: 550000000 cycles: 884628602 heartbeat IPC: 0.1481 cumulative IPC: 0.50875 (Simulation time: 2 hr 16 min 7 sec) 
Heartbeat CPU 2 instructions: 290000003 cycles: 923310000 heartbeat IPC: 0.189611 cumulative IPC: 0.24152 (Simulation time: 2 hr 20 min 24 sec) 
Heartbeat CPU 0 instructions: 560000001 cycles: 941849393 heartbeat IPC: 0.174762 cumulative IPC: 0.487781 (Simulation time: 2 hr 22 min 30 sec) 
Heartbeat CPU 1 instructions: 120000001 cycles: 960351531 heartbeat IPC: 0.0477089 cumulative IPC: 0.0546134 (Simulation time: 2 hr 24 min 44 sec) 
Heartbeat CPU 2 instructions: 300000000 cycles: 965644440 heartbeat IPC: 0.236214 cumulative IPC: 0.24128 (Simulation time: 2 hr 25 min 20 sec) 
Heartbeat CPU 3 instructions: 80000000 cycles: 969393847 heartbeat IPC: 0.0295447 cumulative IPC: 0.0319506 (Simulation time: 2 hr 25 min 48 sec) 
Heartbeat CPU 0 instructions: 570000003 cycles: 971774788 heartbeat IPC: 0.334164 cumulative IPC: 0.482897 (Simulation time: 2 hr 26 min 5 sec) 
Heartbeat CPU 0 instructions: 580000001 cycles: 1001736916 heartbeat IPC: 0.333755 cumulative IPC: 0.478297 (Simulation time: 2 hr 29 min 23 sec) 
Heartbeat CPU 2 instructions: 310000002 cycles: 1002097573 heartbeat IPC: 0.274325 cumulative IPC: 0.24252 (Simulation time: 2 hr 29 min 26 sec) 
Heartbeat CPU 0 instructions: 590000001 cycles: 1031665317 heartbeat IPC: 0.334131 cumulative IPC: 0.473987 (Simulation time: 2 hr 32 min 56 sec) 
Heartbeat CPU 2 instructions: 320000001 cycles: 1039910499 heartbeat IPC: 0.26446 cumulative IPC: 0.243341 (Simulation time: 2 hr 33 min 44 sec) 
Heartbeat CPU 0 instructions: 600000001 cycles: 1055478545 heartbeat IPC: 0.419935 cumulative IPC: 0.472732 (Simulation time: 2 hr 35 min 43 sec) 
Heartbeat CPU 0 instructions: 610000001 cycles: 1073590033 heartbeat IPC: 0.552136 cumulative IPC: 0.47411 (Simulation time: 2 hr 38 min 1 sec) 
Heartbeat CPU 2 instructions: 330000000 cycles: 1077860278 heartbeat IPC: 0.263506 cumulative IPC: 0.244072 (Simulation time: 2 hr 38 min 34 sec) 
Heartbeat CPU 0 instructions: 620000002 cycles: 1091687370 heartbeat IPC: 0.552568 cumulative IPC: 0.475448 (Simulation time: 2 hr 40 min 26 sec) 
Heartbeat CPU 0 instructions: 630000001 cycles: 1109953023 heartbeat IPC: 0.547476 cumulative IPC: 0.476667 (Simulation time: 2 hr 42 min 35 sec) 
Heartbeat CPU 2 instructions: 340000001 cycles: 1115688402 heartbeat IPC: 0.264354 cumulative IPC: 0.244779 (Simulation time: 2 hr 43 min 12 sec) 
Heartbeat CPU 1 instructions: 130000000 cycles: 1120465370 heartbeat IPC: 0.0624556 cumulative IPC: 0.0557654 (Simulation time: 2 hr 43 min 44 sec) 
Heartbeat CPU 0 instructions: 640000002 cycles: 1128139685 heartbeat IPC: 0.549854 cumulative IPC: 0.477879 (Simulation time: 2 hr 44 min 36 sec) 
Heartbeat CPU 0 instructions: 650000002 cycles: 1146208749 heartbeat IPC: 0.553432 cumulative IPC: 0.479103 (Simulation time: 2 hr 46 min 43 sec) 
Heartbeat CPU 2 instructions: 350000003 cycles: 1153606491 heartbeat IPC: 0.263726 cumulative IPC: 0.245419 (Simulation time: 2 hr 47 min 40 sec) 
Heartbeat CPU 0 instructions: 660000000 cycles: 1164485116 heartbeat IPC: 0.547155 cumulative IPC: 0.4802 (Simulation time: 2 hr 49 min 1 sec) 
Heartbeat CPU 0 instructions: 670000000 cycles: 1182267868 heartbeat IPC: 0.562343 cumulative IPC: 0.481468 (Simulation time: 2 hr 51 min 22 sec) 
Heartbeat CPU 2 instructions: 360000001 cycles: 1192949879 heartbeat IPC: 0.254172 cumulative IPC: 0.245715 (Simulation time: 2 hr 52 min 26 sec) 
Heartbeat CPU 0 instructions: 680000000 cycles: 1221572709 heartbeat IPC: 0.254422 cumulative IPC: 0.473976 (Simulation time: 2 hr 55 min 29 sec) 
Heartbeat CPU 2 instructions: 370000002 cycles: 1235842935 heartbeat IPC: 0.233138 cumulative IPC: 0.245267 (Simulation time: 2 hr 57 min 16 sec) 
Heartbeat CPU 0 instructions: 690000000 cycles: 1238933505 heartbeat IPC: 0.57601 cumulative IPC: 0.475442 (Simulation time: 2 hr 57 min 40 sec) 
Heartbeat CPU 0 instructions: 700000003 cycles: 1256001252 heartbeat IPC: 0.585901 cumulative IPC: 0.47698 (Simulation time: 2 hr 59 min 53 sec) 
Heartbeat CPU 3 instructions: 90000000 cycles: 1272194385 heartbeat IPC: 0.033025 cumulative IPC: 0.0322126 (Simulation time: 3 hr 1 min 57 sec) 
Heartbeat CPU 0 instructions: 710000003 cycles: 1272943622 heartbeat IPC: 0.590236 cumulative IPC: 0.478524 (Simulation time: 3 hr 2 min 2 sec) 
Heartbeat CPU 2 instructions: 380000000 cycles: 1274226603 heartbeat IPC: 0.260527 cumulative IPC: 0.245738 (Simulation time: 3 hr 2 min 11 sec) 
Heartbeat CPU 0 instructions: 720000000 cycles: 1289388688 heartbeat IPC: 0.608085 cumulative IPC: 0.480217 (Simulation time: 3 hr 4 min 4 sec) 
Heartbeat CPU 1 instructions: 140000002 cycles: 1300075198 heartbeat IPC: 0.0556763 cumulative IPC: 0.0557527 (Simulation time: 3 hr 5 min 22 sec) 
Heartbeat CPU 0 instructions: 730000002 cycles: 1306119050 heartbeat IPC: 0.597716 cumulative IPC: 0.481758 (Simulation time: 3 hr 6 min 9 sec) 
Heartbeat CPU 2 instructions: 390000000 cycles: 1312873928 heartbeat IPC: 0.25875 cumulative IPC: 0.24613 (Simulation time: 3 hr 7 min 3 sec) 
Heartbeat CPU 0 instructions: 740000002 cycles: 1322644276 heartbeat IPC: 0.605135 cumulative IPC: 0.483335 (Simulation time: 3 hr 8 min 21 sec) 
Heartbeat CPU 0 instructions: 750000002 cycles: 1339371834 heartbeat IPC: 0.597816 cumulative IPC: 0.484798 (Simulation time: 3 hr 10 min 33 sec) 
Heartbeat CPU 2 instructions: 400000000 cycles: 1351361740 heartbeat IPC: 0.259823 cumulative IPC: 0.246529 (Simulation time: 3 hr 12 min 6 sec) 
Heartbeat CPU 0 instructions: 760000000 cycles: 1356364268 heartbeat IPC: 0.588497 cumulative IPC: 0.486127 (Simulation time: 3 hr 12 min 44 sec) 
Heartbeat CPU 0 instructions: 770000000 cycles: 1373750589 heartbeat IPC: 0.575165 cumulative IPC: 0.48728 (Simulation time: 3 hr 14 min 57 sec) 
Heartbeat CPU 2 instructions: 410000000 cycles: 1389185052 heartbeat IPC: 0.264387 cumulative IPC: 0.247026 (Simulation time: 3 hr 17 min 0 sec) 
Heartbeat CPU 0 instructions: 780000003 cycles: 1391110894 heartbeat IPC: 0.576027 cumulative IPC: 0.488412 (Simulation time: 3 hr 17 min 14 sec) 
Heartbeat CPU 0 instructions: 790000003 cycles: 1408555027 heartbeat IPC: 0.573259 cumulative IPC: 0.489486 (Simulation time: 3 hr 19 min 30 sec) 
Heartbeat CPU 0 instructions: 800000003 cycles: 1426006644 heartbeat IPC: 0.573013 cumulative IPC: 0.490531 (Simulation time: 3 hr 21 min 44 sec) 
Heartbeat CPU 2 instructions: 420000001 cycles: 1427373187 heartbeat IPC: 0.261861 cumulative IPC: 0.247432 (Simulation time: 3 hr 21 min 54 sec) 
Heartbeat CPU 0 instructions: 810000002 cycles: 1443457195 heartbeat IPC: 0.573048 cumulative IPC: 0.49155 (Simulation time: 3 hr 24 min 2 sec) 
Heartbeat CPU 0 instructions: 820000000 cycles: 1460910242 heartbeat IPC: 0.572966 cumulative IPC: 0.492543 (Simulation time: 3 hr 26 min 22 sec) 
Heartbeat CPU 1 instructions: 150000000 cycles: 1464449155 heartbeat IPC: 0.0608369 cumulative IPC: 0.0563355 (Simulation time: 3 hr 26 min 48 sec) 
Heartbeat CPU 2 instructions: 430000000 cycles: 1465506135 heartbeat IPC: 0.26224 cumulative IPC: 0.247826 (Simulation time: 3 hr 26 min 56 sec) 
Heartbeat CPU 0 instructions: 830000003 cycles: 1477661228 heartbeat IPC: 0.59698 cumulative IPC: 0.493752 (Simulation time: 3 hr 28 min 25 sec) 
Heartbeat CPU 0 instructions: 840000002 cycles: 1493494741 heartbeat IPC: 0.631572 cumulative IPC: 0.495243 (Simulation time: 3 hr 30 min 31 sec) 
Heartbeat CPU 2 instructions: 440000000 cycles: 1504475654 heartbeat IPC: 0.256611 cumulative IPC: 0.248058 (Simulation time: 3 hr 31 min 57 sec) 
Heartbeat CPU 0 instructions: 850000003 cycles: 1509033654 heartbeat IPC: 0.643546 cumulative IPC: 0.496802 (Simulation time: 3 hr 32 min 27 sec) 
Heartbeat CPU 0 instructions: 860000003 cycles: 1524760087 heartbeat IPC: 0.635872 cumulative IPC: 0.498266 (Simulation time: 3 hr 34 min 31 sec) 
Heartbeat CPU 0 instructions: 870000002 cycles: 1540632249 heartbeat IPC: 0.630034 cumulative IPC: 0.49965 (Simulation time: 3 hr 36 min 36 sec) 
Heartbeat CPU 2 instructions: 450000002 cycles: 1544519875 heartbeat IPC: 0.249724 cumulative IPC: 0.248102 (Simulation time: 3 hr 37 min 10 sec) 
Heartbeat CPU 0 instructions: 880000000 cycles: 1556142109 heartbeat IPC: 0.644751 cumulative IPC: 0.501126 (Simulation time: 3 hr 38 min 34 sec) 
Heartbeat CPU 0 instructions: 890000000 cycles: 1571649016 heartbeat IPC: 0.644874 cumulative IPC: 0.502572 (Simulation time: 3 hr 40 min 31 sec) 
Heartbeat CPU 3 instructions: 100000002 cycles: 1578131671 heartbeat IPC: 0.0326864 cumulative IPC: 0.0323063 (Simulation time: 3 hr 41 min 12 sec) 
Heartbeat CPU 2 instructions: 460000001 cycles: 1585016130 heartbeat IPC: 0.246936 cumulative IPC: 0.248071 (Simulation time: 3 hr 41 min 56 sec) 
Heartbeat CPU 0 instructions: 900000003 cycles: 1587302654 heartbeat IPC: 0.638829 cumulative IPC: 0.503942 (Simulation time: 3 hr 42 min 14 sec) 
Heartbeat CPU 0 instructions: 910000002 cycles: 1616513798 heartbeat IPC: 0.342335 cumulative IPC: 0.500965 (Simulation time: 3 hr 45 min 57 sec) 
Heartbeat CPU 2 instructions: 470000002 cycles: 1623453227 heartbeat IPC: 0.260165 cumulative IPC: 0.248363 (Simulation time: 3 hr 46 min 49 sec) 
Heartbeat CPU 1 instructions: 160000000 cycles: 1645264078 heartbeat IPC: 0.0553052 cumulative IPC: 0.0562202 (Simulation time: 3 hr 49 min 26 sec) 
Heartbeat CPU 0 instructions: 920000000 cycles: 1646498581 heartbeat IPC: 0.333502 cumulative IPC: 0.497858 (Simulation time: 3 hr 49 min 34 sec) 
Heartbeat CPU 2 instructions: 480000000 cycles: 1661400446 heartbeat IPC: 0.263524 cumulative IPC: 0.248716 (Simulation time: 3 hr 51 min 1 sec) 
Heartbeat CPU 0 instructions: 930000002 cycles: 1676343741 heartbeat IPC: 0.335063 cumulative IPC: 0.494906 (Simulation time: 3 hr 52 min 46 sec) 
Heartbeat CPU 2 instructions: 490000002 cycles: 1699475296 heartbeat IPC: 0.262641 cumulative IPC: 0.249034 (Simulation time: 3 hr 55 min 39 sec) 
Heartbeat CPU 0 instructions: 940000000 cycles: 1713995606 heartbeat IPC: 0.265591 cumulative IPC: 0.489778 (Simulation time: 3 hr 57 min 8 sec) 
Heartbeat CPU 2 instructions: 500000000 cycles: 1748360407 heartbeat IPC: 0.204561 cumulative IPC: 0.247768 (Simulation time: 4 hr 0 min 48 sec) 
Heartbeat CPU 0 instructions: 950000000 cycles: 1771771501 heartbeat IPC: 0.173083 cumulative IPC: 0.47927 (Simulation time: 4 hr 3 min 10 sec) 
Heartbeat CPU 0 instructions: 960000000 cycles: 1790529309 heartbeat IPC: 0.533111 cumulative IPC: 0.479844 (Simulation time: 4 hr 5 min 32 sec) 
Heartbeat CPU 2 instructions: 510000003 cycles: 1790545142 heartbeat IPC: 0.237053 cumulative IPC: 0.247511 (Simulation time: 4 hr 5 min 33 sec) 
Heartbeat CPU 0 instructions: 970000003 cycles: 1809430418 heartbeat IPC: 0.52907 cumulative IPC: 0.480367 (Simulation time: 4 hr 7 min 55 sec) 
Heartbeat CPU 0 instructions: 980000000 cycles: 1828310976 heartbeat IPC: 0.529645 cumulative IPC: 0.480884 (Simulation time: 4 hr 10 min 10 sec) 
Heartbeat CPU 2 instructions: 520000000 cycles: 1828540119 heartbeat IPC: 0.263193 cumulative IPC: 0.247843 (Simulation time: 4 hr 10 min 11 sec) 
Heartbeat CPU 1 instructions: 170000000 cycles: 1830620335 heartbeat IPC: 0.0539502 cumulative IPC: 0.0559864 (Simulation time: 4 hr 10 min 26 sec) 
Heartbeat CPU 0 instructions: 990000000 cycles: 1847303227 heartbeat IPC: 0.526531 cumulative IPC: 0.481362 (Simulation time: 4 hr 12 min 31 sec) 
Heartbeat CPU 0 instructions: 1000000003 cycles: 1866275896 heartbeat IPC: 0.527074 cumulative IPC: 0.481834 (Simulation time: 4 hr 14 min 51 sec) 
Heartbeat CPU 2 instructions: 530000000 cycles: 1867482890 heartbeat IPC: 0.256787 cumulative IPC: 0.248032 (Simulation time: 4 hr 14 min 58 sec) 
Heartbeat CPU 3 instructions: 110000000 cycles: 1875295193 heartbeat IPC: 0.0336515 cumulative IPC: 0.032523 (Simulation time: 4 hr 15 min 56 sec) 
Heartbeat CPU 0 instructions: 1010000002 cycles: 1885345864 heartbeat IPC: 0.524385 cumulative IPC: 0.482271 (Simulation time: 4 hr 17 min 11 sec) 
Heartbeat CPU 0 instructions: 1020000000 cycles: 1904544416 heartbeat IPC: 0.520873 cumulative IPC: 0.482667 (Simulation time: 4 hr 19 min 29 sec) 
Heartbeat CPU 2 instructions: 540000003 cycles: 1905515244 heartbeat IPC: 0.262934 cumulative IPC: 0.248335 (Simulation time: 4 hr 19 min 36 sec) 
Heartbeat CPU 0 instructions: 1030000001 cycles: 1922036100 heartbeat IPC: 0.5717 cumulative IPC: 0.48349 (Simulation time: 4 hr 21 min 50 sec) 
Heartbeat CPU 0 instructions: 1040000003 cycles: 1939249011 heartbeat IPC: 0.580959 cumulative IPC: 0.484369 (Simulation time: 4 hr 23 min 59 sec) 
Heartbeat CPU 2 instructions: 550000000 cycles: 1945798712 heartbeat IPC: 0.248241 cumulative IPC: 0.248333 (Simulation time: 4 hr 24 min 47 sec) 
Heartbeat CPU 0 instructions: 1050000000 cycles: 1956453090 heartbeat IPC: 0.581257 cumulative IPC: 0.485235 (Simulation time: 4 hr 26 min 9 sec) 
Heartbeat CPU 0 instructions: 1060000000 cycles: 1973564567 heartbeat IPC: 0.584403 cumulative IPC: 0.486108 (Simulation time: 4 hr 28 min 16 sec) 
Heartbeat CPU 2 instructions: 560000001 cycles: 1986801016 heartbeat IPC: 0.243889 cumulative IPC: 0.248239 (Simulation time: 4 hr 29 min 58 sec) 
Heartbeat CPU 0 instructions: 1070000003 cycles: 1990667957 heartbeat IPC: 0.58468 cumulative IPC: 0.486968 (Simulation time: 4 hr 30 min 26 sec) 
Heartbeat CPU 1 instructions: 180000000 cycles: 1993805306 heartbeat IPC: 0.0612802 cumulative IPC: 0.0564264 (Simulation time: 4 hr 30 min 51 sec) 
Heartbeat CPU 0 instructions: 1080000003 cycles: 2007824662 heartbeat IPC: 0.582862 cumulative IPC: 0.4878 (Simulation time: 4 hr 32 min 36 sec) 
Heartbeat CPU 0 instructions: 1090000000 cycles: 2025157076 heartbeat IPC: 0.576954 cumulative IPC: 0.488575 (Simulation time: 4 hr 34 min 35 sec) 
Heartbeat CPU 2 instructions: 570000000 cycles: 2039746425 heartbeat IPC: 0.188874 cumulative IPC: 0.246675 (Simulation time: 4 hr 36 min 14 sec) 
Heartbeat CPU 0 instructions: 1100000000 cycles: 2042558849 heartbeat IPC: 0.574654 cumulative IPC: 0.489319 (Simulation time: 4 hr 36 min 39 sec) 
Heartbeat CPU 0 instructions: 1110000002 cycles: 2057622964 heartbeat IPC: 0.663829 cumulative IPC: 0.490616 (Simulation time: 4 hr 38 min 39 sec) 
Heartbeat CPU 0 instructions: 1120000002 cycles: 2072623027 heartbeat IPC: 0.666664 cumulative IPC: 0.491909 (Simulation time: 4 hr 40 min 31 sec) 
Heartbeat CPU 2 instructions: 580000001 cycles: 2080643486 heartbeat IPC: 0.244516 cumulative IPC: 0.246632 (Simulation time: 4 hr 41 min 36 sec) 
Heartbeat CPU 0 instructions: 1130000003 cycles: 2087755376 heartbeat IPC: 0.660836 cumulative IPC: 0.493152 (Simulation time: 4 hr 42 min 28 sec) 
Heartbeat CPU 0 instructions: 1140000003 cycles: 2103111648 heartbeat IPC: 0.6512 cumulative IPC: 0.494322 (Simulation time: 4 hr 44 min 31 sec) 
Heartbeat CPU 0 instructions: 1150000003 cycles: 2118334866 heartbeat IPC: 0.656891 cumulative IPC: 0.495508 (Simulation time: 4 hr 46 min 22 sec) 
Heartbeat CPU 2 instructions: 590000000 cycles: 2122140117 heartbeat IPC: 0.240983 cumulative IPC: 0.24652 (Simulation time: 4 hr 46 min 50 sec) 
Heartbeat CPU 0 instructions: 1160000000 cycles: 2133514188 heartbeat IPC: 0.658791 cumulative IPC: 0.496686 (Simulation time: 4 hr 48 min 24 sec) 
Heartbeat CPU 0 instructions: 1170000002 cycles: 2148611524 heartbeat IPC: 0.662369 cumulative IPC: 0.497867 (Simulation time: 4 hr 50 min 35 sec) 
Heartbeat CPU 2 instructions: 600000000 cycles: 2163804809 heartbeat IPC: 0.240011 cumulative IPC: 0.246393 (Simulation time: 4 hr 52 min 30 sec) 
Heartbeat CPU 1 instructions: 190000001 cycles: 2165017117 heartbeat IPC: 0.0584072 cumulative IPC: 0.0565853 (Simulation time: 4 hr 52 min 41 sec) 
Heartbeat CPU 0 instructions: 1180000001 cycles: 2165308231 heartbeat IPC: 0.59892 cumulative IPC: 0.498658 (Simulation time: 4 hr 52 min 42 sec) 
Heartbeat CPU 0 instructions: 1190000000 cycles: 2181631065 heartbeat IPC: 0.612639 cumulative IPC: 0.499522 (Simulation time: 4 hr 54 min 46 sec) 
Heartbeat CPU 3 instructions: 120000000 cycles: 2186160075 heartbeat IPC: 0.0321683 cumulative IPC: 0.0324718 (Simulation time: 4 hr 55 min 20 sec) 
Heartbeat CPU 0 instructions: 1200000002 cycles: 2198072402 heartbeat IPC: 0.608223 cumulative IPC: 0.500347 (Simulation time: 4 hr 56 min 44 sec) 
Heartbeat CPU 2 instructions: 610000000 cycles: 2206116443 heartbeat IPC: 0.236342 cumulative IPC: 0.246197 (Simulation time: 4 hr 57 min 46 sec) 
Heartbeat CPU 0 instructions: 1210000000 cycles: 2214582627 heartbeat IPC: 0.605685 cumulative IPC: 0.501143 (Simulation time: 4 hr 58 min 49 sec) 
Heartbeat CPU 0 instructions: 1220000002 cycles: 2231014577 heartbeat IPC: 0.608571 cumulative IPC: 0.501945 (Simulation time: 5 hr 0 min 44 sec) 
Heartbeat CPU 2 instructions: 620000001 cycles: 2247254956 heartbeat IPC: 0.243081 cumulative IPC: 0.24614 (Simulation time: 5 hr 2 min 53 sec) 
Heartbeat CPU 0 instructions: 1230000003 cycles: 2247415333 heartbeat IPC: 0.609728 cumulative IPC: 0.502743 (Simulation time: 5 hr 2 min 55 sec) 
Heartbeat CPU 0 instructions: 1240000003 cycles: 2263856668 heartbeat IPC: 0.608223 cumulative IPC: 0.503519 (Simulation time: 5 hr 5 min 4 sec) 
Heartbeat CPU 2 instructions: 630000001 cycles: 2289846137 heartbeat IPC: 0.23479 cumulative IPC: 0.245926 (Simulation time: 5 hr 8 min 4 sec) 
Heartbeat CPU 0 instructions: 1250000002 cycles: 2316183720 heartbeat IPC: 0.191106 cumulative IPC: 0.496367 (Simulation time: 5 hr 10 min 53 sec) 
Heartbeat CPU 2 instructions: 640000003 cycles: 2334908712 heartbeat IPC: 0.221914 cumulative IPC: 0.245456 (Simulation time: 5 hr 12 min 55 sec) 
Heartbeat CPU 1 instructions: 200000001 cycles: 2371172798 heartbeat IPC: 0.048507 cumulative IPC: 0.0558738 (Simulation time: 5 hr 16 min 49 sec) 
Heartbeat CPU 0 instructions: 1260000003 cycles: 2380396264 heartbeat IPC: 0.155733 cumulative IPC: 0.487059 (Simulation time: 5 hr 17 min 51 sec) 
Heartbeat CPU 2 instructions: 650000000 cycles: 2392644316 heartbeat IPC: 0.173203 cumulative IPC: 0.24369 (Simulation time: 5 hr 19 min 18 sec) 
Heartbeat CPU 0 instructions: 1270000001 cycles: 2413800389 heartbeat IPC: 0.299364 cumulative IPC: 0.484429 (Simulation time: 5 hr 21 min 52 sec) 
Heartbeat CPU 2 instructions: 660000000 cycles: 2431908399 heartbeat IPC: 0.254686 cumulative IPC: 0.24387 (Simulation time: 5 hr 24 min 3 sec) 
Heartbeat CPU 0 instructions: 1280000001 cycles: 2444303539 heartbeat IPC: 0.327835 cumulative IPC: 0.48245 (Simulation time: 5 hr 25 min 29 sec) 
Heartbeat CPU 2 instructions: 670000000 cycles: 2471335798 heartbeat IPC: 0.253631 cumulative IPC: 0.244028 (Simulation time: 5 hr 28 min 29 sec) 
Heartbeat CPU 0 instructions: 1290000001 cycles: 2474520494 heartbeat IPC: 0.33094 cumulative IPC: 0.480577 (Simulation time: 5 hr 28 min 49 sec) 
Heartbeat CPU 0 instructions: 1300000001 cycles: 2501740611 heartbeat IPC: 0.367375 cumulative IPC: 0.47933 (Simulation time: 5 hr 32 min 8 sec) 
Heartbeat CPU 2 instructions: 680000000 cycles: 2510415178 heartbeat IPC: 0.255889 cumulative IPC: 0.244215 (Simulation time: 5 hr 33 min 16 sec) 
Heartbeat CPU 0 instructions: 1310000001 cycles: 2523783311 heartbeat IPC: 0.453665 cumulative IPC: 0.479103 (Simulation time: 5 hr 34 min 49 sec) 
Heartbeat CPU 3 instructions: 130000001 cycles: 2524226076 heartbeat IPC: 0.02958 cumulative IPC: 0.0320798 (Simulation time: 5 hr 34 min 53 sec) 
Heartbeat CPU 1 instructions: 210000003 cycles: 2538854289 heartbeat IPC: 0.0596369 cumulative IPC: 0.0561254 (Simulation time: 5 hr 36 min 44 sec) 
Heartbeat CPU 0 instructions: 1320000000 cycles: 2545780462 heartbeat IPC: 0.454604 cumulative IPC: 0.478889 (Simulation time: 5 hr 37 min 36 sec) 
Heartbeat CPU 2 instructions: 690000000 cycles: 2547446223 heartbeat IPC: 0.270044 cumulative IPC: 0.244595 (Simulation time: 5 hr 37 min 50 sec) 
Heartbeat CPU 0 instructions: 1330000001 cycles: 2567800564 heartbeat IPC: 0.454131 cumulative IPC: 0.478674 (Simulation time: 5 hr 40 min 27 sec) 
Heartbeat CPU 2 instructions: 700000000 cycles: 2585463776 heartbeat IPC: 0.263036 cumulative IPC: 0.244869 (Simulation time: 5 hr 42 min 42 sec) 
Heartbeat CPU 0 instructions: 1340000001 cycles: 2589965930 heartbeat IPC: 0.451154 cumulative IPC: 0.478436 (Simulation time: 5 hr 43 min 17 sec) 
Heartbeat CPU 0 instructions: 1350000002 cycles: 2612186017 heartbeat IPC: 0.450043 cumulative IPC: 0.478191 (Simulation time: 5 hr 46 min 6 sec) 
Heartbeat CPU 2 instructions: 710000000 cycles: 2623222224 heartbeat IPC: 0.264841 cumulative IPC: 0.24516 (Simulation time: 5 hr 47 min 27 sec) 
Heartbeat CPU 0 instructions: 1360000002 cycles: 2634217685 heartbeat IPC: 0.453892 cumulative IPC: 0.477986 (Simulation time: 5 hr 48 min 50 sec) 
Heartbeat CPU 0 instructions: 1370000003 cycles: 2656401171 heartbeat IPC: 0.450786 cumulative IPC: 0.477756 (Simulation time: 5 hr 51 min 37 sec) 
Heartbeat CPU 2 instructions: 720000000 cycles: 2661469163 heartbeat IPC: 0.261459 cumulative IPC: 0.245397 (Simulation time: 5 hr 52 min 16 sec) 
Heartbeat CPU 0 instructions: 1380000000 cycles: 2691541188 heartbeat IPC: 0.284576 cumulative IPC: 0.475205 (Simulation time: 5 hr 55 min 30 sec) 
Heartbeat CPU 1 instructions: 220000000 cycles: 2700822634 heartbeat IPC: 0.0617404 cumulative IPC: 0.0564659 (Simulation time: 5 hr 56 min 26 sec) 
Heartbeat CPU 2 instructions: 730000000 cycles: 2708268081 heartbeat IPC: 0.21368 cumulative IPC: 0.244842 (Simulation time: 5 hr 57 min 28 sec) 
Heartbeat CPU 0 instructions: 1390000001 cycles: 2714519859 heartbeat IPC: 0.435186 cumulative IPC: 0.474862 (Simulation time: 5 hr 58 min 16 sec) 
Heartbeat CPU 0 instructions: 1400000000 cycles: 2731573933 heartbeat IPC: 0.58637 cumulative IPC: 0.475566 (Simulation time: 6 hr 0 min 33 sec) 
Heartbeat CPU 0 instructions: 1410000000 cycles: 2748588834 heartbeat IPC: 0.58772 cumulative IPC: 0.476268 (Simulation time: 6 hr 2 min 48 sec) 
Heartbeat CPU 2 instructions: 740000002 cycles: 2748744971 heartbeat IPC: 0.247055 cumulative IPC: 0.244875 (Simulation time: 6 hr 2 min 49 sec) 
Heartbeat CPU 0 instructions: 1420000000 cycles: 2765493483 heartbeat IPC: 0.591553 cumulative IPC: 0.476981 (Simulation time: 6 hr 4 min 50 sec) 
Heartbeat CPU 0 instructions: 1430000000 cycles: 2782388408 heartbeat IPC: 0.591894 cumulative IPC: 0.477686 (Simulation time: 6 hr 7 min 3 sec) 
Heartbeat CPU 2 instructions: 750000001 cycles: 2789194901 heartbeat IPC: 0.247219 cumulative IPC: 0.24491 (Simulation time: 6 hr 8 min 0 sec) 
Heartbeat CPU 0 instructions: 1440000000 cycles: 2799228643 heartbeat IPC: 0.593816 cumulative IPC: 0.478393 (Simulation time: 6 hr 9 min 19 sec) 
Heartbeat CPU 0 instructions: 1450000002 cycles: 2815984565 heartbeat IPC: 0.596804 cumulative IPC: 0.479105 (Simulation time: 6 hr 11 min 23 sec) 
Heartbeat CPU 3 instructions: 140000000 cycles: 2823137446 heartbeat IPC: 0.0334547 cumulative IPC: 0.032227 (Simulation time: 6 hr 12 min 13 sec) 
Heartbeat CPU 2 instructions: 760000000 cycles: 2830315562 heartbeat IPC: 0.243187 cumulative IPC: 0.244884 (Simulation time: 6 hr 13 min 12 sec) 
Heartbeat CPU 0 instructions: 1460000000 cycles: 2833277264 heartbeat IPC: 0.578279 cumulative IPC: 0.479717 (Simulation time: 6 hr 13 min 35 sec) 
Heartbeat CPU 0 instructions: 1470000001 cycles: 2852338753 heartbeat IPC: 0.524618 cumulative IPC: 0.48002 (Simulation time: 6 hr 16 min 3 sec) 
Heartbeat CPU 2 instructions: 770000000 cycles: 2869705075 heartbeat IPC: 0.253875 cumulative IPC: 0.245009 (Simulation time: 6 hr 18 min 10 sec) 
Heartbeat CPU 0 instructions: 1480000003 cycles: 2871382904 heartbeat IPC: 0.525096 cumulative IPC: 0.480322 (Simulation time: 6 hr 18 min 23 sec) 
Heartbeat CPU 1 instructions: 230000000 cycles: 2872029122 heartbeat IPC: 0.058409 cumulative IPC: 0.056583 (Simulation time: 6 hr 18 min 28 sec) 
Heartbeat CPU 0 instructions: 1490000002 cycles: 2890471628 heartbeat IPC: 0.523869 cumulative IPC: 0.480613 (Simulation time: 6 hr 20 min 50 sec) 
Heartbeat CPU 2 instructions: 780000003 cycles: 2908779686 heartbeat IPC: 0.255921 cumulative IPC: 0.245157 (Simulation time: 6 hr 23 min 2 sec) 
Heartbeat CPU 0 instructions: 1500000001 cycles: 2909746403 heartbeat IPC: 0.518813 cumulative IPC: 0.480869 (Simulation time: 6 hr 23 min 9 sec) 
Heartbeat CPU 0 instructions: 1510000000 cycles: 2928982593 heartbeat IPC: 0.519853 cumulative IPC: 0.481127 (Simulation time: 6 hr 25 min 33 sec) 
Heartbeat CPU 2 instructions: 790000000 cycles: 2947857367 heartbeat IPC: 0.2559 cumulative IPC: 0.245301 (Simulation time: 6 hr 27 min 58 sec) 
Heartbeat CPU 0 instructions: 1520000002 cycles: 2948146194 heartbeat IPC: 0.521823 cumulative IPC: 0.481395 (Simulation time: 6 hr 28 min 1 sec) 
Heartbeat CPU 0 instructions: 1530000002 cycles: 2967437885 heartbeat IPC: 0.518358 cumulative IPC: 0.481637 (Simulation time: 6 hr 30 min 21 sec) 
Heartbeat CPU 0 instructions: 1540000000 cycles: 2984510449 heartbeat IPC: 0.585735 cumulative IPC: 0.482239 (Simulation time: 6 hr 32 min 34 sec) 
Heartbeat CPU 2 instructions: 800000000 cycles: 2990287630 heartbeat IPC: 0.235681 cumulative IPC: 0.245163 (Simulation time: 6 hr 33 min 21 sec) 
Heartbeat CPU 0 instructions: 1550000003 cycles: 3001502808 heartbeat IPC: 0.5885 cumulative IPC: 0.482847 (Simulation time: 6 hr 34 min 45 sec) 
Heartbeat CPU 0 instructions: 1560000002 cycles: 3018676829 heartbeat IPC: 0.582275 cumulative IPC: 0.483418 (Simulation time: 6 hr 36 min 47 sec) 
Heartbeat CPU 2 instructions: 810000003 cycles: 3032832770 heartbeat IPC: 0.235045 cumulative IPC: 0.24502 (Simulation time: 6 hr 38 min 36 sec) 
Heartbeat CPU 0 instructions: 1570000003 cycles: 3035784010 heartbeat IPC: 0.58455 cumulative IPC: 0.483994 (Simulation time: 6 hr 38 min 53 sec) 
Heartbeat CPU 1 instructions: 240000000 cycles: 3036566996 heartbeat IPC: 0.0607763 cumulative IPC: 0.0568125 (Simulation time: 6 hr 38 min 58 sec) 
Heartbeat CPU 0 instructions: 1580000002 cycles: 3052811710 heartbeat IPC: 0.587278 cumulative IPC: 0.484576 (Simulation time: 6 hr 40 min 52 sec) 
Heartbeat CPU 0 instructions: 1590000000 cycles: 3070012847 heartbeat IPC: 0.581357 cumulative IPC: 0.485123 (Simulation time: 6 hr 43 min 0 sec) 
Heartbeat CPU 2 instructions: 820000003 cycles: 3075310050 heartbeat IPC: 0.23542 cumulative IPC: 0.244886 (Simulation time: 6 hr 43 min 40 sec) 
Heartbeat CPU 0 instructions: 1600000003 cycles: 3087211201 heartbeat IPC: 0.581451 cumulative IPC: 0.485665 (Simulation time: 6 hr 45 min 4 sec) 
Heartbeat CPU 0 instructions: 1610000000 cycles: 3113581132 heartbeat IPC: 0.37922 cumulative IPC: 0.484755 (Simulation time: 6 hr 48 min 12 sec) 
Heartbeat CPU 2 instructions: 830000000 cycles: 3116669169 heartbeat IPC: 0.241785 cumulative IPC: 0.244844 (Simulation time: 6 hr 48 min 34 sec) 
Heartbeat CPU 3 instructions: 150000000 cycles: 3135914848 heartbeat IPC: 0.0319716 cumulative IPC: 0.0322012 (Simulation time: 6 hr 50 min 56 sec) 
Heartbeat CPU 0 instructions: 1620000002 cycles: 3143748082 heartbeat IPC: 0.331489 cumulative IPC: 0.48327 (Simulation time: 6 hr 51 min 46 sec) 
Heartbeat CPU 2 instructions: 840000000 cycles: 3157240145 heartbeat IPC: 0.246482 cumulative IPC: 0.244866 (Simulation time: 6 hr 53 min 10 sec) 
Heartbeat CPU 0 instructions: 1630000000 cycles: 3170867883 heartbeat IPC: 0.368734 cumulative IPC: 0.482281 (Simulation time: 6 hr 54 min 35 sec) 
Heartbeat CPU 0 instructions: 1640000000 cycles: 3197838952 heartbeat IPC: 0.370768 cumulative IPC: 0.481331 (Simulation time: 6 hr 57 min 42 sec) 
Heartbeat CPU 2 instructions: 850000001 cycles: 3200633182 heartbeat IPC: 0.230452 cumulative IPC: 0.244668 (Simulation time: 6 hr 58 min 11 sec) 
Heartbeat CPU 1 instructions: 250000003 cycles: 3211990837 heartbeat IPC: 0.0570048 cumulative IPC: 0.0568231 (Simulation time: 6 hr 59 min 29 sec) 
Heartbeat CPU 0 instructions: 1650000000 cycles: 3213913906 heartbeat IPC: 0.622086 cumulative IPC: 0.482042 (Simulation time: 6 hr 59 min 44 sec) 
Heartbeat CPU 0 instructions: 1660000003 cycles: 3229957634 heartbeat IPC: 0.623297 cumulative IPC: 0.48275 (Simulation time: 7 hr 1 min 39 sec) 
Heartbeat CPU 2 instructions: 860000002 cycles: 3243443328 heartbeat IPC: 0.23359 cumulative IPC: 0.244521 (Simulation time: 7 hr 3 min 24 sec) 
Heartbeat CPU 0 instructions: 1670000001 cycles: 3246131689 heartbeat IPC: 0.618274 cumulative IPC: 0.483432 (Simulation time: 7 hr 3 min 45 sec) 
Heartbeat CPU 0 instructions: 1680000000 cycles: 3262116096 heartbeat IPC: 0.62561 cumulative IPC: 0.484135 (Simulation time: 7 hr 5 min 55 sec) 
Heartbeat CPU 0 instructions: 1690000001 cycles: 3278145924 heartbeat IPC: 0.623837 cumulative IPC: 0.484825 (Simulation time: 7 hr 7 min 57 sec) 
Heartbeat CPU 2 instructions: 870000001 cycles: 3286310986 heartbeat IPC: 0.233276 cumulative IPC: 0.244373 (Simulation time: 7 hr 9 min 1 sec) 
Heartbeat CPU 0 instructions: 1700000000 cycles: 3294212475 heartbeat IPC: 0.622411 cumulative IPC: 0.485502 (Simulation time: 7 hr 10 min 4 sec) 
Heartbeat CPU 0 instructions: 1710000000 cycles: 3310334333 heartbeat IPC: 0.620276 cumulative IPC: 0.486164 (Simulation time: 7 hr 12 min 15 sec) 
Heartbeat CPU 2 instructions: 880000000 cycles: 3331933500 heartbeat IPC: 0.21919 cumulative IPC: 0.244025 (Simulation time: 7 hr 14 min 55 sec) 
Heartbeat CPU 0 instructions: 1720000000 cycles: 3337399611 heartbeat IPC: 0.369477 cumulative IPC: 0.485209 (Simulation time: 7 hr 15 min 32 sec) 
Heartbeat CPU 0 instructions: 1730000002 cycles: 3364691712 heartbeat IPC: 0.366406 cumulative IPC: 0.484237 (Simulation time: 7 hr 18 min 49 sec) 
Heartbeat CPU 2 instructions: 890000000 cycles: 3380999585 heartbeat IPC: 0.203807 cumulative IPC: 0.243436 (Simulation time: 7 hr 20 min 55 sec) 
Heartbeat CPU 0 instructions: 1740000003 cycles: 3381990420 heartbeat IPC: 0.578078 cumulative IPC: 0.484721 (Simulation time: 7 hr 21 min 2 sec) 
Heartbeat CPU 0 instructions: 1750000000 cycles: 3398894760 heartbeat IPC: 0.591564 cumulative IPC: 0.485258 (Simulation time: 7 hr 23 min 7 sec) 
Heartbeat CPU 1 instructions: 260000000 cycles: 3407555275 heartbeat IPC: 0.051134 cumulative IPC: 0.0564937 (Simulation time: 7 hr 24 min 6 sec) 
Heartbeat CPU 0 instructions: 1760000000 cycles: 3415818338 heartbeat IPC: 0.590892 cumulative IPC: 0.485786 (Simulation time: 7 hr 25 min 2 sec) 
Heartbeat CPU 2 instructions: 900000000 cycles: 3424482757 heartbeat IPC: 0.229974 cumulative IPC: 0.243263 (Simulation time: 7 hr 26 min 3 sec) 
Heartbeat CPU 0 instructions: 1770000000 cycles: 3432553314 heartbeat IPC: 0.597551 cumulative IPC: 0.486335 (Simulation time: 7 hr 27 min 3 sec) 
Heartbeat CPU 0 instructions: 1780000001 cycles: 3449246841 heartbeat IPC: 0.599035 cumulative IPC: 0.486886 (Simulation time: 7 hr 29 min 6 sec) 
Heartbeat CPU 0 instructions: 1790000000 cycles: 3465916988 heartbeat IPC: 0.599875 cumulative IPC: 0.487434 (Simulation time: 7 hr 31 min 12 sec) 
Heartbeat CPU 2 instructions: 910000000 cycles: 3467374624 heartbeat IPC: 0.233144 cumulative IPC: 0.243137 (Simulation time: 7 hr 31 min 22 sec) 
Heartbeat CPU 0 instructions: 1800000002 cycles: 3482403186 heartbeat IPC: 0.606568 cumulative IPC: 0.488003 (Simulation time: 7 hr 33 min 14 sec) 
Heartbeat CPU 3 instructions: 160000000 cycles: 3496292540 heartbeat IPC: 0.0277487 cumulative IPC: 0.0317383 (Simulation time: 7 hr 34 min 54 sec) 
Heartbeat CPU 0 instructions: 1810000000 cycles: 3500626484 heartbeat IPC: 0.548748 cumulative IPC: 0.488322 (Simulation time: 7 hr 35 min 23 sec) 
Heartbeat CPU 2 instructions: 920000001 cycles: 3510281035 heartbeat IPC: 0.233065 cumulative IPC: 0.243013 (Simulation time: 7 hr 36 min 33 sec) 
Heartbeat CPU 0 instructions: 1820000003 cycles: 3518625651 heartbeat IPC: 0.555581 cumulative IPC: 0.488669 (Simulation time: 7 hr 37 min 31 sec) 
Heartbeat CPU 0 instructions: 1830000001 cycles: 3536833576 heartbeat IPC: 0.549211 cumulative IPC: 0.488983 (Simulation time: 7 hr 39 min 32 sec) 
Heartbeat CPU 2 instructions: 930000003 cycles: 3552324806 heartbeat IPC: 0.237847 cumulative IPC: 0.242951 (Simulation time: 7 hr 41 min 27 sec) 
Heartbeat CPU 0 instructions: 1840000000 cycles: 3554930329 heartbeat IPC: 0.552585 cumulative IPC: 0.48931 (Simulation time: 7 hr 41 min 46 sec) 
Heartbeat CPU 0 instructions: 1850000002 cycles: 3573100952 heartbeat IPC: 0.550339 cumulative IPC: 0.489623 (Simulation time: 7 hr 43 min 53 sec) 
Finished CPU 1 instructions: 200000000 cycles: 3549010752 cumulative IPC: 0.0563537 (Simulation time: 7 hr 44 min 35 sec) 
Heartbeat CPU 0 instructions: 1860000002 cycles: 3591302718 heartbeat IPC: 0.549397 cumulative IPC: 0.489929 (Simulation time: 7 hr 45 min 56 sec) 
Heartbeat CPU 1 instructions: 270000003 cycles: 3593827572 heartbeat IPC: 0.0536849 cumulative IPC: 0.0563468 (Simulation time: 7 hr 46 min 14 sec) 
Heartbeat CPU 2 instructions: 940000000 cycles: 3594284470 heartbeat IPC: 0.238324 cumulative IPC: 0.242897 (Simulation time: 7 hr 46 min 17 sec) 
Heartbeat CPU 0 instructions: 1870000000 cycles: 3609349059 heartbeat IPC: 0.554129 cumulative IPC: 0.490252 (Simulation time: 7 hr 48 min 3 sec) 
Heartbeat CPU 0 instructions: 1880000002 cycles: 3625687467 heartbeat IPC: 0.612055 cumulative IPC: 0.490806 (Simulation time: 7 hr 49 min 56 sec) 
Heartbeat CPU 2 instructions: 950000001 cycles: 3638203502 heartbeat IPC: 0.227692 cumulative IPC: 0.242712 (Simulation time: 7 hr 51 min 23 sec) 
Heartbeat CPU 0 instructions: 1890000001 cycles: 3641558527 heartbeat IPC: 0.630078 cumulative IPC: 0.491418 (Simulation time: 7 hr 51 min 46 sec) 
Heartbeat CPU 0 instructions: 1900000001 cycles: 3657426954 heartbeat IPC: 0.630182 cumulative IPC: 0.492025 (Simulation time: 7 hr 53 min 35 sec) 
Heartbeat CPU 0 instructions: 1910000001 cycles: 3673395009 heartbeat IPC: 0.62625 cumulative IPC: 0.492613 (Simulation time: 7 hr 55 min 30 sec) 
Heartbeat CPU 2 instructions: 960000000 cycles: 3683760736 heartbeat IPC: 0.219504 cumulative IPC: 0.242422 (Simulation time: 7 hr 56 min 51 sec) 
Heartbeat CPU 0 instructions: 1920000003 cycles: 3689349365 heartbeat IPC: 0.626788 cumulative IPC: 0.493198 (Simulation time: 7 hr 57 min 34 sec) 
Heartbeat CPU 0 instructions: 1930000003 cycles: 3705291573 heartbeat IPC: 0.627266 cumulative IPC: 0.49378 (Simulation time: 7 hr 59 min 34 sec) 
Heartbeat CPU 0 instructions: 1940000003 cycles: 3721269469 heartbeat IPC: 0.625865 cumulative IPC: 0.494352 (Simulation time: 8 hr 1 min 30 sec) 
Heartbeat CPU 2 instructions: 970000000 cycles: 3730106994 heartbeat IPC: 0.215767 cumulative IPC: 0.242088 (Simulation time: 8 hr 2 min 33 sec) 
Heartbeat CPU 0 instructions: 1950000001 cycles: 3742145637 heartbeat IPC: 0.479015 cumulative IPC: 0.494266 (Simulation time: 8 hr 3 min 59 sec) 
Heartbeat CPU 0 instructions: 1960000002 cycles: 3768605748 heartbeat IPC: 0.377927 cumulative IPC: 0.493442 (Simulation time: 8 hr 6 min 57 sec) 
Heartbeat CPU 2 instructions: 980000001 cycles: 3772939049 heartbeat IPC: 0.23347 cumulative IPC: 0.24199 (Simulation time: 8 hr 7 min 24 sec) 
Heartbeat CPU 1 instructions: 280000000 cycles: 3787912677 heartbeat IPC: 0.0515238 cumulative IPC: 0.0560977 (Simulation time: 8 hr 9 min 0 sec) 
Heartbeat CPU 0 instructions: 1970000000 cycles: 3795112106 heartbeat IPC: 0.377268 cumulative IPC: 0.492624 (Simulation time: 8 hr 9 min 52 sec) 
Heartbeat CPU 2 instructions: 990000000 cycles: 3815205251 heartbeat IPC: 0.236596 cumulative IPC: 0.241929 (Simulation time: 8 hr 12 min 6 sec) 
Heartbeat CPU 0 instructions: 1980000000 cycles: 3821528997 heartbeat IPC: 0.378546 cumulative IPC: 0.491829 (Simulation time: 8 hr 12 min 52 sec) 
Heartbeat CPU 3 instructions: 170000001 cycles: 3864311599 heartbeat IPC: 0.0271725 cumulative IPC: 0.0313 (Simulation time: 8 hr 17 min 8 sec) 
Heartbeat CPU 0 instructions: 1990000002 cycles: 3867883281 heartbeat IPC: 0.21573 cumulative IPC: 0.488494 (Simulation time: 8 hr 17 min 25 sec) 
Heartbeat CPU 2 instructions: 1000000002 cycles: 3868627266 heartbeat IPC: 0.187189 cumulative IPC: 0.241167 (Simulation time: 8 hr 17 min 29 sec) 
*** Reached end of trace for Core: 0 Repeating trace: ./traces/spec/433.milc-337B.champsimtrace.xz
Heartbeat CPU 0 instructions: 2000000001 cycles: 3900237481 heartbeat IPC: 0.309079 cumulative IPC: 0.486994 (Simulation time: 8 hr 20 min 54 sec) 
Heartbeat CPU 0 instructions: 2010000000 cycles: 3917023422 heartbeat IPC: 0.595737 cumulative IPC: 0.487464 (Simulation time: 8 hr 22 min 59 sec) 
Heartbeat CPU 2 instructions: 1010000002 cycles: 3918219884 heartbeat IPC: 0.201643 cumulative IPC: 0.240663 (Simulation time: 8 hr 23 min 8 sec) 
Heartbeat CPU 0 instructions: 2020000000 cycles: 3933788812 heartbeat IPC: 0.596467 cumulative IPC: 0.487932 (Simulation time: 8 hr 25 min 4 sec) 
Heartbeat CPU 0 instructions: 2030000003 cycles: 3950463975 heartbeat IPC: 0.599694 cumulative IPC: 0.488407 (Simulation time: 8 hr 27 min 2 sec) 
Heartbeat CPU 2 instructions: 1020000002 cycles: 3961821967 heartbeat IPC: 0.229347 cumulative IPC: 0.240538 (Simulation time: 8 hr 28 min 26 sec) 
Heartbeat CPU 0 instructions: 2040000003 cycles: 3967104017 heartbeat IPC: 0.60096 cumulative IPC: 0.488883 (Simulation time: 8 hr 29 min 6 sec) 
Heartbeat CPU 0 instructions: 2050000001 cycles: 3983747368 heartbeat IPC: 0.60084 cumulative IPC: 0.489354 (Simulation time: 8 hr 31 min 1 sec) 
Heartbeat CPU 1 instructions: 290000002 cycles: 3997654070 heartbeat IPC: 0.0476778 cumulative IPC: 0.0556526 (Simulation time: 8 hr 32 min 51 sec) 
Heartbeat CPU 0 instructions: 2060000001 cycles: 4001482231 heartbeat IPC: 0.563861 cumulative IPC: 0.489687 (Simulation time: 8 hr 33 min 18 sec) 
Heartbeat CPU 2 instructions: 1030000003 cycles: 4003946281 heartbeat IPC: 0.237393 cumulative IPC: 0.240504 (Simulation time: 8 hr 33 min 38 sec) 
Heartbeat CPU 0 instructions: 2070000000 cycles: 4019327364 heartbeat IPC: 0.560377 cumulative IPC: 0.490003 (Simulation time: 8 hr 35 min 30 sec) 
Heartbeat CPU 0 instructions: 2080000003 cycles: 4037482759 heartbeat IPC: 0.550801 cumulative IPC: 0.490279 (Simulation time: 8 hr 37 min 48 sec) 
Heartbeat CPU 2 instructions: 1040000001 cycles: 4045616895 heartbeat IPC: 0.239977 cumulative IPC: 0.240499 (Simulation time: 8 hr 38 min 46 sec) 
Heartbeat CPU 0 instructions: 2090000000 cycles: 4055585918 heartbeat IPC: 0.55239 cumulative IPC: 0.490558 (Simulation time: 8 hr 39 min 52 sec) 
Heartbeat CPU 0 instructions: 2100000000 cycles: 4073794806 heartbeat IPC: 0.549182 cumulative IPC: 0.490822 (Simulation time: 8 hr 41 min 59 sec) 
Heartbeat CPU 2 instructions: 1050000002 cycles: 4087450321 heartbeat IPC: 0.239043 cumulative IPC: 0.240484 (Simulation time: 8 hr 43 min 35 sec) 
Heartbeat CPU 0 instructions: 2110000000 cycles: 4091977799 heartbeat IPC: 0.549964 cumulative IPC: 0.491087 (Simulation time: 8 hr 44 min 9 sec) 
Heartbeat CPU 0 instructions: 2120000002 cycles: 4110087329 heartbeat IPC: 0.552196 cumulative IPC: 0.491358 (Simulation time: 8 hr 46 min 12 sec) 
Heartbeat CPU 0 instructions: 2130000003 cycles: 4126907502 heartbeat IPC: 0.594524 cumulative IPC: 0.491782 (Simulation time: 8 hr 48 min 16 sec) 
Heartbeat CPU 2 instructions: 1060000000 cycles: 4130130094 heartbeat IPC: 0.234303 cumulative IPC: 0.24042 (Simulation time: 8 hr 48 min 39 sec) 
Heartbeat CPU 0 instructions: 2140000003 cycles: 4142766914 heartbeat IPC: 0.63054 cumulative IPC: 0.492317 (Simulation time: 8 hr 50 min 14 sec) 
Heartbeat CPU 0 instructions: 2150000002 cycles: 4158576200 heartbeat IPC: 0.63254 cumulative IPC: 0.492854 (Simulation time: 8 hr 52 min 10 sec) 
Heartbeat CPU 2 instructions: 1070000002 cycles: 4174386541 heartbeat IPC: 0.225956 cumulative IPC: 0.240265 (Simulation time: 8 hr 54 min 4 sec) 
Heartbeat CPU 0 instructions: 2160000003 cycles: 4174415606 heartbeat IPC: 0.631337 cumulative IPC: 0.493383 (Simulation time: 8 hr 54 min 4 sec) 
Heartbeat CPU 1 instructions: 300000002 cycles: 4178550697 heartbeat IPC: 0.0552802 cumulative IPC: 0.0556363 (Simulation time: 8 hr 54 min 34 sec) 
Heartbeat CPU 0 instructions: 2170000003 cycles: 4190204418 heartbeat IPC: 0.63336 cumulative IPC: 0.493915 (Simulation time: 8 hr 55 min 59 sec) 
Heartbeat CPU 0 instructions: 2180000003 cycles: 4205995817 heartbeat IPC: 0.633256 cumulative IPC: 0.494442 (Simulation time: 8 hr 57 min 51 sec) 
Heartbeat CPU 2 instructions: 1080000000 cycles: 4218286440 heartbeat IPC: 0.227791 cumulative IPC: 0.240134 (Simulation time: 8 hr 59 min 21 sec) 
Heartbeat CPU 0 instructions: 2190000000 cycles: 4221790905 heartbeat IPC: 0.633108 cumulative IPC: 0.494964 (Simulation time: 8 hr 59 min 47 sec) 
Heartbeat CPU 3 instructions: 180000001 cycles: 4234246344 heartbeat IPC: 0.0270318 cumulative IPC: 0.0309244 (Simulation time: 9 hr 1 min 16 sec) 
Heartbeat CPU 0 instructions: 2200000000 cycles: 4240375980 heartbeat IPC: 0.538066 cumulative IPC: 0.495154 (Simulation time: 9 hr 1 min 55 sec) 
Heartbeat CPU 2 instructions: 1090000000 cycles: 4261350517 heartbeat IPC: 0.232212 cumulative IPC: 0.240054 (Simulation time: 9 hr 4 min 22 sec) 
Heartbeat CPU 0 instructions: 2210000001 cycles: 4267565679 heartbeat IPC: 0.367786 cumulative IPC: 0.494337 (Simulation time: 9 hr 5 min 7 sec) 
Heartbeat CPU 0 instructions: 2220000003 cycles: 4294645788 heartbeat IPC: 0.369275 cumulative IPC: 0.493543 (Simulation time: 9 hr 8 min 5 sec) 
Heartbeat CPU 2 instructions: 1100000000 cycles: 4302635610 heartbeat IPC: 0.242218 cumulative IPC: 0.240075 (Simulation time: 9 hr 8 min 58 sec) 
Heartbeat CPU 0 instructions: 2230000001 cycles: 4321566726 heartbeat IPC: 0.371458 cumulative IPC: 0.492777 (Simulation time: 9 hr 10 min 59 sec) 
Heartbeat CPU 2 instructions: 1110000000 cycles: 4348196842 heartbeat IPC: 0.219485 cumulative IPC: 0.239857 (Simulation time: 9 hr 13 min 31 sec) 
Heartbeat CPU 0 instructions: 2240000002 cycles: 4362246704 heartbeat IPC: 0.245821 cumulative IPC: 0.490458 (Simulation time: 9 hr 14 min 43 sec) 
Heartbeat CPU 1 instructions: 310000000 cycles: 4382989949 heartbeat IPC: 0.0489143 cumulative IPC: 0.0553206 (Simulation time: 9 hr 16 min 40 sec) 
Heartbeat CPU 0 instructions: 2250000000 cycles: 4402113872 heartbeat IPC: 0.250833 cumulative IPC: 0.488273 (Simulation time: 9 hr 18 min 42 sec) 
Heartbeat CPU 2 instructions: 1120000000 cycles: 4404574666 heartbeat IPC: 0.177375 cumulative IPC: 0.239052 (Simulation time: 9 hr 19 min 0 sec) 
Heartbeat CPU 0 instructions: 2260000002 cycles: 4419534437 heartbeat IPC: 0.574034 cumulative IPC: 0.488613 (Simulation time: 9 hr 20 min 50 sec) 
Heartbeat CPU 0 instructions: 2270000000 cycles: 4436781306 heartbeat IPC: 0.579815 cumulative IPC: 0.48897 (Simulation time: 9 hr 22 min 49 sec) 
Heartbeat CPU 2 instructions: 1130000002 cycles: 4446197483 heartbeat IPC: 0.240253 cumulative IPC: 0.239063 (Simulation time: 9 hr 23 min 49 sec) 
Heartbeat CPU 0 instructions: 2280000000 cycles: 4454444953 heartbeat IPC: 0.566135 cumulative IPC: 0.489278 (Simulation time: 9 hr 24 min 43 sec) 
Heartbeat CPU 0 instructions: 2290000002 cycles: 4471979972 heartbeat IPC: 0.570287 cumulative IPC: 0.489598 (Simulation time: 9 hr 26 min 42 sec) 
Heartbeat CPU 2 instructions: 1140000002 cycles: 4487530371 heartbeat IPC: 0.241938 cumulative IPC: 0.23909 (Simulation time: 9 hr 28 min 31 sec) 
Heartbeat CPU 0 instructions: 2300000003 cycles: 4489507249 heartbeat IPC: 0.570539 cumulative IPC: 0.489916 (Simulation time: 9 hr 28 min 43 sec) 
Heartbeat CPU 3 instructions: 190000001 cycles: 4494514171 heartbeat IPC: 0.038422 cumulative IPC: 0.0313615 (Simulation time: 9 hr 29 min 28 sec) 
Heartbeat CPU 0 instructions: 2310000000 cycles: 4511431778 heartbeat IPC: 0.45611 cumulative IPC: 0.489751 (Simulation time: 9 hr 31 min 49 sec) 
Heartbeat CPU 0 instructions: 2320000000 cycles: 4529375852 heartbeat IPC: 0.557287 cumulative IPC: 0.49002 (Simulation time: 9 hr 33 min 56 sec) 
Heartbeat CPU 2 instructions: 1150000003 cycles: 4533389045 heartbeat IPC: 0.218061 cumulative IPC: 0.238876 (Simulation time: 9 hr 34 min 31 sec) 
Heartbeat CPU 0 instructions: 2330000003 cycles: 4546324230 heartbeat IPC: 0.590027 cumulative IPC: 0.490395 (Simulation time: 9 hr 36 min 6 sec) 
Heartbeat CPU 0 instructions: 2340000003 cycles: 4563386849 heartbeat IPC: 0.586076 cumulative IPC: 0.490755 (Simulation time: 9 hr 38 min 6 sec) 
Heartbeat CPU 3 instructions: 200000003 cycles: 4565165465 heartbeat IPC: 0.14154 cumulative IPC: 0.0330781 (Simulation time: 9 hr 38 min 20 sec) 
Heartbeat CPU 1 instructions: 320000003 cycles: 4572262190 heartbeat IPC: 0.052834 cumulative IPC: 0.055217 (Simulation time: 9 hr 39 min 14 sec) 
Heartbeat CPU 2 instructions: 1160000000 cycles: 4576749537 heartbeat IPC: 0.230625 cumulative IPC: 0.238797 (Simulation time: 9 hr 39 min 46 sec) 
Heartbeat CPU 0 instructions: 2350000002 cycles: 4580410699 heartbeat IPC: 0.587411 cumulative IPC: 0.491117 (Simulation time: 9 hr 40 min 9 sec) 
Heartbeat CPU 0 instructions: 2360000003 cycles: 4597522213 heartbeat IPC: 0.584402 cumulative IPC: 0.491467 (Simulation time: 9 hr 42 min 7 sec) 
Heartbeat CPU 0 instructions: 2370000002 cycles: 4614547066 heartbeat IPC: 0.587377 cumulative IPC: 0.491823 (Simulation time: 9 hr 44 min 7 sec) 
Heartbeat CPU 2 instructions: 1170000000 cycles: 4620574185 heartbeat IPC: 0.228182 cumulative IPC: 0.238696 (Simulation time: 9 hr 44 min 47 sec) 
Heartbeat CPU 0 instructions: 2380000002 cycles: 4631651383 heartbeat IPC: 0.584648 cumulative IPC: 0.492168 (Simulation time: 9 hr 46 min 1 sec) 
Heartbeat CPU 0 instructions: 2390000000 cycles: 4648565277 heartbeat IPC: 0.59123 cumulative IPC: 0.492531 (Simulation time: 9 hr 47 min 58 sec) 
Heartbeat CPU 2 instructions: 1180000000 cycles: 4662391176 heartbeat IPC: 0.239137 cumulative IPC: 0.2387 (Simulation time: 9 hr 49 min 42 sec) 
Heartbeat CPU 0 instructions: 2400000000 cycles: 4663288421 heartbeat IPC: 0.679203 cumulative IPC: 0.493124 (Simulation time: 9 hr 49 min 49 sec) 
Heartbeat CPU 0 instructions: 2410000000 cycles: 4676850608 heartbeat IPC: 0.737344 cumulative IPC: 0.493837 (Simulation time: 9 hr 51 min 37 sec) 
Heartbeat CPU 0 instructions: 2420000000 cycles: 4690804337 heartbeat IPC: 0.716654 cumulative IPC: 0.494504 (Simulation time: 9 hr 53 min 16 sec) 
Heartbeat CPU 0 instructions: 2430000002 cycles: 4704772132 heartbeat IPC: 0.715933 cumulative IPC: 0.495166 (Simulation time: 9 hr 54 min 56 sec) 
Heartbeat CPU 2 instructions: 1190000000 cycles: 4705425685 heartbeat IPC: 0.232372 cumulative IPC: 0.238642 (Simulation time: 9 hr 55 min 0 sec) 
Heartbeat CPU 0 instructions: 2440000002 cycles: 4718656301 heartbeat IPC: 0.720245 cumulative IPC: 0.495832 (Simulation time: 9 hr 56 min 34 sec) 
Heartbeat CPU 0 instructions: 2450000002 cycles: 4732473887 heartbeat IPC: 0.723715 cumulative IPC: 0.496502 (Simulation time: 9 hr 58 min 13 sec) 
Heartbeat CPU 0 instructions: 2460000003 cycles: 4746369670 heartbeat IPC: 0.719643 cumulative IPC: 0.497159 (Simulation time: 9 hr 59 min 49 sec) 
Heartbeat CPU 2 instructions: 1200000001 cycles: 4747756841 heartbeat IPC: 0.236233 cumulative IPC: 0.23862 (Simulation time: 10 hr 0 min 0 sec) 
Heartbeat CPU 1 instructions: 330000000 cycles: 4756256463 heartbeat IPC: 0.0543495 cumulative IPC: 0.0551832 (Simulation time: 10 hr 1 min 12 sec) 
Heartbeat CPU 0 instructions: 2470000003 cycles: 4760937614 heartbeat IPC: 0.686439 cumulative IPC: 0.497742 (Simulation time: 10 hr 1 min 44 sec) 
Heartbeat CPU 0 instructions: 2480000002 cycles: 4776556173 heartbeat IPC: 0.640264 cumulative IPC: 0.498211 (Simulation time: 10 hr 3 min 31 sec) 
Heartbeat CPU 0 instructions: 2490000003 cycles: 4791951490 heartbeat IPC: 0.649548 cumulative IPC: 0.4987 (Simulation time: 10 hr 5 min 19 sec) 
Heartbeat CPU 2 instructions: 1210000000 cycles: 4794051813 heartbeat IPC: 0.216006 cumulative IPC: 0.2384 (Simulation time: 10 hr 5 min 33 sec) 
Heartbeat CPU 0 instructions: 2500000001 cycles: 4807408397 heartbeat IPC: 0.64696 cumulative IPC: 0.49918 (Simulation time: 10 hr 7 min 10 sec) 
Heartbeat CPU 0 instructions: 2510000000 cycles: 4822713790 heartbeat IPC: 0.653364 cumulative IPC: 0.499673 (Simulation time: 10 hr 8 min 57 sec) 
Heartbeat CPU 0 instructions: 2520000002 cycles: 4837994491 heartbeat IPC: 0.65442 cumulative IPC: 0.500165 (Simulation time: 10 hr 10 min 40 sec) 
Heartbeat CPU 2 instructions: 1220000000 cycles: 4840078665 heartbeat IPC: 0.217264 cumulative IPC: 0.238198 (Simulation time: 10 hr 10 min 53 sec) 
Heartbeat CPU 0 instructions: 2530000000 cycles: 4853300831 heartbeat IPC: 0.653324 cumulative IPC: 0.500651 (Simulation time: 10 hr 12 min 23 sec) 
Heartbeat CPU 0 instructions: 2540000002 cycles: 4868549698 heartbeat IPC: 0.655787 cumulative IPC: 0.50114 (Simulation time: 10 hr 14 min 12 sec) 
Heartbeat CPU 2 instructions: 1230000000 cycles: 4885258176 heartbeat IPC: 0.221339 cumulative IPC: 0.238041 (Simulation time: 10 hr 15 min 49 sec) 
Heartbeat CPU 2 instructions: 1240000001 cycles: 4931516431 heartbeat IPC: 0.216178 cumulative IPC: 0.237835 (Simulation time: 10 hr 20 min 7 sec) 
Heartbeat CPU 0 instructions: 2550000002 cycles: 4938240407 heartbeat IPC: 0.143491 cumulative IPC: 0.496061 (Simulation time: 10 hr 20 min 47 sec) 
Heartbeat CPU 3 instructions: 210000000 cycles: 4944194344 heartbeat IPC: 0.0263832 cumulative IPC: 0.0325617 (Simulation time: 10 hr 21 min 19 sec) 
Heartbeat CPU 1 instructions: 340000000 cycles: 4977037078 heartbeat IPC: 0.0452938 cumulative IPC: 0.0547418 (Simulation time: 10 hr 24 min 48 sec) 
Heartbeat CPU 0 instructions: 2560000001 cycles: 4994488563 heartbeat IPC: 0.177784 cumulative IPC: 0.492455 (Simulation time: 10 hr 26 min 38 sec) 
Heartbeat CPU 2 instructions: 1250000003 cycles: 4997055717 heartbeat IPC: 0.15258 cumulative IPC: 0.23671 (Simulation time: 10 hr 26 min 55 sec) 
Heartbeat CPU 0 instructions: 2570000001 cycles: 5021821988 heartbeat IPC: 0.365852 cumulative IPC: 0.491761 (Simulation time: 10 hr 29 min 46 sec) 
Heartbeat CPU 2 instructions: 1260000000 cycles: 5039029974 heartbeat IPC: 0.238241 cumulative IPC: 0.236722 (Simulation time: 10 hr 31 min 43 sec) 
Heartbeat CPU 0 instructions: 2580000001 cycles: 5049213655 heartbeat IPC: 0.365075 cumulative IPC: 0.49107 (Simulation time: 10 hr 32 min 48 sec) 
Heartbeat CPU 0 instructions: 2590000001 cycles: 5076617893 heartbeat IPC: 0.364907 cumulative IPC: 0.490385 (Simulation time: 10 hr 35 min 41 sec) 
Heartbeat CPU 2 instructions: 1270000000 cycles: 5081132263 heartbeat IPC: 0.237517 cumulative IPC: 0.236729 (Simulation time: 10 hr 36 min 12 sec) 
Heartbeat CPU 0 instructions: 2600000003 cycles: 5098979410 heartbeat IPC: 0.447197 cumulative IPC: 0.490194 (Simulation time: 10 hr 38 min 15 sec) 
Heartbeat CPU 0 instructions: 2610000001 cycles: 5116764838 heartbeat IPC: 0.562258 cumulative IPC: 0.490446 (Simulation time: 10 hr 40 min 19 sec) 
Heartbeat CPU 2 instructions: 1280000002 cycles: 5123559717 heartbeat IPC: 0.235696 cumulative IPC: 0.236721 (Simulation time: 10 hr 41 min 11 sec) 
Heartbeat CPU 0 instructions: 2620000001 cycles: 5134428319 heartbeat IPC: 0.56614 cumulative IPC: 0.490708 (Simulation time: 10 hr 42 min 26 sec) 
Heartbeat CPU 0 instructions: 2630000002 cycles: 5152261640 heartbeat IPC: 0.560748 cumulative IPC: 0.490952 (Simulation time: 10 hr 44 min 30 sec) 
Heartbeat CPU 1 instructions: 350000000 cycles: 5162349820 heartbeat IPC: 0.0539628 cumulative IPC: 0.0547137 (Simulation time: 10 hr 45 min 45 sec) 
Heartbeat CPU 2 instructions: 1290000000 cycles: 5166105592 heartbeat IPC: 0.23504 cumulative IPC: 0.236707 (Simulation time: 10 hr 46 min 12 sec) 
Heartbeat CPU 0 instructions: 2640000000 cycles: 5170079562 heartbeat IPC: 0.561233 cumulative IPC: 0.491196 (Simulation time: 10 hr 46 min 39 sec) 
Heartbeat CPU 0 instructions: 2650000001 cycles: 5187979801 heartbeat IPC: 0.558652 cumulative IPC: 0.49143 (Simulation time: 10 hr 48 min 43 sec) 
Heartbeat CPU 0 instructions: 2660000002 cycles: 5205829810 heartbeat IPC: 0.560224 cumulative IPC: 0.491667 (Simulation time: 10 hr 50 min 50 sec) 
Heartbeat CPU 2 instructions: 1300000001 cycles: 5209264953 heartbeat IPC: 0.231699 cumulative IPC: 0.236665 (Simulation time: 10 hr 51 min 15 sec) 
Heartbeat CPU 0 instructions: 2670000000 cycles: 5223191223 heartbeat IPC: 0.57599 cumulative IPC: 0.491949 (Simulation time: 10 hr 53 min 1 sec) 
Heartbeat CPU 2 instructions: 1310000001 cycles: 5260739965 heartbeat IPC: 0.194269 cumulative IPC: 0.236248 (Simulation time: 10 hr 56 min 53 sec) 
Heartbeat CPU 0 instructions: 2680000000 cycles: 5260923317 heartbeat IPC: 0.265026 cumulative IPC: 0.490312 (Simulation time: 10 hr 56 min 56 sec) 
Heartbeat CPU 0 instructions: 2690000002 cycles: 5278536138 heartbeat IPC: 0.567768 cumulative IPC: 0.490572 (Simulation time: 10 hr 59 min 3 sec) 
Heartbeat CPU 0 instructions: 2700000001 cycles: 5295626769 heartbeat IPC: 0.585116 cumulative IPC: 0.490879 (Simulation time: 11 hr 1 min 11 sec) 
Heartbeat CPU 2 instructions: 1320000000 cycles: 5303661676 heartbeat IPC: 0.232982 cumulative IPC: 0.236221 (Simulation time: 11 hr 2 min 7 sec) 
Heartbeat CPU 0 instructions: 2710000003 cycles: 5312533162 heartbeat IPC: 0.591492 cumulative IPC: 0.491201 (Simulation time: 11 hr 3 min 13 sec) 
Heartbeat CPU 3 instructions: 220000000 cycles: 5324524009 heartbeat IPC: 0.026293 cumulative IPC: 0.0321113 (Simulation time: 11 hr 4 min 40 sec) 
Heartbeat CPU 0 instructions: 2720000000 cycles: 5329167669 heartbeat IPC: 0.60116 cumulative IPC: 0.491546 (Simulation time: 11 hr 5 min 14 sec) 
Heartbeat CPU 2 instructions: 1330000000 cycles: 5345089743 heartbeat IPC: 0.241382 cumulative IPC: 0.236261 (Simulation time: 11 hr 7 min 9 sec) 
Heartbeat CPU 0 instructions: 2730000002 cycles: 5345628511 heartbeat IPC: 0.607502 cumulative IPC: 0.491905 (Simulation time: 11 hr 7 min 12 sec) 
Heartbeat CPU 1 instructions: 360000000 cycles: 5356008283 heartbeat IPC: 0.0516373 cumulative IPC: 0.0546018 (Simulation time: 11 hr 8 min 28 sec) 
Heartbeat CPU 0 instructions: 2740000000 cycles: 5362242124 heartbeat IPC: 0.601916 cumulative IPC: 0.492248 (Simulation time: 11 hr 9 min 14 sec) 
Heartbeat CPU 0 instructions: 2750000000 cycles: 5378725262 heartbeat IPC: 0.606681 cumulative IPC: 0.492601 (Simulation time: 11 hr 11 min 5 sec) 
Heartbeat CPU 2 instructions: 1340000001 cycles: 5386012059 heartbeat IPC: 0.244365 cumulative IPC: 0.236323 (Simulation time: 11 hr 12 min 1 sec) 
Heartbeat CPU 0 instructions: 2760000001 cycles: 5395610709 heartbeat IPC: 0.592226 cumulative IPC: 0.492914 (Simulation time: 11 hr 13 min 7 sec) 
Heartbeat CPU 0 instructions: 2770000002 cycles: 5412794395 heartbeat IPC: 0.581947 cumulative IPC: 0.493198 (Simulation time: 11 hr 15 min 5 sec) 
Heartbeat CPU 2 instructions: 1350000002 cycles: 5426017802 heartbeat IPC: 0.249964 cumulative IPC: 0.236424 (Simulation time: 11 hr 16 min 34 sec) 
Heartbeat CPU 0 instructions: 2780000003 cycles: 5430114822 heartbeat IPC: 0.577353 cumulative IPC: 0.493468 (Simulation time: 11 hr 17 min 5 sec) 
Heartbeat CPU 0 instructions: 2790000003 cycles: 5447535102 heartbeat IPC: 0.574044 cumulative IPC: 0.493727 (Simulation time: 11 hr 19 min 14 sec) 
Heartbeat CPU 0 instructions: 2800000002 cycles: 5464738924 heartbeat IPC: 0.581266 cumulative IPC: 0.494005 (Simulation time: 11 hr 21 min 17 sec) 
Heartbeat CPU 2 instructions: 1360000002 cycles: 5464798390 heartbeat IPC: 0.257861 cumulative IPC: 0.236577 (Simulation time: 11 hr 21 min 18 sec) 
Heartbeat CPU 0 instructions: 2810000003 cycles: 5482157403 heartbeat IPC: 0.574103 cumulative IPC: 0.49426 (Simulation time: 11 hr 23 min 23 sec) 
Heartbeat CPU 0 instructions: 2820000000 cycles: 5499417979 heartbeat IPC: 0.579355 cumulative IPC: 0.494529 (Simulation time: 11 hr 25 min 22 sec) 
Heartbeat CPU 2 instructions: 1370000000 cycles: 5504753301 heartbeat IPC: 0.250282 cumulative IPC: 0.236677 (Simulation time: 11 hr 26 min 2 sec) 
Heartbeat CPU 0 instructions: 2830000000 cycles: 5516155795 heartbeat IPC: 0.59745 cumulative IPC: 0.494843 (Simulation time: 11 hr 27 min 31 sec) 
Heartbeat CPU 0 instructions: 2840000000 cycles: 5531971334 heartbeat IPC: 0.63229 cumulative IPC: 0.495238 (Simulation time: 11 hr 29 min 24 sec) 
Heartbeat CPU 1 instructions: 370000001 cycles: 5532734695 heartbeat IPC: 0.0565846 cumulative IPC: 0.0546655 (Simulation time: 11 hr 29 min 30 sec) 
Heartbeat CPU 2 instructions: 1380000000 cycles: 5546592781 heartbeat IPC: 0.239009 cumulative IPC: 0.236695 (Simulation time: 11 hr 31 min 15 sec) 
Heartbeat CPU 0 instructions: 2850000003 cycles: 5547426650 heartbeat IPC: 0.647027 cumulative IPC: 0.495663 (Simulation time: 11 hr 31 min 23 sec) 
Heartbeat CPU 0 instructions: 2860000000 cycles: 5563096416 heartbeat IPC: 0.638171 cumulative IPC: 0.496067 (Simulation time: 11 hr 33 min 18 sec) 
Heartbeat CPU 0 instructions: 2870000003 cycles: 5578869529 heartbeat IPC: 0.63399 cumulative IPC: 0.496459 (Simulation time: 11 hr 35 min 3 sec) 
Heartbeat CPU 2 instructions: 1390000001 cycles: 5587925509 heartbeat IPC: 0.241939 cumulative IPC: 0.236734 (Simulation time: 11 hr 36 min 6 sec) 
Heartbeat CPU 0 instructions: 2880000003 cycles: 5594364846 heartbeat IPC: 0.645356 cumulative IPC: 0.496874 (Simulation time: 11 hr 36 min 49 sec) 
Heartbeat CPU 0 instructions: 2890000002 cycles: 5609980909 heartbeat IPC: 0.640366 cumulative IPC: 0.497275 (Simulation time: 11 hr 38 min 44 sec) 
Heartbeat CPU 0 instructions: 2900000002 cycles: 5625675153 heartbeat IPC: 0.637176 cumulative IPC: 0.497668 (Simulation time: 11 hr 40 min 34 sec) 
Heartbeat CPU 2 instructions: 1400000000 cycles: 5630043514 heartbeat IPC: 0.237428 cumulative IPC: 0.236739 (Simulation time: 11 hr 41 min 8 sec) 
Heartbeat CPU 0 instructions: 2910000002 cycles: 5651611827 heartbeat IPC: 0.385554 cumulative IPC: 0.49715 (Simulation time: 11 hr 43 min 34 sec) 
Heartbeat CPU 3 instructions: 230000001 cycles: 5666782137 heartbeat IPC: 0.0292177 cumulative IPC: 0.0319356 (Simulation time: 11 hr 45 min 16 sec) 
Heartbeat CPU 2 instructions: 1410000002 cycles: 5669529480 heartbeat IPC: 0.253255 cumulative IPC: 0.236855 (Simulation time: 11 hr 45 min 37 sec) 
Heartbeat CPU 0 instructions: 2920000000 cycles: 5678082638 heartbeat IPC: 0.377775 cumulative IPC: 0.496591 (Simulation time: 11 hr 46 min 32 sec) 
Heartbeat CPU 0 instructions: 2930000002 cycles: 5704509454 heartbeat IPC: 0.378404 cumulative IPC: 0.49604 (Simulation time: 11 hr 49 min 33 sec) 
Heartbeat CPU 2 instructions: 1420000003 cycles: 5709709699 heartbeat IPC: 0.248879 cumulative IPC: 0.23694 (Simulation time: 11 hr 50 min 7 sec) 
Heartbeat CPU 1 instructions: 380000000 cycles: 5722415411 heartbeat IPC: 0.0527202 cumulative IPC: 0.0546007 (Simulation time: 11 hr 51 min 32 sec) 
Heartbeat CPU 0 instructions: 2940000000 cycles: 5739961423 heartbeat IPC: 0.282072 cumulative IPC: 0.494712 (Simulation time: 11 hr 53 min 11 sec) 
Heartbeat CPU 2 instructions: 1430000000 cycles: 5755912633 heartbeat IPC: 0.216436 cumulative IPC: 0.236775 (Simulation time: 11 hr 54 min 46 sec) 
Heartbeat CPU 0 instructions: 2950000000 cycles: 5798539358 heartbeat IPC: 0.170713 cumulative IPC: 0.491422 (Simulation time: 11 hr 58 min 33 sec) 
Heartbeat CPU 2 instructions: 1440000000 cycles: 5812481741 heartbeat IPC: 0.176775 cumulative IPC: 0.236187 (Simulation time: 12 hr 0 min 19 sec) 
Heartbeat CPU 0 instructions: 2960000000 cycles: 5817118689 heartbeat IPC: 0.538233 cumulative IPC: 0.491572 (Simulation time: 12 hr 0 min 53 sec) 
Heartbeat CPU 0 instructions: 2970000000 cycles: 5835730467 heartbeat IPC: 0.537294 cumulative IPC: 0.491718 (Simulation time: 12 hr 3 min 6 sec) 
Heartbeat CPU 2 instructions: 1450000000 cycles: 5852046235 heartbeat IPC: 0.252752 cumulative IPC: 0.2363 (Simulation time: 12 hr 5 min 6 sec) 
Heartbeat CPU 0 instructions: 2980000000 cycles: 5854475384 heartbeat IPC: 0.533478 cumulative IPC: 0.491853 (Simulation time: 12 hr 5 min 21 sec) 
Heartbeat CPU 0 instructions: 2990000000 cycles: 5873248961 heartbeat IPC: 0.532664 cumulative IPC: 0.491984 (Simulation time: 12 hr 7 min 37 sec) 
Heartbeat CPU 0 instructions: 3000000003 cycles: 5892556874 heartbeat IPC: 0.517923 cumulative IPC: 0.492069 (Simulation time: 12 hr 9 min 41 sec) 
Heartbeat CPU 2 instructions: 1460000000 cycles: 5898476722 heartbeat IPC: 0.215376 cumulative IPC: 0.236134 (Simulation time: 12 hr 10 min 17 sec) 
Heartbeat CPU 0 instructions: 3010000002 cycles: 5911524734 heartbeat IPC: 0.527208 cumulative IPC: 0.492183 (Simulation time: 12 hr 11 min 47 sec) 
Heartbeat CPU 1 instructions: 390000003 cycles: 5917479644 heartbeat IPC: 0.0512652 cumulative IPC: 0.0544901 (Simulation time: 12 hr 12 min 29 sec) 
Heartbeat CPU 0 instructions: 3020000002 cycles: 5930163486 heartbeat IPC: 0.536517 cumulative IPC: 0.492323 (Simulation time: 12 hr 13 min 52 sec) 
Heartbeat CPU 2 instructions: 1470000000 cycles: 5940502696 heartbeat IPC: 0.237948 cumulative IPC: 0.236147 (Simulation time: 12 hr 15 min 12 sec) 
Heartbeat CPU 0 instructions: 3030000001 cycles: 5947653465 heartbeat IPC: 0.571756 cumulative IPC: 0.492558 (Simulation time: 12 hr 16 min 0 sec) 
Heartbeat CPU 0 instructions: 3040000003 cycles: 5964749347 heartbeat IPC: 0.584936 cumulative IPC: 0.492824 (Simulation time: 12 hr 18 min 0 sec) 
Heartbeat CPU 0 instructions: 3050000000 cycles: 5981937624 heartbeat IPC: 0.581792 cumulative IPC: 0.493081 (Simulation time: 12 hr 20 min 6 sec) 
Heartbeat CPU 2 instructions: 1480000001 cycles: 5984361026 heartbeat IPC: 0.228007 cumulative IPC: 0.236087 (Simulation time: 12 hr 20 min 25 sec) 
Heartbeat CPU 0 instructions: 3060000001 cycles: 5999202160 heartbeat IPC: 0.579222 cumulative IPC: 0.49333 (Simulation time: 12 hr 22 min 8 sec) 
Heartbeat CPU 3 instructions: 240000001 cycles: 6015638271 heartbeat IPC: 0.0286651 cumulative IPC: 0.031745 (Simulation time: 12 hr 24 min 4 sec) 
Heartbeat CPU 0 instructions: 3070000003 cycles: 6016316551 heartbeat IPC: 0.584304 cumulative IPC: 0.49359 (Simulation time: 12 hr 24 min 8 sec) 
Heartbeat CPU 2 instructions: 1490000002 cycles: 6027942547 heartbeat IPC: 0.229455 cumulative IPC: 0.236039 (Simulation time: 12 hr 25 min 32 sec) 
Heartbeat CPU 0 instructions: 3080000000 cycles: 6033399173 heartbeat IPC: 0.58539 cumulative IPC: 0.493851 (Simulation time: 12 hr 26 min 11 sec) 
Heartbeat CPU 0 instructions: 3090000000 cycles: 6050456807 heartbeat IPC: 0.586248 cumulative IPC: 0.494113 (Simulation time: 12 hr 28 min 2 sec) 
Heartbeat CPU 0 instructions: 3100000000 cycles: 6066671088 heartbeat IPC: 0.61674 cumulative IPC: 0.494442 (Simulation time: 12 hr 30 min 1 sec) 
Heartbeat CPU 2 instructions: 1500000000 cycles: 6071000278 heartbeat IPC: 0.232246 cumulative IPC: 0.236012 (Simulation time: 12 hr 30 min 35 sec) 
Heartbeat CPU 0 instructions: 3110000001 cycles: 6081238115 heartbeat IPC: 0.686482 cumulative IPC: 0.494905 (Simulation time: 12 hr 31 min 50 sec) 
Heartbeat CPU 0 instructions: 3120000001 cycles: 6095984203 heartbeat IPC: 0.678146 cumulative IPC: 0.49535 (Simulation time: 12 hr 33 min 44 sec) 
Heartbeat CPU 1 instructions: 400000002 cycles: 6104357566 heartbeat IPC: 0.0535109 cumulative IPC: 0.05446 (Simulation time: 12 hr 34 min 46 sec) 
Heartbeat CPU 0 instructions: 3130000002 cycles: 6111034617 heartbeat IPC: 0.664434 cumulative IPC: 0.495769 (Simulation time: 12 hr 35 min 37 sec) 
[...]
LLC USEFUL LOAD PREFETCHES:    6556688 PREFETCH ISSUED TO LOWER LEVEL:  101275704  ACCURACY: 6.4741
LLC TIMELY PREFETCHES:    6556688 LATE PREFETCHES: 0 DROPPED PREFETCHES: 0
LLC PREFETCHES SAME FILL-ORIGIN LEVEL: 0 DIFFERENT FILL-ORIGIN LEVEL: 0
LLC AVERAGE MISS LATENCY: 21910.4 cycles
LLC RQ	ACCESS:  139476344	FORWARD:          0	MERGED:          0	TO_CACHE:  139476260
LLC WQ	ACCESS:   33056589	FORWARD:        112	MERGED:          0	TO_CACHE:   33056589
LLC PQ	ACCESS:  161662901	FORWARD:          0	MERGED:          0	TO_CACHE:  161662873

LLC Dense regions hint to LLC: 0

RAW hits: 3398650
Loads Generated: 70344474
Loads sent to L1D: 66945821
Stores Generated: 23764196
Stores sent to L1D: 23764195
Major fault: 0 Minor fault: 234437
Allocated PAGES: 702895

CPU 3 cumulative IPC: 0.0313451 instructions: 200000000 cycles: 6380574875
ITLB TOTAL     ACCESS:   60084402  HIT:   60084402  MISS:          0  HIT %:        100  MISS %:          0   MPKI: 0
ITLB LOAD TRANSLATION ACCESS:   60084402  HIT:   60084402  MISS:          0  HIT %:        100  MISS %:          0   MPKI: 0
ITLB PREFETCH  REQUESTED:          0  ISSUED:          0  USEFUL:          0  USELESS:          0
ITLB USEFUL LOAD PREFETCHES:          0 PREFETCH ISSUED TO LOWER LEVEL:          0  ACCURACY: -nan
ITLB TIMELY PREFETCHES:          0 LATE PREFETCHES: 0 DROPPED PREFETCHES: 0
ITLB PREFETCHES SAME FILL-ORIGIN LEVEL: 0 DIFFERENT FILL-ORIGIN LEVEL: 0
ITLB AVERAGE MISS LATENCY: -nan cycles
ITLB RQ	ACCESS:   61209334	FORWARD:          0	MERGED:    1124932	TO_CACHE:   60084402

DTLB TOTAL     ACCESS:   67075968  HIT:   44121282  MISS:   22954686  HIT %:    65.7781  MISS %:    34.2219   MPKI: 114.773
DTLB LOAD TRANSLATION ACCESS:   67075968  HIT:   44121282  MISS:   22954686  HIT %:    65.7781  MISS %:    34.2219   MPKI: 114.773
DTLB PREFETCH  REQUESTED:          0  ISSUED:          0  USEFUL:          0  USELESS:          0
DTLB USEFUL LOAD PREFETCHES:          0 PREFETCH ISSUED TO LOWER LEVEL:          0  ACCURACY: -nan
DTLB TIMELY PREFETCHES:          0 LATE PREFETCHES: 0 DROPPED PREFETCHES: 0
DTLB PREFETCHES SAME FILL-ORIGIN LEVEL: 0 DIFFERENT FILL-ORIGIN LEVEL: 0
DTLB AVERAGE MISS LATENCY: 9.26602 cycles
DTLB RQ	ACCESS:   67835982	FORWARD:          0	MERGED:     747515	TO_CACHE:   67088467

STLB TOTAL     ACCESS:   57188622  HIT:   57147796  MISS:      40826  HIT %:    99.9286  MISS %:  0.0713883   MPKI: 0.20413
STLB LOAD TRANSLATION ACCESS:   22954686  HIT:   22913860  MISS:      40826  HIT %:    99.8221  MISS %:   0.177855   MPKI: 0.20413
STLB TRANSLATION FROM L1D PREFETCHER ACCESS:   34233936  HIT:   34233936  MISS:          0  HIT %:        100  MISS %:          0   MPKI: 0
STLB PREFETCH  REQUESTED:          0  ISSUED:          0  USEFUL:          0  USELESS:          0
STLB USEFUL LOAD PREFETCHES:          0 PREFETCH ISSUED TO LOWER LEVEL:          0  ACCURACY: -nan
STLB TIMELY PREFETCHES:          0 LATE PREFETCHES: 0 DROPPED PREFETCHES: 0
STLB PREFETCHES SAME FILL-ORIGIN LEVEL: 0 DIFFERENT FILL-ORIGIN LEVEL: 0
STLB AVERAGE MISS LATENCY: 144.495 cycles
STLB RQ	ACCESS:   62743764	FORWARD:          0	MERGED:    5555143	TO_CACHE:   57188621

STLB Hit, L1D data hit: 0
STLB Hit, L2C data hit: 0
STLB Hit, LLC data hit: 0
STLB Hit, LLC data miss: 0
STLB STLB hints to L2: 0
L1D TOTAL     ACCESS:  106112073  HIT:   39902280  MISS:   66209793  HIT %:    37.6039  MISS %:    62.3961   MPKI: 331.049
L1D LOAD      ACCESS:   64293329  HIT:   32078387  MISS:   32214942  HIT %:    49.8938  MISS %:    50.1062   MPKI: 161.075
L1D RFO       ACCESS:    2460090  HIT:    2394534  MISS:      65556  HIT %:    97.3352  MISS %:    2.66478   MPKI: 0.32778
L1D PREFETCH  ACCESS:   39358654  HIT:    5429359  MISS:   33929295  HIT %:    13.7946  MISS %:    86.2054   MPKI: 169.646
L1D PREFETCH  REQUESTED:   79578156  ISSUED:   79578156  USEFUL:    2972375  USELESS:   30956912
L1D USEFUL LOAD PREFETCHES:    2972375 PREFETCH ISSUED TO LOWER LEVEL:   34308048  ACCURACY: 8.66378
L1D TIMELY PREFETCHES:    2972375 LATE PREFETCHES: 378751 DROPPED PREFETCHES: 0
L1D PREFETCHES SAME FILL-ORIGIN LEVEL: 34308048 DIFFERENT FILL-ORIGIN LEVEL: 0
L1D AVERAGE MISS LATENCY: 192.268 cycles
L1D RQ	ACCESS:   77353830	FORWARD:          0	MERGED:   12817518	TO_CACHE:   64536305
L1D WQ	ACCESS:    3299680	FORWARD:          7	MERGED:          3	TO_CACHE:    3299677
L1D PQ	ACCESS:   39789078	FORWARD:          0	MERGED:          0	TO_CACHE:   39789078

L1D UNIQUE REGIONS ACCESSED: 0
L1D REGIONS CONFLICTS: 0
L1D Cross Page Prefetch Requests: 0
L1D Same Page Prefetch Requests: 49160603
L1D ROI Sum of L1D PQ occupancy: 442251636
L1D PREFETCHES PUSHED FROM L2C: 0
L1I TOTAL     ACCESS:   61209333  HIT:   61209310  MISS:         23  HIT %:        100  MISS %: 3.7576e-05   MPKI: 0.000115
L1I LOAD      ACCESS:   61209333  HIT:   61209310  MISS:         23  HIT %:        100  MISS %: 3.7576e-05   MPKI: 0.000115
L1I PREFETCH  REQUESTED:          0  ISSUED:          0  USEFUL:          0  USELESS:          0
L1I USEFUL LOAD PREFETCHES:          0 PREFETCH ISSUED TO LOWER LEVEL:          0  ACCURACY: -nan
L1I TIMELY PREFETCHES:          0 LATE PREFETCHES: 0 DROPPED PREFETCHES: 0
L1I PREFETCHES SAME FILL-ORIGIN LEVEL: 0 DIFFERENT FILL-ORIGIN LEVEL: 0
L1I AVERAGE MISS LATENCY: 384.913 cycles
L1I RQ	ACCESS:   72238170	FORWARD:          0	MERGED:   11028836	TO_CACHE:   61209334

BTB TOTAL     ACCESS:   37027234  HIT:   37027062  MISS:        172  HIT %:    99.9995  MISS %: 0.000464523   MPKI: 0.00086
BTB BRANCH_DIRECT_JUMP	ACCESS:         67  HIT:         33  MISS:         34
BTB BRANCH_INDIRECT	ACCESS:          4  HIT:          0  MISS:          4
BTB BRANCH_CONDITIONAL	ACCESS:   37027097  HIT:   37027009  MISS:         88
BTB BRANCH_DIRECT_CALL	ACCESS:         28  HIT:         10  MISS:         18
BTB BRANCH_INDIRECT_CALL	ACCESS:          5  HIT:          1  MISS:          4
BTB BRANCH_RETURN	ACCESS:         33  HIT:          9  MISS:         24
BTB BRANCH_OTHER ACCESS:          0  HIT:          0  MISS:          0

L2C TOTAL     ACCESS:   66420540  HIT:   14067705  MISS:   52352835  HIT %:    21.1798  MISS %:    78.8202   MPKI: 261.764
L2C LOAD      ACCESS:   31836197  HIT:    7287895  MISS:   24548302  HIT %:    22.8919  MISS %:    77.1081   MPKI: 122.742
L2C DATA LOAD MPKI: 122.741
L2C INSTRUCTION LOAD MPKI: 0.000115
L2C RFO       ACCESS:      65555  HIT:        224  MISS:      65331  HIT %:   0.341698  MISS %:    99.6583   MPKI: 0.326655
L2C PREFETCH  ACCESS:   34308047  HIT:    6587148  MISS:   27720899  HIT %:       19.2  MISS %:       80.8   MPKI: 138.604
L2C DATA PREFETCH MPKI: 138.604
L2C INSTRUCTION PREFETCH MPKI: 0
L2C WRITEBACK ACCESS:     169876  HIT:     161253  MISS:       8623  HIT %:    94.9239  MISS %:    5.07606   MPKI: 0.043115
L2C LOAD TRANSLATION ACCESS:      40865  HIT:      31185  MISS:       9680  HIT %:    76.3122  MISS %:    23.6878   MPKI: 0.0484
L2C PREFETCH  REQUESTED:          0  ISSUED:          0  USEFUL:    1141533  USELESS:   26579297
L2C USEFUL LOAD PREFETCHES:    1141533 PREFETCH ISSUED TO LOWER LEVEL:   27720900  ACCURACY: 4.11795
L2C TIMELY PREFETCHES:    1141533 LATE PREFETCHES: 0 DROPPED PREFETCHES: 0
L2C PREFETCHES SAME FILL-ORIGIN LEVEL: 0 DIFFERENT FILL-ORIGIN LEVEL: 0
L2C AVERAGE MISS LATENCY: 229.508 cycles
L2C RQ	ACCESS:   31942633	FORWARD:          0	MERGED:          0	TO_CACHE:   31942617
L2C WQ	ACCESS:     169876	FORWARD:         16	MERGED:          0	TO_CACHE:     169876
L2C PQ	ACCESS:   34308048	FORWARD:          0	MERGED:          0	TO_CACHE:   34308048

L2C Instructions Evicting Data 23
L2C Translations Evicting Data 9677
L2C Data Evicting Data 52324816
L2C Instructions Evicting Instructions 0
L2C Translations Evicting Instructions 0
L2C Data Evicting Instructions 23
L2C Instructions Evicting Translations 0
L2C Translations Evicting Translations 3
L2C Data Evicting Translations 9670
L2C Dense regions hint from L2: 0
PSCL5 TOTAL     ACCESS:      40826  HIT:      40826  MISS:          0  HIT %:        100  MISS %:          0   MPKI: 0
PSCL5 LOAD TRANSLATION ACCESS:      40826  HIT:      40826  MISS:          0  HIT %:        100  MISS %:          0   MPKI: 0
PSCL5 PREFETCH  REQUESTED:          0  ISSUED:          0  USEFUL:          0  USELESS:          0
PSCL5 USEFUL LOAD PREFETCHES:          0 PREFETCH ISSUED TO LOWER LEVEL:          0  ACCURACY: -nan
PSCL5 TIMELY PREFETCHES:          0 LATE PREFETCHES: 0 DROPPED PREFETCHES: 0
PSCL5 PREFETCHES SAME FILL-ORIGIN LEVEL: 0 DIFFERENT FILL-ORIGIN LEVEL: 0

PSCL4 TOTAL     ACCESS:      40826  HIT:      40826  MISS:          0  HIT %:        100  MISS %:          0   MPKI: 0
PSCL4 LOAD TRANSLATION ACCESS:      40826  HIT:      40826  MISS:          0  HIT %:        100  MISS %:          0   MPKI: 0
PSCL4 PREFETCH  REQUESTED:          0  ISSUED:          0  USEFUL:          0  USELESS:          0
PSCL4 USEFUL LOAD PREFETCHES:          0 PREFETCH ISSUED TO LOWER LEVEL:          0  ACCURACY: -nan
PSCL4 TIMELY PREFETCHES:          0 LATE PREFETCHES: 0 DROPPED PREFETCHES: 0
PSCL4 PREFETCHES SAME FILL-ORIGIN LEVEL: 0 DIFFERENT FILL-ORIGIN LEVEL: 0

PSCL3 TOTAL     ACCESS:      40826  HIT:      40826  MISS:          0  HIT %:        100  MISS %:          0   MPKI: 0
PSCL3 LOAD TRANSLATION ACCESS:      40826  HIT:      40826  MISS:          0  HIT %:        100  MISS %:          0   MPKI: 0
PSCL3 PREFETCH  REQUESTED:          0  ISSUED:          0  USEFUL:          0  USELESS:          0
PSCL3 USEFUL LOAD PREFETCHES:          0 PREFETCH ISSUED TO LOWER LEVEL:          0  ACCURACY: -nan
PSCL3 TIMELY PREFETCHES:          0 LATE PREFETCHES: 0 DROPPED PREFETCHES: 0
PSCL3 PREFETCHES SAME FILL-ORIGIN LEVEL: 0 DIFFERENT FILL-ORIGIN LEVEL: 0

PSCL2 TOTAL     ACCESS:      40826  HIT:      40740  MISS:         86  HIT %:    99.7893  MISS %:    0.21065   MPKI: 0.00043
PSCL2 LOAD TRANSLATION ACCESS:      40826  HIT:      40740  MISS:         86  HIT %:    99.7893  MISS %:    0.21065   MPKI: 0.00043
PSCL2 PREFETCH  REQUESTED:          0  ISSUED:          0  USEFUL:          0  USELESS:          0
PSCL2 USEFUL LOAD PREFETCHES:          0 PREFETCH ISSUED TO LOWER LEVEL:          0  ACCURACY: -nan
PSCL2 TIMELY PREFETCHES:          0 LATE PREFETCHES: 0 DROPPED PREFETCHES: 0
PSCL2 PREFETCHES SAME FILL-ORIGIN LEVEL: 0 DIFFERENT FILL-ORIGIN LEVEL: 0

LLC TOTAL     ACCESS:   52482470  HIT:   25700661  MISS:   26781809  HIT %:      48.97  MISS %:      51.03   MPKI: 133.909
LLC LOAD      ACCESS:   24548302  HIT:   12958665  MISS:   11589637  HIT %:    52.7884  MISS %:    47.2116   MPKI: 57.9482
LLC RFO       ACCESS:      65331  HIT:       3600  MISS:      61731  HIT %:     5.5104  MISS %:    94.4896   MPKI: 0.308655
LLC PREFETCH  ACCESS:   27720899  HIT:   12612370  MISS:   15108529  HIT %:    45.4977  MISS %:    54.5023   MPKI: 75.5426
LLC WRITEBACK ACCESS:     138258  HIT:     122800  MISS:      15458  HIT %:    88.8195  MISS %:    11.1805   MPKI: 0.07729
LLC LOAD TRANSLATION ACCESS:       9680  HIT:       3226  MISS:       6454  HIT %:    33.3264  MISS %:    66.6736   MPKI: 0.03227
LLC PREFETCH  REQUESTED:          0  ISSUED:          0  USEFUL:    6556688  USELESS:   94699164
LLC USEFUL LOAD PREFETCHES:    6556688 PREFETCH ISSUED TO LOWER LEVEL:  101275704  ACCURACY: 6.4741
LLC TIMELY PREFETCHES:    6556688 LATE PREFETCHES: 0 DROPPED PREFETCHES: 0
LLC PREFETCHES SAME FILL-ORIGIN LEVEL: 0 DIFFERENT FILL-ORIGIN LEVEL: 0
LLC AVERAGE MISS LATENCY: 2808.62 cycles
LLC RQ	ACCESS:  139476344	FORWARD:          0	MERGED:          0	TO_CACHE:  139476260
LLC WQ	ACCESS:   33056589	FORWARD:        112	MERGED:          0	TO_CACHE:   33056589
LLC PQ	ACCESS:  161662901	FORWARD:          0	MERGED:          0	TO_CACHE:  161662873

LLC Dense regions hint to LLC: 0

RAW hits: 25
Loads Generated: 77353857
Loads sent to L1D: 77353830
Stores Generated: 3299680
Stores sent to L1D: 3299680
Major fault: 0 Minor fault: 34900
Allocated PAGES: 702895

stream: 
stream:times selected: 131260394
stream:pref_filled: 11661885
stream:pref_useful: 1568123
stream:pref_late: 1548584
stream:misses: 8990545
stream:misses_by_poll: 0

CS: 
CS:times selected: 25987238
CS:pref_filled: 15153421
CS:pref_useful: 9346995
CS:pref_late: 1148277
CS:misses: 4493810
CS:misses_by_poll: 76722

CPLX: 
CPLX:times selected: 94346371
CPLX:pref_filled: 14337027
CPLX:pref_useful: 8299759
CPLX:pref_late: 3898816
CPLX:misses: 27958785
CPLX:misses_by_poll: 243641

NL_L1: 
NL:times selected: 216196
NL:pref_filled: 186565
NL:pref_useful: 6601
NL:pref_late: 1452
NL:misses: 169596
NL:misses_by_poll: 110

total selections: 251810199
total_filled: 39807721
total_useful: 18431605
total_late: 6638384
total_polluted: 320473
total_misses_after_warmup: 41247273
conflicts: 960916
Degree Incremented Times: 1982771
Degree Decremented Times: 21517940

L1 IP Table Write Accesses: 819426034
L1 IP Table Read Accesses: 818465118
L1 RST Write Accesses: 409985520
L1 RST Read Accesses: 819971040
L1 CSPT Write Accesses: 409985520
L1 CSPT Read Accesses: 835449782
L1 RR Filter Tag Write Accesses: 372784686
L1 RR Filter Tag Read Accesses: 19429499103
L1 IP Table Tag Write Accesses: 821949780
L1 IP Table Tag Read Accesses: 821949780
L1 RST Tag Write Accesses: 0
L1 RST Tag Read Accesses: 3641554773
L1 RR Filter Write Accesses: 0
L1 RR Filter Read Accesses: 728348329
test: 193109791

stream: 
stream:times selected: 86126202
stream:pref_filled: 60302525
stream:pref_useful: 128808
stream:pref_late: 1900
stream:misses: 13411782
stream:misses_by_poll: 0

CS: 
CS:times selected: 25459865
CS:pref_filled: 17640218
CS:pref_useful: 130
CS:pref_late: 5
CS:misses: 671368
CS:misses_by_poll: 41667

CPLX: 
CPLX:times selected: 84922835
CPLX:pref_filled: 3247944
CPLX:pref_useful: 12693
CPLX:pref_late: 97
CPLX:misses: 49494058
CPLX:misses_by_poll: 7688

NL_L1: 
NL:times selected: 92079
NL:pref_filled: 80432
NL:pref_useful: 91
NL:pref_late: 1
NL:misses: 71885
NL:misses_by_poll: 0

total selections: 196600981
total_filled: 68172389
total_useful: 115980
total_late: 2111
total_polluted: 49355
total_misses_after_warmup: 56082649
conflicts: 960916
Degree Incremented Times: 1982771
Degree Decremented Times: 21517940

L1 IP Table Write Accesses: 819426034
L1 IP Table Read Accesses: 818465118
L1 RST Write Accesses: 409985520
L1 RST Read Accesses: 819971040
L1 CSPT Write Accesses: 409985520
L1 CSPT Read Accesses: 835449782
L1 RR Filter Tag Write Accesses: 372784686
L1 RR Filter Tag Read Accesses: 19429499103
L1 IP Table Tag Write Accesses: 821949780
L1 IP Table Tag Read Accesses: 821949780
L1 RST Tag Write Accesses: 0
L1 RST Tag Read Accesses: 3641554773
L1 RR Filter Write Accesses: 0
L1 RR Filter Read Accesses: 728348329
test: 193109791

stream: 
stream:times selected: 167331045
stream:pref_filled: 42552633
stream:pref_useful: 3105813
stream:pref_late: 81535
stream:misses: 10323727
stream:misses_by_poll: 0

CS: 
CS:times selected: 22859844
CS:pref_filled: 9898711
CS:pref_useful: 9643084
CS:pref_late: 4863311
CS:misses: 5988910
CS:misses_by_poll: 28322

CPLX: 
CPLX:times selected: 143339674
CPLX:pref_filled: 6611641
CPLX:pref_useful: 776660
CPLX:pref_late: 27336
CPLX:misses: 35769374
CPLX:misses_by_poll: 22392

NL_L1: 
NL:times selected: 994358
NL:pref_filled: 332900
NL:pref_useful: 27443
NL:pref_late: 1316
NL:misses: 348181
NL:misses_by_poll: 255

total selections: 334524921
total_filled: 56532259
total_useful: 12765071
total_late: 4989322
total_polluted: 50969
total_misses_after_warmup: 51011925
conflicts: 960916
Degree Incremented Times: 1982771
Degree Decremented Times: 21517940

L1 IP Table Write Accesses: 819426034
L1 IP Table Read Accesses: 818465118
L1 RST Write Accesses: 409985520
L1 RST Read Accesses: 819971040
L1 CSPT Write Accesses: 409985520
L1 CSPT Read Accesses: 835449782
L1 RR Filter Tag Write Accesses: 372784686
L1 RR Filter Tag Read Accesses: 19429499103
L1 IP Table Tag Write Accesses: 821949780
L1 IP Table Tag Read Accesses: 821949780
L1 RST Tag Write Accesses: 0
L1 RST Tag Read Accesses: 3641554773
L1 RR Filter Write Accesses: 0
L1 RR Filter Read Accesses: 728348329
test: 193109791

stream: 
stream:times selected: 43635243
stream:pref_filled: 37392302
stream:pref_useful: 928379
stream:pref_late: 316743
stream:misses: 9222637
stream:misses_by_poll: 0

CS: 
CS:times selected: 3985147
CS:pref_filled: 3124145
CS:pref_useful: 2815421
CS:pref_late: 101435
CS:misses: 551685
CS:misses_by_poll: 2906

CPLX: 
CPLX:times selected: 39288629
CPLX:pref_filled: 758900
CPLX:pref_useful: 29539
CPLX:pref_late: 17657
CPLX:misses: 29151576
CPLX:misses_by_poll: 316

NL_L1: 
NL:times selected: 53861
NL:pref_filled: 52483
NL:pref_useful: 631
NL:pref_late: 149
NL:misses: 52968
NL:misses_by_poll: 0

total selections: 86962880
total_filled: 33929295
total_useful: 2972375
total_late: 439883
total_polluted: 3222
total_misses_after_warmup: 32457918
conflicts: 960916
Degree Incremented Times: 1982771
Degree Decremented Times: 21517940

L1 IP Table Write Accesses: 819426034
L1 IP Table Read Accesses: 818465118
L1 RST Write Accesses: 409985520
L1 RST Read Accesses: 819971040
L1 CSPT Write Accesses: 409985520
L1 CSPT Read Accesses: 835449782
L1 RR Filter Tag Write Accesses: 372784686
L1 RR Filter Tag Read Accesses: 19429499103
L1 IP Table Tag Write Accesses: 821949780
L1 IP Table Tag Read Accesses: 821949780
L1 RST Tag Write Accesses: 0
L1 RST Tag Read Accesses: 3641554773
L1 RR Filter Write Accesses: 0
L1 RR Filter Read Accesses: 728348329
test: 193109791

DRAM Statistics
 CHANNEL 0
 RQ ROW_BUFFER_HIT:   32111793  ROW_BUFFER_MISS:  155109809
 DBUS_CONGESTED:        156
 WQ ROW_BUFFER_HIT:    4653650  ROW_BUFFER_MISS:   23626408  FULL:          0

 AVG_CONGESTED_CYCLE: 4
 All warmup complete: 5
Channel 0 Bank busy for read cycles: 0
Channel 0 Bank busy for write cycles: 0
Channel 0
Rank 0
0banks busy for read cycles: 711219
0banks busy for write cycles: 216
1banks busy for read cycles: 102925551
1banks busy for write cycles: 3295854
2banks busy for read cycles: 389258918
2banks busy for write cycles: 23510590
3banks busy for read cycles: 722713613
3banks busy for write cycles: 772539326
4banks busy for read cycles: 965092110
4banks busy for write cycles: 43374387
5banks busy for read cycles: 1019555208
5banks busy for write cycles: 21292726
6banks busy for read cycles: 901595705
6banks busy for write cycles: 41469590
7banks busy for read cycles: 689046948
7banks busy for write cycles: 96478524
8banks busy for read cycles: 445981559
8banks busy for write cycles: 141732832

CPU 0 Branch Prediction Accuracy: 99.9997% MPKI: 0.000126383 Average ROB Occupancy at Mispredict: 128.133
Branch types
NOT_BRANCH: 3009244691 95.622%
BRANCH_DIRECT_JUMP: 344 1.0931e-05%
BRANCH_INDIRECT: 0 0%
BRANCH_CONDITIONAL: 115072604 3.65656%
BRANCH_DIRECT_CALL: 11352343 0.360733%
BRANCH_INDIRECT_CALL: 0 0%
BRANCH_RETURN: 11352344 0.360733%
BRANCH_OTHER: 0 0%


CPU 1 Branch Prediction Accuracy: 91.9136% MPKI: 18.4209 Average ROB Occupancy at Mispredict: 31.0134
Branch types
NOT_BRANCH: 262530054 75.9537%
BRANCH_DIRECT_JUMP: 100001 0.0289317%
BRANCH_INDIRECT: 0 0%
BRANCH_CONDITIONAL: 83007532 24.0153%
BRANCH_DIRECT_CALL: 3673 0.00106265%
BRANCH_INDIRECT_CALL: 0 0%
BRANCH_RETURN: 3673 0.00106265%
BRANCH_OTHER: 0 0%


CPU 2 Branch Prediction Accuracy: 93.4139% MPKI: 16.306 Average ROB Occupancy at Mispredict: 24.0469
Branch types
NOT_BRANCH: 1122439944 74.8396%
BRANCH_DIRECT_JUMP: 40775396 2.71873%
BRANCH_INDIRECT: 0 0%
BRANCH_CONDITIONAL: 257115655 17.1434%
BRANCH_DIRECT_CALL: 37503666 2.50059%
BRANCH_INDIRECT_CALL: 2227614 0.148528%
BRANCH_RETURN: 39731282 2.64912%
BRANCH_OTHER: 0 0%


CPU 3 Branch Prediction Accuracy: 96.9594% MPKI: 5.62926 Average ROB Occupancy at Mispredict: 140.477
Branch types
NOT_BRANCH: 162972290 81.4861%
BRANCH_DIRECT_JUMP: 67 3.35e-05%
BRANCH_INDIRECT: 4 2e-06%
BRANCH_CONDITIONAL: 37027324 18.5137%
BRANCH_DIRECT_CALL: 28 1.4e-05%
BRANCH_INDIRECT_CALL: 5 2.5e-06%
BRANCH_RETURN: 33 1.65e-05%
BRANCH_OTHER: 0 0%

DRAM PAGES: 1048576
Allocated PAGES: 702895
