
*** ChampSim Multicore Out-of-Order Simulator ***

Warmup Instructions: 50000000
Simulation Instructions: 200000000
Number of CPUs: 4
LLC sets: 8192
LLC ways: 16
Off-chip DRAM Size: 4096 MB Channels: 1 Width: 64-bit Data Rate: 6400 MT/s
CPU 0 runs ./traces/spec/450.soplex-92B.champsimtrace.xz
.xz
CPU 1 runs ./traces/spec/450.soplex-92B.champsimtrace.xz
.xz
CPU 2 runs ./traces/spec/450.soplex-92B.champsimtrace.xz
.xz
CPU 3 runs ./traces/spec/450.soplex-92B.champsimtrace.xz
.xz
BTB has LRU replacement policy
ITLB has LRU replacement policy
DTLB has LRU replacement policy
STLB has LRU replacement policy
L1I has LRU replacement policy
IP Table Entries: 1024
CSPT Entries: 128
RR_ENTRIES: 32
RST_ENTRIES: 8
L1D has LRU replacement policy
Initialize SRRIP state for L2C
Initialize DRRIP state for LLC
BTB has LRU replacement policy
ITLB has LRU replacement policy
DTLB has LRU replacement policy
STLB has LRU replacement policy
L1I has LRU replacement policy
IP Table Entries: 1024
CSPT Entries: 128
RR_ENTRIES: 32
RST_ENTRIES: 8
L1D has LRU replacement policy
Initialize SRRIP state for L2C
Initialize DRRIP state for LLC
BTB has LRU replacement policy
ITLB has LRU replacement policy
DTLB has LRU replacement policy
STLB has LRU replacement policy
L1I has LRU replacement policy
IP Table Entries: 1024
CSPT Entries: 128
RR_ENTRIES: 32
RST_ENTRIES: 8
L1D has LRU replacement policy
Initialize SRRIP state for L2C
Initialize DRRIP state for LLC
BTB has LRU replacement policy
ITLB has LRU replacement policy
DTLB has LRU replacement policy
STLB has LRU replacement policy
L1I has LRU replacement policy
IP Table Entries: 1024
CSPT Entries: 128
RR_ENTRIES: 32
RST_ENTRIES: 8
L1D has LRU replacement policy
Initialize SRRIP state for L2C
Initialize DRRIP state for LLC
Heartbeat CPU 0 instructions: 10000001 cycles: 3232105 heartbeat IPC: 3.09396 cumulative IPC: 3.09396 (Simulation time: 0 hr 3 min 48 sec) 
Heartbeat CPU 1 instructions: 10000001 cycles: 3233437 heartbeat IPC: 3.09268 cumulative IPC: 3.09268 (Simulation time: 0 hr 3 min 48 sec) 
Heartbeat CPU 2 instructions: 10000001 cycles: 3236787 heartbeat IPC: 3.08948 cumulative IPC: 3.08948 (Simulation time: 0 hr 3 min 48 sec) 
Heartbeat CPU 3 instructions: 10000001 cycles: 3237465 heartbeat IPC: 3.08884 cumulative IPC: 3.08884 (Simulation time: 0 hr 3 min 48 sec) 
Heartbeat CPU 0 instructions: 20000002 cycles: 6520146 heartbeat IPC: 3.04132 cumulative IPC: 3.06742 (Simulation time: 0 hr 7 min 34 sec) 
Heartbeat CPU 1 instructions: 20000002 cycles: 6525388 heartbeat IPC: 3.03771 cumulative IPC: 3.06495 (Simulation time: 0 hr 7 min 34 sec) 
Heartbeat CPU 2 instructions: 20000002 cycles: 6530962 heartbeat IPC: 3.03566 cumulative IPC: 3.06234 (Simulation time: 0 hr 7 min 35 sec) 
Heartbeat CPU 3 instructions: 20000002 cycles: 6532938 heartbeat IPC: 3.03447 cumulative IPC: 3.06141 (Simulation time: 0 hr 7 min 35 sec) 
Heartbeat CPU 0 instructions: 30000003 cycles: 9740730 heartbeat IPC: 3.10503 cumulative IPC: 3.07985 (Simulation time: 0 hr 11 min 15 sec) 
Heartbeat CPU 1 instructions: 30000003 cycles: 9747064 heartbeat IPC: 3.10397 cumulative IPC: 3.07785 (Simulation time: 0 hr 11 min 15 sec) 
Heartbeat CPU 2 instructions: 30000003 cycles: 9752889 heartbeat IPC: 3.10373 cumulative IPC: 3.07601 (Simulation time: 0 hr 11 min 15 sec) 
Heartbeat CPU 3 instructions: 30000003 cycles: 9753435 heartbeat IPC: 3.10511 cumulative IPC: 3.07584 (Simulation time: 0 hr 11 min 16 sec) 
Heartbeat CPU 0 instructions: 40000002 cycles: 12938701 heartbeat IPC: 3.12698 cumulative IPC: 3.0915 (Simulation time: 0 hr 14 min 42 sec) 
Heartbeat CPU 1 instructions: 40000002 cycles: 12950070 heartbeat IPC: 3.12207 cumulative IPC: 3.08879 (Simulation time: 0 hr 14 min 43 sec) 
Heartbeat CPU 2 instructions: 40000002 cycles: 12956867 heartbeat IPC: 3.12112 cumulative IPC: 3.08717 (Simulation time: 0 hr 14 min 43 sec) 
Heartbeat CPU 3 instructions: 40000002 cycles: 12958832 heartbeat IPC: 3.11974 cumulative IPC: 3.0867 (Simulation time: 0 hr 14 min 43 sec) 
Heartbeat CPU 0 instructions: 50000003 cycles: 16133791 heartbeat IPC: 3.1298 cumulative IPC: 3.09909 (Simulation time: 0 hr 18 min 30 sec) 
Heartbeat CPU 1 instructions: 50000001 cycles: 16153983 heartbeat IPC: 3.12118 cumulative IPC: 3.09521 (Simulation time: 0 hr 18 min 31 sec) 
Heartbeat CPU 2 instructions: 50000001 cycles: 16166741 heartbeat IPC: 3.11539 cumulative IPC: 3.09277 (Simulation time: 0 hr 18 min 32 sec) 
Heartbeat CPU 3 instructions: 50000003 cycles: 16168956 heartbeat IPC: 3.11514 cumulative IPC: 3.09235 (Simulation time: 0 hr 18 min 32 sec) 

Warmup complete CPU 0 instructions: 50068696 cycles: 16168956 (Simulation time: 0 hr 18 min 32 sec) 
Warmup complete CPU 1 instructions: 50030480 cycles: 16168956 (Simulation time: 0 hr 18 min 32 sec) 
Warmup complete CPU 2 instructions: 50004991 cycles: 16168956 (Simulation time: 0 hr 18 min 32 sec) 
Warmup complete CPU 3 instructions: 50000003 cycles: 16168956 (Simulation time: 0 hr 18 min 32 sec) 

Heartbeat CPU 0 instructions: 60000000 cycles: 51345132 heartbeat IPC: 0.283999 cumulative IPC: 0.28233 (Simulation time: 0 hr 23 min 31 sec) 
Heartbeat CPU 3 instructions: 60000000 cycles: 51806478 heartbeat IPC: 0.280603 cumulative IPC: 0.280603 (Simulation time: 0 hr 23 min 34 sec) 
Heartbeat CPU 2 instructions: 60000000 cycles: 51831012 heartbeat IPC: 0.280393 cumulative IPC: 0.28027 (Simulation time: 0 hr 23 min 35 sec) 
Heartbeat CPU 1 instructions: 60000000 cycles: 51914155 heartbeat IPC: 0.279641 cumulative IPC: 0.278905 (Simulation time: 0 hr 23 min 35 sec) 
Heartbeat CPU 0 instructions: 70000001 cycles: 102652521 heartbeat IPC: 0.194904 cumulative IPC: 0.230464 (Simulation time: 0 hr 30 min 43 sec) 
Heartbeat CPU 3 instructions: 70000001 cycles: 102928218 heartbeat IPC: 0.195612 cumulative IPC: 0.230523 (Simulation time: 0 hr 30 min 46 sec) 
Heartbeat CPU 2 instructions: 70000001 cycles: 102950601 heartbeat IPC: 0.19562 cumulative IPC: 0.230406 (Simulation time: 0 hr 30 min 46 sec) 
Heartbeat CPU 1 instructions: 70000001 cycles: 103024603 heartbeat IPC: 0.195655 cumulative IPC: 0.229916 (Simulation time: 0 hr 30 min 47 sec) 
Heartbeat CPU 0 instructions: 80000000 cycles: 132441146 heartbeat IPC: 0.335699 cumulative IPC: 0.257424 (Simulation time: 0 hr 36 min 14 sec) 
Heartbeat CPU 1 instructions: 80000000 cycles: 132521615 heartbeat IPC: 0.339017 cumulative IPC: 0.257575 (Simulation time: 0 hr 36 min 14 sec) 
Heartbeat CPU 3 instructions: 80000000 cycles: 132548090 heartbeat IPC: 0.337611 cumulative IPC: 0.257778 (Simulation time: 0 hr 36 min 14 sec) 
Heartbeat CPU 2 instructions: 80000000 cycles: 132673780 heartbeat IPC: 0.336438 cumulative IPC: 0.257457 (Simulation time: 0 hr 36 min 15 sec) 
Heartbeat CPU 0 instructions: 90000000 cycles: 169318859 heartbeat IPC: 0.271167 cumulative IPC: 0.260733 (Simulation time: 0 hr 41 min 29 sec) 
Heartbeat CPU 3 instructions: 90000001 cycles: 169594070 heartbeat IPC: 0.269935 cumulative IPC: 0.260713 (Simulation time: 0 hr 41 min 31 sec) 
Heartbeat CPU 1 instructions: 90000001 cycles: 169613476 heartbeat IPC: 0.269601 cumulative IPC: 0.260482 (Simulation time: 0 hr 41 min 31 sec) 
Heartbeat CPU 2 instructions: 90000001 cycles: 169615541 heartbeat IPC: 0.270696 cumulative IPC: 0.260644 (Simulation time: 0 hr 41 min 31 sec) 
Heartbeat CPU 0 instructions: 100000001 cycles: 211389050 heartbeat IPC: 0.237698 cumulative IPC: 0.255769 (Simulation time: 0 hr 46 min 57 sec) 
Heartbeat CPU 3 instructions: 100000001 cycles: 211520616 heartbeat IPC: 0.238512 cumulative IPC: 0.255949 (Simulation time: 0 hr 46 min 59 sec) 
Heartbeat CPU 1 instructions: 100000001 cycles: 211626762 heartbeat IPC: 0.23802 cumulative IPC: 0.255654 (Simulation time: 0 hr 47 min 1 sec) 
Heartbeat CPU 2 instructions: 100000001 cycles: 211703295 heartbeat IPC: 0.237599 cumulative IPC: 0.255684 (Simulation time: 0 hr 47 min 2 sec) 
Heartbeat CPU 0 instructions: 110000000 cycles: 245236654 heartbeat IPC: 0.295442 cumulative IPC: 0.261631 (Simulation time: 0 hr 51 min 54 sec) 
Heartbeat CPU 2 instructions: 110000000 cycles: 245637180 heartbeat IPC: 0.294691 cumulative IPC: 0.261452 (Simulation time: 0 hr 52 min 2 sec) 
Heartbeat CPU 3 instructions: 110000000 cycles: 245675083 heartbeat IPC: 0.292787 cumulative IPC: 0.261431 (Simulation time: 0 hr 52 min 2 sec) 
Heartbeat CPU 1 instructions: 110000000 cycles: 245703531 heartbeat IPC: 0.293455 cumulative IPC: 0.261266 (Simulation time: 0 hr 52 min 3 sec) 
Heartbeat CPU 0 instructions: 120000002 cycles: 279292912 heartbeat IPC: 0.293632 cumulative IPC: 0.265773 (Simulation time: 0 hr 57 min 6 sec) 
Heartbeat CPU 2 instructions: 120000002 cycles: 279838754 heartbeat IPC: 0.292384 cumulative IPC: 0.265465 (Simulation time: 0 hr 57 min 10 sec) 
Heartbeat CPU 3 instructions: 120000002 cycles: 280073308 heartbeat IPC: 0.290713 cumulative IPC: 0.265248 (Simulation time: 0 hr 57 min 11 sec) 
Heartbeat CPU 1 instructions: 120000002 cycles: 280108343 heartbeat IPC: 0.290657 cumulative IPC: 0.265097 (Simulation time: 0 hr 57 min 11 sec) 
Heartbeat CPU 0 instructions: 130000002 cycles: 317166835 heartbeat IPC: 0.264034 cumulative IPC: 0.265554 (Simulation time: 1 hr 2 min 5 sec) 
Heartbeat CPU 2 instructions: 130000002 cycles: 317788711 heartbeat IPC: 0.263505 cumulative IPC: 0.265218 (Simulation time: 1 hr 2 min 15 sec) 
Heartbeat CPU 3 instructions: 130000002 cycles: 318075378 heartbeat IPC: 0.263144 cumulative IPC: 0.264983 (Simulation time: 1 hr 2 min 18 sec) 
Heartbeat CPU 1 instructions: 130000002 cycles: 318088882 heartbeat IPC: 0.263293 cumulative IPC: 0.26487 (Simulation time: 1 hr 2 min 18 sec) 
Heartbeat CPU 0 instructions: 140000003 cycles: 352750038 heartbeat IPC: 0.281031 cumulative IPC: 0.267191 (Simulation time: 1 hr 7 min 11 sec) 
Heartbeat CPU 2 instructions: 140000003 cycles: 353200582 heartbeat IPC: 0.282391 cumulative IPC: 0.267022 (Simulation time: 1 hr 7 min 15 sec) 
Heartbeat CPU 3 instructions: 140000003 cycles: 353371752 heartbeat IPC: 0.283315 cumulative IPC: 0.266902 (Simulation time: 1 hr 7 min 17 sec) 
Heartbeat CPU 1 instructions: 140000003 cycles: 353474716 heartbeat IPC: 0.282599 cumulative IPC: 0.26673 (Simulation time: 1 hr 7 min 18 sec) 
Heartbeat CPU 0 instructions: 150000002 cycles: 387795428 heartbeat IPC: 0.285344 cumulative IPC: 0.268903 (Simulation time: 1 hr 12 min 22 sec) 
Heartbeat CPU 2 instructions: 150000002 cycles: 388224358 heartbeat IPC: 0.28552 cumulative IPC: 0.268764 (Simulation time: 1 hr 12 min 26 sec) 
Heartbeat CPU 3 instructions: 150000002 cycles: 388467073 heartbeat IPC: 0.284938 cumulative IPC: 0.268602 (Simulation time: 1 hr 12 min 28 sec) 
Heartbeat CPU 1 instructions: 150000002 cycles: 388557216 heartbeat IPC: 0.285042 cumulative IPC: 0.268455 (Simulation time: 1 hr 12 min 29 sec) 
Heartbeat CPU 0 instructions: 160000001 cycles: 424602166 heartbeat IPC: 0.271689 cumulative IPC: 0.269154 (Simulation time: 1 hr 17 min 28 sec) 
Heartbeat CPU 2 instructions: 160000001 cycles: 425432557 heartbeat IPC: 0.268758 cumulative IPC: 0.268763 (Simulation time: 1 hr 17 min 34 sec) 
Heartbeat CPU 3 instructions: 160000001 cycles: 425574410 heartbeat IPC: 0.269488 cumulative IPC: 0.268682 (Simulation time: 1 hr 17 min 35 sec) 
Heartbeat CPU 1 instructions: 160000001 cycles: 425713457 heartbeat IPC: 0.269134 cumulative IPC: 0.268517 (Simulation time: 1 hr 17 min 35 sec) 
Heartbeat CPU 0 instructions: 170000000 cycles: 466161399 heartbeat IPC: 0.24062 cumulative IPC: 0.266518 (Simulation time: 1 hr 23 min 4 sec) 
Heartbeat CPU 2 instructions: 170000002 cycles: 466905269 heartbeat IPC: 0.241122 cumulative IPC: 0.26622 (Simulation time: 1 hr 23 min 11 sec) 
Heartbeat CPU 1 instructions: 170000003 cycles: 467032983 heartbeat IPC: 0.242016 cumulative IPC: 0.266088 (Simulation time: 1 hr 23 min 13 sec) 
Heartbeat CPU 3 instructions: 170000002 cycles: 467253839 heartbeat IPC: 0.239927 cumulative IPC: 0.266025 (Simulation time: 1 hr 23 min 15 sec) 
Heartbeat CPU 0 instructions: 180000002 cycles: 507640058 heartbeat IPC: 0.241088 cumulative IPC: 0.264372 (Simulation time: 1 hr 29 min 58 sec) 
Heartbeat CPU 3 instructions: 180000002 cycles: 508716205 heartbeat IPC: 0.241183 cumulative IPC: 0.263934 (Simulation time: 1 hr 30 min 9 sec) 
Heartbeat CPU 1 instructions: 180000002 cycles: 508761752 heartbeat IPC: 0.239643 cumulative IPC: 0.263848 (Simulation time: 1 hr 30 min 10 sec) 
Heartbeat CPU 2 instructions: 180000003 cycles: 508838612 heartbeat IPC: 0.238474 cumulative IPC: 0.263858 (Simulation time: 1 hr 30 min 11 sec) 
Heartbeat CPU 0 instructions: 190000000 cycles: 544257426 heartbeat IPC: 0.273094 cumulative IPC: 0.264977 (Simulation time: 1 hr 35 min 41 sec) 
Heartbeat CPU 3 instructions: 190000000 cycles: 544444987 heartbeat IPC: 0.279886 cumulative IPC: 0.265013 (Simulation time: 1 hr 35 min 43 sec) 
Heartbeat CPU 2 instructions: 190000000 cycles: 544468117 heartbeat IPC: 0.280666 cumulative IPC: 0.264992 (Simulation time: 1 hr 35 min 44 sec) 
Heartbeat CPU 1 instructions: 190000000 cycles: 544684470 heartbeat IPC: 0.278375 cumulative IPC: 0.264835 (Simulation time: 1 hr 35 min 46 sec) 
Heartbeat CPU 0 instructions: 200000000 cycles: 582702649 heartbeat IPC: 0.26011 cumulative IPC: 0.264647 (Simulation time: 1 hr 41 min 3 sec) 
Heartbeat CPU 3 instructions: 200000000 cycles: 582916783 heartbeat IPC: 0.259931 cumulative IPC: 0.264668 (Simulation time: 1 hr 41 min 7 sec) 
Heartbeat CPU 2 instructions: 200000000 cycles: 583083995 heartbeat IPC: 0.258961 cumulative IPC: 0.264581 (Simulation time: 1 hr 41 min 9 sec) 
Heartbeat CPU 1 instructions: 200000000 cycles: 583142447 heartbeat IPC: 0.260024 cumulative IPC: 0.264509 (Simulation time: 1 hr 41 min 10 sec) 
Heartbeat CPU 0 instructions: 210000002 cycles: 617699301 heartbeat IPC: 0.285742 cumulative IPC: 0.265874 (Simulation time: 1 hr 46 min 37 sec) 
Heartbeat CPU 3 instructions: 210000002 cycles: 618103327 heartbeat IPC: 0.2842 cumulative IPC: 0.26581 (Simulation time: 1 hr 46 min 41 sec) 
Heartbeat CPU 1 instructions: 210000002 cycles: 618158800 heartbeat IPC: 0.285581 cumulative IPC: 0.265735 (Simulation time: 1 hr 46 min 42 sec) 
Heartbeat CPU 2 instructions: 210000002 cycles: 618168250 heartbeat IPC: 0.285028 cumulative IPC: 0.265773 (Simulation time: 1 hr 46 min 42 sec) 
Heartbeat CPU 0 instructions: 220000000 cycles: 652624316 heartbeat IPC: 0.286328 cumulative IPC: 0.266996 (Simulation time: 1 hr 52 min 1 sec) 
Heartbeat CPU 3 instructions: 220000000 cycles: 653130725 heartbeat IPC: 0.285491 cumulative IPC: 0.266892 (Simulation time: 1 hr 52 min 5 sec) 
Heartbeat CPU 2 instructions: 220000000 cycles: 653175383 heartbeat IPC: 0.285656 cumulative IPC: 0.266865 (Simulation time: 1 hr 52 min 5 sec) 
Heartbeat CPU 1 instructions: 220000000 cycles: 653318578 heartbeat IPC: 0.284416 cumulative IPC: 0.266765 (Simulation time: 1 hr 52 min 6 sec) 
Heartbeat CPU 0 instructions: 230000002 cycles: 689145149 heartbeat IPC: 0.273816 cumulative IPC: 0.267367 (Simulation time: 1 hr 57 min 23 sec) 
Heartbeat CPU 2 instructions: 230000003 cycles: 689918155 heartbeat IPC: 0.272162 cumulative IPC: 0.267154 (Simulation time: 1 hr 57 min 27 sec) 
Heartbeat CPU 3 instructions: 230000003 cycles: 689934723 heartbeat IPC: 0.27171 cumulative IPC: 0.267155 (Simulation time: 1 hr 57 min 28 sec) 
Heartbeat CPU 1 instructions: 230000002 cycles: 690288972 heartbeat IPC: 0.270487 cumulative IPC: 0.26697 (Simulation time: 1 hr 57 min 29 sec) 
Heartbeat CPU 0 instructions: 240000000 cycles: 724572303 heartbeat IPC: 0.282269 cumulative IPC: 0.268112 (Simulation time: 2 hr 2 min 38 sec) 
Heartbeat CPU 3 instructions: 240000000 cycles: 725272354 heartbeat IPC: 0.282984 cumulative IPC: 0.267944 (Simulation time: 2 hr 2 min 51 sec) 
Heartbeat CPU 2 instructions: 240000000 cycles: 725462469 heartbeat IPC: 0.281339 cumulative IPC: 0.267865 (Simulation time: 2 hr 2 min 54 sec) 
Heartbeat CPU 1 instructions: 240000000 cycles: 725579532 heartbeat IPC: 0.283362 cumulative IPC: 0.267785 (Simulation time: 2 hr 2 min 56 sec) 
Heartbeat CPU 0 instructions: 250000000 cycles: 768155036 heartbeat IPC: 0.229449 cumulative IPC: 0.265871 (Simulation time: 2 hr 8 min 27 sec) 
Finished CPU 0 instructions: 200000000 cycles: 752124621 cumulative IPC: 0.265913 (Simulation time: 2 hr 8 min 27 sec) 
Heartbeat CPU 3 instructions: 250000000 cycles: 768676310 heartbeat IPC: 0.230394 cumulative IPC: 0.265778 (Simulation time: 2 hr 8 min 30 sec) 
Finished CPU 3 instructions: 200000001 cycles: 752507359 cumulative IPC: 0.265778 (Simulation time: 2 hr 8 min 30 sec) 
Heartbeat CPU 2 instructions: 250000000 cycles: 768911149 heartbeat IPC: 0.230157 cumulative IPC: 0.265689 (Simulation time: 2 hr 8 min 33 sec) 
Finished CPU 2 instructions: 200000002 cycles: 752747491 cumulative IPC: 0.265693 (Simulation time: 2 hr 8 min 33 sec) 
Heartbeat CPU 1 instructions: 250000000 cycles: 768929251 heartbeat IPC: 0.230682 cumulative IPC: 0.265648 (Simulation time: 2 hr 8 min 33 sec) 
Finished CPU 1 instructions: 200000002 cycles: 752805460 cumulative IPC: 0.265673 (Simulation time: 2 hr 8 min 34 sec) 

ChampSim completed all CPUs

Total Simulation Statistics (not including warmup)

CPU 0 cumulative IPC: 0.266272 instructions: 200451051 cycles: 752805460
ITLB TOTAL     ACCESS:   33839708  HIT:   33839696  MISS:         12  HIT %:        100  MISS %: 3.54613e-05   MPKI: 5.9865e-05
ITLB LOAD      ACCESS:          0  HIT:          0  MISS:          0  HIT %:       -nan  MISS %:       -nan   MPKI: 0
ITLB RFO       ACCESS:          0  HIT:          0  MISS:          0  HIT %:       -nan  MISS %:       -nan   MPKI: 0
ITLB PREFETCH  ACCESS:          0  HIT:          0  MISS:          0  HIT %:       -nan  MISS %:       -nan   MPKI: 0
ITLB WRITEBACK ACCESS:          0  HIT:          0  MISS:          0  HIT %:       -nan  MISS %:       -nan   MPKI: 0
DTLB TOTAL     ACCESS:   40035540  HIT:   38929144  MISS:    1106396  HIT %:    97.2365  MISS %:    2.76353   MPKI: 5.51953
DTLB LOAD      ACCESS:          0  HIT:          0  MISS:          0  HIT %:       -nan  MISS %:       -nan   MPKI: 0
DTLB RFO       ACCESS:          0  HIT:          0  MISS:          0  HIT %:       -nan  MISS %:       -nan   MPKI: 0
DTLB PREFETCH  ACCESS:          0  HIT:          0  MISS:          0  HIT %:       -nan  MISS %:       -nan   MPKI: 0
DTLB WRITEBACK ACCESS:          0  HIT:          0  MISS:          0  HIT %:       -nan  MISS %:       -nan   MPKI: 0
STLB TOTAL     ACCESS:    8074793  HIT:    7902555  MISS:     172238  HIT %:     97.867  MISS %:    2.13303   MPKI: 0.859252
STLB LOAD      ACCESS:          0  HIT:          0  MISS:          0  HIT %:       -nan  MISS %:       -nan   MPKI: 0
STLB RFO       ACCESS:          0  HIT:          0  MISS:          0  HIT %:       -nan  MISS %:       -nan   MPKI: 0
STLB PREFETCH  ACCESS:          0  HIT:          0  MISS:          0  HIT %:       -nan  MISS %:       -nan   MPKI: 0
STLB WRITEBACK ACCESS:          0  HIT:          0  MISS:          0  HIT %:       -nan  MISS %:       -nan   MPKI: 0
L1D TOTAL     ACCESS:   50142845  HIT:   39594726  MISS:   10548119  HIT %:    78.9639  MISS %:    21.0361   MPKI: 52.6219
L1D LOAD      ACCESS:   29793803  HIT:   25631503  MISS:    4162300  HIT %:    86.0296  MISS %:    13.9704   MPKI: 20.7647
L1D RFO       ACCESS:   11185384  HIT:    9899313  MISS:    1286071  HIT %:    88.5022  MISS %:    11.4978   MPKI: 6.41589
L1D PREFETCH  ACCESS:    9163658  HIT:    4063910  MISS:    5099748  HIT %:    44.3481  MISS %:    55.6519   MPKI: 25.4414
L1D WRITEBACK ACCESS:          0  HIT:          0  MISS:          0  HIT %:       -nan  MISS %:       -nan   MPKI: 0
L1I TOTAL     ACCESS:   37067470  HIT:   37066173  MISS:       1297  HIT %:    99.9965  MISS %: 0.00349902   MPKI: 0.00647041
L1I LOAD      ACCESS:   37067470  HIT:   37066173  MISS:       1297  HIT %:    99.9965  MISS %: 0.00349902   MPKI: 0.00647041
L1I RFO       ACCESS:          0  HIT:          0  MISS:          0  HIT %:       -nan  MISS %:       -nan   MPKI: 0
L1I PREFETCH  ACCESS:          0  HIT:          0  MISS:          0  HIT %:       -nan  MISS %:       -nan   MPKI: 0
L1I WRITEBACK ACCESS:          0  HIT:          0  MISS:          0  HIT %:       -nan  MISS %:       -nan   MPKI: 0
L2C TOTAL     ACCESS:   14006339  HIT:    5857194  MISS:    8149145  HIT %:    41.8182  MISS %:    58.1818   MPKI: 40.654
L2C LOAD      ACCESS:    3511308  HIT:    1181231  MISS:    2330077  HIT %:    33.6408  MISS %:    66.3592   MPKI: 11.6242
L2C RFO       ACCESS:    1285862  HIT:     137117  MISS:    1148745  HIT %:    10.6634  MISS %:    89.3366   MPKI: 5.7308
L2C PREFETCH  ACCESS:    5751422  HIT:    1336696  MISS:    4414726  HIT %:    23.2411  MISS %:    76.7589   MPKI: 22.024
L2C WRITEBACK ACCESS:    3284578  HIT:    3080061  MISS:     204517  HIT %:    93.7734  MISS %:    6.22658   MPKI: 1.02028
PSCL5 TOTAL     ACCESS:     172238  HIT:     172238  MISS:          0  HIT %:        100  MISS %:          0   MPKI: 0
PSCL5 LOAD      ACCESS:          0  HIT:          0  MISS:          0  HIT %:       -nan  MISS %:       -nan   MPKI: 0
PSCL5 RFO       ACCESS:          0  HIT:          0  MISS:          0  HIT %:       -nan  MISS %:       -nan   MPKI: 0
PSCL5 PREFETCH  ACCESS:          0  HIT:          0  MISS:          0  HIT %:       -nan  MISS %:       -nan   MPKI: 0
PSCL5 WRITEBACK ACCESS:          0  HIT:          0  MISS:          0  HIT %:       -nan  MISS %:       -nan   MPKI: 0
PSCL4 TOTAL     ACCESS:     172238  HIT:     172238  MISS:          0  HIT %:        100  MISS %:          0   MPKI: 0
PSCL4 LOAD      ACCESS:          0  HIT:          0  MISS:          0  HIT %:       -nan  MISS %:       -nan   MPKI: 0
PSCL4 RFO       ACCESS:          0  HIT:          0  MISS:          0  HIT %:       -nan  MISS %:       -nan   MPKI: 0
PSCL4 PREFETCH  ACCESS:          0  HIT:          0  MISS:          0  HIT %:       -nan  MISS %:       -nan   MPKI: 0
PSCL4 WRITEBACK ACCESS:          0  HIT:          0  MISS:          0  HIT %:       -nan  MISS %:       -nan   MPKI: 0
PSCL3 TOTAL     ACCESS:     172238  HIT:     172238  MISS:          0  HIT %:        100  MISS %:          0   MPKI: 0
PSCL3 LOAD      ACCESS:          0  HIT:          0  MISS:          0  HIT %:       -nan  MISS %:       -nan   MPKI: 0
PSCL3 RFO       ACCESS:          0  HIT:          0  MISS:          0  HIT %:       -nan  MISS %:       -nan   MPKI: 0
PSCL3 PREFETCH  ACCESS:          0  HIT:          0  MISS:          0  HIT %:       -nan  MISS %:       -nan   MPKI: 0
PSCL3 WRITEBACK ACCESS:          0  HIT:          0  MISS:          0  HIT %:       -nan  MISS %:       -nan   MPKI: 0
PSCL2 TOTAL     ACCESS:     172238  HIT:     171295  MISS:        943  HIT %:    99.4525  MISS %:   0.547498   MPKI: 0.00470439
PSCL2 LOAD      ACCESS:          0  HIT:          0  MISS:          0  HIT %:       -nan  MISS %:       -nan   MPKI: 0
PSCL2 RFO       ACCESS:          0  HIT:          0  MISS:          0  HIT %:       -nan  MISS %:       -nan   MPKI: 0
PSCL2 PREFETCH  ACCESS:          0  HIT:          0  MISS:          0  HIT %:       -nan  MISS %:       -nan   MPKI: 0
PSCL2 WRITEBACK ACCESS:          0  HIT:          0  MISS:          0  HIT %:       -nan  MISS %:       -nan   MPKI: 0

stream: 
stream:times selected: 13027374
stream:pref_filled: 3735601
stream:pref_useful: 928972
stream:pref_late: 282965
stream:misses: 747520
stream:misses_by_poll: 0

CS: 
CS:times selected: 3597732
CS:pref_filled: 2451856
CS:pref_useful: 1961956
CS:pref_late: 448935
CS:misses: 1447053
CS:misses_by_poll: 12244

CPLX: 
CPLX:times selected: 9378711
CPLX:pref_filled: 294483
CPLX:pref_useful: 71059
CPLX:pref_late: 23743
CPLX:misses: 3904832
CPLX:misses_by_poll: 502

NL_L1: 
NL:times selected: 80409
NL:pref_filled: 27409
NL:pref_useful: 6763
NL:pref_late: 1068
NL:misses: 40987
NL:misses_by_poll: 1

total selections: 26084226
total_filled: 5099748
total_useful: 2247172
total_late: 765335
total_polluted: 12747
total_misses_after_warmup: 5167863
conflicts: 86701
Degree Incremented Times: 658204
Degree Decremented Times: 2112916

L1 IP Table Write Accesses: 122762926
L1 IP Table Read Accesses: 122676225
L1 RST Write Accesses: 42479476
L1 RST Read Accesses: 84958952
L1 CSPT Write Accesses: 42479476
L1 CSPT Read Accesses: 73180687
L1 RR Filter Tag Write Accesses: 41900482
L1 RR Filter Tag Read Accesses: 2240405458
L1 IP Table Tag Write Accesses: 122939819
L1 IP Table Tag Read Accesses: 122939819
L1 RST Tag Write Accesses: 0
L1 RST Tag Read Accesses: 382259919
L1 RR Filter Write Accesses: 0
L1 RR Filter Read Accesses: 80276646
test: 15417534
LLC TOTAL     ACCESS:   10389366  HIT:    4649420  MISS:    5739946  HIT %:    44.7517  MISS %:    55.2483   MPKI: 28.6352
LLC LOAD      ACCESS:    2330054  HIT:     790227  MISS:    1539827  HIT %:    33.9145  MISS %:    66.0855   MPKI: 7.68181
LLC RFO       ACCESS:    1148737  HIT:     254694  MISS:     894043  HIT %:    22.1717  MISS %:    77.8283   MPKI: 4.46016
LLC PREFETCH  ACCESS:    4414709  HIT:    1268898  MISS:    3145811  HIT %:    28.7425  MISS %:    71.2575   MPKI: 15.6937
LLC WRITEBACK ACCESS:    2444786  HIT:    2317198  MISS:     127588  HIT %:    94.7812  MISS %:    5.21878   MPKI: 0.636505

RAW hits: 1349478
Loads Generated: 56976397
Loads sent to L1D: 55626916
Stores Generated: 15293045
Stores sent to L1D: 15293045

CPU 1 cumulative IPC: 0.265673 instructions: 200000002 cycles: 752805460
ITLB TOTAL     ACCESS:   33781498  HIT:   33781486  MISS:         12  HIT %:        100  MISS %: 3.55224e-05   MPKI: 6e-05
ITLB LOAD      ACCESS:          0  HIT:          0  MISS:          0  HIT %:       -nan  MISS %:       -nan   MPKI: 0
ITLB RFO       ACCESS:          0  HIT:          0  MISS:          0  HIT %:       -nan  MISS %:       -nan   MPKI: 0
ITLB PREFETCH  ACCESS:          0  HIT:          0  MISS:          0  HIT %:       -nan  MISS %:       -nan   MPKI: 0
ITLB WRITEBACK ACCESS:          0  HIT:          0  MISS:          0  HIT %:       -nan  MISS %:       -nan   MPKI: 0
DTLB TOTAL     ACCESS:   39925101  HIT:   38818823  MISS:    1106278  HIT %:    97.2291  MISS %:    2.77088   MPKI: 5.53139
DTLB LOAD      ACCESS:          0  HIT:          0  MISS:          0  HIT %:       -nan  MISS %:       -nan   MPKI: 0
DTLB RFO       ACCESS:          0  HIT:          0  MISS:          0  HIT %:       -nan  MISS %:       -nan   MPKI: 0
DTLB PREFETCH  ACCESS:          0  HIT:          0  MISS:          0  HIT %:       -nan  MISS %:       -nan   MPKI: 0
DTLB WRITEBACK ACCESS:          0  HIT:          0  MISS:          0  HIT %:       -nan  MISS %:       -nan   MPKI: 0
STLB TOTAL     ACCESS:    8034539  HIT:    7862200  MISS:     172339  HIT %:     97.855  MISS %:    2.14498   MPKI: 0.861695
STLB LOAD      ACCESS:          0  HIT:          0  MISS:          0  HIT %:       -nan  MISS %:       -nan   MPKI: 0
STLB RFO       ACCESS:          0  HIT:          0  MISS:          0  HIT %:       -nan  MISS %:       -nan   MPKI: 0
STLB PREFETCH  ACCESS:          0  HIT:          0  MISS:          0  HIT %:       -nan  MISS %:       -nan   MPKI: 0
STLB WRITEBACK ACCESS:          0  HIT:          0  MISS:          0  HIT %:       -nan  MISS %:       -nan   MPKI: 0
L1D TOTAL     ACCESS:   49994454  HIT:   39450887  MISS:   10543567  HIT %:    78.9105  MISS %:    21.0895   MPKI: 52.7178
L1D LOAD      ACCESS:   29706630  HIT:   25549728  MISS:    4156902  HIT %:    86.0068  MISS %:    13.9932   MPKI: 20.7845
L1D RFO       ACCESS:   11171517  HIT:    9885820  MISS:    1285697  HIT %:    88.4913  MISS %:    11.5087   MPKI: 6.42848
L1D PREFETCH  ACCESS:    9116307  HIT:    4015339  MISS:    5100968  HIT %:    44.0457  MISS %:    55.9543   MPKI: 25.5048
L1D WRITEBACK ACCESS:          0  HIT:          0  MISS:          0  HIT %:       -nan  MISS %:       -nan   MPKI: 0
L1I TOTAL     ACCESS:   37004730  HIT:   37003434  MISS:       1296  HIT %:    99.9965  MISS %: 0.00350225   MPKI: 0.00648
L1I LOAD      ACCESS:   37004730  HIT:   37003434  MISS:       1296  HIT %:    99.9965  MISS %: 0.00350225   MPKI: 0.00648
L1I RFO       ACCESS:          0  HIT:          0  MISS:          0  HIT %:       -nan  MISS %:       -nan   MPKI: 0
L1I PREFETCH  ACCESS:          0  HIT:          0  MISS:          0  HIT %:       -nan  MISS %:       -nan   MPKI: 0
L1I WRITEBACK ACCESS:          0  HIT:          0  MISS:          0  HIT %:       -nan  MISS %:       -nan   MPKI: 0
L2C TOTAL     ACCESS:   14001463  HIT:    5793411  MISS:    8208052  HIT %:    41.3772  MISS %:    58.6228   MPKI: 41.0403
L2C LOAD      ACCESS:    3515694  HIT:    1175789  MISS:    2339905  HIT %:     33.444  MISS %:     66.556   MPKI: 11.6995
L2C RFO       ACCESS:    1285475  HIT:     126284  MISS:    1159191  HIT %:    9.82392  MISS %:    90.1761   MPKI: 5.79595
L2C PREFETCH  ACCESS:    5742890  HIT:    1324860  MISS:    4418030  HIT %:    23.0696  MISS %:    76.9304   MPKI: 22.0901
L2C WRITEBACK ACCESS:    3284134  HIT:    3044480  MISS:     239654  HIT %:    92.7027  MISS %:    7.29733   MPKI: 1.19827
PSCL5 TOTAL     ACCESS:     172339  HIT:     172339  MISS:          0  HIT %:        100  MISS %:          0   MPKI: 0
PSCL5 LOAD      ACCESS:          0  HIT:          0  MISS:          0  HIT %:       -nan  MISS %:       -nan   MPKI: 0
PSCL5 RFO       ACCESS:          0  HIT:          0  MISS:          0  HIT %:       -nan  MISS %:       -nan   MPKI: 0
PSCL5 PREFETCH  ACCESS:          0  HIT:          0  MISS:          0  HIT %:       -nan  MISS %:       -nan   MPKI: 0
PSCL5 WRITEBACK ACCESS:          0  HIT:          0  MISS:          0  HIT %:       -nan  MISS %:       -nan   MPKI: 0
PSCL4 TOTAL     ACCESS:     172339  HIT:     172339  MISS:          0  HIT %:        100  MISS %:          0   MPKI: 0
PSCL4 LOAD      ACCESS:          0  HIT:          0  MISS:          0  HIT %:       -nan  MISS %:       -nan   MPKI: 0
PSCL4 RFO       ACCESS:          0  HIT:          0  MISS:          0  HIT %:       -nan  MISS %:       -nan   MPKI: 0
PSCL4 PREFETCH  ACCESS:          0  HIT:          0  MISS:          0  HIT %:       -nan  MISS %:       -nan   MPKI: 0
PSCL4 WRITEBACK ACCESS:          0  HIT:          0  MISS:          0  HIT %:       -nan  MISS %:       -nan   MPKI: 0
PSCL3 TOTAL     ACCESS:     172339  HIT:     172339  MISS:          0  HIT %:        100  MISS %:          0   MPKI: 0
PSCL3 LOAD      ACCESS:          0  HIT:          0  MISS:          0  HIT %:       -nan  MISS %:       -nan   MPKI: 0
PSCL3 RFO       ACCESS:          0  HIT:          0  MISS:          0  HIT %:       -nan  MISS %:       -nan   MPKI: 0
PSCL3 PREFETCH  ACCESS:          0  HIT:          0  MISS:          0  HIT %:       -nan  MISS %:       -nan   MPKI: 0
PSCL3 WRITEBACK ACCESS:          0  HIT:          0  MISS:          0  HIT %:       -nan  MISS %:       -nan   MPKI: 0
PSCL2 TOTAL     ACCESS:     172339  HIT:     171396  MISS:        943  HIT %:    99.4528  MISS %:   0.547177   MPKI: 0.004715
PSCL2 LOAD      ACCESS:          0  HIT:          0  MISS:          0  HIT %:       -nan  MISS %:       -nan   MPKI: 0
PSCL2 RFO       ACCESS:          0  HIT:          0  MISS:          0  HIT %:       -nan  MISS %:       -nan   MPKI: 0
PSCL2 PREFETCH  ACCESS:          0  HIT:          0  MISS:          0  HIT %:       -nan  MISS %:       -nan   MPKI: 0
PSCL2 WRITEBACK ACCESS:          0  HIT:          0  MISS:          0  HIT %:       -nan  MISS %:       -nan   MPKI: 0

stream: 
stream:times selected: 13016479
stream:pref_filled: 3731268
stream:pref_useful: 927274
stream:pref_late: 283653
stream:misses: 747445
stream:misses_by_poll: 0

CS: 
CS:times selected: 3584102
CS:pref_filled: 2453227
CS:pref_useful: 1963602
CS:pref_late: 438718
CS:misses: 1426108
CS:misses_by_poll: 11073

CPLX: 
CPLX:times selected: 9381340
CPLX:pref_filled: 293316
CPLX:pref_useful: 70884
CPLX:pref_late: 23752
CPLX:misses: 3905484
CPLX:misses_by_poll: 534

NL_L1: 
NL:times selected: 80548
NL:pref_filled: 27408
NL:pref_useful: 6760
NL:pref_late: 1121
NL:misses: 41168
NL:misses_by_poll: 3

total selections: 26062469
total_filled: 5100968
total_useful: 2249943
total_late: 755908
total_polluted: 11610
total_misses_after_warmup: 5144530
conflicts: 86701
Degree Incremented Times: 658204
Degree Decremented Times: 2112916

L1 IP Table Write Accesses: 122762926
L1 IP Table Read Accesses: 122676225
L1 RST Write Accesses: 42479476
L1 RST Read Accesses: 84958952
L1 CSPT Write Accesses: 42479476
L1 CSPT Read Accesses: 73180687
L1 RR Filter Tag Write Accesses: 41900482
L1 RR Filter Tag Read Accesses: 2240405458
L1 IP Table Tag Write Accesses: 122939819
L1 IP Table Tag Read Accesses: 122939819
L1 RST Tag Write Accesses: 0
L1 RST Tag Read Accesses: 382259919
L1 RR Filter Write Accesses: 0
L1 RR Filter Read Accesses: 80276646
test: 15417534
LLC TOTAL     ACCESS:   10419273  HIT:    4764665  MISS:    5654608  HIT %:    45.7293  MISS %:    54.2707   MPKI: 28.273
LLC LOAD      ACCESS:    2339868  HIT:     808923  MISS:    1530945  HIT %:    34.5713  MISS %:    65.4287   MPKI: 7.65472
LLC RFO       ACCESS:    1159181  HIT:     261286  MISS:     897895  HIT %:    22.5406  MISS %:    77.4594   MPKI: 4.48947
LLC PREFETCH  ACCESS:    4418019  HIT:    1309685  MISS:    3108334  HIT %:    29.6442  MISS %:    70.3558   MPKI: 15.5417
LLC WRITEBACK ACCESS:    2450933  HIT:    2366155  MISS:      84778  HIT %:     96.541  MISS %:    3.45901   MPKI: 0.42389

RAW hits: 1342399
Loads Generated: 56823731
Loads sent to L1D: 55481330
Stores Generated: 15279239
Stores sent to L1D: 15279235

CPU 2 cumulative IPC: 0.265729 instructions: 200041979 cycles: 752805460
ITLB TOTAL     ACCESS:   33792050  HIT:   33792038  MISS:         12  HIT %:        100  MISS %: 3.55113e-05   MPKI: 5.99874e-05
ITLB LOAD      ACCESS:          0  HIT:          0  MISS:          0  HIT %:       -nan  MISS %:       -nan   MPKI: 0
ITLB RFO       ACCESS:          0  HIT:          0  MISS:          0  HIT %:       -nan  MISS %:       -nan   MPKI: 0
ITLB PREFETCH  ACCESS:          0  HIT:          0  MISS:          0  HIT %:       -nan  MISS %:       -nan   MPKI: 0
ITLB WRITEBACK ACCESS:          0  HIT:          0  MISS:          0  HIT %:       -nan  MISS %:       -nan   MPKI: 0
DTLB TOTAL     ACCESS:   39925374  HIT:   38818759  MISS:    1106615  HIT %:    97.2283  MISS %:    2.77171   MPKI: 5.53191
DTLB LOAD      ACCESS:          0  HIT:          0  MISS:          0  HIT %:       -nan  MISS %:       -nan   MPKI: 0
DTLB RFO       ACCESS:          0  HIT:          0  MISS:          0  HIT %:       -nan  MISS %:       -nan   MPKI: 0
DTLB PREFETCH  ACCESS:          0  HIT:          0  MISS:          0  HIT %:       -nan  MISS %:       -nan   MPKI: 0
DTLB WRITEBACK ACCESS:          0  HIT:          0  MISS:          0  HIT %:       -nan  MISS %:       -nan   MPKI: 0
STLB TOTAL     ACCESS:    8044717  HIT:    7872299  MISS:     172418  HIT %:    97.8568  MISS %:    2.14325   MPKI: 0.861909
STLB LOAD      ACCESS:          0  HIT:          0  MISS:          0  HIT %:       -nan  MISS %:       -nan   MPKI: 0
STLB RFO       ACCESS:          0  HIT:          0  MISS:          0  HIT %:       -nan  MISS %:       -nan   MPKI: 0
STLB PREFETCH  ACCESS:          0  HIT:          0  MISS:          0  HIT %:       -nan  MISS %:       -nan   MPKI: 0
STLB WRITEBACK ACCESS:          0  HIT:          0  MISS:          0  HIT %:       -nan  MISS %:       -nan   MPKI: 0
L1D TOTAL     ACCESS:   49995128  HIT:   39448983  MISS:   10546145  HIT %:    78.9057  MISS %:    21.0943   MPKI: 52.7197
L1D LOAD      ACCESS:   29704527  HIT:   25545026  MISS:    4159501  HIT %:    85.9971  MISS %:    14.0029   MPKI: 20.7931
L1D RFO       ACCESS:   11164850  HIT:    9879101  MISS:    1285749  HIT %:     88.484  MISS %:     11.516   MPKI: 6.4274
L1D PREFETCH  ACCESS:    9125751  HIT:    4024856  MISS:    5100895  HIT %:    44.1044  MISS %:    55.8956   MPKI: 25.4991
L1D WRITEBACK ACCESS:          0  HIT:          0  MISS:          0  HIT %:       -nan  MISS %:       -nan   MPKI: 0
L1I TOTAL     ACCESS:   37016863  HIT:   37015566  MISS:       1297  HIT %:    99.9965  MISS %: 0.00350381   MPKI: 0.00648364
L1I LOAD      ACCESS:   37016863  HIT:   37015566  MISS:       1297  HIT %:    99.9965  MISS %: 0.00350381   MPKI: 0.00648364
L1I RFO       ACCESS:          0  HIT:          0  MISS:          0  HIT %:       -nan  MISS %:       -nan   MPKI: 0
L1I PREFETCH  ACCESS:          0  HIT:          0  MISS:          0  HIT %:       -nan  MISS %:       -nan   MPKI: 0
L1I WRITEBACK ACCESS:          0  HIT:          0  MISS:          0  HIT %:       -nan  MISS %:       -nan   MPKI: 0
L2C TOTAL     ACCESS:   14004377  HIT:    5753952  MISS:    8250425  HIT %:    41.0868  MISS %:    58.9132   MPKI: 41.2435
L2C LOAD      ACCESS:    3516075  HIT:    1160408  MISS:    2355667  HIT %:    33.0029  MISS %:    66.9971   MPKI: 11.7759
L2C RFO       ACCESS:    1285516  HIT:     123326  MISS:    1162190  HIT %:     9.5935  MISS %:    90.4065   MPKI: 5.80973
L2C PREFETCH  ACCESS:    5745085  HIT:    1305847  MISS:    4439238  HIT %:    22.7298  MISS %:    77.2702   MPKI: 22.1915
L2C WRITEBACK ACCESS:    3284353  HIT:    3042294  MISS:     242059  HIT %:    92.6299  MISS %:    7.37007   MPKI: 1.21004
PSCL5 TOTAL     ACCESS:     172418  HIT:     172418  MISS:          0  HIT %:        100  MISS %:          0   MPKI: 0
PSCL5 LOAD      ACCESS:          0  HIT:          0  MISS:          0  HIT %:       -nan  MISS %:       -nan   MPKI: 0
PSCL5 RFO       ACCESS:          0  HIT:          0  MISS:          0  HIT %:       -nan  MISS %:       -nan   MPKI: 0
PSCL5 PREFETCH  ACCESS:          0  HIT:          0  MISS:          0  HIT %:       -nan  MISS %:       -nan   MPKI: 0
PSCL5 WRITEBACK ACCESS:          0  HIT:          0  MISS:          0  HIT %:       -nan  MISS %:       -nan   MPKI: 0
PSCL4 TOTAL     ACCESS:     172418  HIT:     172418  MISS:          0  HIT %:        100  MISS %:          0   MPKI: 0
PSCL4 LOAD      ACCESS:          0  HIT:          0  MISS:          0  HIT %:       -nan  MISS %:       -nan   MPKI: 0
PSCL4 RFO       ACCESS:          0  HIT:          0  MISS:          0  HIT %:       -nan  MISS %:       -nan   MPKI: 0
PSCL4 PREFETCH  ACCESS:          0  HIT:          0  MISS:          0  HIT %:       -nan  MISS %:       -nan   MPKI: 0
PSCL4 WRITEBACK ACCESS:          0  HIT:          0  MISS:          0  HIT %:       -nan  MISS %:       -nan   MPKI: 0
PSCL3 TOTAL     ACCESS:     172418  HIT:     172418  MISS:          0  HIT %:        100  MISS %:          0   MPKI: 0
PSCL3 LOAD      ACCESS:          0  HIT:          0  MISS:          0  HIT %:       -nan  MISS %:       -nan   MPKI: 0
PSCL3 RFO       ACCESS:          0  HIT:          0  MISS:          0  HIT %:       -nan  MISS %:       -nan   MPKI: 0
PSCL3 PREFETCH  ACCESS:          0  HIT:          0  MISS:          0  HIT %:       -nan  MISS %:       -nan   MPKI: 0
PSCL3 WRITEBACK ACCESS:          0  HIT:          0  MISS:          0  HIT %:       -nan  MISS %:       -nan   MPKI: 0
PSCL2 TOTAL     ACCESS:     172418  HIT:     171476  MISS:        942  HIT %:    99.4537  MISS %:   0.546347   MPKI: 0.00470901
PSCL2 LOAD      ACCESS:          0  HIT:          0  MISS:          0  HIT %:       -nan  MISS %:       -nan   MPKI: 0
PSCL2 RFO       ACCESS:          0  HIT:          0  MISS:          0  HIT %:       -nan  MISS %:       -nan   MPKI: 0
PSCL2 PREFETCH  ACCESS:          0  HIT:          0  MISS:          0  HIT %:       -nan  MISS %:       -nan   MPKI: 0
PSCL2 WRITEBACK ACCESS:          0  HIT:          0  MISS:          0  HIT %:       -nan  MISS %:       -nan   MPKI: 0

stream: 
stream:times selected: 13016235
stream:pref_filled: 3724654
stream:pref_useful: 924556
stream:pref_late: 284701
stream:misses: 747896
stream:misses_by_poll: 0

CS: 
CS:times selected: 3583331
CS:pref_filled: 2444513
CS:pref_useful: 1955973
CS:pref_late: 440230
CS:misses: 1433963
CS:misses_by_poll: 11734

CPLX: 
CPLX:times selected: 9381947
CPLX:pref_filled: 293828
CPLX:pref_useful: 70600
CPLX:pref_late: 23245
CPLX:misses: 3910261
CPLX:misses_by_poll: 476

NL_L1: 
NL:times selected: 80340
NL:pref_filled: 27399
NL:pref_useful: 6760
NL:pref_late: 1086
NL:misses: 40922
NL:misses_by_poll: 2

total selections: 26061853
total_filled: 5100895
total_useful: 2249667
total_late: 757847
total_polluted: 12212
total_misses_after_warmup: 5145695
conflicts: 86701
Degree Incremented Times: 658204
Degree Decremented Times: 2112916

L1 IP Table Write Accesses: 122762926
L1 IP Table Read Accesses: 122676225
L1 RST Write Accesses: 42479476
L1 RST Read Accesses: 84958952
L1 CSPT Write Accesses: 42479476
L1 CSPT Read Accesses: 73180687
L1 RR Filter Tag Write Accesses: 41900482
L1 RR Filter Tag Read Accesses: 2240405458
L1 IP Table Tag Write Accesses: 122939819
L1 IP Table Tag Read Accesses: 122939819
L1 RST Tag Write Accesses: 0
L1 RST Tag Read Accesses: 382259919
L1 RR Filter Write Accesses: 0
L1 RR Filter Read Accesses: 80276646
test: 15417534
LLC TOTAL     ACCESS:   10466227  HIT:    4798416  MISS:    5667811  HIT %:    45.8467  MISS %:    54.1533   MPKI: 28.3331
LLC LOAD      ACCESS:    2355646  HIT:     825149  MISS:    1530497  HIT %:    35.0286  MISS %:    64.9714   MPKI: 7.65088
LLC RFO       ACCESS:    1162184  HIT:     259938  MISS:     902246  HIT %:    22.3663  MISS %:    77.6337   MPKI: 4.51028
LLC PREFETCH  ACCESS:    4439211  HIT:    1326154  MISS:    3113057  HIT %:    29.8736  MISS %:    70.1264   MPKI: 15.562
LLC WRITEBACK ACCESS:    2457915  HIT:    2369213  MISS:      88702  HIT %:    96.3912  MISS %:    3.60883   MPKI: 0.443417

RAW hits: 1343801
Loads Generated: 56832481
Loads sent to L1D: 55488679
Stores Generated: 15279803
Stores sent to L1D: 15279803

CPU 3 cumulative IPC: 0.265975 instructions: 200227189 cycles: 752805460
ITLB TOTAL     ACCESS:   33821361  HIT:   33821349  MISS:         12  HIT %:        100  MISS %: 3.54805e-05   MPKI: 5.99319e-05
ITLB LOAD      ACCESS:          0  HIT:          0  MISS:          0  HIT %:       -nan  MISS %:       -nan   MPKI: 0
ITLB RFO       ACCESS:          0  HIT:          0  MISS:          0  HIT %:       -nan  MISS %:       -nan   MPKI: 0
ITLB PREFETCH  ACCESS:          0  HIT:          0  MISS:          0  HIT %:       -nan  MISS %:       -nan   MPKI: 0
ITLB WRITEBACK ACCESS:          0  HIT:          0  MISS:          0  HIT %:       -nan  MISS %:       -nan   MPKI: 0
DTLB TOTAL     ACCESS:   39960104  HIT:   38853608  MISS:    1106496  HIT %:     97.231  MISS %:      2.769   MPKI: 5.5262
DTLB LOAD      ACCESS:          0  HIT:          0  MISS:          0  HIT %:       -nan  MISS %:       -nan   MPKI: 0
DTLB RFO       ACCESS:          0  HIT:          0  MISS:          0  HIT %:       -nan  MISS %:       -nan   MPKI: 0
DTLB PREFETCH  ACCESS:          0  HIT:          0  MISS:          0  HIT %:       -nan  MISS %:       -nan   MPKI: 0
DTLB WRITEBACK ACCESS:          0  HIT:          0  MISS:          0  HIT %:       -nan  MISS %:       -nan   MPKI: 0
STLB TOTAL     ACCESS:    8043402  HIT:    7870961  MISS:     172441  HIT %:    97.8561  MISS %:    2.14388   MPKI: 0.861227
STLB LOAD      ACCESS:          0  HIT:          0  MISS:          0  HIT %:       -nan  MISS %:       -nan   MPKI: 0
STLB RFO       ACCESS:          0  HIT:          0  MISS:          0  HIT %:       -nan  MISS %:       -nan   MPKI: 0
STLB PREFETCH  ACCESS:          0  HIT:          0  MISS:          0  HIT %:       -nan  MISS %:       -nan   MPKI: 0
STLB WRITEBACK ACCESS:          0  HIT:          0  MISS:          0  HIT %:       -nan  MISS %:       -nan   MPKI: 0
L1D TOTAL     ACCESS:   50023432  HIT:   39475075  MISS:   10548357  HIT %:    78.9132  MISS %:    21.0868   MPKI: 52.6819
L1D LOAD      ACCESS:   29731351  HIT:   25571567  MISS:    4159784  HIT %:    86.0088  MISS %:    13.9912   MPKI: 20.7753
L1D RFO       ACCESS:   11167271  HIT:    9881412  MISS:    1285859  HIT %:    88.4855  MISS %:    11.5145   MPKI: 6.422
L1D PREFETCH  ACCESS:    9124810  HIT:    4022096  MISS:    5102714  HIT %:    44.0787  MISS %:    55.9213   MPKI: 25.4846
L1D WRITEBACK ACCESS:          0  HIT:          0  MISS:          0  HIT %:       -nan  MISS %:       -nan   MPKI: 0
L1I TOTAL     ACCESS:   37049024  HIT:   37047727  MISS:       1297  HIT %:    99.9965  MISS %: 0.00350077   MPKI: 0.00647764
L1I LOAD      ACCESS:   37049024  HIT:   37047727  MISS:       1297  HIT %:    99.9965  MISS %: 0.00350077   MPKI: 0.00647764
L1I RFO       ACCESS:          0  HIT:          0  MISS:          0  HIT %:       -nan  MISS %:       -nan   MPKI: 0
L1I PREFETCH  ACCESS:          0  HIT:          0  MISS:          0  HIT %:       -nan  MISS %:       -nan   MPKI: 0
L1I WRITEBACK ACCESS:          0  HIT:          0  MISS:          0  HIT %:       -nan  MISS %:       -nan   MPKI: 0
L2C TOTAL     ACCESS:   14006407  HIT:    5802442  MISS:    8203965  HIT %:    41.4271  MISS %:    58.5729   MPKI: 40.9733
L2C LOAD      ACCESS:    3517169  HIT:    1176587  MISS:    2340582  HIT %:    33.4527  MISS %:    66.5473   MPKI: 11.6896
L2C RFO       ACCESS:    1285624  HIT:     131036  MISS:    1154588  HIT %:    10.1924  MISS %:    89.8076   MPKI: 5.76639
L2C PREFETCH  ACCESS:    5746033  HIT:    1321890  MISS:    4424143  HIT %:    23.0053  MISS %:    76.9947   MPKI: 22.0956
L2C WRITEBACK ACCESS:    3284208  HIT:    3050792  MISS:     233416  HIT %:    92.8928  MISS %:    7.10722   MPKI: 1.16576
PSCL5 TOTAL     ACCESS:     172441  HIT:     172441  MISS:          0  HIT %:        100  MISS %:          0   MPKI: 0
PSCL5 LOAD      ACCESS:          0  HIT:          0  MISS:          0  HIT %:       -nan  MISS %:       -nan   MPKI: 0
PSCL5 RFO       ACCESS:          0  HIT:          0  MISS:          0  HIT %:       -nan  MISS %:       -nan   MPKI: 0
PSCL5 PREFETCH  ACCESS:          0  HIT:          0  MISS:          0  HIT %:       -nan  MISS %:       -nan   MPKI: 0
PSCL5 WRITEBACK ACCESS:          0  HIT:          0  MISS:          0  HIT %:       -nan  MISS %:       -nan   MPKI: 0
PSCL4 TOTAL     ACCESS:     172441  HIT:     172441  MISS:          0  HIT %:        100  MISS %:          0   MPKI: 0
PSCL4 LOAD      ACCESS:          0  HIT:          0  MISS:          0  HIT %:       -nan  MISS %:       -nan   MPKI: 0
PSCL4 RFO       ACCESS:          0  HIT:          0  MISS:          0  HIT %:       -nan  MISS %:       -nan   MPKI: 0
PSCL4 PREFETCH  ACCESS:          0  HIT:          0  MISS:          0  HIT %:       -nan  MISS %:       -nan   MPKI: 0
PSCL4 WRITEBACK ACCESS:          0  HIT:          0  MISS:          0  HIT %:       -nan  MISS %:       -nan   MPKI: 0
PSCL3 TOTAL     ACCESS:     172441  HIT:     172441  MISS:          0  HIT %:        100  MISS %:          0   MPKI: 0
PSCL3 LOAD      ACCESS:          0  HIT:          0  MISS:          0  HIT %:       -nan  MISS %:       -nan   MPKI: 0
PSCL3 RFO       ACCESS:          0  HIT:          0  MISS:          0  HIT %:       -nan  MISS %:       -nan   MPKI: 0
PSCL3 PREFETCH  ACCESS:          0  HIT:          0  MISS:          0  HIT %:       -nan  MISS %:       -nan   MPKI: 0
PSCL3 WRITEBACK ACCESS:          0  HIT:          0  MISS:          0  HIT %:       -nan  MISS %:       -nan   MPKI: 0
PSCL2 TOTAL     ACCESS:     172441  HIT:     171497  MISS:        944  HIT %:    99.4526  MISS %:   0.547434   MPKI: 0.00471464
PSCL2 LOAD      ACCESS:          0  HIT:          0  MISS:          0  HIT %:       -nan  MISS %:       -nan   MPKI: 0
PSCL2 RFO       ACCESS:          0  HIT:          0  MISS:          0  HIT %:       -nan  MISS %:       -nan   MPKI: 0
PSCL2 PREFETCH  ACCESS:          0  HIT:          0  MISS:          0  HIT %:       -nan  MISS %:       -nan   MPKI: 0
PSCL2 WRITEBACK ACCESS:          0  HIT:          0  MISS:          0  HIT %:       -nan  MISS %:       -nan   MPKI: 0

stream: 
stream:times selected: 13018391
stream:pref_filled: 3725851
stream:pref_useful: 924990
stream:pref_late: 284025
stream:misses: 748574
stream:misses_by_poll: 0

CS: 
CS:times selected: 3586324
CS:pref_filled: 2442632
CS:pref_useful: 1953862
CS:pref_late: 439686
CS:misses: 1439817
CS:misses_by_poll: 12819

CPLX: 
CPLX:times selected: 9380976
CPLX:pref_filled: 293881
CPLX:pref_useful: 70931
CPLX:pref_late: 23331
CPLX:misses: 3909918
CPLX:misses_by_poll: 585

NL_L1: 
NL:times selected: 80444
NL:pref_filled: 27299
NL:pref_useful: 6736
NL:pref_late: 1115
NL:misses: 41049
NL:misses_by_poll: 3

total selections: 26066135
total_filled: 5102714
total_useful: 2251602
total_late: 756770
total_polluted: 13407
total_misses_after_warmup: 5147826
conflicts: 86701
Degree Incremented Times: 658204
Degree Decremented Times: 2112916

L1 IP Table Write Accesses: 122762926
L1 IP Table Read Accesses: 122676225
L1 RST Write Accesses: 42479476
L1 RST Read Accesses: 84958952
L1 CSPT Write Accesses: 42479476
L1 CSPT Read Accesses: 73180687
L1 RR Filter Tag Write Accesses: 41900482
L1 RR Filter Tag Read Accesses: 2240405458
L1 IP Table Tag Write Accesses: 122939819
L1 IP Table Tag Read Accesses: 122939819
L1 RST Tag Write Accesses: 0
L1 RST Tag Read Accesses: 382259919
L1 RR Filter Write Accesses: 0
L1 RR Filter Read Accesses: 80276646
test: 15417534
LLC TOTAL     ACCESS:   10412971  HIT:    4757872  MISS:    5655099  HIT %:    45.6918  MISS %:    54.3082   MPKI: 28.2434
LLC LOAD      ACCESS:    2340552  HIT:     811554  MISS:    1528998  HIT %:    34.6736  MISS %:    65.3264   MPKI: 7.63632
LLC RFO       ACCESS:    1154581  HIT:     257620  MISS:     896961  HIT %:    22.3129  MISS %:    77.6871   MPKI: 4.47972
LLC PREFETCH  ACCESS:    4424132  HIT:    1319039  MISS:    3105093  HIT %:    29.8146  MISS %:    70.1854   MPKI: 15.5078
LLC WRITEBACK ACCESS:    2442470  HIT:    2351341  MISS:      91129  HIT %:     96.269  MISS %:    3.73102   MPKI: 0.455128

RAW hits: 1343907
Loads Generated: 56891611
Loads sent to L1D: 55547703
Stores Generated: 15285217
Stores sent to L1D: 15285217

Region of Interest Statistics

CPU 0 cumulative IPC: 0.265913 instructions: 200000000 cycles: 752124621
ITLB TOTAL     ACCESS:   33772928  HIT:   33772916  MISS:         12  HIT %:        100  MISS %: 3.55314e-05   MPKI: 6e-05
ITLB LOAD TRANSLATION ACCESS:   33772928  HIT:   33772916  MISS:         12  HIT %:        100  MISS %: 3.55314e-05   MPKI: 6e-05
ITLB PREFETCH  REQUESTED:          0  ISSUED:          0  USEFUL:          0  USELESS:          0
ITLB USEFUL LOAD PREFETCHES:          0 PREFETCH ISSUED TO LOWER LEVEL:          0  ACCURACY: -nan
ITLB TIMELY PREFETCHES:          0 LATE PREFETCHES: 0 DROPPED PREFETCHES: 0
ITLB PREFETCHES SAME FILL-ORIGIN LEVEL: 0 DIFFERENT FILL-ORIGIN LEVEL: 0
ITLB AVERAGE MISS LATENCY: 641.417 cycles
ITLB RQ	ACCESS:   37067964	FORWARD:          0	MERGED:    3228256	TO_CACHE:   33839708

DTLB TOTAL     ACCESS:   39967330  HIT:   38861018  MISS:    1106312  HIT %:     97.232  MISS %:    2.76804   MPKI: 5.53156
DTLB LOAD TRANSLATION ACCESS:   39967330  HIT:   38861018  MISS:    1106312  HIT %:     97.232  MISS %:    2.76804   MPKI: 5.53156
DTLB PREFETCH  REQUESTED:          0  ISSUED:          0  USEFUL:          0  USELESS:          0
DTLB USEFUL LOAD PREFETCHES:          0 PREFETCH ISSUED TO LOWER LEVEL:          0  ACCURACY: -nan
DTLB TIMELY PREFETCHES:          0 LATE PREFETCHES: 0 DROPPED PREFETCHES: 0
DTLB PREFETCHES SAME FILL-ORIGIN LEVEL: 0 DIFFERENT FILL-ORIGIN LEVEL: 0
DTLB AVERAGE MISS LATENCY: 35.8533 cycles
DTLB RQ	ACCESS:   46018168	FORWARD:          0	MERGED:    5753570	TO_CACHE:   40264598

STLB TOTAL     ACCESS:    8070033  HIT:    7897804  MISS:     172229  HIT %:    97.8658  MISS %:    2.13418   MPKI: 0.861145
STLB LOAD TRANSLATION ACCESS:    1106324  HIT:     934095  MISS:     172229  HIT %:    84.4323  MISS %:    15.5677   MPKI: 0.861145
STLB TRANSLATION FROM L1D PREFETCHER ACCESS:    6963709  HIT:    6963709  MISS:          0  HIT %:        100  MISS %:          0   MPKI: 0
STLB PREFETCH  REQUESTED:          0  ISSUED:          0  USEFUL:          0  USELESS:          0
STLB USEFUL LOAD PREFETCHES:          0 PREFETCH ISSUED TO LOWER LEVEL:          0  ACCURACY: -nan
STLB TIMELY PREFETCHES:          0 LATE PREFETCHES: 0 DROPPED PREFETCHES: 0
STLB PREFETCHES SAME FILL-ORIGIN LEVEL: 0 DIFFERENT FILL-ORIGIN LEVEL: 0
STLB AVERAGE MISS LATENCY: 171.626 cycles
STLB RQ	ACCESS:   11588155	FORWARD:          0	MERGED:    3513362	TO_CACHE:    8074793

STLB Hit, L1D data hit: 0
STLB Hit, L2C data hit: 0
STLB Hit, LLC data hit: 0
STLB Hit, LLC data miss: 0
STLB STLB hints to L2: 0
L1D TOTAL     ACCESS:   50072759  HIT:   39530036  MISS:   10542723  HIT %:    78.9452  MISS %:    21.0548   MPKI: 52.7136
L1D LOAD      ACCESS:   29737443  HIT:   25576427  MISS:    4161016  HIT %:    86.0075  MISS %:    13.9925   MPKI: 20.8051
L1D RFO       ACCESS:   11175631  HIT:    9889961  MISS:    1285670  HIT %:    88.4958  MISS %:    11.5042   MPKI: 6.42835
L1D PREFETCH  ACCESS:    9159685  HIT:    4063648  MISS:    5096037  HIT %:    44.3645  MISS %:    55.6355   MPKI: 25.4802
L1D PREFETCH  REQUESTED:   20984159  ISSUED:   20971614  USEFUL:    2247172  USELESS:    2852793
L1D USEFUL LOAD PREFETCHES:    2247172 PREFETCH ISSUED TO LOWER LEVEL:    5751681  ACCURACY: 39.0698
L1D TIMELY PREFETCHES:    2247172 LATE PREFETCHES: 651801 DROPPED PREFETCHES: 0
L1D PREFETCHES SAME FILL-ORIGIN LEVEL: 5751681 DIFFERENT FILL-ORIGIN LEVEL: 0
L1D AVERAGE MISS LATENCY: 299.224 cycles
L1D RQ	ACCESS:   55626916	FORWARD:          0	MERGED:   24709138	TO_CACHE:   30795768
L1D WQ	ACCESS:   15293045	FORWARD:     122756	MERGED:      70645	TO_CACHE:   15222400
L1D PQ	ACCESS:   10489867	FORWARD:          0	MERGED:       7374	TO_CACHE:   10481747

L1D UNIQUE REGIONS ACCESSED: 0
L1D REGIONS CONFLICTS: 0
L1D Cross Page Prefetch Requests: 0
L1D Same Page Prefetch Requests: 13126078
L1D ROI Sum of L1D PQ occupancy: 196900058
L1D PREFETCHES PUSHED FROM L2C: 0
L1I TOTAL     ACCESS:   36996116  HIT:   36994819  MISS:       1297  HIT %:    99.9965  MISS %: 0.00350577   MPKI: 0.006485
L1I LOAD      ACCESS:   36996116  HIT:   36994819  MISS:       1297  HIT %:    99.9965  MISS %: 0.00350577   MPKI: 0.006485
L1I PREFETCH  REQUESTED:          0  ISSUED:          0  USEFUL:          0  USELESS:          0
L1I USEFUL LOAD PREFETCHES:          0 PREFETCH ISSUED TO LOWER LEVEL:          0  ACCURACY: -nan
L1I TIMELY PREFETCHES:          0 LATE PREFETCHES: 0 DROPPED PREFETCHES: 0
L1I PREFETCHES SAME FILL-ORIGIN LEVEL: 0 DIFFERENT FILL-ORIGIN LEVEL: 0
L1I AVERAGE MISS LATENCY: 547.645 cycles
L1I RQ	ACCESS:   54261881	FORWARD:          0	MERGED:   17193917	TO_CACHE:   37067964

BTB TOTAL     ACCESS:   30907819  HIT:   30905768  MISS:       2051  HIT %:    99.9934  MISS %: 0.00663586   MPKI: 0.010255
BTB BRANCH_DIRECT_JUMP	ACCESS:     749457  HIT:     749307  MISS:        150
BTB BRANCH_INDIRECT	ACCESS:         60  HIT:         53  MISS:          7
BTB BRANCH_CONDITIONAL	ACCESS:   29210244  HIT:   29209824  MISS:        420
BTB BRANCH_DIRECT_CALL	ACCESS:     473691  HIT:     473554  MISS:        137
BTB BRANCH_INDIRECT_CALL	ACCESS:        337  HIT:        312  MISS:         25
BTB BRANCH_RETURN	ACCESS:     474030  HIT:     472718  MISS:       1312
BTB BRANCH_OTHER ACCESS:          0  HIT:          0  MISS:          0

L2C TOTAL     ACCESS:   14000551  HIT:    5856274  MISS:    8144277  HIT %:    41.8289  MISS %:    58.1711   MPKI: 40.7214
L2C LOAD      ACCESS:    3511212  HIT:    1181218  MISS:    2329994  HIT %:    33.6413  MISS %:    66.3587   MPKI: 11.65
L2C DATA LOAD MPKI: 11.6435
L2C INSTRUCTION LOAD MPKI: 0.006485
L2C RFO       ACCESS:    1285461  HIT:     137117  MISS:    1148344  HIT %:    10.6668  MISS %:    89.3332   MPKI: 5.74172
L2C PREFETCH  ACCESS:    5746523  HIT:    1336159  MISS:    4410364  HIT %:    23.2516  MISS %:    76.7484   MPKI: 22.0518
L2C DATA PREFETCH MPKI: 22.0518
L2C INSTRUCTION PREFETCH MPKI: 0
L2C WRITEBACK ACCESS:    3284195  HIT:    3079696  MISS:     204499  HIT %:    93.7732  MISS %:    6.22676   MPKI: 1.02249
L2C LOAD TRANSLATION ACCESS:     173160  HIT:     122084  MISS:      51076  HIT %:    70.5036  MISS %:    29.4964   MPKI: 0.25538
L2C PREFETCH  REQUESTED:          0  ISSUED:          0  USEFUL:     281206  USELESS:    4134449
L2C USEFUL LOAD PREFETCHES:     281206 PREFETCH ISSUED TO LOWER LEVEL:    4414721  ACCURACY: 6.36973
L2C TIMELY PREFETCHES:     281206 LATE PREFETCHES: 0 DROPPED PREFETCHES: 0
L2C PREFETCHES SAME FILL-ORIGIN LEVEL: 0 DIFFERENT FILL-ORIGIN LEVEL: 0
L2C AVERAGE MISS LATENCY: 423.993 cycles
L2C RQ	ACCESS:    4970899	FORWARD:          0	MERGED:          0	TO_CACHE:    4970339
L2C WQ	ACCESS:    3284578	FORWARD:        823	MERGED:          0	TO_CACHE:    3284578
L2C PQ	ACCESS:    5751681	FORWARD:          0	MERGED:          0	TO_CACHE:    5751418

L2C Instructions Evicting Data 1290
L2C Translations Evicting Data 50565
L2C Data Evicting Data 7841462
L2C Instructions Evicting Instructions 0
L2C Translations Evicting Instructions 9
L2C Data Evicting Instructions 1257
L2C Instructions Evicting Translations 7
L2C Translations Evicting Translations 506
L2C Data Evicting Translations 49532
L2C Dense regions hint from L2: 0
PSCL5 TOTAL     ACCESS:     172229  HIT:     172229  MISS:          0  HIT %:        100  MISS %:          0   MPKI: 0
PSCL5 LOAD TRANSLATION ACCESS:     172229  HIT:     172229  MISS:          0  HIT %:        100  MISS %:          0   MPKI: 0
PSCL5 PREFETCH  REQUESTED:          0  ISSUED:          0  USEFUL:          0  USELESS:          0
PSCL5 USEFUL LOAD PREFETCHES:          0 PREFETCH ISSUED TO LOWER LEVEL:          0  ACCURACY: -nan
PSCL5 TIMELY PREFETCHES:          0 LATE PREFETCHES: 0 DROPPED PREFETCHES: 0
PSCL5 PREFETCHES SAME FILL-ORIGIN LEVEL: 0 DIFFERENT FILL-ORIGIN LEVEL: 0

PSCL4 TOTAL     ACCESS:     172229  HIT:     172229  MISS:          0  HIT %:        100  MISS %:          0   MPKI: 0
PSCL4 LOAD TRANSLATION ACCESS:     172229  HIT:     172229  MISS:          0  HIT %:        100  MISS %:          0   MPKI: 0
PSCL4 PREFETCH  REQUESTED:          0  ISSUED:          0  USEFUL:          0  USELESS:          0
PSCL4 USEFUL LOAD PREFETCHES:          0 PREFETCH ISSUED TO LOWER LEVEL:          0  ACCURACY: -nan
PSCL4 TIMELY PREFETCHES:          0 LATE PREFETCHES: 0 DROPPED PREFETCHES: 0
PSCL4 PREFETCHES SAME FILL-ORIGIN LEVEL: 0 DIFFERENT FILL-ORIGIN LEVEL: 0

PSCL3 TOTAL     ACCESS:     172229  HIT:     172229  MISS:          0  HIT %:        100  MISS %:          0   MPKI: 0
PSCL3 LOAD TRANSLATION ACCESS:     172229  HIT:     172229  MISS:          0  HIT %:        100  MISS %:          0   MPKI: 0
PSCL3 PREFETCH  REQUESTED:          0  ISSUED:          0  USEFUL:          0  USELESS:          0
PSCL3 USEFUL LOAD PREFETCHES:          0 PREFETCH ISSUED TO LOWER LEVEL:          0  ACCURACY: -nan
PSCL3 TIMELY PREFETCHES:          0 LATE PREFETCHES: 0 DROPPED PREFETCHES: 0
PSCL3 PREFETCHES SAME FILL-ORIGIN LEVEL: 0 DIFFERENT FILL-ORIGIN LEVEL: 0

PSCL2 TOTAL     ACCESS:     172229  HIT:     171286  MISS:        943  HIT %:    99.4525  MISS %:   0.547527   MPKI: 0.004715
PSCL2 LOAD TRANSLATION ACCESS:     172229  HIT:     171286  MISS:        943  HIT %:    99.4525  MISS %:   0.547527   MPKI: 0.004715
PSCL2 PREFETCH  REQUESTED:          0  ISSUED:          0  USEFUL:          0  USELESS:          0
PSCL2 USEFUL LOAD PREFETCHES:          0 PREFETCH ISSUED TO LOWER LEVEL:          0  ACCURACY: -nan
PSCL2 TIMELY PREFETCHES:          0 LATE PREFETCHES: 0 DROPPED PREFETCHES: 0
PSCL2 PREFETCHES SAME FILL-ORIGIN LEVEL: 0 DIFFERENT FILL-ORIGIN LEVEL: 0

LLC TOTAL     ACCESS:   10383340  HIT:    4646491  MISS:    5736849  HIT %:    44.7495  MISS %:    55.2505   MPKI: 28.6842
LLC LOAD      ACCESS:    2329971  HIT:     790200  MISS:    1539771  HIT %:    33.9146  MISS %:    66.0854   MPKI: 7.69886
LLC RFO       ACCESS:    1148336  HIT:     254694  MISS:     893642  HIT %:    22.1794  MISS %:    77.8206   MPKI: 4.46821
LLC PREFETCH  ACCESS:    4410346  HIT:    1267110  MISS:    3143236  HIT %:    28.7304  MISS %:    71.2696   MPKI: 15.7162
LLC WRITEBACK ACCESS:    2443611  HIT:    2316085  MISS:     127526  HIT %:    94.7812  MISS %:    5.21875   MPKI: 0.63763
LLC LOAD TRANSLATION ACCESS:      51076  HIT:      18402  MISS:      32674  HIT %:    36.0287  MISS %:    63.9713   MPKI: 0.16337
LLC PREFETCH  REQUESTED:          0  ISSUED:          0  USEFUL:     989262  USELESS:   11502486
LLC USEFUL LOAD PREFETCHES:     989262 PREFETCH ISSUED TO LOWER LEVEL:   12548491  ACCURACY: 7.88351
LLC TIMELY PREFETCHES:     989262 LATE PREFETCHES: 0 DROPPED PREFETCHES: 0
LLC PREFETCHES SAME FILL-ORIGIN LEVEL: 0 DIFFERENT FILL-ORIGIN LEVEL: 0
LLC AVERAGE MISS LATENCY: 2326.85 cycles
LLC RQ	ACCESS:   14195802	FORWARD:          0	MERGED:          0	TO_CACHE:   14195660
LLC WQ	ACCESS:    9796105	FORWARD:        209	MERGED:          0	TO_CACHE:    9796105
LLC PQ	ACCESS:   17696116	FORWARD:          0	MERGED:          0	TO_CACHE:   17696049

LLC Dense regions hint to LLC: 0

RAW hits: 1343778
Loads Generated: 56830825
Loads sent to L1D: 55487047
Stores Generated: 15280243
Stores sent to L1D: 15280243
Major fault: 0 Minor fault: 12934
Allocated PAGES: 51736

CPU 1 cumulative IPC: 0.265673 instructions: 200000002 cycles: 752805460
ITLB TOTAL     ACCESS:   33781498  HIT:   33781486  MISS:         12  HIT %:        100  MISS %: 3.55224e-05   MPKI: 6e-05
ITLB LOAD TRANSLATION ACCESS:   33781498  HIT:   33781486  MISS:         12  HIT %:        100  MISS %: 3.55224e-05   MPKI: 6e-05
ITLB PREFETCH  REQUESTED:          0  ISSUED:          0  USEFUL:          0  USELESS:          0
ITLB USEFUL LOAD PREFETCHES:          0 PREFETCH ISSUED TO LOWER LEVEL:          0  ACCURACY: -nan
ITLB TIMELY PREFETCHES:          0 LATE PREFETCHES: 0 DROPPED PREFETCHES: 0
ITLB PREFETCHES SAME FILL-ORIGIN LEVEL: 0 DIFFERENT FILL-ORIGIN LEVEL: 0
ITLB AVERAGE MISS LATENCY: 1127.08 cycles
ITLB RQ	ACCESS:   37005215	FORWARD:          0	MERGED:    3223716	TO_CACHE:   33781499

DTLB TOTAL     ACCESS:   39925101  HIT:   38818823  MISS:    1106278  HIT %:    97.2291  MISS %:    2.77088   MPKI: 5.53139
DTLB LOAD TRANSLATION ACCESS:   39925101  HIT:   38818823  MISS:    1106278  HIT %:    97.2291  MISS %:    2.77088   MPKI: 5.53139
DTLB PREFETCH  REQUESTED:          0  ISSUED:          0  USEFUL:          0  USELESS:          0
DTLB USEFUL LOAD PREFETCHES:          0 PREFETCH ISSUED TO LOWER LEVEL:          0  ACCURACY: -nan
DTLB TIMELY PREFETCHES:          0 LATE PREFETCHES: 0 DROPPED PREFETCHES: 0
DTLB PREFETCHES SAME FILL-ORIGIN LEVEL: 0 DIFFERENT FILL-ORIGIN LEVEL: 0
DTLB AVERAGE MISS LATENCY: 36.9211 cycles
DTLB RQ	ACCESS:   45901884	FORWARD:          0	MERGED:    5744381	TO_CACHE:   40157503

STLB TOTAL     ACCESS:    8034539  HIT:    7862200  MISS:     172339  HIT %:     97.855  MISS %:    2.14498   MPKI: 0.861695
STLB LOAD TRANSLATION ACCESS:    1106290  HIT:     933951  MISS:     172339  HIT %:    84.4219  MISS %:    15.5781   MPKI: 0.861695
STLB TRANSLATION FROM L1D PREFETCHER ACCESS:    6928249  HIT:    6928249  MISS:          0  HIT %:        100  MISS %:          0   MPKI: 0
STLB PREFETCH  REQUESTED:          0  ISSUED:          0  USEFUL:          0  USELESS:          0
STLB USEFUL LOAD PREFETCHES:          0 PREFETCH ISSUED TO LOWER LEVEL:          0  ACCURACY: -nan
STLB TIMELY PREFETCHES:          0 LATE PREFETCHES: 0 DROPPED PREFETCHES: 0
STLB PREFETCHES SAME FILL-ORIGIN LEVEL: 0 DIFFERENT FILL-ORIGIN LEVEL: 0
STLB AVERAGE MISS LATENCY: 178.42 cycles
STLB RQ	ACCESS:   11527262	FORWARD:          0	MERGED:    3492724	TO_CACHE:    8034538

STLB Hit, L1D data hit: 0
STLB Hit, L2C data hit: 0
STLB Hit, LLC data hit: 0
STLB Hit, LLC data miss: 0
STLB STLB hints to L2: 0
L1D TOTAL     ACCESS:   49994454  HIT:   39450887  MISS:   10543567  HIT %:    78.9105  MISS %:    21.0895   MPKI: 52.7178
L1D LOAD      ACCESS:   29706630  HIT:   25549728  MISS:    4156902  HIT %:    86.0068  MISS %:    13.9932   MPKI: 20.7845
L1D RFO       ACCESS:   11171517  HIT:    9885820  MISS:    1285697  HIT %:    88.4913  MISS %:    11.5087   MPKI: 6.42848
L1D PREFETCH  ACCESS:    9116307  HIT:    4015339  MISS:    5100968  HIT %:    44.0457  MISS %:    55.9543   MPKI: 25.5048
L1D PREFETCH  REQUESTED:   20867310  ISSUED:   20848987  USEFUL:    2249943  USELESS:    2851319
L1D USEFUL LOAD PREFETCHES:    2249943 PREFETCH ISSUED TO LOWER LEVEL:    5743126  ACCURACY: 39.1763
L1D TIMELY PREFETCHES:    2249943 LATE PREFETCHES: 642015 DROPPED PREFETCHES: 0
L1D PREFETCHES SAME FILL-ORIGIN LEVEL: 5743126 DIFFERENT FILL-ORIGIN LEVEL: 0
L1D AVERAGE MISS LATENCY: 314.134 cycles
L1D RQ	ACCESS:   55481330	FORWARD:          0	MERGED:   24667007	TO_CACHE:   30692594
L1D WQ	ACCESS:   15279235	FORWARD:     122475	MERGED:      69945	TO_CACHE:   15209290
L1D PQ	ACCESS:   10428015	FORWARD:          0	MERGED:       6297	TO_CACHE:   10420972

L1D UNIQUE REGIONS ACCESSED: 0
L1D REGIONS CONFLICTS: 0
L1D Cross Page Prefetch Requests: 0
L1D Same Page Prefetch Requests: 13044208
L1D ROI Sum of L1D PQ occupancy: 217390088
L1D PREFETCHES PUSHED FROM L2C: 0
L1I TOTAL     ACCESS:   37004730  HIT:   37003434  MISS:       1296  HIT %:    99.9965  MISS %: 0.00350225   MPKI: 0.00648
L1I LOAD      ACCESS:   37004730  HIT:   37003434  MISS:       1296  HIT %:    99.9965  MISS %: 0.00350225   MPKI: 0.00648
L1I PREFETCH  REQUESTED:          0  ISSUED:          0  USEFUL:          0  USELESS:          0
L1I USEFUL LOAD PREFETCHES:          0 PREFETCH ISSUED TO LOWER LEVEL:          0  ACCURACY: -nan
L1I TIMELY PREFETCHES:          0 LATE PREFETCHES: 0 DROPPED PREFETCHES: 0
L1I PREFETCHES SAME FILL-ORIGIN LEVEL: 0 DIFFERENT FILL-ORIGIN LEVEL: 0
L1I AVERAGE MISS LATENCY: 676.735 cycles
L1I RQ	ACCESS:   54116922	FORWARD:          0	MERGED:   17111707	TO_CACHE:   37005215

BTB TOTAL     ACCESS:   30904676  HIT:   30902625  MISS:       2051  HIT %:    99.9934  MISS %: 0.00663654   MPKI: 0.010255
BTB BRANCH_DIRECT_JUMP	ACCESS:     749457  HIT:     749307  MISS:        150
BTB BRANCH_INDIRECT	ACCESS:         60  HIT:         53  MISS:          7
BTB BRANCH_CONDITIONAL	ACCESS:   29207101  HIT:   29206681  MISS:        420
BTB BRANCH_DIRECT_CALL	ACCESS:     473691  HIT:     473554  MISS:        137
BTB BRANCH_INDIRECT_CALL	ACCESS:        337  HIT:        312  MISS:         25
BTB BRANCH_RETURN	ACCESS:     474030  HIT:     472718  MISS:       1312
BTB BRANCH_OTHER ACCESS:          0  HIT:          0  MISS:          0

L2C TOTAL     ACCESS:   14001463  HIT:    5793411  MISS:    8208052  HIT %:    41.3772  MISS %:    58.6228   MPKI: 41.0403
L2C LOAD      ACCESS:    3515694  HIT:    1175789  MISS:    2339905  HIT %:     33.444  MISS %:     66.556   MPKI: 11.6995
L2C DATA LOAD MPKI: 11.693
L2C INSTRUCTION LOAD MPKI: 0.00648
L2C RFO       ACCESS:    1285475  HIT:     126284  MISS:    1159191  HIT %:    9.82392  MISS %:    90.1761   MPKI: 5.79595
L2C PREFETCH  ACCESS:    5742890  HIT:    1324860  MISS:    4418030  HIT %:    23.0696  MISS %:    76.9304   MPKI: 22.0901
L2C DATA PREFETCH MPKI: 22.0901
L2C INSTRUCTION PREFETCH MPKI: 0
L2C WRITEBACK ACCESS:    3284134  HIT:    3044480  MISS:     239654  HIT %:    92.7027  MISS %:    7.29733   MPKI: 1.19827
L2C LOAD TRANSLATION ACCESS:     173270  HIT:     121998  MISS:      51272  HIT %:    70.4092  MISS %:    29.5908   MPKI: 0.25636
L2C PREFETCH  REQUESTED:          0  ISSUED:          0  USEFUL:     281878  USELESS:    4138310
L2C USEFUL LOAD PREFETCHES:     281878 PREFETCH ISSUED TO LOWER LEVEL:    4418027  ACCURACY: 6.38018
L2C TIMELY PREFETCHES:     281878 LATE PREFETCHES: 0 DROPPED PREFETCHES: 0
L2C PREFETCHES SAME FILL-ORIGIN LEVEL: 0 DIFFERENT FILL-ORIGIN LEVEL: 0
L2C AVERAGE MISS LATENCY: 441.298 cycles
L2C RQ	ACCESS:    4975003	FORWARD:          0	MERGED:          0	TO_CACHE:    4974438
L2C WQ	ACCESS:    3284134	FORWARD:        804	MERGED:          0	TO_CACHE:    3284134
L2C PQ	ACCESS:    5743126	FORWARD:          0	MERGED:          0	TO_CACHE:    5742887

L2C Instructions Evicting Data 1289
L2C Translations Evicting Data 50632
L2C Data Evicting Data 7865197
L2C Instructions Evicting Instructions 2
L2C Translations Evicting Instructions 8
L2C Data Evicting Instructions 1246
L2C Instructions Evicting Translations 5
L2C Translations Evicting Translations 632
L2C Data Evicting Translations 49387
L2C Dense regions hint from L2: 0
PSCL5 TOTAL     ACCESS:     172339  HIT:     172339  MISS:          0  HIT %:        100  MISS %:          0   MPKI: 0
PSCL5 LOAD TRANSLATION ACCESS:     172339  HIT:     172339  MISS:          0  HIT %:        100  MISS %:          0   MPKI: 0
PSCL5 PREFETCH  REQUESTED:          0  ISSUED:          0  USEFUL:          0  USELESS:          0
PSCL5 USEFUL LOAD PREFETCHES:          0 PREFETCH ISSUED TO LOWER LEVEL:          0  ACCURACY: -nan
PSCL5 TIMELY PREFETCHES:          0 LATE PREFETCHES: 0 DROPPED PREFETCHES: 0
PSCL5 PREFETCHES SAME FILL-ORIGIN LEVEL: 0 DIFFERENT FILL-ORIGIN LEVEL: 0

PSCL4 TOTAL     ACCESS:     172339  HIT:     172339  MISS:          0  HIT %:        100  MISS %:          0   MPKI: 0
PSCL4 LOAD TRANSLATION ACCESS:     172339  HIT:     172339  MISS:          0  HIT %:        100  MISS %:          0   MPKI: 0
PSCL4 PREFETCH  REQUESTED:          0  ISSUED:          0  USEFUL:          0  USELESS:          0
PSCL4 USEFUL LOAD PREFETCHES:          0 PREFETCH ISSUED TO LOWER LEVEL:          0  ACCURACY: -nan
PSCL4 TIMELY PREFETCHES:          0 LATE PREFETCHES: 0 DROPPED PREFETCHES: 0
PSCL4 PREFETCHES SAME FILL-ORIGIN LEVEL: 0 DIFFERENT FILL-ORIGIN LEVEL: 0

PSCL3 TOTAL     ACCESS:     172339  HIT:     172339  MISS:          0  HIT %:        100  MISS %:          0   MPKI: 0
PSCL3 LOAD TRANSLATION ACCESS:     172339  HIT:     172339  MISS:          0  HIT %:        100  MISS %:          0   MPKI: 0
PSCL3 PREFETCH  REQUESTED:          0  ISSUED:          0  USEFUL:          0  USELESS:          0
PSCL3 USEFUL LOAD PREFETCHES:          0 PREFETCH ISSUED TO LOWER LEVEL:          0  ACCURACY: -nan
PSCL3 TIMELY PREFETCHES:          0 LATE PREFETCHES: 0 DROPPED PREFETCHES: 0
PSCL3 PREFETCHES SAME FILL-ORIGIN LEVEL: 0 DIFFERENT FILL-ORIGIN LEVEL: 0

PSCL2 TOTAL     ACCESS:     172339  HIT:     171396  MISS:        943  HIT %:    99.4528  MISS %:   0.547177   MPKI: 0.004715
PSCL2 LOAD TRANSLATION ACCESS:     172339  HIT:     171396  MISS:        943  HIT %:    99.4528  MISS %:   0.547177   MPKI: 0.004715
PSCL2 PREFETCH  REQUESTED:          0  ISSUED:          0  USEFUL:          0  USELESS:          0
PSCL2 USEFUL LOAD PREFETCHES:          0 PREFETCH ISSUED TO LOWER LEVEL:          0  ACCURACY: -nan
PSCL2 TIMELY PREFETCHES:          0 LATE PREFETCHES: 0 DROPPED PREFETCHES: 0
PSCL2 PREFETCHES SAME FILL-ORIGIN LEVEL: 0 DIFFERENT FILL-ORIGIN LEVEL: 0

LLC TOTAL     ACCESS:   10419273  HIT:    4764665  MISS:    5654608  HIT %:    45.7293  MISS %:    54.2707   MPKI: 28.273
LLC LOAD      ACCESS:    2339868  HIT:     808923  MISS:    1530945  HIT %:    34.5713  MISS %:    65.4287   MPKI: 7.65472
LLC RFO       ACCESS:    1159181  HIT:     261286  MISS:     897895  HIT %:    22.5406  MISS %:    77.4594   MPKI: 4.48947
LLC PREFETCH  ACCESS:    4418019  HIT:    1309685  MISS:    3108334  HIT %:    29.6442  MISS %:    70.3558   MPKI: 15.5417
LLC WRITEBACK ACCESS:    2450933  HIT:    2366155  MISS:      84778  HIT %:     96.541  MISS %:    3.45901   MPKI: 0.42389
LLC LOAD TRANSLATION ACCESS:      51272  HIT:      18616  MISS:      32656  HIT %:    36.3083  MISS %:    63.6917   MPKI: 0.16328
LLC PREFETCH  REQUESTED:          0  ISSUED:          0  USEFUL:     989262  USELESS:   11502486
LLC USEFUL LOAD PREFETCHES:     989262 PREFETCH ISSUED TO LOWER LEVEL:   12548491  ACCURACY: 7.88351
LLC TIMELY PREFETCHES:     989262 LATE PREFETCHES: 0 DROPPED PREFETCHES: 0
LLC PREFETCHES SAME FILL-ORIGIN LEVEL: 0 DIFFERENT FILL-ORIGIN LEVEL: 0
LLC AVERAGE MISS LATENCY: 2360.7 cycles
LLC RQ	ACCESS:   14195802	FORWARD:          0	MERGED:          0	TO_CACHE:   14195660
LLC WQ	ACCESS:    9796105	FORWARD:        209	MERGED:          0	TO_CACHE:    9796105
LLC PQ	ACCESS:   17696116	FORWARD:          0	MERGED:          0	TO_CACHE:   17696049

LLC Dense regions hint to LLC: 0

RAW hits: 1342399
Loads Generated: 56823731
Loads sent to L1D: 55481330
Stores Generated: 15279239
Stores sent to L1D: 15279235
Major fault: 0 Minor fault: 12934
Allocated PAGES: 51736

CPU 2 cumulative IPC: 0.265693 instructions: 200000002 cycles: 752747491
ITLB TOTAL     ACCESS:   33785717  HIT:   33785705  MISS:         12  HIT %:        100  MISS %: 3.5518e-05   MPKI: 6e-05
ITLB LOAD TRANSLATION ACCESS:   33785717  HIT:   33785705  MISS:         12  HIT %:        100  MISS %: 3.5518e-05   MPKI: 6e-05
ITLB PREFETCH  REQUESTED:          0  ISSUED:          0  USEFUL:          0  USELESS:          0
ITLB USEFUL LOAD PREFETCHES:          0 PREFETCH ISSUED TO LOWER LEVEL:          0  ACCURACY: -nan
ITLB TIMELY PREFETCHES:          0 LATE PREFETCHES: 0 DROPPED PREFETCHES: 0
ITLB PREFETCHES SAME FILL-ORIGIN LEVEL: 0 DIFFERENT FILL-ORIGIN LEVEL: 0
ITLB AVERAGE MISS LATENCY: 998.833 cycles
ITLB RQ	ACCESS:   37017349	FORWARD:          0	MERGED:    3225298	TO_CACHE:   33792051

DTLB TOTAL     ACCESS:   39919098  HIT:   38812491  MISS:    1106607  HIT %:    97.2279  MISS %:    2.77212   MPKI: 5.53303
DTLB LOAD TRANSLATION ACCESS:   39919098  HIT:   38812491  MISS:    1106607  HIT %:    97.2279  MISS %:    2.77212   MPKI: 5.53303
DTLB PREFETCH  REQUESTED:          0  ISSUED:          0  USEFUL:          0  USELESS:          0
DTLB USEFUL LOAD PREFETCHES:          0 PREFETCH ISSUED TO LOWER LEVEL:          0  ACCURACY: -nan
DTLB TIMELY PREFETCHES:          0 LATE PREFETCHES: 0 DROPPED PREFETCHES: 0
DTLB PREFETCHES SAME FILL-ORIGIN LEVEL: 0 DIFFERENT FILL-ORIGIN LEVEL: 0
DTLB AVERAGE MISS LATENCY: 37.087 cycles
DTLB RQ	ACCESS:   45900259	FORWARD:          0	MERGED:    5742826	TO_CACHE:   40157433

STLB TOTAL     ACCESS:    8044258  HIT:    7871842  MISS:     172416  HIT %:    97.8567  MISS %:    2.14334   MPKI: 0.86208
STLB LOAD TRANSLATION ACCESS:    1106619  HIT:     934203  MISS:     172416  HIT %:    84.4196  MISS %:    15.5804   MPKI: 0.86208
STLB TRANSLATION FROM L1D PREFETCHER ACCESS:    6937639  HIT:    6937639  MISS:          0  HIT %:        100  MISS %:          0   MPKI: 0
STLB PREFETCH  REQUESTED:          0  ISSUED:          0  USEFUL:          0  USELESS:          0
STLB USEFUL LOAD PREFETCHES:          0 PREFETCH ISSUED TO LOWER LEVEL:          0  ACCURACY: -nan
STLB TIMELY PREFETCHES:          0 LATE PREFETCHES: 0 DROPPED PREFETCHES: 0
STLB PREFETCHES SAME FILL-ORIGIN LEVEL: 0 DIFFERENT FILL-ORIGIN LEVEL: 0
STLB AVERAGE MISS LATENCY: 179.446 cycles
STLB RQ	ACCESS:   11539494	FORWARD:          0	MERGED:    3494778	TO_CACHE:    8044716

STLB Hit, L1D data hit: 0
STLB Hit, L2C data hit: 0
STLB Hit, LLC data hit: 0
STLB Hit, LLC data miss: 0
STLB STLB hints to L2: 0
L1D TOTAL     ACCESS:   49988657  HIT:   39443018  MISS:   10545639  HIT %:    78.9039  MISS %:    21.0961   MPKI: 52.7282
L1D LOAD      ACCESS:   29699211  HIT:   25539831  MISS:    4159380  HIT %:     85.995  MISS %:     14.005   MPKI: 20.7969
L1D RFO       ACCESS:   11164049  HIT:    9878332  MISS:    1285717  HIT %:    88.4834  MISS %:    11.5166   MPKI: 6.42858
L1D PREFETCH  ACCESS:    9125397  HIT:    4024855  MISS:    5100542  HIT %:    44.1061  MISS %:    55.8939   MPKI: 25.5027
L1D PREFETCH  REQUESTED:   20890554  ISSUED:   20872586  USEFUL:    2249667  USELESS:    2851472
L1D USEFUL LOAD PREFETCHES:    2249667 PREFETCH ISSUED TO LOWER LEVEL:    5745290  ACCURACY: 39.1567
L1D TIMELY PREFETCHES:    2249667 LATE PREFETCHES: 644245 DROPPED PREFETCHES: 0
L1D PREFETCHES SAME FILL-ORIGIN LEVEL: 5745290 DIFFERENT FILL-ORIGIN LEVEL: 0
L1D AVERAGE MISS LATENCY: 313.266 cycles
L1D RQ	ACCESS:   55488679	FORWARD:          0	MERGED:   24676824	TO_CACHE:   30690435
L1D WQ	ACCESS:   15279803	FORWARD:     122160	MERGED:      69979	TO_CACHE:   15209824
L1D PQ	ACCESS:   10439719	FORWARD:          0	MERGED:       6112	TO_CACHE:   10432867

L1D UNIQUE REGIONS ACCESSED: 0
L1D REGIONS CONFLICTS: 0
L1D Cross Page Prefetch Requests: 0
L1D Same Page Prefetch Requests: 13018805
L1D ROI Sum of L1D PQ occupancy: 216161314
L1D PREFETCHES PUSHED FROM L2C: 0
L1I TOTAL     ACCESS:   37010173  HIT:   37008876  MISS:       1297  HIT %:    99.9965  MISS %: 0.00350444   MPKI: 0.006485
L1I LOAD      ACCESS:   37010173  HIT:   37008876  MISS:       1297  HIT %:    99.9965  MISS %: 0.00350444   MPKI: 0.006485
L1I PREFETCH  REQUESTED:          0  ISSUED:          0  USEFUL:          0  USELESS:          0
L1I USEFUL LOAD PREFETCHES:          0 PREFETCH ISSUED TO LOWER LEVEL:          0  ACCURACY: -nan
L1I TIMELY PREFETCHES:          0 LATE PREFETCHES: 0 DROPPED PREFETCHES: 0
L1I PREFETCHES SAME FILL-ORIGIN LEVEL: 0 DIFFERENT FILL-ORIGIN LEVEL: 0
L1I AVERAGE MISS LATENCY: 652.763 cycles
L1I RQ	ACCESS:   54133738	FORWARD:          0	MERGED:   17116389	TO_CACHE:   37017349

BTB TOTAL     ACCESS:   30902302  HIT:   30900248  MISS:       2054  HIT %:    99.9934  MISS %: 0.00664675   MPKI: 0.01027
BTB BRANCH_DIRECT_JUMP	ACCESS:     749458  HIT:     749307  MISS:        151
BTB BRANCH_INDIRECT	ACCESS:         60  HIT:         53  MISS:          7
BTB BRANCH_CONDITIONAL	ACCESS:   29204726  HIT:   29204304  MISS:        422
BTB BRANCH_DIRECT_CALL	ACCESS:     473691  HIT:     473554  MISS:        137
BTB BRANCH_INDIRECT_CALL	ACCESS:        337  HIT:        312  MISS:         25
BTB BRANCH_RETURN	ACCESS:     474030  HIT:     472718  MISS:       1312
BTB BRANCH_OTHER ACCESS:          0  HIT:          0  MISS:          0

L2C TOTAL     ACCESS:   14003809  HIT:    5753865  MISS:    8249944  HIT %:    41.0879  MISS %:    58.9121   MPKI: 41.2497
L2C LOAD      ACCESS:    3516067  HIT:    1160408  MISS:    2355659  HIT %:     33.003  MISS %:     66.997   MPKI: 11.7783
L2C DATA LOAD MPKI: 11.7718
L2C INSTRUCTION LOAD MPKI: 0.006485
L2C RFO       ACCESS:    1285484  HIT:     123326  MISS:    1162158  HIT %:    9.59374  MISS %:    90.4063   MPKI: 5.81079
L2C PREFETCH  ACCESS:    5744619  HIT:    1305821  MISS:    4438798  HIT %:    22.7312  MISS %:    77.2688   MPKI: 22.194
L2C DATA PREFETCH MPKI: 22.194
L2C INSTRUCTION PREFETCH MPKI: 0
L2C WRITEBACK ACCESS:    3284293  HIT:    3042234  MISS:     242059  HIT %:    92.6298  MISS %:     7.3702   MPKI: 1.21029
L2C LOAD TRANSLATION ACCESS:     173346  HIT:     122076  MISS:      51270  HIT %:    70.4233  MISS %:    29.5767   MPKI: 0.25635
L2C PREFETCH  REQUESTED:          0  ISSUED:          0  USEFUL:     279991  USELESS:    4161299
L2C USEFUL LOAD PREFETCHES:     279991 PREFETCH ISSUED TO LOWER LEVEL:    4439230  ACCURACY: 6.3072
L2C TIMELY PREFETCHES:     279991 LATE PREFETCHES: 0 DROPPED PREFETCHES: 0
L2C PREFETCHES SAME FILL-ORIGIN LEVEL: 0 DIFFERENT FILL-ORIGIN LEVEL: 0
L2C AVERAGE MISS LATENCY: 437.876 cycles
L2C RQ	ACCESS:    4975491	FORWARD:          0	MERGED:          0	TO_CACHE:    4974939
L2C WQ	ACCESS:    3284353	FORWARD:        765	MERGED:          0	TO_CACHE:    3284353
L2C PQ	ACCESS:    5745290	FORWARD:          0	MERGED:          0	TO_CACHE:    5745077

L2C Instructions Evicting Data 1292
L2C Translations Evicting Data 50726
L2C Data Evicting Data 7905173
L2C Instructions Evicting Instructions 1
L2C Translations Evicting Instructions 7
L2C Data Evicting Instructions 1243
L2C Instructions Evicting Translations 4
L2C Translations Evicting Translations 538
L2C Data Evicting Translations 49382
L2C Dense regions hint from L2: 0
PSCL5 TOTAL     ACCESS:     172416  HIT:     172416  MISS:          0  HIT %:        100  MISS %:          0   MPKI: 0
PSCL5 LOAD TRANSLATION ACCESS:     172416  HIT:     172416  MISS:          0  HIT %:        100  MISS %:          0   MPKI: 0
PSCL5 PREFETCH  REQUESTED:          0  ISSUED:          0  USEFUL:          0  USELESS:          0
PSCL5 USEFUL LOAD PREFETCHES:          0 PREFETCH ISSUED TO LOWER LEVEL:          0  ACCURACY: -nan
PSCL5 TIMELY PREFETCHES:          0 LATE PREFETCHES: 0 DROPPED PREFETCHES: 0
PSCL5 PREFETCHES SAME FILL-ORIGIN LEVEL: 0 DIFFERENT FILL-ORIGIN LEVEL: 0

[...]
LLC USEFUL LOAD PREFETCHES:     989262 PREFETCH ISSUED TO LOWER LEVEL:   12548491  ACCURACY: 7.88351
LLC TIMELY PREFETCHES:     989262 LATE PREFETCHES: 0 DROPPED PREFETCHES: 0
LLC PREFETCHES SAME FILL-ORIGIN LEVEL: 0 DIFFERENT FILL-ORIGIN LEVEL: 0
LLC AVERAGE MISS LATENCY: 2355.33 cycles
LLC RQ	ACCESS:   14195802	FORWARD:          0	MERGED:          0	TO_CACHE:   14195660
LLC WQ	ACCESS:    9796105	FORWARD:        209	MERGED:          0	TO_CACHE:    9796105
LLC PQ	ACCESS:   17696116	FORWARD:          0	MERGED:          0	TO_CACHE:   17696049

LLC Dense regions hint to LLC: 0

RAW hits: 1343437
Loads Generated: 56819085
Loads sent to L1D: 55475646
Stores Generated: 15278799
Stores sent to L1D: 15278799
Major fault: 0 Minor fault: 12934
Allocated PAGES: 51736

CPU 3 cumulative IPC: 0.265778 instructions: 200000001 cycles: 752507359
ITLB TOTAL     ACCESS:   33787797  HIT:   33787785  MISS:         12  HIT %:        100  MISS %: 3.55158e-05   MPKI: 6e-05
ITLB LOAD TRANSLATION ACCESS:   33787797  HIT:   33787785  MISS:         12  HIT %:        100  MISS %: 3.55158e-05   MPKI: 6e-05
ITLB PREFETCH  REQUESTED:          0  ISSUED:          0  USEFUL:          0  USELESS:          0
ITLB USEFUL LOAD PREFETCHES:          0 PREFETCH ISSUED TO LOWER LEVEL:          0  ACCURACY: -nan
ITLB TIMELY PREFETCHES:          0 LATE PREFETCHES: 0 DROPPED PREFETCHES: 0
ITLB PREFETCHES SAME FILL-ORIGIN LEVEL: 0 DIFFERENT FILL-ORIGIN LEVEL: 0
ITLB AVERAGE MISS LATENCY: 663.333 cycles
ITLB RQ	ACCESS:   37049502	FORWARD:          0	MERGED:    3228139	TO_CACHE:   33821363

DTLB TOTAL     ACCESS:   39925361  HIT:   38818907  MISS:    1106454  HIT %:    97.2287  MISS %:    2.77131   MPKI: 5.53227
DTLB LOAD TRANSLATION ACCESS:   39925361  HIT:   38818907  MISS:    1106454  HIT %:    97.2287  MISS %:    2.77131   MPKI: 5.53227
DTLB PREFETCH  REQUESTED:          0  ISSUED:          0  USEFUL:          0  USELESS:          0
DTLB USEFUL LOAD PREFETCHES:          0 PREFETCH ISSUED TO LOWER LEVEL:          0  ACCURACY: -nan
DTLB TIMELY PREFETCHES:          0 LATE PREFETCHES: 0 DROPPED PREFETCHES: 0
DTLB PREFETCHES SAME FILL-ORIGIN LEVEL: 0 DIFFERENT FILL-ORIGIN LEVEL: 0
DTLB AVERAGE MISS LATENCY: 36.9419 cycles
DTLB RQ	ACCESS:   45934479	FORWARD:          0	MERGED:    5743993	TO_CACHE:   40190486

STLB TOTAL     ACCESS:    8040994  HIT:    7868557  MISS:     172437  HIT %:    97.8555  MISS %:    2.14447   MPKI: 0.862185
STLB LOAD TRANSLATION ACCESS:    1106466  HIT:     934029  MISS:     172437  HIT %:    84.4155  MISS %:    15.5845   MPKI: 0.862185
STLB TRANSLATION FROM L1D PREFETCHER ACCESS:    6934528  HIT:    6934528  MISS:          0  HIT %:        100  MISS %:          0   MPKI: 0
STLB PREFETCH  REQUESTED:          0  ISSUED:          0  USEFUL:          0  USELESS:          0
STLB USEFUL LOAD PREFETCHES:          0 PREFETCH ISSUED TO LOWER LEVEL:          0  ACCURACY: -nan
STLB TIMELY PREFETCHES:          0 LATE PREFETCHES: 0 DROPPED PREFETCHES: 0
STLB PREFETCHES SAME FILL-ORIGIN LEVEL: 0 DIFFERENT FILL-ORIGIN LEVEL: 0
STLB AVERAGE MISS LATENCY: 178.438 cycles
STLB RQ	ACCESS:   11537885	FORWARD:          0	MERGED:    3494484	TO_CACHE:    8043401

STLB Hit, L1D data hit: 0
STLB Hit, L2C data hit: 0
STLB Hit, LLC data hit: 0
STLB Hit, LLC data miss: 0
STLB STLB hints to L2: 0
L1D TOTAL     ACCESS:   49987412  HIT:   39441772  MISS:   10545640  HIT %:    78.9034  MISS %:    21.0966   MPKI: 52.7282
L1D LOAD      ACCESS:   29702331  HIT:   25543099  MISS:    4159232  HIT %:     85.997  MISS %:     14.003   MPKI: 20.7962
L1D RFO       ACCESS:   11162239  HIT:    9876583  MISS:    1285656  HIT %:    88.4821  MISS %:    11.5179   MPKI: 6.42828
L1D PREFETCH  ACCESS:    9122842  HIT:    4022090  MISS:    5100752  HIT %:    44.0881  MISS %:    55.9119   MPKI: 25.5038
L1D PREFETCH  REQUESTED:   20887621  ISSUED:   20869620  USEFUL:    2251602  USELESS:    2851432
L1D USEFUL LOAD PREFETCHES:    2251602 PREFETCH ISSUED TO LOWER LEVEL:    5746269  ACCURACY: 39.1837
L1D TIMELY PREFETCHES:    2251602 LATE PREFETCHES: 643411 DROPPED PREFETCHES: 0
L1D PREFETCHES SAME FILL-ORIGIN LEVEL: 5746269 DIFFERENT FILL-ORIGIN LEVEL: 0
L1D AVERAGE MISS LATENCY: 313.978 cycles
L1D RQ	ACCESS:   55547703	FORWARD:          0	MERGED:   24706688	TO_CACHE:   30719394
L1D WQ	ACCESS:   15285217	FORWARD:     122359	MERGED:      70132	TO_CACHE:   15215085
L1D PQ	ACCESS:   10438243	FORWARD:          0	MERGED:       6128	TO_CACHE:   10431377

L1D UNIQUE REGIONS ACCESSED: 0
L1D REGIONS CONFLICTS: 0
L1D Cross Page Prefetch Requests: 0
L1D Same Page Prefetch Requests: 13015526
L1D ROI Sum of L1D PQ occupancy: 216289373
L1D PREFETCHES PUSHED FROM L2C: 0
L1I TOTAL     ACCESS:   37013142  HIT:   37011845  MISS:       1297  HIT %:    99.9965  MISS %: 0.00350416   MPKI: 0.006485
L1I LOAD      ACCESS:   37013142  HIT:   37011845  MISS:       1297  HIT %:    99.9965  MISS %: 0.00350416   MPKI: 0.006485
L1I PREFETCH  REQUESTED:          0  ISSUED:          0  USEFUL:          0  USELESS:          0
L1I USEFUL LOAD PREFETCHES:          0 PREFETCH ISSUED TO LOWER LEVEL:          0  ACCURACY: -nan
L1I TIMELY PREFETCHES:          0 LATE PREFETCHES: 0 DROPPED PREFETCHES: 0
L1I PREFETCHES SAME FILL-ORIGIN LEVEL: 0 DIFFERENT FILL-ORIGIN LEVEL: 0
L1I AVERAGE MISS LATENCY: 663.303 cycles
L1I RQ	ACCESS:   54125165	FORWARD:          0	MERGED:   17075663	TO_CACHE:   37049502

BTB TOTAL     ACCESS:   30901764  HIT:   30899707  MISS:       2057  HIT %:    99.9933  MISS %: 0.00665658   MPKI: 0.010285
BTB BRANCH_DIRECT_JUMP	ACCESS:     749458  HIT:     749307  MISS:        151
BTB BRANCH_INDIRECT	ACCESS:         60  HIT:         53  MISS:          7
BTB BRANCH_CONDITIONAL	ACCESS:   29204188  HIT:   29203763  MISS:        425
BTB BRANCH_DIRECT_CALL	ACCESS:     473691  HIT:     473554  MISS:        137
BTB BRANCH_INDIRECT_CALL	ACCESS:        337  HIT:        312  MISS:         25
BTB BRANCH_RETURN	ACCESS:     474030  HIT:     472718  MISS:       1312
BTB BRANCH_OTHER ACCESS:          0  HIT:          0  MISS:          0

L2C TOTAL     ACCESS:   14003463  HIT:    5801925  MISS:    8201538  HIT %:    41.4321  MISS %:    58.5679   MPKI: 41.0077
L2C LOAD      ACCESS:    3517128  HIT:    1176582  MISS:    2340546  HIT %:    33.4529  MISS %:    66.5471   MPKI: 11.7027
L2C DATA LOAD MPKI: 11.6962
L2C INSTRUCTION LOAD MPKI: 0.006485
L2C RFO       ACCESS:    1285421  HIT:     131036  MISS:    1154385  HIT %:     10.194  MISS %:     89.806   MPKI: 5.77192
L2C PREFETCH  ACCESS:    5743560  HIT:    1321600  MISS:    4421960  HIT %:    23.0101  MISS %:    76.9899   MPKI: 22.1098
L2C DATA PREFETCH MPKI: 22.1098
L2C INSTRUCTION PREFETCH MPKI: 0
L2C WRITEBACK ACCESS:    3283985  HIT:    3050573  MISS:     233412  HIT %:    92.8924  MISS %:    7.10758   MPKI: 1.16706
L2C LOAD TRANSLATION ACCESS:     173369  HIT:     122134  MISS:      51235  HIT %:    70.4474  MISS %:    29.5526   MPKI: 0.256175
L2C PREFETCH  REQUESTED:          0  ISSUED:          0  USEFUL:     282467  USELESS:    4143048
L2C USEFUL LOAD PREFETCHES:     282467 PREFETCH ISSUED TO LOWER LEVEL:    4424138  ACCURACY: 6.38468
L2C TIMELY PREFETCHES:     282467 LATE PREFETCHES: 0 DROPPED PREFETCHES: 0
L2C PREFETCHES SAME FILL-ORIGIN LEVEL: 0 DIFFERENT FILL-ORIGIN LEVEL: 0
L2C AVERAGE MISS LATENCY: 441.292 cycles
L2C RQ	ACCESS:    4976752	FORWARD:          0	MERGED:          0	TO_CACHE:    4976165
L2C WQ	ACCESS:    3284208	FORWARD:        828	MERGED:          0	TO_CACHE:    3284208
L2C PQ	ACCESS:    5746269	FORWARD:          0	MERGED:          0	TO_CACHE:    5746028

L2C Instructions Evicting Data 1286
L2C Translations Evicting Data 50659
L2C Data Evicting Data 7867283
L2C Instructions Evicting Instructions 3
L2C Translations Evicting Instructions 3
L2C Data Evicting Instructions 1245
L2C Instructions Evicting Translations 8
L2C Translations Evicting Translations 574
L2C Data Evicting Translations 49488
L2C Dense regions hint from L2: 0
PSCL5 TOTAL     ACCESS:     172437  HIT:     172437  MISS:          0  HIT %:        100  MISS %:          0   MPKI: 0
PSCL5 LOAD TRANSLATION ACCESS:     172437  HIT:     172437  MISS:          0  HIT %:        100  MISS %:          0   MPKI: 0
PSCL5 PREFETCH  REQUESTED:          0  ISSUED:          0  USEFUL:          0  USELESS:          0
PSCL5 USEFUL LOAD PREFETCHES:          0 PREFETCH ISSUED TO LOWER LEVEL:          0  ACCURACY: -nan
PSCL5 TIMELY PREFETCHES:          0 LATE PREFETCHES: 0 DROPPED PREFETCHES: 0
PSCL5 PREFETCHES SAME FILL-ORIGIN LEVEL: 0 DIFFERENT FILL-ORIGIN LEVEL: 0

PSCL4 TOTAL     ACCESS:     172437  HIT:     172437  MISS:          0  HIT %:        100  MISS %:          0   MPKI: 0
PSCL4 LOAD TRANSLATION ACCESS:     172437  HIT:     172437  MISS:          0  HIT %:        100  MISS %:          0   MPKI: 0
PSCL4 PREFETCH  REQUESTED:          0  ISSUED:          0  USEFUL:          0  USELESS:          0
PSCL4 USEFUL LOAD PREFETCHES:          0 PREFETCH ISSUED TO LOWER LEVEL:          0  ACCURACY: -nan
PSCL4 TIMELY PREFETCHES:          0 LATE PREFETCHES: 0 DROPPED PREFETCHES: 0
PSCL4 PREFETCHES SAME FILL-ORIGIN LEVEL: 0 DIFFERENT FILL-ORIGIN LEVEL: 0

PSCL3 TOTAL     ACCESS:     172437  HIT:     172437  MISS:          0  HIT %:        100  MISS %:          0   MPKI: 0
PSCL3 LOAD TRANSLATION ACCESS:     172437  HIT:     172437  MISS:          0  HIT %:        100  MISS %:          0   MPKI: 0
PSCL3 PREFETCH  REQUESTED:          0  ISSUED:          0  USEFUL:          0  USELESS:          0
PSCL3 USEFUL LOAD PREFETCHES:          0 PREFETCH ISSUED TO LOWER LEVEL:          0  ACCURACY: -nan
PSCL3 TIMELY PREFETCHES:          0 LATE PREFETCHES: 0 DROPPED PREFETCHES: 0
PSCL3 PREFETCHES SAME FILL-ORIGIN LEVEL: 0 DIFFERENT FILL-ORIGIN LEVEL: 0

PSCL2 TOTAL     ACCESS:     172437  HIT:     171493  MISS:        944  HIT %:    99.4526  MISS %:   0.547446   MPKI: 0.00472
PSCL2 LOAD TRANSLATION ACCESS:     172437  HIT:     171493  MISS:        944  HIT %:    99.4526  MISS %:   0.547446   MPKI: 0.00472
PSCL2 PREFETCH  REQUESTED:          0  ISSUED:          0  USEFUL:          0  USELESS:          0
PSCL2 USEFUL LOAD PREFETCHES:          0 PREFETCH ISSUED TO LOWER LEVEL:          0  ACCURACY: -nan
PSCL2 TIMELY PREFETCHES:          0 LATE PREFETCHES: 0 DROPPED PREFETCHES: 0
PSCL2 PREFETCHES SAME FILL-ORIGIN LEVEL: 0 DIFFERENT FILL-ORIGIN LEVEL: 0

LLC TOTAL     ACCESS:   10409825  HIT:    4756109  MISS:    5653716  HIT %:    45.6887  MISS %:    54.3113   MPKI: 28.2686
LLC LOAD      ACCESS:    2340516  HIT:     811536  MISS:    1528980  HIT %:    34.6734  MISS %:    65.3266   MPKI: 7.6449
LLC RFO       ACCESS:    1154378  HIT:     257620  MISS:     896758  HIT %:    22.3168  MISS %:    77.6832   MPKI: 4.48379
LLC PREFETCH  ACCESS:    4421949  HIT:    1317979  MISS:    3103970  HIT %:    29.8054  MISS %:    70.1946   MPKI: 15.5198
LLC WRITEBACK ACCESS:    2441747  HIT:    2350656  MISS:      91091  HIT %:    96.2694  MISS %:    3.73057   MPKI: 0.455455
LLC LOAD TRANSLATION ACCESS:      51235  HIT:      18318  MISS:      32917  HIT %:    35.7529  MISS %:    64.2471   MPKI: 0.164585
LLC PREFETCH  REQUESTED:          0  ISSUED:          0  USEFUL:     989262  USELESS:   11502486
LLC USEFUL LOAD PREFETCHES:     989262 PREFETCH ISSUED TO LOWER LEVEL:   12548491  ACCURACY: 7.88351
LLC TIMELY PREFETCHES:     989262 LATE PREFETCHES: 0 DROPPED PREFETCHES: 0
LLC PREFETCHES SAME FILL-ORIGIN LEVEL: 0 DIFFERENT FILL-ORIGIN LEVEL: 0
LLC AVERAGE MISS LATENCY: 2361.07 cycles
LLC RQ	ACCESS:   14195802	FORWARD:          0	MERGED:          0	TO_CACHE:   14195660
LLC WQ	ACCESS:    9796105	FORWARD:        209	MERGED:          0	TO_CACHE:    9796105
LLC PQ	ACCESS:   17696116	FORWARD:          0	MERGED:          0	TO_CACHE:   17696049

LLC Dense regions hint to LLC: 0

RAW hits: 1341153
Loads Generated: 56818273
Loads sent to L1D: 55477117
Stores Generated: 15278735
Stores sent to L1D: 15278735
Major fault: 0 Minor fault: 12934
Allocated PAGES: 51736

stream: 
stream:times selected: 13027374
stream:pref_filled: 3735601
stream:pref_useful: 928972
stream:pref_late: 282965
stream:misses: 747520
stream:misses_by_poll: 0

CS: 
CS:times selected: 3597732
CS:pref_filled: 2451856
CS:pref_useful: 1961956
CS:pref_late: 448935
CS:misses: 1447053
CS:misses_by_poll: 12244

CPLX: 
CPLX:times selected: 9378711
CPLX:pref_filled: 294483
CPLX:pref_useful: 71059
CPLX:pref_late: 23743
CPLX:misses: 3904832
CPLX:misses_by_poll: 502

NL_L1: 
NL:times selected: 80409
NL:pref_filled: 27409
NL:pref_useful: 6763
NL:pref_late: 1068
NL:misses: 40987
NL:misses_by_poll: 1

total selections: 26084226
total_filled: 5099748
total_useful: 2247172
total_late: 765335
total_polluted: 12747
total_misses_after_warmup: 5167863
conflicts: 86701
Degree Incremented Times: 658204
Degree Decremented Times: 2112916

L1 IP Table Write Accesses: 122762926
L1 IP Table Read Accesses: 122676225
L1 RST Write Accesses: 42479476
L1 RST Read Accesses: 84958952
L1 CSPT Write Accesses: 42479476
L1 CSPT Read Accesses: 73180687
L1 RR Filter Tag Write Accesses: 41900482
L1 RR Filter Tag Read Accesses: 2240405458
L1 IP Table Tag Write Accesses: 122939819
L1 IP Table Tag Read Accesses: 122939819
L1 RST Tag Write Accesses: 0
L1 RST Tag Read Accesses: 382259919
L1 RR Filter Write Accesses: 0
L1 RR Filter Read Accesses: 80276646
test: 15417534

stream: 
stream:times selected: 13016479
stream:pref_filled: 3731268
stream:pref_useful: 927274
stream:pref_late: 283653
stream:misses: 747445
stream:misses_by_poll: 0

CS: 
CS:times selected: 3584102
CS:pref_filled: 2453227
CS:pref_useful: 1963602
CS:pref_late: 438718
CS:misses: 1426108
CS:misses_by_poll: 11073

CPLX: 
CPLX:times selected: 9381340
CPLX:pref_filled: 293316
CPLX:pref_useful: 70884
CPLX:pref_late: 23752
CPLX:misses: 3905484
CPLX:misses_by_poll: 534

NL_L1: 
NL:times selected: 80548
NL:pref_filled: 27408
NL:pref_useful: 6760
NL:pref_late: 1121
NL:misses: 41168
NL:misses_by_poll: 3

total selections: 26062469
total_filled: 5100968
total_useful: 2249943
total_late: 755908
total_polluted: 11610
total_misses_after_warmup: 5144530
conflicts: 86701
Degree Incremented Times: 658204
Degree Decremented Times: 2112916

L1 IP Table Write Accesses: 122762926
L1 IP Table Read Accesses: 122676225
L1 RST Write Accesses: 42479476
L1 RST Read Accesses: 84958952
L1 CSPT Write Accesses: 42479476
L1 CSPT Read Accesses: 73180687
L1 RR Filter Tag Write Accesses: 41900482
L1 RR Filter Tag Read Accesses: 2240405458
L1 IP Table Tag Write Accesses: 122939819
L1 IP Table Tag Read Accesses: 122939819
L1 RST Tag Write Accesses: 0
L1 RST Tag Read Accesses: 382259919
L1 RR Filter Write Accesses: 0
L1 RR Filter Read Accesses: 80276646
test: 15417534

stream: 
stream:times selected: 13016235
stream:pref_filled: 3724654
stream:pref_useful: 924556
stream:pref_late: 284701
stream:misses: 747896
stream:misses_by_poll: 0

CS: 
CS:times selected: 3583331
CS:pref_filled: 2444513
CS:pref_useful: 1955973
CS:pref_late: 440230
CS:misses: 1433963
CS:misses_by_poll: 11734

CPLX: 
CPLX:times selected: 9381947
CPLX:pref_filled: 293828
CPLX:pref_useful: 70600
CPLX:pref_late: 23245
CPLX:misses: 3910261
CPLX:misses_by_poll: 476

NL_L1: 
NL:times selected: 80340
NL:pref_filled: 27399
NL:pref_useful: 6760
NL:pref_late: 1086
NL:misses: 40922
NL:misses_by_poll: 2

total selections: 26061853
total_filled: 5100895
total_useful: 2249667
total_late: 757847
total_polluted: 12212
total_misses_after_warmup: 5145695
conflicts: 86701
Degree Incremented Times: 658204
Degree Decremented Times: 2112916

L1 IP Table Write Accesses: 122762926
L1 IP Table Read Accesses: 122676225
L1 RST Write Accesses: 42479476
L1 RST Read Accesses: 84958952
L1 CSPT Write Accesses: 42479476
L1 CSPT Read Accesses: 73180687
L1 RR Filter Tag Write Accesses: 41900482
L1 RR Filter Tag Read Accesses: 2240405458
L1 IP Table Tag Write Accesses: 122939819
L1 IP Table Tag Read Accesses: 122939819
L1 RST Tag Write Accesses: 0
L1 RST Tag Read Accesses: 382259919
L1 RR Filter Write Accesses: 0
L1 RR Filter Read Accesses: 80276646
test: 15417534

stream: 
stream:times selected: 13018391
stream:pref_filled: 3725851
stream:pref_useful: 924990
stream:pref_late: 284025
stream:misses: 748574
stream:misses_by_poll: 0

CS: 
CS:times selected: 3586324
CS:pref_filled: 2442632
CS:pref_useful: 1953862
CS:pref_late: 439686
CS:misses: 1439817
CS:misses_by_poll: 12819

CPLX: 
CPLX:times selected: 9380976
CPLX:pref_filled: 293881
CPLX:pref_useful: 70931
CPLX:pref_late: 23331
CPLX:misses: 3909918
CPLX:misses_by_poll: 585

NL_L1: 
NL:times selected: 80444
NL:pref_filled: 27299
NL:pref_useful: 6736
NL:pref_late: 1115
NL:misses: 41049
NL:misses_by_poll: 3

total selections: 26066135
total_filled: 5102714
total_useful: 2251602
total_late: 756770
total_polluted: 13407
total_misses_after_warmup: 5147826
conflicts: 86701
Degree Incremented Times: 658204
Degree Decremented Times: 2112916

L1 IP Table Write Accesses: 122762926
L1 IP Table Read Accesses: 122676225
L1 RST Write Accesses: 42479476
L1 RST Read Accesses: 84958952
L1 CSPT Write Accesses: 42479476
L1 CSPT Read Accesses: 73180687
L1 RR Filter Tag Write Accesses: 41900482
L1 RR Filter Tag Read Accesses: 2240405458
L1 IP Table Tag Write Accesses: 122939819
L1 IP Table Tag Read Accesses: 122939819
L1 RST Tag Write Accesses: 0
L1 RST Tag Read Accesses: 382259919
L1 RR Filter Write Accesses: 0
L1 RR Filter Read Accesses: 80276646
test: 15417534

DRAM Statistics
 CHANNEL 0
 RQ ROW_BUFFER_HIT:    3809485  ROW_BUFFER_MISS:   18509325
 DBUS_CONGESTED:        112
 WQ ROW_BUFFER_HIT:     491151  ROW_BUFFER_MISS:    6216387  FULL:        232

 AVG_CONGESTED_CYCLE: 5
 All warmup complete: 5
Channel 0 Bank busy for read cycles: 0
Channel 0 Bank busy for write cycles: 0
Channel 0
Rank 0
0banks busy for read cycles: 4093647
0banks busy for write cycles: 16646
1banks busy for read cycles: 27438008
1banks busy for write cycles: 2955662
2banks busy for read cycles: 35014101
2banks busy for write cycles: 2565534
3banks busy for read cycles: 41551346
3banks busy for write cycles: 2316602
4banks busy for read cycles: 49910456
4banks busy for write cycles: 2231966
5banks busy for read cycles: 59433724
5banks busy for write cycles: 2322881
6banks busy for read cycles: 72659711
6banks busy for write cycles: 4280693
7banks busy for read cycles: 99103311
7banks busy for write cycles: 29043997
8banks busy for read cycles: 167564949
8banks busy for write cycles: 150302227

CPU 0 Branch Prediction Accuracy: 94.6812% MPKI: 10.375 Average ROB Occupancy at Mispredict: 43.873
Branch types
NOT_BRANCH: 161336822 80.4869%
BRANCH_DIRECT_JUMP: 749457 0.373885%
BRANCH_INDIRECT: 60 2.99325e-05%
BRANCH_CONDITIONAL: 37416621 18.6662%
BRANCH_DIRECT_CALL: 473691 0.236313%
BRANCH_INDIRECT_CALL: 337 0.000168121%
BRANCH_RETURN: 474030 0.236482%
BRANCH_OTHER: 0 0%


CPU 1 Branch Prediction Accuracy: 94.6718% MPKI: 10.3838 Average ROB Occupancy at Mispredict: 43.6366
Branch types
NOT_BRANCH: 161017024 80.5085%
BRANCH_DIRECT_JUMP: 749457 0.374728%
BRANCH_INDIRECT: 60 3e-05%
BRANCH_CONDITIONAL: 37285389 18.6427%
BRANCH_DIRECT_CALL: 473691 0.236845%
BRANCH_INDIRECT_CALL: 337 0.0001685%
BRANCH_RETURN: 474030 0.237015%
BRANCH_OTHER: 0 0%


CPU 2 Branch Prediction Accuracy: 94.6723% MPKI: 10.3843 Average ROB Occupancy at Mispredict: 43.6958
Branch types
NOT_BRANCH: 161050521 80.5084%
BRANCH_DIRECT_JUMP: 749458 0.37465%
BRANCH_INDIRECT: 60 2.99937e-05%
BRANCH_CONDITIONAL: 37293822 18.643%
BRANCH_DIRECT_CALL: 473691 0.236796%
BRANCH_INDIRECT_CALL: 337 0.000168465%
BRANCH_RETURN: 474030 0.236965%
BRANCH_OTHER: 0 0%


CPU 3 Branch Prediction Accuracy: 94.6757% MPKI: 10.3819 Average ROB Occupancy at Mispredict: 43.6631
Branch types
NOT_BRANCH: 161184419 80.5008%
BRANCH_DIRECT_JUMP: 749458 0.374304%
BRANCH_INDIRECT: 60 2.9966e-05%
BRANCH_CONDITIONAL: 37344848 18.6512%
BRANCH_DIRECT_CALL: 473691 0.236577%
BRANCH_INDIRECT_CALL: 337 0.000168309%
BRANCH_RETURN: 474030 0.236746%
BRANCH_OTHER: 0 0%

DRAM PAGES: 1048576
Allocated PAGES: 51736
