
*** ChampSim Multicore Out-of-Order Simulator ***

Warmup Instructions: 50000000
Simulation Instructions: 200000000
Number of CPUs: 4
LLC sets: 8192
LLC ways: 16
Off-chip DRAM Size: 4096 MB Channels: 1 Width: 64-bit Data Rate: 6400 MT/s
CPU 0 runs ./traces/gap/bc-0.trace.gz
.gz
CPU 1 runs ./traces/spec/437.leslie3d-273B.champsimtrace.xz
.xz
CPU 2 runs ./traces/ligra/ligra_BC.com-lj.ungraph.gcc_6.3.0_O3.drop_5000M.length_250M.champsimtrace.xz
.xz
CPU 3 runs ./traces/ligra/ligra_MIS.com-lj.ungraph.gcc_6.3.0_O3.drop_21250M.length_250M.champsimtrace.xz
.xz
BTB has LRU replacement policy
ITLB has LRU replacement policy
DTLB has LRU replacement policy
STLB has LRU replacement policy
L1I has LRU replacement policy
IP Table Entries: 1024
CSPT Entries: 128
RR_ENTRIES: 32
RST_ENTRIES: 8
L1D has LRU replacement policy
Initialize SRRIP state for L2C
Initialize DRRIP state for LLC
BTB has LRU replacement policy
ITLB has LRU replacement policy
DTLB has LRU replacement policy
STLB has LRU replacement policy
L1I has LRU replacement policy
IP Table Entries: 1024
CSPT Entries: 128
RR_ENTRIES: 32
RST_ENTRIES: 8
L1D has LRU replacement policy
Initialize SRRIP state for L2C
Initialize DRRIP state for LLC
BTB has LRU replacement policy
ITLB has LRU replacement policy
DTLB has LRU replacement policy
STLB has LRU replacement policy
L1I has LRU replacement policy
IP Table Entries: 1024
CSPT Entries: 128
RR_ENTRIES: 32
RST_ENTRIES: 8
L1D has LRU replacement policy
Initialize SRRIP state for L2C
Initialize DRRIP state for LLC
BTB has LRU replacement policy
ITLB has LRU replacement policy
DTLB has LRU replacement policy
STLB has LRU replacement policy
L1I has LRU replacement policy
IP Table Entries: 1024
CSPT Entries: 128
RR_ENTRIES: 32
RST_ENTRIES: 8
L1D has LRU replacement policy
Initialize SRRIP state for L2C
Initialize DRRIP state for LLC
Heartbeat CPU 3 instructions: 10000001 cycles: 2941173 heartbeat IPC: 3.4 cumulative IPC: 3.4 (Simulation time: 0 hr 4 min 19 sec) 
Heartbeat CPU 1 instructions: 10000003 cycles: 3206404 heartbeat IPC: 3.11876 cumulative IPC: 3.11876 (Simulation time: 0 hr 4 min 42 sec) 
Heartbeat CPU 0 instructions: 10000002 cycles: 3478742 heartbeat IPC: 2.8746 cumulative IPC: 2.8746 (Simulation time: 0 hr 5 min 7 sec) 
Heartbeat CPU 2 instructions: 10000000 cycles: 3795150 heartbeat IPC: 2.63494 cumulative IPC: 2.63494 (Simulation time: 0 hr 5 min 37 sec) 
Heartbeat CPU 3 instructions: 20000001 cycles: 5882347 heartbeat IPC: 3.4 cumulative IPC: 3.4 (Simulation time: 0 hr 8 min 51 sec) 
Heartbeat CPU 0 instructions: 20000000 cycles: 6400104 heartbeat IPC: 3.42306 cumulative IPC: 3.12495 (Simulation time: 0 hr 9 min 34 sec) 
Heartbeat CPU 1 instructions: 20000000 cycles: 6413319 heartbeat IPC: 3.11826 cumulative IPC: 3.11851 (Simulation time: 0 hr 9 min 35 sec) 
Heartbeat CPU 2 instructions: 20000003 cycles: 7591636 heartbeat IPC: 2.63402 cumulative IPC: 2.63448 (Simulation time: 0 hr 11 min 22 sec) 
Heartbeat CPU 3 instructions: 30000000 cycles: 8823523 heartbeat IPC: 3.4 cumulative IPC: 3.4 (Simulation time: 0 hr 13 min 13 sec) 
Heartbeat CPU 0 instructions: 30000003 cycles: 9312326 heartbeat IPC: 3.43381 cumulative IPC: 3.22154 (Simulation time: 0 hr 13 min 57 sec) 
Heartbeat CPU 1 instructions: 30000000 cycles: 9490040 heartbeat IPC: 3.25021 cumulative IPC: 3.16121 (Simulation time: 0 hr 14 min 12 sec) 
Heartbeat CPU 2 instructions: 30000001 cycles: 11387585 heartbeat IPC: 2.63439 cumulative IPC: 2.63445 (Simulation time: 0 hr 17 min 11 sec) 
Heartbeat CPU 3 instructions: 40000003 cycles: 11764700 heartbeat IPC: 3.4 cumulative IPC: 3.4 (Simulation time: 0 hr 17 min 40 sec) 
Heartbeat CPU 0 instructions: 40000003 cycles: 12220274 heartbeat IPC: 3.43885 cumulative IPC: 3.27325 (Simulation time: 0 hr 18 min 13 sec) 
Heartbeat CPU 1 instructions: 40000003 cycles: 12567150 heartbeat IPC: 3.2498 cumulative IPC: 3.1829 (Simulation time: 0 hr 18 min 34 sec) 
Heartbeat CPU 0 instructions: 50000001 cycles: 15122401 heartbeat IPC: 3.44575 cumulative IPC: 3.30635 (Simulation time: 0 hr 21 min 32 sec) 
Heartbeat CPU 2 instructions: 40000001 cycles: 15185638 heartbeat IPC: 2.63293 cumulative IPC: 2.63407 (Simulation time: 0 hr 21 min 36 sec) 
Heartbeat CPU 3 instructions: 50000001 cycles: 15436007 heartbeat IPC: 2.72382 cumulative IPC: 3.23918 (Simulation time: 0 hr 21 min 52 sec) 
Heartbeat CPU 1 instructions: 50000003 cycles: 15644149 heartbeat IPC: 3.24992 cumulative IPC: 3.19608 (Simulation time: 0 hr 22 min 3 sec) 
Heartbeat CPU 1 instructions: 60000002 cycles: 18721248 heartbeat IPC: 3.24981 cumulative IPC: 0.534153 (Simulation time: 0 hr 24 min 35 sec) 
Heartbeat CPU 2 instructions: 50000002 cycles: 18986299 heartbeat IPC: 2.63112 cumulative IPC: 2.63348 (Simulation time: 0 hr 24 min 48 sec) 

Warmup complete CPU 0 instructions: 56603785 cycles: 18986299 (Simulation time: 0 hr 24 min 48 sec) 
Warmup complete CPU 1 instructions: 60862207 cycles: 18986299 (Simulation time: 0 hr 24 min 48 sec) 
Warmup complete CPU 2 instructions: 50000002 cycles: 18986299 (Simulation time: 0 hr 24 min 48 sec) 
Warmup complete CPU 3 instructions: 59250791 cycles: 18986298 (Simulation time: 0 hr 24 min 48 sec) 

Heartbeat CPU 3 instructions: 60000001 cycles: 19689786 heartbeat IPC: 2.35085 cumulative IPC: 1.06499 (Simulation time: 0 hr 25 min 5 sec) 
Heartbeat CPU 1 instructions: 70000002 cycles: 25160607 heartbeat IPC: 1.55295 cumulative IPC: 1.47997 (Simulation time: 0 hr 27 min 7 sec) 
Heartbeat CPU 2 instructions: 60000002 cycles: 27918388 heartbeat IPC: 1.11956 cumulative IPC: 1.11956 (Simulation time: 0 hr 28 min 8 sec) 
Heartbeat CPU 3 instructions: 70000000 cycles: 29107225 heartbeat IPC: 1.06186 cumulative IPC: 1.06208 (Simulation time: 0 hr 28 min 34 sec) 
Heartbeat CPU 1 instructions: 80000000 cycles: 31919380 heartbeat IPC: 1.47956 cumulative IPC: 1.47976 (Simulation time: 0 hr 29 min 36 sec) 
Heartbeat CPU 2 instructions: 70000000 cycles: 36923098 heartbeat IPC: 1.11053 cumulative IPC: 1.11503 (Simulation time: 0 hr 31 min 13 sec) 
Heartbeat CPU 3 instructions: 80000000 cycles: 38914728 heartbeat IPC: 1.01963 cumulative IPC: 1.04119 (Simulation time: 0 hr 31 min 53 sec) 
Heartbeat CPU 1 instructions: 90000003 cycles: 39778897 heartbeat IPC: 1.27234 cumulative IPC: 1.40135 (Simulation time: 0 hr 32 min 10 sec) 
Heartbeat CPU 2 instructions: 80000000 cycles: 45979408 heartbeat IPC: 1.1042 cumulative IPC: 1.11139 (Simulation time: 0 hr 34 min 19 sec) 
Heartbeat CPU 1 instructions: 100000003 cycles: 47381614 heartbeat IPC: 1.31532 cumulative IPC: 1.37832 (Simulation time: 0 hr 34 min 49 sec) 
Heartbeat CPU 3 instructions: 90000003 cycles: 49245882 heartbeat IPC: 0.967946 cumulative IPC: 1.01618 (Simulation time: 0 hr 35 min 27 sec) 
Heartbeat CPU 0 instructions: 60000003 cycles: 53419554 heartbeat IPC: 0.261116 cumulative IPC: 0.0986319 (Simulation time: 0 hr 36 min 44 sec) 
Heartbeat CPU 1 instructions: 110000000 cycles: 54983778 heartbeat IPC: 1.31541 cumulative IPC: 1.36503 (Simulation time: 0 hr 37 min 11 sec) 
Heartbeat CPU 2 instructions: 90000001 cycles: 55075246 heartbeat IPC: 1.0994 cumulative IPC: 1.10837 (Simulation time: 0 hr 37 min 12 sec) 
Heartbeat CPU 3 instructions: 100000001 cycles: 59987994 heartbeat IPC: 0.930915 cumulative IPC: 0.993842 (Simulation time: 0 hr 38 min 39 sec) 
Heartbeat CPU 1 instructions: 120000003 cycles: 62060133 heartbeat IPC: 1.41316 cumulative IPC: 1.37294 (Simulation time: 0 hr 39 min 15 sec) 
Heartbeat CPU 2 instructions: 100000002 cycles: 64165496 heartbeat IPC: 1.10008 cumulative IPC: 1.1067 (Simulation time: 0 hr 39 min 54 sec) 
Heartbeat CPU 1 instructions: 130000000 cycles: 69118547 heartbeat IPC: 1.41675 cumulative IPC: 1.37911 (Simulation time: 0 hr 41 min 30 sec) 
Heartbeat CPU 3 instructions: 110000000 cycles: 71025083 heartbeat IPC: 0.906036 cumulative IPC: 0.975219 (Simulation time: 0 hr 42 min 12 sec) 
Heartbeat CPU 2 instructions: 110000000 cycles: 73273553 heartbeat IPC: 1.09793 cumulative IPC: 1.10523 (Simulation time: 0 hr 43 min 0 sec) 
Heartbeat CPU 1 instructions: 140000000 cycles: 76127157 heartbeat IPC: 1.42682 cumulative IPC: 1.38496 (Simulation time: 0 hr 44 min 2 sec) 
Heartbeat CPU 2 instructions: 120000000 cycles: 82431242 heartbeat IPC: 1.09198 cumulative IPC: 1.10332 (Simulation time: 0 hr 46 min 11 sec) 
Heartbeat CPU 3 instructions: 120000001 cycles: 82930413 heartbeat IPC: 0.83996 cumulative IPC: 0.950036 (Simulation time: 0 hr 46 min 19 sec) 
Heartbeat CPU 1 instructions: 150000002 cycles: 83273428 heartbeat IPC: 1.39933 cumulative IPC: 1.38656 (Simulation time: 0 hr 46 min 25 sec) 
Heartbeat CPU 1 instructions: 160000000 cycles: 90375381 heartbeat IPC: 1.40806 cumulative IPC: 1.3887 (Simulation time: 0 hr 48 min 44 sec) 
Heartbeat CPU 2 instructions: 130000001 cycles: 91477875 heartbeat IPC: 1.10538 cumulative IPC: 1.10358 (Simulation time: 0 hr 49 min 2 sec) 
Heartbeat CPU 3 instructions: 130000000 cycles: 94537597 heartbeat IPC: 0.861535 cumulative IPC: 0.936439 (Simulation time: 0 hr 50 min 4 sec) 
Heartbeat CPU 1 instructions: 170000002 cycles: 97490163 heartbeat IPC: 1.40552 cumulative IPC: 1.39022 (Simulation time: 0 hr 50 min 59 sec) 
Heartbeat CPU 2 instructions: 140000002 cycles: 100466965 heartbeat IPC: 1.11246 cumulative IPC: 1.10456 (Simulation time: 0 hr 51 min 56 sec) 
Heartbeat CPU 1 instructions: 180000000 cycles: 104518272 heartbeat IPC: 1.42286 cumulative IPC: 1.3929 (Simulation time: 0 hr 53 min 20 sec) 
Heartbeat CPU 3 instructions: 140000001 cycles: 106315750 heartbeat IPC: 0.84903 cumulative IPC: 0.92465 (Simulation time: 0 hr 53 min 54 sec) 
Heartbeat CPU 2 instructions: 150000000 cycles: 109423919 heartbeat IPC: 1.11645 cumulative IPC: 1.10573 (Simulation time: 0 hr 54 min 53 sec) 
Heartbeat CPU 1 instructions: 190000003 cycles: 111553900 heartbeat IPC: 1.42134 cumulative IPC: 1.39506 (Simulation time: 0 hr 55 min 38 sec) 
Heartbeat CPU 3 instructions: 150000000 cycles: 117946517 heartbeat IPC: 0.859788 cumulative IPC: 0.917027 (Simulation time: 0 hr 57 min 42 sec) 
Heartbeat CPU 2 instructions: 160000002 cycles: 118562047 heartbeat IPC: 1.09432 cumulative IPC: 1.10469 (Simulation time: 0 hr 57 min 55 sec) 
Heartbeat CPU 1 instructions: 200000001 cycles: 118598633 heartbeat IPC: 1.4195 cumulative IPC: 1.39679 (Simulation time: 0 hr 57 min 55 sec) 
Heartbeat CPU 1 instructions: 210000000 cycles: 125632886 heartbeat IPC: 1.42161 cumulative IPC: 1.39843 (Simulation time: 1 hr 0 min 17 sec) 
Heartbeat CPU 2 instructions: 170000000 cycles: 127802300 heartbeat IPC: 1.08222 cumulative IPC: 1.10278 (Simulation time: 1 hr 1 min 1 sec) 
Heartbeat CPU 3 instructions: 160000003 cycles: 129556778 heartbeat IPC: 0.861307 cumulative IPC: 0.911176 (Simulation time: 1 hr 1 min 36 sec) 
Heartbeat CPU 1 instructions: 220000000 cycles: 132675759 heartbeat IPC: 1.41988 cumulative IPC: 1.39976 (Simulation time: 1 hr 2 min 38 sec) 
Heartbeat CPU 2 instructions: 180000000 cycles: 137184602 heartbeat IPC: 1.06584 cumulative IPC: 1.09985 (Simulation time: 1 hr 4 min 10 sec) 
Heartbeat CPU 1 instructions: 230000003 cycles: 139736614 heartbeat IPC: 1.41626 cumulative IPC: 1.40072 (Simulation time: 1 hr 5 min 3 sec) 
Heartbeat CPU 3 instructions: 170000000 cycles: 141234703 heartbeat IPC: 0.856316 cumulative IPC: 0.905936 (Simulation time: 1 hr 5 min 32 sec) 
Heartbeat CPU 2 instructions: 190000001 cycles: 146535110 heartbeat IPC: 1.06946 cumulative IPC: 1.09762 (Simulation time: 1 hr 7 min 18 sec) 
Heartbeat CPU 1 instructions: 240000002 cycles: 146740558 heartbeat IPC: 1.42777 cumulative IPC: 1.40221 (Simulation time: 1 hr 7 min 22 sec) 
Heartbeat CPU 0 instructions: 70000001 cycles: 150652886 heartbeat IPC: 0.102845 cumulative IPC: 0.101743 (Simulation time: 1 hr 8 min 44 sec) 
Heartbeat CPU 3 instructions: 180000000 cycles: 152914697 heartbeat IPC: 0.856165 cumulative IPC: 0.901595 (Simulation time: 1 hr 9 min 32 sec) 
Heartbeat CPU 1 instructions: 250000000 cycles: 153695377 heartbeat IPC: 1.43785 cumulative IPC: 1.40405 (Simulation time: 1 hr 9 min 48 sec) 
Heartbeat CPU 2 instructions: 200000001 cycles: 155576849 heartbeat IPC: 1.10598 cumulative IPC: 1.09817 (Simulation time: 1 hr 10 min 28 sec) 
Heartbeat CPU 1 instructions: 260000002 cycles: 160663542 heartbeat IPC: 1.4351 cumulative IPC: 1.40557 (Simulation time: 1 hr 12 min 11 sec) 
Finished CPU 1 instructions: 200000003 cycles: 142254478 cumulative IPC: 1.40593 (Simulation time: 1 hr 12 min 23 sec) 
Heartbeat CPU 3 instructions: 190000000 cycles: 164362060 heartbeat IPC: 0.873564 cumulative IPC: 0.899388 (Simulation time: 1 hr 13 min 20 sec) 
Heartbeat CPU 2 instructions: 210000001 cycles: 164567732 heartbeat IPC: 1.11224 cumulative IPC: 1.09904 (Simulation time: 1 hr 13 min 24 sec) 
Heartbeat CPU 1 instructions: 270000000 cycles: 167585957 heartbeat IPC: 1.44458 cumulative IPC: 1.40739 (Simulation time: 1 hr 14 min 26 sec) 
Heartbeat CPU 2 instructions: 220000000 cycles: 173492262 heartbeat IPC: 1.12051 cumulative IPC: 1.10028 (Simulation time: 1 hr 16 min 31 sec) 
Heartbeat CPU 1 instructions: 280000001 cycles: 174425705 heartbeat IPC: 1.46204 cumulative IPC: 1.4098 (Simulation time: 1 hr 16 min 51 sec) 
Heartbeat CPU 3 instructions: 200000000 cycles: 176087263 heartbeat IPC: 0.852864 cumulative IPC: 0.895916 (Simulation time: 1 hr 17 min 25 sec) 
Heartbeat CPU 1 instructions: 290000002 cycles: 181314563 heartbeat IPC: 1.45162 cumulative IPC: 1.41157 (Simulation time: 1 hr 19 min 15 sec) 
Heartbeat CPU 2 instructions: 230000001 cycles: 182592886 heartbeat IPC: 1.09883 cumulative IPC: 1.1002 (Simulation time: 1 hr 19 min 40 sec) 
Heartbeat CPU 3 instructions: 210000000 cycles: 188098135 heartbeat IPC: 0.832579 cumulative IPC: 0.891417 (Simulation time: 1 hr 21 min 29 sec) 
Heartbeat CPU 1 instructions: 300000000 cycles: 188133402 heartbeat IPC: 1.46653 cumulative IPC: 1.41379 (Simulation time: 1 hr 21 min 30 sec) 
Heartbeat CPU 2 instructions: 240000000 cycles: 191983960 heartbeat IPC: 1.06484 cumulative IPC: 1.09828 (Simulation time: 1 hr 22 min 45 sec) 
Heartbeat CPU 1 instructions: 310000001 cycles: 194982895 heartbeat IPC: 1.45996 cumulative IPC: 1.41558 (Simulation time: 1 hr 23 min 47 sec) 
Heartbeat CPU 3 instructions: 220000000 cycles: 200621363 heartbeat IPC: 0.798516 cumulative IPC: 0.885012 (Simulation time: 1 hr 25 min 38 sec) 
*** Reached end of trace for Core: 2 Repeating trace: ./traces/ligra/ligra_BC.com-lj.ungraph.gcc_6.3.0_O3.drop_5000M.length_250M.champsimtrace.xz
Heartbeat CPU 2 instructions: 250000001 cycles: 201098697 heartbeat IPC: 1.09712 cumulative IPC: 1.09822 (Simulation time: 1 hr 25 min 47 sec) 
Finished CPU 2 instructions: 200000000 cycles: 182112403 cumulative IPC: 1.09822 (Simulation time: 1 hr 25 min 47 sec) 
Heartbeat CPU 1 instructions: 320000003 cycles: 201794984 heartbeat IPC: 1.46798 cumulative IPC: 1.41754 (Simulation time: 1 hr 26 min 0 sec) 
Heartbeat CPU 1 instructions: 330000000 cycles: 208660959 heartbeat IPC: 1.45646 cumulative IPC: 1.41894 (Simulation time: 1 hr 28 min 11 sec) 
Heartbeat CPU 2 instructions: 260000001 cycles: 209848016 heartbeat IPC: 1.14295 cumulative IPC: 1.10027 (Simulation time: 1 hr 28 min 34 sec) 
Heartbeat CPU 3 instructions: 230000002 cycles: 213951084 heartbeat IPC: 0.750203 cumulative IPC: 0.875795 (Simulation time: 1 hr 29 min 53 sec) 
Heartbeat CPU 1 instructions: 340000003 cycles: 215536714 heartbeat IPC: 1.45439 cumulative IPC: 1.42018 (Simulation time: 1 hr 30 min 23 sec) 
Heartbeat CPU 2 instructions: 270000000 cycles: 218624032 heartbeat IPC: 1.13947 cumulative IPC: 1.102 (Simulation time: 1 hr 31 min 25 sec) 
Heartbeat CPU 1 instructions: 350000000 cycles: 223275639 heartbeat IPC: 1.29217 cumulative IPC: 1.41533 (Simulation time: 1 hr 32 min 39 sec) 
Heartbeat CPU 2 instructions: 280000002 cycles: 227525113 heartbeat IPC: 1.12346 cumulative IPC: 1.10291 (Simulation time: 1 hr 33 min 46 sec) 
Heartbeat CPU 3 instructions: 240000003 cycles: 228138348 heartbeat IPC: 0.704858 cumulative IPC: 0.8642 (Simulation time: 1 hr 33 min 57 sec) 
Heartbeat CPU 1 instructions: 360000002 cycles: 231350977 heartbeat IPC: 1.23834 cumulative IPC: 1.4086 (Simulation time: 1 hr 34 min 54 sec) 
Heartbeat CPU 2 instructions: 290000002 cycles: 236482197 heartbeat IPC: 1.11643 cumulative IPC: 1.10347 (Simulation time: 1 hr 36 min 25 sec) 
Heartbeat CPU 1 instructions: 370000002 cycles: 239149084 heartbeat IPC: 1.28236 cumulative IPC: 1.40413 (Simulation time: 1 hr 37 min 9 sec) 
*** Reached end of trace for Core: 3 Repeating trace: ./traces/ligra/ligra_MIS.com-lj.ungraph.gcc_6.3.0_O3.drop_21250M.length_250M.champsimtrace.xz
Heartbeat CPU 3 instructions: 250000002 cycles: 243092936 heartbeat IPC: 0.668691 cumulative IPC: 0.851154 (Simulation time: 1 hr 38 min 33 sec) 
Heartbeat CPU 2 instructions: 300000000 cycles: 245552060 heartbeat IPC: 1.10255 cumulative IPC: 1.10343 (Simulation time: 1 hr 39 min 19 sec) 
Heartbeat CPU 1 instructions: 380000003 cycles: 246429158 heartbeat IPC: 1.37361 cumulative IPC: 1.40316 (Simulation time: 1 hr 39 min 34 sec) 
Heartbeat CPU 1 instructions: 390000000 cycles: 254283089 heartbeat IPC: 1.27325 cumulative IPC: 1.39882 (Simulation time: 1 hr 41 min 53 sec) 
Heartbeat CPU 2 instructions: 310000000 cycles: 255221455 heartbeat IPC: 1.03419 cumulative IPC: 1.1006 (Simulation time: 1 hr 42 min 10 sec) 
Heartbeat CPU 1 instructions: 400000001 cycles: 262694212 heartbeat IPC: 1.1889 cumulative IPC: 1.39157 (Simulation time: 1 hr 44 min 19 sec) 
Heartbeat CPU 2 instructions: 320000001 cycles: 264750282 heartbeat IPC: 1.04945 cumulative IPC: 1.09862 (Simulation time: 1 hr 44 min 54 sec) 
Heartbeat CPU 1 instructions: 410000001 cycles: 271120223 heartbeat IPC: 1.1868 cumulative IPC: 1.38473 (Simulation time: 1 hr 46 min 37 sec) 
Heartbeat CPU 2 instructions: 330000000 cycles: 274058443 heartbeat IPC: 1.07433 cumulative IPC: 1.09773 (Simulation time: 1 hr 47 min 24 sec) 
Finished CPU 3 instructions: 200000003 cycles: 260294119 cumulative IPC: 0.768362 (Simulation time: 1 hr 48 min 53 sec) 
Heartbeat CPU 1 instructions: 420000002 cycles: 279524315 heartbeat IPC: 1.1899 cumulative IPC: 1.37845 (Simulation time: 1 hr 48 min 58 sec) 
Heartbeat CPU 0 instructions: 80000000 cycles: 280816043 heartbeat IPC: 0.0768266 cumulative IPC: 0.0893566 (Simulation time: 1 hr 49 min 21 sec) 
Heartbeat CPU 3 instructions: 260000001 cycles: 281894272 heartbeat IPC: 0.257723 cumulative IPC: 0.763572 (Simulation time: 1 hr 49 min 39 sec) 
Heartbeat CPU 2 instructions: 340000002 cycles: 283373383 heartbeat IPC: 1.07354 cumulative IPC: 1.09688 (Simulation time: 1 hr 50 min 0 sec) 
Heartbeat CPU 1 instructions: 430000000 cycles: 287895609 heartbeat IPC: 1.19456 cumulative IPC: 1.37272 (Simulation time: 1 hr 51 min 17 sec) 
Heartbeat CPU 2 instructions: 350000000 cycles: 292732353 heartbeat IPC: 1.06849 cumulative IPC: 1.09591 (Simulation time: 1 hr 52 min 40 sec) 
Heartbeat CPU 1 instructions: 440000000 cycles: 296171904 heartbeat IPC: 1.20827 cumulative IPC: 1.36781 (Simulation time: 1 hr 53 min 31 sec) 
Heartbeat CPU 2 instructions: 360000000 cycles: 302127230 heartbeat IPC: 1.06441 cumulative IPC: 1.09486 (Simulation time: 1 hr 55 min 7 sec) 
Heartbeat CPU 1 instructions: 450000002 cycles: 304492947 heartbeat IPC: 1.20177 cumulative IPC: 1.36297 (Simulation time: 1 hr 55 min 44 sec) 
Heartbeat CPU 2 instructions: 370000001 cycles: 311567896 heartbeat IPC: 1.05925 cumulative IPC: 1.09371 (Simulation time: 1 hr 57 min 45 sec) 
Heartbeat CPU 1 instructions: 460000000 cycles: 312878915 heartbeat IPC: 1.19247 cumulative IPC: 1.35811 (Simulation time: 1 hr 58 min 4 sec) 
Heartbeat CPU 3 instructions: 270000001 cycles: 316571398 heartbeat IPC: 0.288375 cumulative IPC: 0.708198 (Simulation time: 1 hr 59 min 5 sec) 
Heartbeat CPU 2 instructions: 380000002 cycles: 320895174 heartbeat IPC: 1.07212 cumulative IPC: 1.09304 (Simulation time: 2 hr 0 min 13 sec) 
Heartbeat CPU 1 instructions: 470000001 cycles: 321273885 heartbeat IPC: 1.19119 cumulative IPC: 1.35347 (Simulation time: 2 hr 0 min 19 sec) 
Heartbeat CPU 1 instructions: 480000001 cycles: 329679114 heartbeat IPC: 1.18974 cumulative IPC: 1.34904 (Simulation time: 2 hr 2 min 41 sec) 
Heartbeat CPU 2 instructions: 390000000 cycles: 330154464 heartbeat IPC: 1.08 cumulative IPC: 1.09266 (Simulation time: 2 hr 2 min 49 sec) 
Heartbeat CPU 1 instructions: 490000000 cycles: 337984135 heartbeat IPC: 1.20409 cumulative IPC: 1.34527 (Simulation time: 2 hr 4 min 53 sec) 
Heartbeat CPU 2 instructions: 400000001 cycles: 339400613 heartbeat IPC: 1.08153 cumulative IPC: 1.09234 (Simulation time: 2 hr 5 min 17 sec) 
Heartbeat CPU 1 instructions: 500000001 cycles: 346297772 heartbeat IPC: 1.20284 cumulative IPC: 1.34165 (Simulation time: 2 hr 7 min 15 sec) 
Heartbeat CPU 2 instructions: 410000000 cycles: 348816000 heartbeat IPC: 1.06209 cumulative IPC: 1.09147 (Simulation time: 2 hr 7 min 59 sec) 
Heartbeat CPU 3 instructions: 280000003 cycles: 351301313 heartbeat IPC: 0.287936 cumulative IPC: 0.664277 (Simulation time: 2 hr 8 min 39 sec) 
Heartbeat CPU 1 instructions: 510000002 cycles: 354663833 heartbeat IPC: 1.19531 cumulative IPC: 1.338 (Simulation time: 2 hr 9 min 32 sec) 
Heartbeat CPU 2 instructions: 420000001 cycles: 358352931 heartbeat IPC: 1.04856 cumulative IPC: 1.09027 (Simulation time: 2 hr 10 min 34 sec) 
Heartbeat CPU 1 instructions: 520000001 cycles: 362998402 heartbeat IPC: 1.19982 cumulative IPC: 1.33466 (Simulation time: 2 hr 11 min 53 sec) 
Heartbeat CPU 2 instructions: 430000001 cycles: 367982817 heartbeat IPC: 1.03843 cumulative IPC: 1.08884 (Simulation time: 2 hr 13 min 6 sec) 
Heartbeat CPU 1 instructions: 530000002 cycles: 371348927 heartbeat IPC: 1.19753 cumulative IPC: 1.33141 (Simulation time: 2 hr 14 min 3 sec) 
Heartbeat CPU 2 instructions: 440000000 cycles: 377558457 heartbeat IPC: 1.04432 cumulative IPC: 1.08765 (Simulation time: 2 hr 15 min 42 sec) 
Heartbeat CPU 1 instructions: 540000000 cycles: 379698418 heartbeat IPC: 1.19768 cumulative IPC: 1.32831 (Simulation time: 2 hr 16 min 15 sec) 
Heartbeat CPU 3 instructions: 290000002 cycles: 385778535 heartbeat IPC: 0.290047 cumulative IPC: 0.629101 (Simulation time: 2 hr 17 min 57 sec) 
Heartbeat CPU 2 instructions: 450000002 cycles: 386882779 heartbeat IPC: 1.07246 cumulative IPC: 1.08726 (Simulation time: 2 hr 18 min 16 sec) 
Heartbeat CPU 1 instructions: 550000000 cycles: 388022766 heartbeat IPC: 1.2013 cumulative IPC: 1.32545 (Simulation time: 2 hr 18 min 32 sec) 
Heartbeat CPU 2 instructions: 460000000 cycles: 396144270 heartbeat IPC: 1.07974 cumulative IPC: 1.08708 (Simulation time: 2 hr 20 min 24 sec) 
Heartbeat CPU 1 instructions: 560000001 cycles: 400836508 heartbeat IPC: 0.780412 cumulative IPC: 1.30716 (Simulation time: 2 hr 21 min 21 sec) 
Heartbeat CPU 2 instructions: 470000001 cycles: 405081088 heartbeat IPC: 1.11897 cumulative IPC: 1.08782 (Simulation time: 2 hr 22 min 7 sec) 
Heartbeat CPU 1 instructions: 570000003 cycles: 413610338 heartbeat IPC: 0.782851 cumulative IPC: 1.29018 (Simulation time: 2 hr 24 min 4 sec) 
Heartbeat CPU 2 instructions: 480000002 cycles: 414192031 heartbeat IPC: 1.09758 cumulative IPC: 1.08804 (Simulation time: 2 hr 24 min 11 sec) 
Heartbeat CPU 2 instructions: 490000001 cycles: 423572400 heartbeat IPC: 1.06606 cumulative IPC: 1.08753 (Simulation time: 2 hr 26 min 15 sec) 
Heartbeat CPU 1 instructions: 580000000 cycles: 426292377 heartbeat IPC: 0.788517 cumulative IPC: 1.27456 (Simulation time: 2 hr 26 min 45 sec) 
*** Reached end of trace for Core: 2 Repeating trace: ./traces/ligra/ligra_BC.com-lj.ungraph.gcc_6.3.0_O3.drop_5000M.length_250M.champsimtrace.xz
Heartbeat CPU 2 instructions: 500000002 cycles: 432703295 heartbeat IPC: 1.09518 cumulative IPC: 1.0877 (Simulation time: 2 hr 28 min 5 sec) 
Heartbeat CPU 1 instructions: 590000001 cycles: 439158133 heartbeat IPC: 0.777257 cumulative IPC: 1.25934 (Simulation time: 2 hr 29 min 39 sec) 
Heartbeat CPU 2 instructions: 510000002 cycles: 441557692 heartbeat IPC: 1.12938 cumulative IPC: 1.08857 (Simulation time: 2 hr 30 min 14 sec) 
Heartbeat CPU 3 instructions: 300000000 cycles: 445467562 heartbeat IPC: 0.167535 cumulative IPC: 0.564501 (Simulation time: 2 hr 31 min 6 sec) 
Heartbeat CPU 0 instructions: 90000000 cycles: 448207633 heartbeat IPC: 0.0597402 cumulative IPC: 0.0778065 (Simulation time: 2 hr 31 min 47 sec) 
Heartbeat CPU 2 instructions: 520000001 cycles: 450519944 heartbeat IPC: 1.11579 cumulative IPC: 1.08914 (Simulation time: 2 hr 32 min 19 sec) 
Heartbeat CPU 2 instructions: 530000000 cycles: 459787320 heartbeat IPC: 1.07905 cumulative IPC: 1.08893 (Simulation time: 2 hr 34 min 11 sec) 
Heartbeat CPU 1 instructions: 600000003 cycles: 459962340 heartbeat IPC: 0.480672 cumulative IPC: 1.2226 (Simulation time: 2 hr 34 min 13 sec) 
Heartbeat CPU 3 instructions: 310000001 cycles: 461271885 heartbeat IPC: 0.632738 cumulative IPC: 0.56694 (Simulation time: 2 hr 34 min 35 sec) 
Heartbeat CPU 1 instructions: 610000003 cycles: 467065717 heartbeat IPC: 1.40778 cumulative IPC: 1.22554 (Simulation time: 2 hr 36 min 15 sec) 
Heartbeat CPU 2 instructions: 540000000 cycles: 468984760 heartbeat IPC: 1.08726 cumulative IPC: 1.08889 (Simulation time: 2 hr 36 min 48 sec) 
Heartbeat CPU 1 instructions: 620000000 cycles: 473441504 heartbeat IPC: 1.56843 cumulative IPC: 1.23035 (Simulation time: 2 hr 38 min 18 sec) 
Heartbeat CPU 3 instructions: 320000002 cycles: 475021132 heartbeat IPC: 0.727313 cumulative IPC: 0.571775 (Simulation time: 2 hr 38 min 52 sec) 
Heartbeat CPU 2 instructions: 550000000 cycles: 477892841 heartbeat IPC: 1.12258 cumulative IPC: 1.08955 (Simulation time: 2 hr 39 min 57 sec) 
Heartbeat CPU 1 instructions: 630000002 cycles: 479305955 heartbeat IPC: 1.70519 cumulative IPC: 1.2364 (Simulation time: 2 hr 40 min 27 sec) 
Heartbeat CPU 1 instructions: 640000003 cycles: 485144869 heartbeat IPC: 1.71265 cumulative IPC: 1.24236 (Simulation time: 2 hr 42 min 30 sec) 
Heartbeat CPU 3 instructions: 330000000 cycles: 486290810 heartbeat IPC: 0.887337 cumulative IPC: 0.579385 (Simulation time: 2 hr 42 min 56 sec) 
Heartbeat CPU 2 instructions: 560000001 cycles: 486780142 heartbeat IPC: 1.1252 cumulative IPC: 1.09022 (Simulation time: 2 hr 43 min 6 sec) 
Heartbeat CPU 1 instructions: 650000001 cycles: 490988658 heartbeat IPC: 1.71122 cumulative IPC: 1.24817 (Simulation time: 2 hr 44 min 32 sec) 
Heartbeat CPU 2 instructions: 570000002 cycles: 495708121 heartbeat IPC: 1.12007 cumulative IPC: 1.09078 (Simulation time: 2 hr 46 min 12 sec) 
Heartbeat CPU 1 instructions: 660000000 cycles: 496824750 heartbeat IPC: 1.71348 cumulative IPC: 1.25385 (Simulation time: 2 hr 46 min 37 sec) 
Heartbeat CPU 3 instructions: 340000003 cycles: 497730222 heartbeat IPC: 0.874171 cumulative IPC: 0.586429 (Simulation time: 2 hr 46 min 56 sec) 
Heartbeat CPU 1 instructions: 670000003 cycles: 502670886 heartbeat IPC: 1.71053 cumulative IPC: 1.25937 (Simulation time: 2 hr 48 min 36 sec) 
Heartbeat CPU 2 instructions: 580000002 cycles: 504621035 heartbeat IPC: 1.12197 cumulative IPC: 1.09136 (Simulation time: 2 hr 49 min 19 sec) 
Heartbeat CPU 1 instructions: 680000000 cycles: 508495503 heartbeat IPC: 1.71685 cumulative IPC: 1.26481 (Simulation time: 2 hr 50 min 36 sec) 
Heartbeat CPU 3 instructions: 350000001 cycles: 509017495 heartbeat IPC: 0.885953 cumulative IPC: 0.593328 (Simulation time: 2 hr 50 min 48 sec) 
Heartbeat CPU 2 instructions: 590000000 cycles: 513628701 heartbeat IPC: 1.11017 cumulative IPC: 1.0917 (Simulation time: 2 hr 52 min 17 sec) 
Heartbeat CPU 1 instructions: 690000001 cycles: 516054169 heartbeat IPC: 1.32298 cumulative IPC: 1.2657 (Simulation time: 2 hr 52 min 58 sec) 
Heartbeat CPU 3 instructions: 360000002 cycles: 522354042 heartbeat IPC: 0.749819 cumulative IPC: 0.597474 (Simulation time: 2 hr 54 min 42 sec) 
Heartbeat CPU 2 instructions: 600000001 cycles: 522748782 heartbeat IPC: 1.09648 cumulative IPC: 1.09178 (Simulation time: 2 hr 54 min 48 sec) 
Heartbeat CPU 1 instructions: 700000001 cycles: 524118991 heartbeat IPC: 1.23995 cumulative IPC: 1.26529 (Simulation time: 2 hr 55 min 7 sec) 
Heartbeat CPU 2 instructions: 610000001 cycles: 531903484 heartbeat IPC: 1.09233 cumulative IPC: 1.09179 (Simulation time: 2 hr 57 min 20 sec) 
Heartbeat CPU 1 instructions: 710000003 cycles: 532039092 heartbeat IPC: 1.26261 cumulative IPC: 1.26525 (Simulation time: 2 hr 57 min 22 sec) 
Heartbeat CPU 3 instructions: 370000001 cycles: 536896315 heartbeat IPC: 0.68765 cumulative IPC: 0.600006 (Simulation time: 2 hr 59 min 0 sec) 
Heartbeat CPU 1 instructions: 720000003 cycles: 539088162 heartbeat IPC: 1.41863 cumulative IPC: 1.26732 (Simulation time: 2 hr 59 min 43 sec) 
Heartbeat CPU 2 instructions: 620000000 cycles: 541103353 heartbeat IPC: 1.08697 cumulative IPC: 1.09171 (Simulation time: 3 hr 0 min 26 sec) 
Heartbeat CPU 1 instructions: 730000000 cycles: 546101164 heartbeat IPC: 1.42592 cumulative IPC: 1.26943 (Simulation time: 3 hr 2 min 12 sec) 
Heartbeat CPU 2 instructions: 630000000 cycles: 550134516 heartbeat IPC: 1.10728 cumulative IPC: 1.09197 (Simulation time: 3 hr 3 min 36 sec) 
Heartbeat CPU 3 instructions: 380000000 cycles: 550757322 heartbeat IPC: 0.721448 cumulative IPC: 0.603172 (Simulation time: 3 hr 3 min 49 sec) 
Heartbeat CPU 1 instructions: 740000002 cycles: 553081445 heartbeat IPC: 1.43261 cumulative IPC: 1.27157 (Simulation time: 3 hr 4 min 34 sec) 
Heartbeat CPU 2 instructions: 640000001 cycles: 559089240 heartbeat IPC: 1.11673 cumulative IPC: 1.09238 (Simulation time: 3 hr 6 min 36 sec) 
Heartbeat CPU 1 instructions: 750000001 cycles: 560066292 heartbeat IPC: 1.43167 cumulative IPC: 1.27363 (Simulation time: 3 hr 6 min 56 sec) 
Heartbeat CPU 3 instructions: 390000001 cycles: 563817873 heartbeat IPC: 0.765665 cumulative IPC: 0.607067 (Simulation time: 3 hr 8 min 14 sec) 
Heartbeat CPU 1 instructions: 760000003 cycles: 566992181 heartbeat IPC: 1.44386 cumulative IPC: 1.27579 (Simulation time: 3 hr 9 min 15 sec) 
Heartbeat CPU 2 instructions: 650000002 cycles: 567985552 heartbeat IPC: 1.12406 cumulative IPC: 1.0929 (Simulation time: 3 hr 9 min 36 sec) 
Heartbeat CPU 0 instructions: 100000001 cycles: 571627820 heartbeat IPC: 0.081024 cumulative IPC: 0.0785251 (Simulation time: 3 hr 10 min 47 sec) 
Heartbeat CPU 1 instructions: 770000000 cycles: 573826782 heartbeat IPC: 1.46314 cumulative IPC: 1.27809 (Simulation time: 3 hr 11 min 27 sec) 
Heartbeat CPU 3 instructions: 400000000 cycles: 575915099 heartbeat IPC: 0.826636 cumulative IPC: 0.611836 (Simulation time: 3 hr 12 min 9 sec) 
Heartbeat CPU 2 instructions: 660000000 cycles: 577070012 heartbeat IPC: 1.10078 cumulative IPC: 1.09303 (Simulation time: 3 hr 12 min 31 sec) 
Heartbeat CPU 1 instructions: 780000002 cycles: 580611412 heartbeat IPC: 1.47392 cumulative IPC: 1.28046 (Simulation time: 3 hr 13 min 42 sec) 
Heartbeat CPU 2 instructions: 670000000 cycles: 586229532 heartbeat IPC: 1.09176 cumulative IPC: 1.09301 (Simulation time: 3 hr 15 min 34 sec) 
Heartbeat CPU 1 instructions: 790000003 cycles: 587432751 heartbeat IPC: 1.46599 cumulative IPC: 1.28269 (Simulation time: 3 hr 15 min 55 sec) 
Heartbeat CPU 3 instructions: 410000003 cycles: 587781394 heartbeat IPC: 0.842723 cumulative IPC: 0.616653 (Simulation time: 3 hr 16 min 2 sec) 
Heartbeat CPU 1 instructions: 800000002 cycles: 594240768 heartbeat IPC: 1.46886 cumulative IPC: 1.28489 (Simulation time: 3 hr 18 min 10 sec) 
Heartbeat CPU 2 instructions: 680000000 cycles: 595536556 heartbeat IPC: 1.07446 cumulative IPC: 1.09271 (Simulation time: 3 hr 18 min 34 sec) 
Heartbeat CPU 3 instructions: 420000000 cycles: 599549233 heartbeat IPC: 0.849773 cumulative IPC: 0.621378 (Simulation time: 3 hr 19 min 51 sec) 
Heartbeat CPU 1 instructions: 810000000 cycles: 601007595 heartbeat IPC: 1.4778 cumulative IPC: 1.28713 (Simulation time: 3 hr 20 min 21 sec) 
Heartbeat CPU 2 instructions: 690000001 cycles: 604805003 heartbeat IPC: 1.07893 cumulative IPC: 1.09249 (Simulation time: 3 hr 21 min 37 sec) 
Heartbeat CPU 1 instructions: 820000002 cycles: 607788426 heartbeat IPC: 1.47475 cumulative IPC: 1.28929 (Simulation time: 3 hr 22 min 37 sec) 
Heartbeat CPU 3 instructions: 430000000 cycles: 611416751 heartbeat IPC: 0.842636 cumulative IPC: 0.625811 (Simulation time: 3 hr 23 min 49 sec) 
Heartbeat CPU 2 instructions: 700000003 cycles: 613778058 heartbeat IPC: 1.11445 cumulative IPC: 1.09282 (Simulation time: 3 hr 24 min 37 sec) 
Heartbeat CPU 1 instructions: 830000000 cycles: 614567633 heartbeat IPC: 1.4751 cumulative IPC: 1.29141 (Simulation time: 3 hr 24 min 52 sec) 
Heartbeat CPU 1 instructions: 840000003 cycles: 621337502 heartbeat IPC: 1.47713 cumulative IPC: 1.29349 (Simulation time: 3 hr 27 min 7 sec) 
Heartbeat CPU 2 instructions: 710000001 cycles: 622707535 heartbeat IPC: 1.11989 cumulative IPC: 1.09322 (Simulation time: 3 hr 27 min 33 sec) 
Heartbeat CPU 3 instructions: 440000000 cycles: 623202490 heartbeat IPC: 0.848483 cumulative IPC: 0.630154 (Simulation time: 3 hr 27 min 43 sec) 
Heartbeat CPU 1 instructions: 850000001 cycles: 628061130 heartbeat IPC: 1.48729 cumulative IPC: 1.29563 (Simulation time: 3 hr 29 min 26 sec) 
Heartbeat CPU 2 instructions: 720000002 cycles: 631564179 heartbeat IPC: 1.1291 cumulative IPC: 1.09374 (Simulation time: 3 hr 30 min 38 sec) 
Heartbeat CPU 1 instructions: 860000001 cycles: 634775809 heartbeat IPC: 1.48927 cumulative IPC: 1.29775 (Simulation time: 3 hr 31 min 46 sec) 
Heartbeat CPU 3 instructions: 450000000 cycles: 635145180 heartbeat IPC: 0.837332 cumulative IPC: 0.63417 (Simulation time: 3 hr 31 min 54 sec) 
Heartbeat CPU 2 instructions: 730000000 cycles: 640578136 heartbeat IPC: 1.10939 cumulative IPC: 1.09397 (Simulation time: 3 hr 33 min 40 sec) 
Heartbeat CPU 1 instructions: 870000001 cycles: 641456155 heartbeat IPC: 1.49693 cumulative IPC: 1.29988 (Simulation time: 3 hr 33 min 58 sec) 
Heartbeat CPU 3 instructions: 460000000 cycles: 647211973 heartbeat IPC: 0.828721 cumulative IPC: 0.637906 (Simulation time: 3 hr 35 min 48 sec) 
Heartbeat CPU 1 instructions: 880000000 cycles: 648033820 heartbeat IPC: 1.5203 cumulative IPC: 1.30219 (Simulation time: 3 hr 36 min 2 sec) 
Heartbeat CPU 2 instructions: 740000002 cycles: 649865733 heartbeat IPC: 1.0767 cumulative IPC: 1.09371 (Simulation time: 3 hr 36 min 38 sec) 
Heartbeat CPU 1 instructions: 890000002 cycles: 654647827 heartbeat IPC: 1.51194 cumulative IPC: 1.30437 (Simulation time: 3 hr 38 min 11 sec) 
Heartbeat CPU 0 instructions: 110000000 cycles: 657022079 heartbeat IPC: 0.117104 cumulative IPC: 0.0836884 (Simulation time: 3 hr 38 min 57 sec) 
*** Reached end of trace for Core: 2 Repeating trace: ./traces/ligra/ligra_BC.com-lj.ungraph.gcc_6.3.0_O3.drop_5000M.length_250M.champsimtrace.xz
Heartbeat CPU 2 instructions: 750000000 cycles: 658895490 heartbeat IPC: 1.10745 cumulative IPC: 1.09391 (Simulation time: 3 hr 39 min 26 sec) 
Heartbeat CPU 3 instructions: 470000002 cycles: 659552222 heartbeat IPC: 0.810357 cumulative IPC: 0.641229 (Simulation time: 3 hr 39 min 36 sec) 
Heartbeat CPU 1 instructions: 900000000 cycles: 661526212 heartbeat IPC: 1.45383 cumulative IPC: 1.30597 (Simulation time: 3 hr 40 min 12 sec) 
Heartbeat CPU 2 instructions: 760000000 cycles: 667636432 heartbeat IPC: 1.14404 cumulative IPC: 1.09458 (Simulation time: 3 hr 42 min 2 sec) 
Heartbeat CPU 1 instructions: 910000003 cycles: 668342881 heartbeat IPC: 1.46699 cumulative IPC: 1.30766 (Simulation time: 3 hr 42 min 17 sec) 
Heartbeat CPU 3 instructions: 480000002 cycles: 672661568 heartbeat IPC: 0.762815 cumulative IPC: 0.643667 (Simulation time: 3 hr 43 min 43 sec) 
Heartbeat CPU 1 instructions: 920000003 cycles: 675192826 heartbeat IPC: 1.45987 cumulative IPC: 1.30925 (Simulation time: 3 hr 44 min 32 sec) 
Heartbeat CPU 2 instructions: 770000000 cycles: 676412353 heartbeat IPC: 1.13948 cumulative IPC: 1.09518 (Simulation time: 3 hr 44 min 57 sec) 
Heartbeat CPU 1 instructions: 930000000 cycles: 682022503 heartbeat IPC: 1.4642 cumulative IPC: 1.31085 (Simulation time: 3 hr 46 min 46 sec) 
Heartbeat CPU 2 instructions: 780000001 cycles: 685185802 heartbeat IPC: 1.1398 cumulative IPC: 1.09577 (Simulation time: 3 hr 47 min 44 sec) 
Heartbeat CPU 3 instructions: 490000003 cycles: 685455731 heartbeat IPC: 0.781606 cumulative IPC: 0.646315 (Simulation time: 3 hr 47 min 49 sec) 
Heartbeat CPU 1 instructions: 940000002 cycles: 688836955 heartbeat IPC: 1.46747 cumulative IPC: 1.31244 (Simulation time: 3 hr 48 min 58 sec) 
Heartbeat CPU 2 instructions: 790000001 cycles: 694016053 heartbeat IPC: 1.13247 cumulative IPC: 1.09625 (Simulation time: 3 hr 50 min 33 sec) 
Heartbeat CPU 1 instructions: 950000001 cycles: 695659548 heartbeat IPC: 1.46572 cumulative IPC: 1.31398 (Simulation time: 3 hr 51 min 0 sec) 
*** Reached end of trace for Core: 3 Repeating trace: ./traces/ligra/ligra_MIS.com-lj.ungraph.gcc_6.3.0_O3.drop_21250M.length_250M.champsimtrace.xz
Heartbeat CPU 3 instructions: 500000002 cycles: 698292132 heartbeat IPC: 0.779034 cumulative IPC: 0.648823 (Simulation time: 3 hr 51 min 51 sec) 
Heartbeat CPU 2 instructions: 800000002 cycles: 703167580 heartbeat IPC: 1.09271 cumulative IPC: 1.0962 (Simulation time: 3 hr 53 min 8 sec) 
Heartbeat CPU 1 instructions: 960000000 cycles: 704477120 heartbeat IPC: 1.1341 cumulative IPC: 1.31167 (Simulation time: 3 hr 53 min 26 sec) 
Heartbeat CPU 2 instructions: 810000000 cycles: 712757859 heartbeat IPC: 1.04272 cumulative IPC: 1.09546 (Simulation time: 3 hr 55 min 18 sec) 
Heartbeat CPU 1 instructions: 970000002 cycles: 716598862 heartbeat IPC: 0.824964 cumulative IPC: 1.30321 (Simulation time: 3 hr 56 min 10 sec) 
Heartbeat CPU 2 instructions: 820000003 cycles: 722369979 heartbeat IPC: 1.04035 cumulative IPC: 1.09471 (Simulation time: 3 hr 57 min 25 sec) 
Heartbeat CPU 1 instructions: 980000002 cycles: 728898222 heartbeat IPC: 0.81305 cumulative IPC: 1.29472 (Simulation time: 3 hr 58 min 53 sec) 
Heartbeat CPU 2 instructions: 830000000 cycles: 732065115 heartbeat IPC: 1.03144 cumulative IPC: 1.09385 (Simulation time: 3 hr 59 min 38 sec) 
Heartbeat CPU 1 instructions: 990000000 cycles: 738201798 heartbeat IPC: 1.07486 cumulative IPC: 1.29188 (Simulation time: 4 hr 1 min 23 sec) 
Heartbeat CPU 2 instructions: 840000001 cycles: 741946320 heartbeat IPC: 1.01202 cumulative IPC: 1.09273 (Simulation time: 4 hr 2 min 30 sec) 
Heartbeat CPU 3 instructions: 510000001 cycles: 743050254 heartbeat IPC: 0.223423 cumulative IPC: 0.622527 (Simulation time: 4 hr 2 min 46 sec) 
Heartbeat CPU 1 instructions: 1000000000 cycles: 746065288 heartbeat IPC: 1.2717 cumulative IPC: 1.29166 (Simulation time: 4 hr 3 min 39 sec) 
Heartbeat CPU 2 instructions: 850000000 cycles: 751851295 heartbeat IPC: 1.00959 cumulative IPC: 1.09161 (Simulation time: 4 hr 5 min 20 sec) 
Heartbeat CPU 1 instructions: 1010000003 cycles: 753891145 heartbeat IPC: 1.27782 cumulative IPC: 1.29151 (Simulation time: 4 hr 5 min 56 sec) 
Heartbeat CPU 1 instructions: 1020000002 cycles: 761594212 heartbeat IPC: 1.29818 cumulative IPC: 1.29158 (Simulation time: 4 hr 8 min 14 sec) 
Heartbeat CPU 2 instructions: 860000002 cycles: 761675457 heartbeat IPC: 1.0179 cumulative IPC: 1.09063 (Simulation time: 4 hr 8 min 15 sec) 
Heartbeat CPU 1 instructions: 1030000002 cycles: 770983979 heartbeat IPC: 1.06499 cumulative IPC: 1.28875 (Simulation time: 4 hr 10 min 46 sec) 
Heartbeat CPU 2 instructions: 870000001 cycles: 771263191 heartbeat IPC: 1.043 cumulative IPC: 1.09002 (Simulation time: 4 hr 10 min 50 sec) 
Heartbeat CPU 1 instructions: 1040000000 cycles: 780447167 heartbeat IPC: 1.05673 cumulative IPC: 1.28587 (Simulation time: 4 hr 13 min 11 sec) 
Heartbeat CPU 2 instructions: 880000000 cycles: 780804014 heartbeat IPC: 1.04813 cumulative IPC: 1.0895 (Simulation time: 4 hr 13 min 17 sec) 
Heartbeat CPU 3 instructions: 520000003 cycles: 783952340 heartbeat IPC: 0.244486 cumulative IPC: 0.602313 (Simulation time: 4 hr 14 min 3 sec) 
Heartbeat CPU 1 instructions: 1050000000 cycles: 789898924 heartbeat IPC: 1.058 cumulative IPC: 1.28307 (Simulation time: 4 hr 15 min 31 sec) 
Heartbeat CPU 2 instructions: 890000002 cycles: 790230251 heartbeat IPC: 1.06087 cumulative IPC: 1.08915 (Simulation time: 4 hr 15 min 35 sec) 
Heartbeat CPU 1 instructions: 1060000003 cycles: 799466950 heartbeat IPC: 1.04515 cumulative IPC: 1.28016 (Simulation time: 4 hr 17 min 48 sec) 
Heartbeat CPU 2 instructions: 900000000 cycles: 799674962 heartbeat IPC: 1.05879 cumulative IPC: 1.08878 (Simulation time: 4 hr 17 min 51 sec) 
Heartbeat CPU 1 instructions: 1070000001 cycles: 808983065 heartbeat IPC: 1.05085 cumulative IPC: 1.27739 (Simulation time: 4 hr 20 min 3 sec) 
Heartbeat CPU 2 instructions: 910000000 cycles: 809266506 heartbeat IPC: 1.04259 cumulative IPC: 1.08822 (Simulation time: 4 hr 20 min 7 sec) 
Heartbeat CPU 1 instructions: 1080000000 cycles: 818521805 heartbeat IPC: 1.04836 cumulative IPC: 1.27466 (Simulation time: 4 hr 22 min 30 sec) 
Heartbeat CPU 2 instructions: 920000001 cycles: 818965456 heartbeat IPC: 1.03104 cumulative IPC: 1.08753 (Simulation time: 4 hr 22 min 36 sec) 
Heartbeat CPU 3 instructions: 530000002 cycles: 821717120 heartbeat IPC: 0.264797 cumulative IPC: 0.586435 (Simulation time: 4 hr 23 min 14 sec) 
Heartbeat CPU 1 instructions: 1090000002 cycles: 828004649 heartbeat IPC: 1.05454 cumulative IPC: 1.27208 (Simulation time: 4 hr 24 min 49 sec) 
Heartbeat CPU 2 instructions: 930000001 cycles: 828763227 heartbeat IPC: 1.02064 cumulative IPC: 1.08672 (Simulation time: 4 hr 25 min 1 sec) 
Heartbeat CPU 0 instructions: 120000000 cycles: 837257163 heartbeat IPC: 0.0554831 cumulative IPC: 0.0774758 (Simulation time: 4 hr 27 min 2 sec) 
Heartbeat CPU 1 instructions: 1100000000 cycles: 837496377 heartbeat IPC: 1.05355 cumulative IPC: 1.26955 (Simulation time: 4 hr 27 min 5 sec) 
Heartbeat CPU 2 instructions: 940000002 cycles: 838562723 heartbeat IPC: 1.02046 cumulative IPC: 1.08593 (Simulation time: 4 hr 27 min 20 sec) 
Heartbeat CPU 1 instructions: 1110000002 cycles: 846933609 heartbeat IPC: 1.05963 cumulative IPC: 1.26716 (Simulation time: 4 hr 29 min 18 sec) 
Heartbeat CPU 2 instructions: 950000000 cycles: 848063460 heartbeat IPC: 1.05255 cumulative IPC: 1.08554 (Simulation time: 4 hr 29 min 34 sec) 
Heartbeat CPU 1 instructions: 1120000003 cycles: 856369705 heartbeat IPC: 1.05976 cumulative IPC: 1.26482 (Simulation time: 4 hr 31 min 40 sec) 
Heartbeat CPU 2 instructions: 960000002 cycles: 857543903 heartbeat IPC: 1.0548 cumulative IPC: 1.0852 (Simulation time: 4 hr 31 min 59 sec) 
Heartbeat CPU 3 instructions: 540000003 cycles: 859215491 heartbeat IPC: 0.266678 cumulative IPC: 0.572164 (Simulation time: 4 hr 32 min 24 sec) 
Heartbeat CPU 1 instructions: 1130000000 cycles: 865734391 heartbeat IPC: 1.06784 cumulative IPC: 1.26264 (Simulation time: 4 hr 33 min 57 sec) 
Heartbeat CPU 2 instructions: 970000000 cycles: 866837834 heartbeat IPC: 1.07597 cumulative IPC: 1.0851 (Simulation time: 4 hr 34 min 13 sec) 
Heartbeat CPU 1 instructions: 1140000003 cycles: 873058842 heartbeat IPC: 1.36529 cumulative IPC: 1.26352 (Simulation time: 4 hr 35 min 47 sec) 
Heartbeat CPU 2 instructions: 980000001 cycles: 875901151 heartbeat IPC: 1.10335 cumulative IPC: 1.08529 (Simulation time: 4 hr 36 min 35 sec) 
Heartbeat CPU 1 instructions: 1150000001 cycles: 879970123 heartbeat IPC: 1.44691 cumulative IPC: 1.26499 (Simulation time: 4 hr 37 min 43 sec) 
Heartbeat CPU 2 instructions: 990000000 cycles: 885199709 heartbeat IPC: 1.07544 cumulative IPC: 1.08518 (Simulation time: 4 hr 39 min 8 sec) 
Heartbeat CPU 1 instructions: 1160000001 cycles: 886851566 heartbeat IPC: 1.45318 cumulative IPC: 1.26648 (Simulation time: 4 hr 39 min 34 sec) 
Heartbeat CPU 1 instructions: 1170000001 cycles: 893783214 heartbeat IPC: 1.44266 cumulative IPC: 1.26788 (Simulation time: 4 hr 41 min 25 sec) 
*** Reached end of trace for Core: 2 Repeating trace: ./traces/ligra/ligra_BC.com-lj.ungraph.gcc_6.3.0_O3.drop_5000M.length_250M.champsimtrace.xz
Heartbeat CPU 2 instructions: 1000000001 cycles: 894248095 heartbeat IPC: 1.10517 cumulative IPC: 1.08539 (Simulation time: 4 hr 41 min 31 sec) 
Heartbeat CPU 1 instructions: 1180000001 cycles: 900681132 heartbeat IPC: 1.44971 cumulative IPC: 1.2693 (Simulation time: 4 hr 43 min 11 sec) 
Heartbeat CPU 2 instructions: 1010000001 cycles: 902995571 heartbeat IPC: 1.14319 cumulative IPC: 1.08596 (Simulation time: 4 hr 43 min 48 sec) 
Heartbeat CPU 1 instructions: 1190000000 cycles: 907564703 heartbeat IPC: 1.45273 cumulative IPC: 1.27072 (Simulation time: 4 hr 45 min 4 sec) 
Heartbeat CPU 2 instructions: 1020000001 cycles: 911777572 heartbeat IPC: 1.13869 cumulative IPC: 1.08648 (Simulation time: 4 hr 46 min 24 sec) 
Heartbeat CPU 3 instructions: 550000000 cycles: 911931550 heartbeat IPC: 0.189695 cumulative IPC: 0.549585 (Simulation time: 4 hr 46 min 27 sec) 
Heartbeat CPU 1 instructions: 1200000001 cycles: 914456402 heartbeat IPC: 1.45102 cumulative IPC: 1.27211 (Simulation time: 4 hr 47 min 13 sec) 
Heartbeat CPU 2 instructions: 1030000000 cycles: 920576328 heartbeat IPC: 1.13652 cumulative IPC: 1.08697 (Simulation time: 4 hr 49 min 8 sec) 
Heartbeat CPU 1 instructions: 1210000000 cycles: 921321101 heartbeat IPC: 1.45673 cumulative IPC: 1.27352 (Simulation time: 4 hr 49 min 22 sec) 
Heartbeat CPU 3 instructions: 560000003 cycles: 923879607 heartbeat IPC: 0.836956 cumulative IPC: 0.553379 (Simulation time: 4 hr 50 min 10 sec) 
Heartbeat CPU 1 instructions: 1220000002 cycles: 928240869 heartbeat IPC: 1.44514 cumulative IPC: 1.27482 (Simulation time: 4 hr 51 min 31 sec) 
Heartbeat CPU 2 instructions: 1040000000 cycles: 929435354 heartbeat IPC: 1.12879 cumulative IPC: 1.08738 (Simulation time: 4 hr 51 min 53 sec) 
Heartbeat CPU 3 instructions: 570000002 cycles: 936199895 heartbeat IPC: 0.811669 cumulative IPC: 0.556849 (Simulation time: 4 hr 53 min 41 sec) 
Heartbeat CPU 1 instructions: 1230000003 cycles: 936223485 heartbeat IPC: 1.25272 cumulative IPC: 1.27463 (Simulation time: 4 hr 53 min 42 sec) 
Heartbeat CPU 2 instructions: 1050000003 cycles: 938412584 heartbeat IPC: 1.11393 cumulative IPC: 1.08763 (Simulation time: 4 hr 54 min 19 sec) 
Heartbeat CPU 1 instructions: 1240000000 cycles: 944111489 heartbeat IPC: 1.26775 cumulative IPC: 1.27457 (Simulation time: 4 hr 55 min 50 sec) 
Heartbeat CPU 2 instructions: 1060000000 cycles: 947405337 heartbeat IPC: 1.11201 cumulative IPC: 1.08787 (Simulation time: 4 hr 56 min 52 sec) 
Heartbeat CPU 3 instructions: 580000000 cycles: 949198019 heartbeat IPC: 0.769342 cumulative IPC: 0.559818 (Simulation time: 4 hr 57 min 28 sec) 
Heartbeat CPU 1 instructions: 1250000002 cycles: 951344428 heartbeat IPC: 1.38256 cumulative IPC: 1.27541 (Simulation time: 4 hr 58 min 9 sec) 
Heartbeat CPU 2 instructions: 1070000000 cycles: 956412946 heartbeat IPC: 1.11017 cumulative IPC: 1.08809 (Simulation time: 4 hr 59 min 51 sec) 
Heartbeat CPU 1 instructions: 1260000003 cycles: 958441752 heartbeat IPC: 1.40898 cumulative IPC: 1.27642 (Simulation time: 5 hr 0 min 29 sec) 
Heartbeat CPU 3 instructions: 590000003 cycles: 961848558 heartbeat IPC: 0.79048 cumulative IPC: 0.562913 (Simulation time: 5 hr 1 min 33 sec) 
Heartbeat CPU 0 instructions: 130000002 cycles: 964486098 heartbeat IPC: 0.0785985 cumulative IPC: 0.0776269 (Simulation time: 5 hr 2 min 26 sec) 
Heartbeat CPU 2 instructions: 1080000001 cycles: 965363000 heartbeat IPC: 1.11731 cumulative IPC: 1.08836 (Simulation time: 5 hr 2 min 45 sec) 
Heartbeat CPU 1 instructions: 1270000002 cycles: 965506146 heartbeat IPC: 1.41555 cumulative IPC: 1.27746 (Simulation time: 5 hr 2 min 48 sec) 
Heartbeat CPU 1 instructions: 1280000000 cycles: 972636729 heartbeat IPC: 1.40241 cumulative IPC: 1.27839 (Simulation time: 5 hr 5 min 3 sec) 
Heartbeat CPU 3 instructions: 600000001 cycles: 973151079 heartbeat IPC: 0.884758 cumulative IPC: 0.566725 (Simulation time: 5 hr 5 min 14 sec) 
Heartbeat CPU 2 instructions: 1090000000 cycles: 974280637 heartbeat IPC: 1.12137 cumulative IPC: 1.08867 (Simulation time: 5 hr 5 min 34 sec) 
Heartbeat CPU 1 instructions: 1290000000 cycles: 979413498 heartbeat IPC: 1.47563 cumulative IPC: 1.27978 (Simulation time: 5 hr 7 min 18 sec) 
Heartbeat CPU 2 instructions: 1100000000 cycles: 983241226 heartbeat IPC: 1.116 cumulative IPC: 1.08892 (Simulation time: 5 hr 8 min 31 sec) 
Heartbeat CPU 3 instructions: 610000002 cycles: 983895333 heartbeat IPC: 0.93073 cumulative IPC: 0.570778 (Simulation time: 5 hr 8 min 45 sec) 
Heartbeat CPU 1 instructions: 1300000001 cycles: 986203983 heartbeat IPC: 1.47265 cumulative IPC: 1.28114 (Simulation time: 5 hr 9 min 30 sec) 
Heartbeat CPU 2 instructions: 1110000000 cycles: 992226192 heartbeat IPC: 1.11297 cumulative IPC: 1.08915 (Simulation time: 5 hr 11 min 28 sec) 
Heartbeat CPU 1 instructions: 1310000002 cycles: 992952009 heartbeat IPC: 1.48191 cumulative IPC: 1.28253 (Simulation time: 5 hr 11 min 41 sec) 
Heartbeat CPU 3 instructions: 620000001 cycles: 995568663 heartbeat IPC: 0.856654 cumulative IPC: 0.574196 (Simulation time: 5 hr 12 min 30 sec) 
Heartbeat CPU 1 instructions: 1320000000 cycles: 999724858 heartbeat IPC: 1.47648 cumulative IPC: 1.28387 (Simulation time: 5 hr 13 min 49 sec) 
Heartbeat CPU 2 instructions: 1120000002 cycles: 1001260251 heartbeat IPC: 1.10692 cumulative IPC: 1.08931 (Simulation time: 5 hr 14 min 18 sec) 
Heartbeat CPU 1 instructions: 1330000001 cycles: 1006476706 heartbeat IPC: 1.48108 cumulative IPC: 1.28522 (Simulation time: 5 hr 16 min 3 sec) 
Heartbeat CPU 3 instructions: 630000000 cycles: 1006872067 heartbeat IPC: 0.884689 cumulative IPC: 0.577748 (Simulation time: 5 hr 16 min 10 sec) 
Heartbeat CPU 2 instructions: 1130000000 cycles: 1010182071 heartbeat IPC: 1.12085 cumulative IPC: 1.08959 (Simulation time: 5 hr 17 min 19 sec) 
Heartbeat CPU 1 instructions: 1340000002 cycles: 1013237843 heartbeat IPC: 1.47904 cumulative IPC: 1.28653 (Simulation time: 5 hr 18 min 17 sec) 
Heartbeat CPU 3 instructions: 640000001 cycles: 1018369929 heartbeat IPC: 0.869727 cumulative IPC: 0.581107 (Simulation time: 5 hr 19 min 54 sec) 
Heartbeat CPU 2 instructions: 1140000000 cycles: 1019052386 heartbeat IPC: 1.12736 cumulative IPC: 1.08993 (Simulation time: 5 hr 20 min 8 sec) 
Heartbeat CPU 1 instructions: 1350000000 cycles: 1019997728 heartbeat IPC: 1.47931 cumulative IPC: 1.28784 (Simulation time: 5 hr 20 min 25 sec) 
Heartbeat CPU 1 instructions: 1360000001 cycles: 1026778301 heartbeat IPC: 1.4748 cumulative IPC: 1.28909 (Simulation time: 5 hr 22 min 35 sec) 
Heartbeat CPU 2 instructions: 1150000001 cycles: 1027886212 heartbeat IPC: 1.13201 cumulative IPC: 1.0903 (Simulation time: 5 hr 22 min 54 sec) 
Heartbeat CPU 3 instructions: 650000000 cycles: 1029812213 heartbeat IPC: 0.873951 cumulative IPC: 0.584422 (Simulation time: 5 hr 23 min 33 sec) 
Heartbeat CPU 1 instructions: 1370000000 cycles: 1033511957 heartbeat IPC: 1.48508 cumulative IPC: 1.29039 (Simulation time: 5 hr 24 min 45 sec) 
Heartbeat CPU 2 instructions: 1160000001 cycles: 1036910272 heartbeat IPC: 1.10815 cumulative IPC: 1.09045 (Simulation time: 5 hr 25 min 48 sec) 
Heartbeat CPU 1 instructions: 1380000003 cycles: 1040293515 heartbeat IPC: 1.47459 cumulative IPC: 1.29162 (Simulation time: 5 hr 26 min 52 sec) 
Heartbeat CPU 3 instructions: 660000000 cycles: 1041161836 heartbeat IPC: 0.881087 cumulative IPC: 0.587716 (Simulation time: 5 hr 27 min 8 sec) 
Heartbeat CPU 2 instructions: 1170000002 cycles: 1046030289 heartbeat IPC: 1.09649 cumulative IPC: 1.09051 (Simulation time: 5 hr 28 min 39 sec) 
Heartbeat CPU 0 instructions: 140000000 cycles: 1046075440 heartbeat IPC: 0.122565 cumulative IPC: 0.0811967 (Simulation time: 5 hr 28 min 40 sec) 
Heartbeat CPU 1 instructions: 1390000001 cycles: 1047061436 heartbeat IPC: 1.47756 cumulative IPC: 1.29284 (Simulation time: 5 hr 29 min 1 sec) 
Heartbeat CPU 3 instructions: 670000000 cycles: 1052636199 heartbeat IPC: 0.871508 cumulative IPC: 0.590867 (Simulation time: 5 hr 30 min 45 sec) 
Heartbeat CPU 1 instructions: 1400000000 cycles: 1053840593 heartbeat IPC: 1.47511 cumulative IPC: 1.29404 (Simulation time: 5 hr 31 min 9 sec) 
Heartbeat CPU 2 instructions: 1180000002 cycles: 1055306597 heartbeat IPC: 1.07802 cumulative IPC: 1.0904 (Simulation time: 5 hr 31 min 38 sec) 
Heartbeat CPU 1 instructions: 1410000003 cycles: 1060607282 heartbeat IPC: 1.47783 cumulative IPC: 1.29523 (Simulation time: 5 hr 33 min 15 sec) 
Heartbeat CPU 3 instructions: 680000000 cycles: 1064019666 heartbeat IPC: 0.878467 cumulative IPC: 0.593999 (Simulation time: 5 hr 34 min 23 sec) 
Heartbeat CPU 2 instructions: 1190000000 cycles: 1064548964 heartbeat IPC: 1.08197 cumulative IPC: 1.09032 (Simulation time: 5 hr 34 min 34 sec) 
Heartbeat CPU 1 instructions: 1420000003 cycles: 1067381804 heartbeat IPC: 1.47612 cumulative IPC: 1.2964 (Simulation time: 5 hr 35 min 29 sec) 
Heartbeat CPU 2 instructions: 1200000001 cycles: 1073473609 heartbeat IPC: 1.12049 cumulative IPC: 1.09058 (Simulation time: 5 hr 37 min 20 sec) 
Heartbeat CPU 3 instructions: 690000001 cycles: 1075763871 heartbeat IPC: 0.851484 cumulative IPC: 0.596861 (Simulation time: 5 hr 37 min 57 sec) 
Heartbeat CPU 1 instructions: 1430000000 cycles: 1076226278 heartbeat IPC: 1.13065 cumulative IPC: 1.29501 (Simulation time: 5 hr 38 min 4 sec) 
Heartbeat CPU 2 instructions: 1210000000 cycles: 1082466079 heartbeat IPC: 1.11204 cumulative IPC: 1.09076 (Simulation time: 5 hr 39 min 40 sec) 
Heartbeat CPU 1 instructions: 1440000002 cycles: 1088942725 heartbeat IPC: 0.786383 cumulative IPC: 1.28897 (Simulation time: 5 hr 41 min 14 sec) 
Heartbeat CPU 3 instructions: 700000000 cycles: 1089413940 heartbeat IPC: 0.732597 cumulative IPC: 0.598592 (Simulation time: 5 hr 41 min 20 sec) 
Heartbeat CPU 2 instructions: 1220000001 cycles: 1091412274 heartbeat IPC: 1.11779 cumulative IPC: 1.09098 (Simulation time: 5 hr 41 min 51 sec) 
Heartbeat CPU 2 instructions: 1230000000 cycles: 1100530571 heartbeat IPC: 1.0967 cumulative IPC: 1.09103 (Simulation time: 5 hr 44 min 5 sec) 
Heartbeat CPU 1 instructions: 1450000001 cycles: 1101718803 heartbeat IPC: 0.782713 cumulative IPC: 1.28299 (Simulation time: 5 hr 44 min 21 sec) 
Heartbeat CPU 3 instructions: 710000000 cycles: 1103230684 heartbeat IPC: 0.72376 cumulative IPC: 0.600187 (Simulation time: 5 hr 44 min 44 sec) 
Heartbeat CPU 2 instructions: 1240000001 cycles: 1109932943 heartbeat IPC: 1.06356 cumulative IPC: 1.0908 (Simulation time: 5 hr 46 min 25 sec) 
Heartbeat CPU 1 instructions: 1460000000 cycles: 1114409468 heartbeat IPC: 0.787981 cumulative IPC: 1.27726 (Simulation time: 5 hr 47 min 25 sec) 
Heartbeat CPU 3 instructions: 720000002 cycles: 1117312363 heartbeat IPC: 0.710143 cumulative IPC: 0.601597 (Simulation time: 5 hr 48 min 9 sec) 
*** Reached end of trace for Core: 2 Repeating trace: ./traces/ligra/ligra_BC.com-lj.ungraph.gcc_6.3.0_O3.drop_5000M.length_250M.champsimtrace.xz
Heartbeat CPU 2 instructions: 1250000000 cycles: 1119081579 heartbeat IPC: 1.09306 cumulative IPC: 1.09081 (Simulation time: 5 hr 48 min 34 sec) 
Heartbeat CPU 1 instructions: 1470000002 cycles: 1127336743 heartbeat IPC: 0.773558 cumulative IPC: 1.27138 (Simulation time: 5 hr 50 min 42 sec) 
Heartbeat CPU 2 instructions: 1260000000 cycles: 1127935267 heartbeat IPC: 1.12947 cumulative IPC: 1.09112 (Simulation time: 5 hr 50 min 51 sec) 
Heartbeat CPU 3 instructions: 730000001 cycles: 1132371846 heartbeat IPC: 0.664033 cumulative IPC: 0.602441 (Simulation time: 5 hr 51 min 45 sec) 
Heartbeat CPU 2 instructions: 1270000002 cycles: 1137210921 heartbeat IPC: 1.07809 cumulative IPC: 1.09102 (Simulation time: 5 hr 52 min 34 sec) 
Heartbeat CPU 1 instructions: 1480000003 cycles: 1146172547 heartbeat IPC: 0.530904 cumulative IPC: 1.25901 (Simulation time: 5 hr 54 min 30 sec) 
Heartbeat CPU 2 instructions: 1280000001 cycles: 1146523308 heartbeat IPC: 1.07384 cumulative IPC: 1.09087 (Simulation time: 5 hr 54 min 35 sec) 
Heartbeat CPU 3 instructions: 740000003 cycles: 1150362362 heartbeat IPC: 0.555849 cumulative IPC: 0.6017 (Simulation time: 5 hr 55 min 33 sec) 
Heartbeat CPU 2 instructions: 1290000001 cycles: 1155840002 heartbeat IPC: 1.07334 cumulative IPC: 1.09073 (Simulation time: 5 hr 56 min 54 sec) 
Heartbeat CPU 1 instructions: 1490000002 cycles: 1155938559 heartbeat IPC: 1.02396 cumulative IPC: 1.25699 (Simulation time: 5 hr 56 min 55 sec) 
Heartbeat CPU 1 instructions: 1500000000 cycles: 1162214087 heartbeat IPC: 1.59349 cumulative IPC: 1.25884 (Simulation time: 5 hr 58 min 54 sec) 
Heartbeat CPU 0 instructions: 150000000 cycles: 1163373581 heartbeat IPC: 0.0852528 cumulative IPC: 0.0816124 (Simulation time: 5 hr 59 min 18 sec) 
*** Reached end of trace for Core: 3 Repeating trace: ./traces/ligra/ligra_MIS.com-lj.ungraph.gcc_6.3.0_O3.drop_21250M.length_250M.champsimtrace.xz
Heartbeat CPU 3 instructions: 750000002 cycles: 1164224560 heartbeat IPC: 0.721386 cumulative IPC: 0.603149 (Simulation time: 5 hr 59 min 36 sec) 
Heartbeat CPU 2 instructions: 1300000000 cycles: 1164714592 heartbeat IPC: 1.12681 cumulative IPC: 1.09101 (Simulation time: 5 hr 59 min 45 sec) 
Heartbeat CPU 1 instructions: 1510000003 cycles: 1168589473 heartbeat IPC: 1.56853 cumulative IPC: 1.26055 (Simulation time: 6 hr 0 min 45 sec) 
Heartbeat CPU 2 instructions: 1310000001 cycles: 1174039290 heartbeat IPC: 1.07242 cumulative IPC: 1.09086 (Simulation time: 6 hr 2 min 7 sec) 
Heartbeat CPU 1 instructions: 1520000000 cycles: 1175506827 heartbeat IPC: 1.44564 cumulative IPC: 1.26166 (Simulation time: 6 hr 2 min 28 sec) 
Heartbeat CPU 1 instructions: 1530000001 cycles: 1182401881 heartbeat IPC: 1.45032 cumulative IPC: 1.26278 (Simulation time: 6 hr 4 min 11 sec) 
Heartbeat CPU 2 instructions: 1320000000 cycles: 1183561694 heartbeat IPC: 1.05015 cumulative IPC: 1.09053 (Simulation time: 6 hr 4 min 27 sec) 
Heartbeat CPU 1 instructions: 1540000000 cycles: 1189182005 heartbeat IPC: 1.4749 cumulative IPC: 1.26401 (Simulation time: 6 hr 6 min 1 sec) 
Heartbeat CPU 2 instructions: 1330000000 cycles: 1193090190 heartbeat IPC: 1.04948 cumulative IPC: 1.09019 (Simulation time: 6 hr 7 min 3 sec) 
Heartbeat CPU 1 instructions: 1550000003 cycles: 1196041994 heartbeat IPC: 1.45773 cumulative IPC: 1.26514 (Simulation time: 6 hr 7 min 52 sec) 
Heartbeat CPU 2 instructions: 1340000001 cycles: 1202671750 heartbeat IPC: 1.04367 cumulative IPC: 1.08982 (Simulation time: 6 hr 9 min 34 sec) 
Heartbeat CPU 1 instructions: 1560000000 cycles: 1202895779 heartbeat IPC: 1.45905 cumulative IPC: 1.26626 (Simulation time: 6 hr 9 min 37 sec) 
Heartbeat CPU 3 instructions: 760000001 cycles: 1204797790 heartbeat IPC: 0.246468 cumulative IPC: 0.590945 (Simulation time: 6 hr 10 min 1 sec) 
Heartbeat CPU 2 instructions: 1350000002 cycles: 1212555397 heartbeat IPC: 1.01177 cumulative IPC: 1.08917 (Simulation time: 6 hr 11 min 36 sec) 
Heartbeat CPU 1 instructions: 1570000002 cycles: 1215137616 heartbeat IPC: 0.816871 cumulative IPC: 1.26166 (Simulation time: 6 hr 12 min 9 sec) 
Heartbeat CPU 2 instructions: 1360000001 cycles: 1222293184 heartbeat IPC: 1.02693 cumulative IPC: 1.08867 (Simulation time: 6 hr 13 min 33 sec) 
Heartbeat CPU 1 instructions: 1580000003 cycles: 1227447445 heartbeat IPC: 0.812359 cumulative IPC: 1.25708 (Simulation time: 6 hr 14 min 35 sec) 
Heartbeat CPU 2 instructions: 1370000000 cycles: 1232155124 heartbeat IPC: 1.014 cumulative IPC: 1.08806 (Simulation time: 6 hr 15 min 36 sec) 
Heartbeat CPU 1 instructions: 1590000002 cycles: 1238492245 heartbeat IPC: 0.905403 cumulative IPC: 1.2539 (Simulation time: 6 hr 16 min 55 sec) 
Heartbeat CPU 2 instructions: 1380000001 cycles: 1242097507 heartbeat IPC: 1.0058 cumulative IPC: 1.08739 (Simulation time: 6 hr 17 min 48 sec) 
Heartbeat CPU 1 instructions: 1600000002 cycles: 1246325415 heartbeat IPC: 1.27662 cumulative IPC: 1.25404 (Simulation time: 6 hr 18 min 55 sec) 
Heartbeat CPU 3 instructions: 770000000 cycles: 1250137568 heartbeat IPC: 0.220557 cumulative IPC: 0.577305 (Simulation time: 6 hr 19 min 48 sec) 
Heartbeat CPU 2 instructions: 1390000001 cycles: 1251877986 heartbeat IPC: 1.02244 cumulative IPC: 1.08688 (Simulation time: 6 hr 20 min 19 sec) 
Heartbeat CPU 1 instructions: 1610000002 cycles: 1254109790 heartbeat IPC: 1.28462 cumulative IPC: 1.25424 (Simulation time: 6 hr 20 min 55 sec) 
Heartbeat CPU 2 instructions: 1400000000 cycles: 1261597834 heartbeat IPC: 1.02882 cumulative IPC: 1.08642 (Simulation time: 6 hr 23 min 0 sec) 
Heartbeat CPU 1 instructions: 1620000002 cycles: 1261809340 heartbeat IPC: 1.29878 cumulative IPC: 1.25451 (Simulation time: 6 hr 23 min 2 sec) 
Heartbeat CPU 1 instructions: 1630000001 cycles: 1269760068 heartbeat IPC: 1.25775 cumulative IPC: 1.25453 (Simulation time: 6 hr 25 min 5 sec) 
Heartbeat CPU 2 instructions: 1410000002 cycles: 1271287198 heartbeat IPC: 1.03206 cumulative IPC: 1.086 (Simulation time: 6 hr 25 min 29 sec) 
Heartbeat CPU 1 instructions: 1640000002 cycles: 1278031484 heartbeat IPC: 1.20898 cumulative IPC: 1.25423 (Simulation time: 6 hr 27 min 8 sec) 
Heartbeat CPU 2 instructions: 1420000000 cycles: 1280956926 heartbeat IPC: 1.03416 cumulative IPC: 1.0856 (Simulation time: 6 hr 27 min 51 sec) 
Heartbeat CPU 1 instructions: 1650000000 cycles: 1286291909 heartbeat IPC: 1.21059 cumulative IPC: 1.25395 (Simulation time: 6 hr 29 min 10 sec) 
Heartbeat CPU 3 instructions: 780000003 cycles: 1289947365 heartbeat IPC: 0.251195 cumulative IPC: 0.56709 (Simulation time: 6 hr 30 min 5 sec) 
Heartbeat CPU 2 instructions: 1430000000 cycles: 1290751610 heartbeat IPC: 1.02096 cumulative IPC: 1.08511 (Simulation time: 6 hr 30 min 17 sec) 
Heartbeat CPU 1 instructions: 1660000003 cycles: 1294389360 heartbeat IPC: 1.23496 cumulative IPC: 1.25383 (Simulation time: 6 hr 31 min 12 sec) 
Heartbeat CPU 2 instructions: 1440000001 cycles: 1300527033 heartbeat IPC: 1.02297 cumulative IPC: 1.08463 (Simulation time: 6 hr 32 min 48 sec) 
Heartbeat CPU 1 instructions: 1670000001 cycles: 1302499935 heartbeat IPC: 1.23296 cumulative IPC: 1.2537 (Simulation time: 6 hr 33 min 16 sec) 
Heartbeat CPU 2 instructions: 1450000000 cycles: 1310015573 heartbeat IPC: 1.0539 cumulative IPC: 1.08441 (Simulation time: 6 hr 34 min 48 sec) 
Heartbeat CPU 1 instructions: 1680000001 cycles: 1310658369 heartbeat IPC: 1.22573 cumulative IPC: 1.25352 (Simulation time: 6 hr 34 min 59 sec) 
Heartbeat CPU 1 instructions: 1690000003 cycles: 1318776100 heartbeat IPC: 1.23187 cumulative IPC: 1.25339 (Simulation time: 6 hr 36 min 58 sec) 
Heartbeat CPU 2 instructions: 1460000001 cycles: 1319428518 heartbeat IPC: 1.06237 cumulative IPC: 1.08425 (Simulation time: 6 hr 37 min 8 sec) 
Heartbeat CPU 3 instructions: 790000001 cycles: 1326743813 heartbeat IPC: 0.271765 cumulative IPC: 0.55878 (Simulation time: 6 hr 39 min 1 sec) 
Heartbeat CPU 1 instructions: 1700000000 cycles: 1326908780 heartbeat IPC: 1.22961 cumulative IPC: 1.25324 (Simulation time: 6 hr 39 min 4 sec) 
Heartbeat CPU 2 instructions: 1470000000 cycles: 1328802931 heartbeat IPC: 1.06673 cumulative IPC: 1.08412 (Simulation time: 6 hr 39 min 33 sec) 
Heartbeat CPU 1 instructions: 1710000000 cycles: 1334744732 heartbeat IPC: 1.27617 cumulative IPC: 1.25337 (Simulation time: 6 hr 41 min 2 sec) 
Heartbeat CPU 2 instructions: 1480000001 cycles: 1338116295 heartbeat IPC: 1.07373 cumulative IPC: 1.08405 (Simulation time: 6 hr 41 min 53 sec) 
Heartbeat CPU 1 instructions: 1720000003 cycles: 1341606433 heartbeat IPC: 1.45737 cumulative IPC: 1.25443 (Simulation time: 6 hr 42 min 48 sec) 
Heartbeat CPU 2 instructions: 1490000000 cycles: 1347422011 heartbeat IPC: 1.07461 cumulative IPC: 1.08398 (Simulation time: 6 hr 44 min 24 sec) 
Heartbeat CPU 1 instructions: 1730000003 cycles: 1348273683 heartbeat IPC: 1.49987 cumulative IPC: 1.25566 (Simulation time: 6 hr 44 min 36 sec) 
Heartbeat CPU 0 instructions: 160000001 cycles: 1351482013 heartbeat IPC: 0.0531608 cumulative IPC: 0.0775959 (Simulation time: 6 hr 45 min 23 sec) 
Heartbeat CPU 1 instructions: 1740000000 cycles: 1354923330 heartbeat IPC: 1.50384 cumulative IPC: 1.2569 (Simulation time: 6 hr 46 min 18 sec) 
*** Reached end of trace for Core: 2 Repeating trace: ./traces/ligra/ligra_BC.com-lj.ungraph.gcc_6.3.0_O3.drop_5000M.length_250M.champsimtrace.xz
Heartbeat CPU 2 instructions: 1500000001 cycles: 1356451594 heartbeat IPC: 1.10747 cumulative IPC: 1.08414 (Simulation time: 6 hr 46 min 45 sec) 
Heartbeat CPU 1 instructions: 1750000002 cycles: 1361642982 heartbeat IPC: 1.48817 cumulative IPC: 1.25806 (Simulation time: 6 hr 48 min 6 sec) 
Heartbeat CPU 2 instructions: 1510000001 cycles: 1365173703 heartbeat IPC: 1.14651 cumulative IPC: 1.08454 (Simulation time: 6 hr 49 min 4 sec) 
Heartbeat CPU 1 instructions: 1760000000 cycles: 1368265520 heartbeat IPC: 1.50999 cumulative IPC: 1.25929 (Simulation time: 6 hr 49 min 54 sec) 
Heartbeat CPU 3 instructions: 800000000 cycles: 1373499224 heartbeat IPC: 0.213879 cumulative IPC: 0.546875 (Simulation time: 6 hr 51 min 26 sec) 
Heartbeat CPU 2 instructions: 1520000000 cycles: 1373925454 heartbeat IPC: 1.14263 cumulative IPC: 1.08492 (Simulation time: 6 hr 51 min 35 sec) 
Heartbeat CPU 1 instructions: 1770000002 cycles: 1374917747 heartbeat IPC: 1.50326 cumulative IPC: 1.26049 (Simulation time: 6 hr 51 min 52 sec) 
Heartbeat CPU 1 instructions: 1780000001 cycles: 1381854267 heartbeat IPC: 1.44164 cumulative IPC: 1.26141 (Simulation time: 6 hr 53 min 52 sec) 
Heartbeat CPU 2 instructions: 1530000002 cycles: 1382736001 heartbeat IPC: 1.135 cumulative IPC: 1.08524 (Simulation time: 6 hr 54 min 6 sec) 
Heartbeat CPU 3 instructions: 810000003 cycles: 1385193565 heartbeat IPC: 0.855115 cumulative IPC: 0.549513 (Simulation time: 6 hr 54 min 51 sec) 
Heartbeat CPU 1 instructions: 1790000003 cycles: 1388631028 heartbeat IPC: 1.47563 cumulative IPC: 1.26247 (Simulation time: 6 hr 55 min 51 sec) 
Heartbeat CPU 2 instructions: 1540000000 cycles: 1391556265 heartbeat IPC: 1.13375 cumulative IPC: 1.08555 (Simulation time: 6 hr 56 min 39 sec) 
Heartbeat CPU 1 instructions: 1800000002 cycles: 1395404355 heartbeat IPC: 1.47638 cumulative IPC: 1.26352 (Simulation time: 6 hr 57 min 50 sec) 
Heartbeat CPU 3 instructions: 820000002 cycles: 1396384420 heartbeat IPC: 0.893587 cumulative IPC: 0.552309 (Simulation time: 6 hr 58 min 8 sec) 
Heartbeat CPU 2 instructions: 1550000001 cycles: 1400424454 heartbeat IPC: 1.12763 cumulative IPC: 1.08582 (Simulation time: 6 hr 59 min 24 sec) 
Heartbeat CPU 1 instructions: 1810000000 cycles: 1402127478 heartbeat IPC: 1.4874 cumulative IPC: 1.26461 (Simulation time: 6 hr 59 min 57 sec) 
Heartbeat CPU 3 instructions: 830000000 cycles: 1407529911 heartbeat IPC: 0.897224 cumulative IPC: 0.555077 (Simulation time: 7 hr 1 min 33 sec) 
Heartbeat CPU 1 instructions: 1820000003 cycles: 1408875969 heartbeat IPC: 1.48181 cumulative IPC: 1.26567 (Simulation time: 7 hr 1 min 59 sec) 
Heartbeat CPU 2 instructions: 1560000002 cycles: 1409299938 heartbeat IPC: 1.1267 cumulative IPC: 1.08609 (Simulation time: 7 hr 2 min 8 sec) 
Heartbeat CPU 1 instructions: 1830000001 cycles: 1415614744 heartbeat IPC: 1.48395 cumulative IPC: 1.26672 (Simulation time: 7 hr 4 min 14 sec) 
Heartbeat CPU 2 instructions: 1570000000 cycles: 1418207390 heartbeat IPC: 1.12266 cumulative IPC: 1.08632 (Simulation time: 7 hr 5 min 4 sec) 
Heartbeat CPU 3 instructions: 840000003 cycles: 1418844628 heartbeat IPC: 0.883805 cumulative IPC: 0.557734 (Simulation time: 7 hr 5 min 14 sec) 
Heartbeat CPU 1 instructions: 1840000003 cycles: 1423231455 heartbeat IPC: 1.3129 cumulative IPC: 1.26697 (Simulation time: 7 hr 6 min 25 sec) 
Heartbeat CPU 2 instructions: 1580000001 cycles: 1427241178 heartbeat IPC: 1.10696 cumulative IPC: 1.08645 (Simulation time: 7 hr 7 min 29 sec) 
Heartbeat CPU 1 instructions: 1850000003 cycles: 1430943740 heartbeat IPC: 1.29663 cumulative IPC: 1.26713 (Simulation time: 7 hr 8 min 29 sec) 
Heartbeat CPU 3 instructions: 850000001 cycles: 1432097289 heartbeat IPC: 0.754565 cumulative IPC: 0.55958 (Simulation time: 7 hr 8 min 49 sec) 
Heartbeat CPU 2 instructions: 1590000002 cycles: 1436301781 heartbeat IPC: 1.10368 cumulative IPC: 1.08656 (Simulation time: 7 hr 9 min 54 sec) 
Heartbeat CPU 1 instructions: 1860000002 cycles: 1438800602 heartbeat IPC: 1.27277 cumulative IPC: 1.26716 (Simulation time: 7 hr 10 min 39 sec) 
Heartbeat CPU 0 instructions: 170000001 cycles: 1444818582 heartbeat IPC: 0.107139 cumulative IPC: 0.0795298 (Simulation time: 7 hr 12 min 36 sec) 
Heartbeat CPU 2 instructions: 1600000000 cycles: 1445406076 heartbeat IPC: 1.09838 cumulative IPC: 1.08664 (Simulation time: 7 hr 12 min 48 sec) 
Heartbeat CPU 3 instructions: 860000002 cycles: 1445535948 heartbeat IPC: 0.744122 cumulative IPC: 0.561319 (Simulation time: 7 hr 12 min 50 sec) 
Heartbeat CPU 1 instructions: 1870000000 cycles: 1445964072 heartbeat IPC: 1.39597 cumulative IPC: 1.26781 (Simulation time: 7 hr 12 min 58 sec) 
Heartbeat CPU 1 instructions: 1880000003 cycles: 1453038338 heartbeat IPC: 1.41357 cumulative IPC: 1.26853 (Simulation time: 7 hr 15 min 10 sec) 
Heartbeat CPU 2 instructions: 1610000000 cycles: 1454512511 heartbeat IPC: 1.09812 cumulative IPC: 1.08671 (Simulation time: 7 hr 15 min 38 sec) 
Heartbeat CPU 3 instructions: 870000001 cycles: 1459436963 heartbeat IPC: 0.719372 cumulative IPC: 0.562844 (Simulation time: 7 hr 17 min 7 sec) 
Heartbeat CPU 1 instructions: 1890000003 cycles: 1460094503 heartbeat IPC: 1.4172 cumulative IPC: 1.26926 (Simulation time: 7 hr 17 min 20 sec) 
Heartbeat CPU 2 instructions: 1620000001 cycles: 1463651794 heartbeat IPC: 1.09418 cumulative IPC: 1.08676 (Simulation time: 7 hr 18 min 27 sec) 
Heartbeat CPU 1 instructions: 1900000002 cycles: 1467223793 heartbeat IPC: 1.40266 cumulative IPC: 1.26991 (Simulation time: 7 hr 19 min 30 sec) 
Heartbeat CPU 3 instructions: 880000000 cycles: 1472033011 heartbeat IPC: 0.7939 cumulative IPC: 0.564847 (Simulation time: 7 hr 20 min 57 sec) 
Heartbeat CPU 2 instructions: 1630000002 cycles: 1472642830 heartbeat IPC: 1.11222 cumulative IPC: 1.08691 (Simulation time: 7 hr 21 min 9 sec) 
Heartbeat CPU 1 instructions: 1910000001 cycles: 1474430358 heartbeat IPC: 1.38762 cumulative IPC: 1.2705 (Simulation time: 7 hr 21 min 40 sec) 
Heartbeat CPU 2 instructions: 1640000002 cycles: 1481567809 heartbeat IPC: 1.12045 cumulative IPC: 1.08712 (Simulation time: 7 hr 23 min 41 sec) 
Heartbeat CPU 1 instructions: 1920000002 cycles: 1481578495 heartbeat IPC: 1.39897 cumulative IPC: 1.27113 (Simulation time: 7 hr 23 min 41 sec) 
Heartbeat CPU 3 instructions: 890000001 cycles: 1484151714 heartbeat IPC: 0.825171 cumulative IPC: 0.567 (Simulation time: 7 hr 24 min 24 sec) 
Heartbeat CPU 1 instructions: 1930000000 cycles: 1488732208 heartbeat IPC: 1.39788 cumulative IPC: 1.27174 (Simulation time: 7 hr 25 min 53 sec) 
Heartbeat CPU 2 instructions: 1650000000 cycles: 1490468087 heartbeat IPC: 1.12356 cumulative IPC: 1.08734 (Simulation time: 7 hr 26 min 28 sec) 
Heartbeat CPU 1 instructions: 1940000002 cycles: 1495872917 heartbeat IPC: 1.40042 cumulative IPC: 1.27236 (Simulation time: 7 hr 28 min 5 sec) 
Heartbeat CPU 3 instructions: 900000000 cycles: 1496288359 heartbeat IPC: 0.823951 cumulative IPC: 0.569111 (Simulation time: 7 hr 28 min 13 sec) 
Heartbeat CPU 2 instructions: 1660000000 cycles: 1499565294 heartbeat IPC: 1.09924 cumulative IPC: 1.08741 (Simulation time: 7 hr 29 min 16 sec) 
Heartbeat CPU 1 instructions: 1950000003 cycles: 1502992416 heartbeat IPC: 1.40459 cumulative IPC: 1.273 (Simulation time: 7 hr 30 min 21 sec) 
Heartbeat CPU 3 instructions: 910000003 cycles: 1508321706 heartbeat IPC: 0.831024 cumulative IPC: 0.571227 (Simulation time: 7 hr 32 min 2 sec) 
Heartbeat CPU 2 instructions: 1670000001 cycles: 1508757018 heartbeat IPC: 1.08794 cumulative IPC: 1.08742 (Simulation time: 7 hr 32 min 10 sec) 
Heartbeat CPU 1 instructions: 1960000001 cycles: 1510116568 heartbeat IPC: 1.40368 cumulative IPC: 1.27362 (Simulation time: 7 hr 32 min 35 sec) 
Heartbeat CPU 1 instructions: 1970000002 cycles: 1517223944 heartbeat IPC: 1.40699 cumulative IPC: 1.27426 (Simulation time: 7 hr 34 min 44 sec) 
Heartbeat CPU 2 instructions: 1680000001 cycles: 1518068878 heartbeat IPC: 1.0739 cumulative IPC: 1.08733 (Simulation time: 7 hr 35 min 0 sec) 
Heartbeat CPU 3 instructions: 920000000 cycles: 1520294315 heartbeat IPC: 0.83524 cumulative IPC: 0.573333 (Simulation time: 7 hr 35 min 43 sec) 
Heartbeat CPU 1 instructions: 1980000000 cycles: 1524339845 heartbeat IPC: 1.4053 cumulative IPC: 1.27488 (Simulation time: 7 hr 36 min 55 sec) 
Heartbeat CPU 2 instructions: 1690000000 cycles: 1527377099 heartbeat IPC: 1.07432 cumulative IPC: 1.08725 (Simulation time: 7 hr 37 min 56 sec) 
Heartbeat CPU 1 instructions: 1990000002 cycles: 1531413802 heartbeat IPC: 1.41364 cumulative IPC: 1.27552 (Simulation time: 7 hr 39 min 9 sec) 
Heartbeat CPU 3 instructions: 930000000 cycles: 1532375083 heartbeat IPC: 0.827762 cumulative IPC: 0.575364 (Simulation time: 7 hr 39 min 27 sec) 
Heartbeat CPU 0 instructions: 180000002 cycles: 1535630171 heartbeat IPC: 0.110118 cumulative IPC: 0.0813614 (Simulation time: 7 hr 40 min 30 sec) 
Heartbeat CPU 2 instructions: 1700000001 cycles: 1536365504 heartbeat IPC: 1.11254 cumulative IPC: 1.0874 (Simulation time: 7 hr 40 min 44 sec) 
*** Reached end of trace for Core: 1 Repeating trace: ./traces/spec/437.leslie3d-273B.champsimtrace.xz
Heartbeat CPU 1 instructions: 2000000000 cycles: 1538441961 heartbeat IPC: 1.42285 cumulative IPC: 1.27621 (Simulation time: 7 hr 41 min 24 sec) 
Heartbeat CPU 3 instructions: 940000001 cycles: 1544068168 heartbeat IPC: 0.855206 cumulative IPC: 0.577509 (Simulation time: 7 hr 43 min 19 sec) 
Heartbeat CPU 1 instructions: 2010000003 cycles: 1545024791 heartbeat IPC: 1.5191 cumulative IPC: 1.27725 (Simulation time: 7 hr 43 min 37 sec) 
Heartbeat CPU 2 instructions: 1710000000 cycles: 1545263878 heartbeat IPC: 1.1238 cumulative IPC: 1.08761 (Simulation time: 7 hr 43 min 42 sec) 
Heartbeat CPU 1 instructions: 2020000003 cycles: 1551768510 heartbeat IPC: 1.48286 cumulative IPC: 1.27816 (Simulation time: 7 hr 45 min 37 sec) 
Heartbeat CPU 2 instructions: 1720000001 cycles: 1554132208 heartbeat IPC: 1.12761 cumulative IPC: 1.08784 (Simulation time: 7 hr 46 min 25 sec) 
Heartbeat CPU 3 instructions: 950000000 cycles: 1556097648 heartbeat IPC: 0.831291 cumulative IPC: 0.579496 (Simulation time: 7 hr 47 min 0 sec) 
Heartbeat CPU 1 instructions: 2030000001 cycles: 1558548668 heartbeat IPC: 1.47489 cumulative IPC: 1.27902 (Simulation time: 7 hr 47 min 44 sec) 
Heartbeat CPU 2 instructions: 1730000002 cycles: 1563175859 heartbeat IPC: 1.10575 cumulative IPC: 1.08795 (Simulation time: 7 hr 49 min 13 sec) 
Heartbeat CPU 1 instructions: 2040000002 cycles: 1565325323 heartbeat IPC: 1.47565 cumulative IPC: 1.27989 (Simulation time: 7 hr 49 min 51 sec) 
Heartbeat CPU 3 instructions: 960000000 cycles: 1568419995 heartbeat IPC: 0.811534 cumulative IPC: 0.581341 (Simulation time: 7 hr 50 min 45 sec) 
Heartbeat CPU 1 instructions: 2050000000 cycles: 1572061965 heartbeat IPC: 1.48442 cumulative IPC: 1.28077 (Simulation time: 7 hr 51 min 54 sec) 
Heartbeat CPU 2 instructions: 1740000001 cycles: 1572486780 heartbeat IPC: 1.07401 cumulative IPC: 1.08787 (Simulation time: 7 hr 52 min 1 sec) 
Heartbeat CPU 1 instructions: 2060000000 cycles: 1578795176 heartbeat IPC: 1.48518 cumulative IPC: 1.28166 (Simulation time: 7 hr 53 min 54 sec) 
Heartbeat CPU 3 instructions: 970000002 cycles: 1580830409 heartbeat IPC: 0.805775 cumulative IPC: 0.583124 (Simulation time: 7 hr 54 min 27 sec) 
*** Reached end of trace for Core: 2 Repeating trace: ./traces/ligra/ligra_BC.com-lj.ungraph.gcc_6.3.0_O3.drop_5000M.length_250M.champsimtrace.xz
Heartbeat CPU 2 instructions: 1750000002 cycles: 1581524146 heartbeat IPC: 1.10652 cumulative IPC: 1.08797 (Simulation time: 7 hr 54 min 39 sec) 
Heartbeat CPU 1 instructions: 2070000001 cycles: 1585531078 heartbeat IPC: 1.48458 cumulative IPC: 1.28253 (Simulation time: 7 hr 55 min 52 sec) 
Heartbeat CPU 2 instructions: 1760000000 cycles: 1590250765 heartbeat IPC: 1.14592 cumulative IPC: 1.0883 (Simulation time: 7 hr 57 min 24 sec) 
Heartbeat CPU 1 instructions: 2080000002 cycles: 1592272660 heartbeat IPC: 1.48333 cumulative IPC: 1.28339 (Simulation time: 7 hr 58 min 1 sec) 
Heartbeat CPU 3 instructions: 980000002 cycles: 1593685693 heartbeat IPC: 0.77789 cumulative IPC: 0.584714 (Simulation time: 7 hr 58 min 24 sec) 
Heartbeat CPU 2 instructions: 1770000001 cycles: 1599129359 heartbeat IPC: 1.1263 cumulative IPC: 1.08851 (Simulation time: 7 hr 59 min 51 sec) 
Heartbeat CPU 1 instructions: 2090000000 cycles: 1600455108 heartbeat IPC: 1.22213 cumulative IPC: 1.28307 (Simulation time: 8 hr 0 min 13 sec) 
Heartbeat CPU 2 instructions: 1780000000 cycles: 1608060938 heartbeat IPC: 1.11962 cumulative IPC: 1.08868 (Simulation time: 8 hr 2 min 17 sec) 
Heartbeat CPU 1 instructions: 2100000003 cycles: 1608414939 heartbeat IPC: 1.25631 cumulative IPC: 1.28294 (Simulation time: 8 hr 2 min 23 sec) 
Heartbeat CPU 3 instructions: 990000000 cycles: 1608529814 heartbeat IPC: 0.673667 cumulative IPC: 0.585545 (Simulation time: 8 hr 2 min 25 sec) 
Heartbeat CPU 1 instructions: 2110000003 cycles: 1616438740 heartbeat IPC: 1.24629 cumulative IPC: 1.28275 (Simulation time: 8 hr 4 min 43 sec) 
Heartbeat CPU 2 instructions: 1790000000 cycles: 1617026604 heartbeat IPC: 1.11537 cumulative IPC: 1.08883 (Simulation time: 8 hr 4 min 55 sec) 
*** Reached end of trace for Core: 3 Repeating trace: ./traces/ligra/ligra_MIS.com-lj.ungraph.gcc_6.3.0_O3.drop_21250M.length_250M.champsimtrace.xz
Heartbeat CPU 3 instructions: 1000000002 cycles: 1623220289 heartbeat IPC: 0.680713 cumulative IPC: 0.586416 (Simulation time: 8 hr 6 min 51 sec) 
Heartbeat CPU 1 instructions: 2120000003 cycles: 1623577012 heartbeat IPC: 1.4009 cumulative IPC: 1.28328 (Simulation time: 8 hr 6 min 56 sec) 
Heartbeat CPU 2 instructions: 1800000000 cycles: 1626118384 heartbeat IPC: 1.09989 cumulative IPC: 1.0889 (Simulation time: 8 hr 7 min 42 sec) 
Heartbeat CPU 1 instructions: 2130000000 cycles: 1631246511 heartbeat IPC: 1.30387 cumulative IPC: 1.28338 (Simulation time: 8 hr 9 min 9 sec) 
Heartbeat CPU 2 instructions: 1810000003 cycles: 1635771339 heartbeat IPC: 1.03595 cumulative IPC: 1.08858 (Simulation time: 8 hr 10 min 19 sec) 
Heartbeat CPU 1 instructions: 2140000000 cycles: 1639068109 heartbeat IPC: 1.27851 cumulative IPC: 1.28335 (Simulation time: 8 hr 11 min 12 sec) 
Heartbeat CPU 2 instructions: 1820000001 cycles: 1645493468 heartbeat IPC: 1.02858 cumulative IPC: 1.08822 (Simulation time: 8 hr 12 min 51 sec) 
Heartbeat CPU 1 instructions: 2150000001 cycles: 1647420827 heartbeat IPC: 1.19722 cumulative IPC: 1.28291 (Simulation time: 8 hr 13 min 22 sec) 
Heartbeat CPU 0 instructions: 190000002 cycles: 1653231680 heartbeat IPC: 0.0850329 cumulative IPC: 0.0816256 (Simulation time: 8 hr 14 min 49 sec) 
Heartbeat CPU 2 instructions: 1830000002 cycles: 1654867599 heartbeat IPC: 1.06677 cumulative IPC: 1.0881 (Simulation time: 8 hr 15 min 13 sec) 
Heartbeat CPU 1 instructions: 2160000002 cycles: 1657255992 heartbeat IPC: 1.01676 cumulative IPC: 1.28131 (Simulation time: 8 hr 15 min 46 sec) 
Heartbeat CPU 3 instructions: 1010000001 cycles: 1664061957 heartbeat IPC: 0.244848 cumulative IPC: 0.577936 (Simulation time: 8 hr 17 min 26 sec) 
Heartbeat CPU 2 instructions: 1840000000 cycles: 1664375897 heartbeat IPC: 1.05171 cumulative IPC: 1.08789 (Simulation time: 8 hr 17 min 32 sec) 
Heartbeat CPU 1 instructions: 2170000003 cycles: 1666770516 heartbeat IPC: 1.05102 cumulative IPC: 1.27998 (Simulation time: 8 hr 18 min 6 sec) 
Heartbeat CPU 2 instructions: 1850000001 cycles: 1673954265 heartbeat IPC: 1.04402 cumulative IPC: 1.08763 (Simulation time: 8 hr 19 min 50 sec) 
Heartbeat CPU 1 instructions: 2180000000 cycles: 1676236348 heartbeat IPC: 1.05643 cumulative IPC: 1.27871 (Simulation time: 8 hr 20 min 27 sec) 
[...]
LLC PREFETCH  REQUESTED:          0  ISSUED:          0  USEFUL:    1146147  USELESS:   45733960
LLC USEFUL LOAD PREFETCHES:    1146147 PREFETCH ISSUED TO LOWER LEVEL:   46906635  ACCURACY: 2.44346
LLC TIMELY PREFETCHES:    1146147 LATE PREFETCHES: 0 DROPPED PREFETCHES: 0
LLC PREFETCHES SAME FILL-ORIGIN LEVEL: 0 DIFFERENT FILL-ORIGIN LEVEL: 0
LLC AVERAGE MISS LATENCY: 31361.5 cycles
LLC RQ	ACCESS:   38831927	FORWARD:          0	MERGED:          0	TO_CACHE:   38831913
LLC WQ	ACCESS:   25792668	FORWARD:         22	MERGED:          0	TO_CACHE:   25792668
LLC PQ	ACCESS:   60065514	FORWARD:          0	MERGED:          0	TO_CACHE:   60065506

LLC Dense regions hint to LLC: 0

RAW hits: 0
Loads Generated: 37850885
Loads sent to L1D: 37850884
Stores Generated: 5345050
Stores sent to L1D: 5345053
Major fault: 0 Minor fault: 24882
Allocated PAGES: 135783

CPU 3 cumulative IPC: 0.768362 instructions: 200000003 cycles: 260294119
ITLB TOTAL     ACCESS:   47869152  HIT:   47869152  MISS:          0  HIT %:        100  MISS %:          0   MPKI: 0
ITLB LOAD TRANSLATION ACCESS:   47869152  HIT:   47869152  MISS:          0  HIT %:        100  MISS %:          0   MPKI: 0
ITLB PREFETCH  REQUESTED:          0  ISSUED:          0  USEFUL:          0  USELESS:          0
ITLB USEFUL LOAD PREFETCHES:          0 PREFETCH ISSUED TO LOWER LEVEL:          0  ACCURACY: -nan
ITLB TIMELY PREFETCHES:          0 LATE PREFETCHES: 0 DROPPED PREFETCHES: 0
ITLB PREFETCHES SAME FILL-ORIGIN LEVEL: 0 DIFFERENT FILL-ORIGIN LEVEL: 0
ITLB AVERAGE MISS LATENCY: -nan cycles
ITLB RQ	ACCESS:  322105341	FORWARD:          0	MERGED:     113435	TO_CACHE:  321991906

DTLB TOTAL     ACCESS:   44699284  HIT:   42901429  MISS:    1797855  HIT %:    95.9779  MISS %:    4.02211   MPKI: 8.98927
DTLB LOAD TRANSLATION ACCESS:   44699284  HIT:   42901429  MISS:    1797855  HIT %:    95.9779  MISS %:    4.02211   MPKI: 8.98927
DTLB PREFETCH  REQUESTED:          0  ISSUED:          0  USEFUL:          0  USELESS:          0
DTLB USEFUL LOAD PREFETCHES:          0 PREFETCH ISSUED TO LOWER LEVEL:          0  ACCURACY: -nan
DTLB TIMELY PREFETCHES:          0 LATE PREFETCHES: 0 DROPPED PREFETCHES: 0
DTLB PREFETCHES SAME FILL-ORIGIN LEVEL: 0 DIFFERENT FILL-ORIGIN LEVEL: 0
DTLB AVERAGE MISS LATENCY: 67.1861 cycles
DTLB RQ	ACCESS:  337809157	FORWARD:          0	MERGED:   40626374	TO_CACHE:  297182783

STLB TOTAL     ACCESS:   12560764  HIT:   12532619  MISS:      28145  HIT %:    99.7759  MISS %:   0.224071   MPKI: 0.140725
STLB LOAD TRANSLATION ACCESS:    1797855  HIT:    1769710  MISS:      28145  HIT %:    98.4345  MISS %:    1.56548   MPKI: 0.140725
STLB TRANSLATION FROM L1D PREFETCHER ACCESS:   10762909  HIT:   10762909  MISS:          0  HIT %:        100  MISS %:          0   MPKI: 0
STLB PREFETCH  REQUESTED:          0  ISSUED:          0  USEFUL:          5  USELESS:          0
STLB USEFUL LOAD PREFETCHES:          5 PREFETCH ISSUED TO LOWER LEVEL:          0  ACCURACY: inf
STLB TIMELY PREFETCHES:          5 LATE PREFETCHES: 0 DROPPED PREFETCHES: 0
STLB PREFETCHES SAME FILL-ORIGIN LEVEL: 0 DIFFERENT FILL-ORIGIN LEVEL: 0
STLB AVERAGE MISS LATENCY: 1236.21 cycles
STLB RQ	ACCESS:  118235670	FORWARD:          0	MERGED:   42519729	TO_CACHE:   75715941

STLB Hit, L1D data hit: 0
STLB Hit, L2C data hit: 0
STLB Hit, LLC data hit: 0
STLB Hit, LLC data miss: 0
STLB STLB hints to L2: 0
L1D TOTAL     ACCESS:   70680208  HIT:   56239130  MISS:   14441078  HIT %:    79.5684  MISS %:    20.4316   MPKI: 72.2054
L1D LOAD      ACCESS:   43754040  HIT:   38715238  MISS:    5038802  HIT %:    88.4838  MISS %:    11.5162   MPKI: 25.194
L1D RFO       ACCESS:     471112  HIT:     233045  MISS:     238067  HIT %:     49.467  MISS %:     50.533   MPKI: 1.19033
L1D PREFETCH  ACCESS:   26455056  HIT:   17290847  MISS:    9164209  HIT %:    65.3593  MISS %:    34.6407   MPKI: 45.821
L1D PREFETCH  REQUESTED:  218411215  ISSUED:  217437851  USEFUL:   13818082  USELESS:   24748264
L1D USEFUL LOAD PREFETCHES:   13818082 PREFETCH ISSUED TO LOWER LEVEL:   43020091  ACCURACY: 32.1201
L1D TIMELY PREFETCHES:   13818082 LATE PREFETCHES: 4453681 DROPPED PREFETCHES: 0
L1D PREFETCHES SAME FILL-ORIGIN LEVEL: 43020091 DIFFERENT FILL-ORIGIN LEVEL: 0
L1D AVERAGE MISS LATENCY: 663.635 cycles
L1D RQ	ACCESS:  431691187	FORWARD:          0	MERGED:  155086651	TO_CACHE:  276604417
L1D WQ	ACCESS:   61204745	FORWARD:        119	MERGED:          5	TO_CACHE:   61204740
L1D PQ	ACCESS:  108719239	FORWARD:          0	MERGED:        627	TO_CACHE:  108718612

L1D UNIQUE REGIONS ACCESSED: 0
L1D REGIONS CONFLICTS: 0
L1D Cross Page Prefetch Requests: 0
L1D Same Page Prefetch Requests: 114114144
L1D ROI Sum of L1D PQ occupancy: 1224548450
L1D PREFETCHES PUSHED FROM L2C: 0
L1I TOTAL     ACCESS:   47875914  HIT:   47875914  MISS:          0  HIT %:        100  MISS %:          0   MPKI: 0
L1I LOAD      ACCESS:   47875914  HIT:   47875914  MISS:          0  HIT %:        100  MISS %:          0   MPKI: 0
L1I PREFETCH  REQUESTED:          0  ISSUED:          0  USEFUL:          0  USELESS:          0
L1I USEFUL LOAD PREFETCHES:          0 PREFETCH ISSUED TO LOWER LEVEL:          0  ACCURACY: -nan
L1I TIMELY PREFETCHES:          0 LATE PREFETCHES: 0 DROPPED PREFETCHES: 0
L1I PREFETCHES SAME FILL-ORIGIN LEVEL: 0 DIFFERENT FILL-ORIGIN LEVEL: 0
L1I AVERAGE MISS LATENCY: -nan cycles
L1I RQ	ACCESS:  361855888	FORWARD:          0	MERGED:   39750547	TO_CACHE:  322105341

BTB TOTAL     ACCESS:   33611992  HIT:   33611989  MISS:          3  HIT %:        100  MISS %: 8.92539e-06   MPKI: 1.5e-05
BTB BRANCH_DIRECT_JUMP	ACCESS:     883108  HIT:     883108  MISS:          0
BTB BRANCH_INDIRECT	ACCESS:          0  HIT:          0  MISS:          0
BTB BRANCH_CONDITIONAL	ACCESS:   32728884  HIT:   32728881  MISS:          3
BTB BRANCH_DIRECT_CALL	ACCESS:          0  HIT:          0  MISS:          0
BTB BRANCH_INDIRECT_CALL	ACCESS:          0  HIT:          0  MISS:          0
BTB BRANCH_RETURN	ACCESS:          0  HIT:          0  MISS:          0
BTB BRANCH_OTHER ACCESS:          0  HIT:          0  MISS:          0

L2C TOTAL     ACCESS:   14706923  HIT:   11592662  MISS:    3114261  HIT %:    78.8245  MISS %:    21.1755   MPKI: 15.5713
L2C LOAD      ACCESS:    4739872  HIT:    4088800  MISS:     651072  HIT %:    86.2639  MISS %:    13.7361   MPKI: 3.25536
L2C DATA LOAD MPKI: 3.25536
L2C INSTRUCTION LOAD MPKI: 0
L2C RFO       ACCESS:     238067  HIT:          0  MISS:     238067  HIT %:          0  MISS %:        100   MPKI: 1.19033
L2C PREFETCH  ACCESS:    9463139  HIT:    7248518  MISS:    2214621  HIT %:    76.5974  MISS %:    23.4026   MPKI: 11.0731
L2C DATA PREFETCH MPKI: 11.0731
L2C INSTRUCTION PREFETCH MPKI: 0
L2C WRITEBACK ACCESS:     237679  HIT:     231187  MISS:       6492  HIT %:    97.2686  MISS %:    2.73142   MPKI: 0.03246
L2C LOAD TRANSLATION ACCESS:      28166  HIT:      24157  MISS:       4009  HIT %:    85.7665  MISS %:    14.2335   MPKI: 0.020045
L2C PREFETCH  REQUESTED:          0  ISSUED:          0  USEFUL:    1378396  USELESS:   16125418
L2C USEFUL LOAD PREFETCHES:    1378396 PREFETCH ISSUED TO LOWER LEVEL:   17499840  ACCURACY: 7.87662
L2C TIMELY PREFETCHES:    1378396 LATE PREFETCHES: 0 DROPPED PREFETCHES: 0
L2C PREFETCHES SAME FILL-ORIGIN LEVEL: 0 DIFFERENT FILL-ORIGIN LEVEL: 0
L2C AVERAGE MISS LATENCY: 3826.5 cycles
L2C RQ	ACCESS:   31540375	FORWARD:          0	MERGED:          0	TO_CACHE:   31540375
L2C WQ	ACCESS:    5353260	FORWARD:          0	MERGED:          0	TO_CACHE:    5353260
L2C PQ	ACCESS:   43020091	FORWARD:          0	MERGED:          0	TO_CACHE:   43020091

L2C Instructions Evicting Data 0
L2C Translations Evicting Data 41902
L2C Data Evicting Data 26475077
L2C Instructions Evicting Instructions 0
L2C Translations Evicting Instructions 0
L2C Data Evicting Instructions 0
L2C Instructions Evicting Translations 0
L2C Translations Evicting Translations 54
L2C Data Evicting Translations 41499
L2C Dense regions hint from L2: 0
PSCL5 TOTAL     ACCESS:      28145  HIT:      28145  MISS:          0  HIT %:        100  MISS %:          0   MPKI: 0
PSCL5 LOAD TRANSLATION ACCESS:      28145  HIT:      28145  MISS:          0  HIT %:        100  MISS %:          0   MPKI: 0
PSCL5 PREFETCH  REQUESTED:          0  ISSUED:          0  USEFUL:          0  USELESS:          0
PSCL5 USEFUL LOAD PREFETCHES:          0 PREFETCH ISSUED TO LOWER LEVEL:          0  ACCURACY: -nan
PSCL5 TIMELY PREFETCHES:          0 LATE PREFETCHES: 0 DROPPED PREFETCHES: 0
PSCL5 PREFETCHES SAME FILL-ORIGIN LEVEL: 0 DIFFERENT FILL-ORIGIN LEVEL: 0

PSCL4 TOTAL     ACCESS:      28145  HIT:      28145  MISS:          0  HIT %:        100  MISS %:          0   MPKI: 0
PSCL4 LOAD TRANSLATION ACCESS:      28145  HIT:      28145  MISS:          0  HIT %:        100  MISS %:          0   MPKI: 0
PSCL4 PREFETCH  REQUESTED:          0  ISSUED:          0  USEFUL:          0  USELESS:          0
PSCL4 USEFUL LOAD PREFETCHES:          0 PREFETCH ISSUED TO LOWER LEVEL:          0  ACCURACY: -nan
PSCL4 TIMELY PREFETCHES:          0 LATE PREFETCHES: 0 DROPPED PREFETCHES: 0
PSCL4 PREFETCHES SAME FILL-ORIGIN LEVEL: 0 DIFFERENT FILL-ORIGIN LEVEL: 0

PSCL3 TOTAL     ACCESS:      28145  HIT:      28145  MISS:          0  HIT %:        100  MISS %:          0   MPKI: 0
PSCL3 LOAD TRANSLATION ACCESS:      28145  HIT:      28145  MISS:          0  HIT %:        100  MISS %:          0   MPKI: 0
PSCL3 PREFETCH  REQUESTED:          0  ISSUED:          0  USEFUL:          0  USELESS:          0
PSCL3 USEFUL LOAD PREFETCHES:          0 PREFETCH ISSUED TO LOWER LEVEL:          0  ACCURACY: -nan
PSCL3 TIMELY PREFETCHES:          0 LATE PREFETCHES: 0 DROPPED PREFETCHES: 0
PSCL3 PREFETCHES SAME FILL-ORIGIN LEVEL: 0 DIFFERENT FILL-ORIGIN LEVEL: 0

PSCL2 TOTAL     ACCESS:      28145  HIT:      28085  MISS:         60  HIT %:    99.7868  MISS %:   0.213182   MPKI: 0.0003
PSCL2 LOAD TRANSLATION ACCESS:      28145  HIT:      28085  MISS:         60  HIT %:    99.7868  MISS %:   0.213182   MPKI: 0.0003
PSCL2 PREFETCH  REQUESTED:          0  ISSUED:          0  USEFUL:          0  USELESS:          0
PSCL2 USEFUL LOAD PREFETCHES:          0 PREFETCH ISSUED TO LOWER LEVEL:          0  ACCURACY: -nan
PSCL2 TIMELY PREFETCHES:          0 LATE PREFETCHES: 0 DROPPED PREFETCHES: 0
PSCL2 PREFETCHES SAME FILL-ORIGIN LEVEL: 0 DIFFERENT FILL-ORIGIN LEVEL: 0

LLC TOTAL     ACCESS:    3340821  HIT:    1495434  MISS:    1845387  HIT %:    44.7625  MISS %:    55.2375   MPKI: 9.22693
LLC LOAD      ACCESS:     651072  HIT:     603201  MISS:      47871  HIT %:    92.6474  MISS %:    7.35264   MPKI: 0.239355
LLC RFO       ACCESS:     238067  HIT:          0  MISS:     238067  HIT %:          0  MISS %:        100   MPKI: 1.19033
LLC PREFETCH  ACCESS:    2214621  HIT:     661799  MISS:    1552822  HIT %:    29.8832  MISS %:    70.1168   MPKI: 7.76411
LLC WRITEBACK ACCESS:     233052  HIT:     230010  MISS:       3042  HIT %:    98.6947  MISS %:    1.30529   MPKI: 0.01521
LLC LOAD TRANSLATION ACCESS:       4009  HIT:        424  MISS:       3585  HIT %:    10.5762  MISS %:    89.4238   MPKI: 0.017925
LLC PREFETCH  REQUESTED:          0  ISSUED:          0  USEFUL:    1146147  USELESS:   45733960
LLC USEFUL LOAD PREFETCHES:    1146147 PREFETCH ISSUED TO LOWER LEVEL:   46906635  ACCURACY: 2.44346
LLC TIMELY PREFETCHES:    1146147 LATE PREFETCHES: 0 DROPPED PREFETCHES: 0
LLC PREFETCHES SAME FILL-ORIGIN LEVEL: 0 DIFFERENT FILL-ORIGIN LEVEL: 0
LLC AVERAGE MISS LATENCY: 22632 cycles
LLC RQ	ACCESS:   38831927	FORWARD:          0	MERGED:          0	TO_CACHE:   38831913
LLC WQ	ACCESS:   25792668	FORWARD:         22	MERGED:          0	TO_CACHE:   25792668
LLC PQ	ACCESS:   60065514	FORWARD:          0	MERGED:          0	TO_CACHE:   60065506

LLC Dense regions hint to LLC: 0

RAW hits: 0
Loads Generated: 64537615
Loads sent to L1D: 64537615
Stores Generated: 2720829
Stores sent to L1D: 2720820
Major fault: 0 Minor fault: 57223
Allocated PAGES: 135783

stream: 
stream:times selected: 22593168
stream:pref_filled: 19384166
stream:pref_useful: 322847
stream:pref_late: 186818
stream:misses: 4671168
stream:misses_by_poll: 0

CS: 
CS:times selected: 1323067
CS:pref_filled: 1251743
CS:pref_useful: 1021777
CS:pref_late: 12484
CS:misses: 149882
CS:misses_by_poll: 710

CPLX: 
CPLX:times selected: 21108642
CPLX:pref_filled: 412148
CPLX:pref_useful: 18036
CPLX:pref_late: 7176
CPLX:misses: 15969253
CPLX:misses_by_poll: 127

NL_L1: 
NL:times selected: 20327
NL:pref_filled: 18731
NL:pref_useful: 191
NL:pref_late: 155
NL:misses: 19614
NL:misses_by_poll: 0

total selections: 45045204
total_filled: 16866581
total_useful: 977495
total_late: 207684
total_polluted: 837
total_misses_after_warmup: 17349634
conflicts: 445744
Degree Incremented Times: 10200733
Degree Decremented Times: 3359826

L1 IP Table Write Accesses: 1316377158
L1 IP Table Read Accesses: 1315931414
L1 RST Write Accesses: 164657553
L1 RST Read Accesses: 329315106
L1 CSPT Write Accesses: 164657553
L1 CSPT Read Accesses: 266786690
L1 RR Filter Tag Write Accesses: 318421792
L1 RR Filter Tag Read Accesses: 17591251696
L1 IP Table Tag Write Accesses: 1316946004
L1 IP Table Tag Read Accesses: 1316946004
L1 RST Tag Write Accesses: 0
L1 RST Tag Read Accesses: 1483107779
L1 RR Filter Write Accesses: 0
L1 RR Filter Read Accesses: 667750925
test: 47626850

stream: 
stream:times selected: 46448179
stream:pref_filled: 25961380
stream:pref_useful: 21672186
stream:pref_late: 896407
stream:misses: 5618
stream:misses_by_poll: 0

CS: 
CS:times selected: 45457746
CS:pref_filled: 132858
CS:pref_useful: 126134
CS:pref_late: 7541
CS:misses: 4359171
CS:misses_by_poll: 994

CPLX: 
CPLX:times selected: 990354
CPLX:pref_filled: 76969
CPLX:pref_useful: 56813
CPLX:pref_late: 2792
CPLX:misses: 152289
CPLX:misses_by_poll: 809

NL_L1: 
NL:times selected: 149
NL:pref_filled: 30
NL:pref_useful: 15
NL:pref_late: 18
NL:misses: 74
NL:misses_by_poll: 0

total selections: 92896428
total_filled: 25865560
total_useful: 21618614
total_late: 913797
total_polluted: 1803
total_misses_after_warmup: 5038099
conflicts: 445744
Degree Incremented Times: 10200733
Degree Decremented Times: 3359826

L1 IP Table Write Accesses: 1316377158
L1 IP Table Read Accesses: 1315931414
L1 RST Write Accesses: 164657553
L1 RST Read Accesses: 329315106
L1 CSPT Write Accesses: 164657553
L1 CSPT Read Accesses: 266786690
L1 RR Filter Tag Write Accesses: 318421792
L1 RR Filter Tag Read Accesses: 17591251696
L1 IP Table Tag Write Accesses: 1316946004
L1 IP Table Tag Read Accesses: 1316946004
L1 RST Tag Write Accesses: 0
L1 RST Tag Read Accesses: 1483107779
L1 RR Filter Write Accesses: 0
L1 RR Filter Read Accesses: 667750925
test: 47626850

stream: 
stream:times selected: 9934223
stream:pref_filled: 7675208
stream:pref_useful: 7673327
stream:pref_late: 137612
stream:misses: 520
stream:misses_by_poll: 0

CS: 
CS:times selected: 9934214
CS:pref_filled: 26387
CS:pref_useful: 26386
CS:pref_late: 3178
CS:misses: 1688468
CS:misses_by_poll: 95

CPLX: 
CPLX:times selected: 7
CPLX:pref_filled: 1
CPLX:pref_useful: 1
CPLX:pref_late: 0
CPLX:misses: 1
CPLX:misses_by_poll: 0

NL_L1: 
NL:times selected: 0
NL:pref_filled: 0
NL:pref_useful: 0
NL:pref_late: 0
NL:misses: 0
NL:misses_by_poll: 0

total selections: 19868444
total_filled: 7556325
total_useful: 7554461
total_late: 141534
total_polluted: 95
total_misses_after_warmup: 1683076
conflicts: 445744
Degree Incremented Times: 10200733
Degree Decremented Times: 3359826

L1 IP Table Write Accesses: 1316377158
L1 IP Table Read Accesses: 1315931414
L1 RST Write Accesses: 164657553
L1 RST Read Accesses: 329315106
L1 CSPT Write Accesses: 164657553
L1 CSPT Read Accesses: 266786690
L1 RR Filter Tag Write Accesses: 318421792
L1 RR Filter Tag Read Accesses: 17591251696
L1 IP Table Tag Write Accesses: 1316946004
L1 IP Table Tag Read Accesses: 1316946004
L1 RST Tag Write Accesses: 0
L1 RST Tag Read Accesses: 1483107779
L1 RR Filter Write Accesses: 0
L1 RR Filter Read Accesses: 667750925
test: 47626850

stream: 
stream:times selected: 92292018
stream:pref_filled: 28781602
stream:pref_useful: 5404564
stream:pref_late: 328136
stream:misses: 6176645
stream:misses_by_poll: 0

CS: 
CS:times selected: 19512918
CS:pref_filled: 9559523
CS:pref_useful: 9419464
CS:pref_late: 4064766
CS:misses: 9157156
CS:misses_by_poll: 40485

CPLX: 
CPLX:times selected: 72236493
CPLX:pref_filled: 1381527
CPLX:pref_useful: 351771
CPLX:pref_late: 32272
CPLX:misses: 21650445
CPLX:misses_by_poll: 1703

NL_L1: 
NL:times selected: 608441
NL:pref_filled: 258085
NL:pref_useful: 33101
NL:pref_late: 3089
NL:misses: 274782
NL:misses_by_poll: 37

total selections: 184649870
total_filled: 38566407
total_useful: 13818082
total_late: 4456834
total_polluted: 42225
total_misses_after_warmup: 37232803
conflicts: 445744
Degree Incremented Times: 10200733
Degree Decremented Times: 3359826

L1 IP Table Write Accesses: 1316377158
L1 IP Table Read Accesses: 1315931414
L1 RST Write Accesses: 164657553
L1 RST Read Accesses: 329315106
L1 CSPT Write Accesses: 164657553
L1 CSPT Read Accesses: 266786690
L1 RR Filter Tag Write Accesses: 318421792
L1 RR Filter Tag Read Accesses: 17591251696
L1 IP Table Tag Write Accesses: 1316946004
L1 IP Table Tag Read Accesses: 1316946004
L1 RST Tag Write Accesses: 0
L1 RST Tag Read Accesses: 1483107779
L1 RR Filter Write Accesses: 0
L1 RR Filter Read Accesses: 667750925
test: 47626850

DRAM Statistics
 CHANNEL 0
 RQ ROW_BUFFER_HIT:   11382462  ROW_BUFFER_MISS:   62251787
 DBUS_CONGESTED:          5
 WQ ROW_BUFFER_HIT:    1496455  ROW_BUFFER_MISS:   23136283  FULL:          0

 AVG_CONGESTED_CYCLE: 6
 All warmup complete: 5
Channel 0 Bank busy for read cycles: 0
Channel 0 Bank busy for write cycles: 0
Channel 0
Rank 0
0banks busy for read cycles: 51735
0banks busy for write cycles: 0
1banks busy for read cycles: 9424185
1banks busy for write cycles: 2613309
2banks busy for read cycles: 35865659
2banks busy for write cycles: 2613291
3banks busy for read cycles: 90251023
3banks busy for write cycles: 2613281
4banks busy for read cycles: 163034218
4banks busy for write cycles: 2613680
5banks busy for read cycles: 234692139
5banks busy for write cycles: 2685833
6banks busy for read cycles: 298141113
6banks busy for write cycles: 6842348
7banks busy for read cycles: 379209427
7banks busy for write cycles: 91677278
8banks busy for read cycles: 522276577
8banks busy for write cycles: 584128676

CPU 0 Branch Prediction Accuracy: 88.9792% MPKI: 20.8221 Average ROB Occupancy at Mispredict: 45.2082
Branch types
NOT_BRANCH: 160965324 80.4827%
BRANCH_DIRECT_JUMP: 239049 0.119525%
BRANCH_INDIRECT: 0 0%
BRANCH_CONDITIONAL: 38795627 19.3978%
BRANCH_DIRECT_CALL: 14 7e-06%
BRANCH_INDIRECT_CALL: 0 0%
BRANCH_RETURN: 14 7e-06%
BRANCH_OTHER: 0 0%


CPU 1 Branch Prediction Accuracy: 99.8798% MPKI: 0.0298941 Average ROB Occupancy at Mispredict: 300.612
Branch types
NOT_BRANCH: 3027262033 97.5047%
BRANCH_DIRECT_JUMP: 230481 0.00742354%
BRANCH_INDIRECT: 34 1.0951e-06%
BRANCH_CONDITIONAL: 77238621 2.48777%
BRANCH_DIRECT_CALL: 1012 3.25954e-05%
BRANCH_INDIRECT_CALL: 12 3.86507e-07%
BRANCH_RETURN: 1025 3.30141e-05%
BRANCH_OTHER: 0 0%


CPU 2 Branch Prediction Accuracy: 99.6735% MPKI: 1.23374 Average ROB Occupancy at Mispredict: 62.2419
Branch types
NOT_BRANCH: 1642649636 62.209%
BRANCH_DIRECT_JUMP: 0 0%
BRANCH_INDIRECT: 0 0%
BRANCH_CONDITIONAL: 997884050 37.791%
BRANCH_DIRECT_CALL: 0 0%
BRANCH_INDIRECT_CALL: 0 0%
BRANCH_RETURN: 0 0%
BRANCH_OTHER: 0 0%


CPU 3 Branch Prediction Accuracy: 98.6638% MPKI: 3.78162 Average ROB Occupancy at Mispredict: 53.0104
Branch types
NOT_BRANCH: 973774887 71.5061%
BRANCH_DIRECT_JUMP: 5173509 0.3799%
BRANCH_INDIRECT: 0 0%
BRANCH_CONDITIONAL: 382858335 28.114%
BRANCH_DIRECT_CALL: 65 4.77307e-06%
BRANCH_INDIRECT_CALL: 0 0%
BRANCH_RETURN: 60 4.40591e-06%
BRANCH_OTHER: 0 0%

DRAM PAGES: 1048576
Allocated PAGES: 135783
