
*** ChampSim Multicore Out-of-Order Simulator ***

Warmup Instructions: 50000000
Simulation Instructions: 200000000
Number of CPUs: 4
LLC sets: 8192
LLC ways: 16
Off-chip DRAM Size: 4096 MB Channels: 1 Width: 64-bit Data Rate: 6400 MT/s
CPU 0 runs ./traces/gap/pr-5.trace.gz
.gz
CPU 1 runs ./traces/gap/pr-5.trace.gz
.gz
CPU 2 runs ./traces/gap/pr-5.trace.gz
.gz
CPU 3 runs ./traces/gap/pr-5.trace.gz
.gz
BTB has LRU replacement policy
ITLB has LRU replacement policy
DTLB has LRU replacement policy
STLB has LRU replacement policy
L1I has LRU replacement policy
IP Table Entries: 1024
CSPT Entries: 128
RR_ENTRIES: 32
RST_ENTRIES: 8
L1D has LRU replacement policy
Initialize SRRIP state for L2C
Initialize DRRIP state for LLC
BTB has LRU replacement policy
ITLB has LRU replacement policy
DTLB has LRU replacement policy
STLB has LRU replacement policy
L1I has LRU replacement policy
IP Table Entries: 1024
CSPT Entries: 128
RR_ENTRIES: 32
RST_ENTRIES: 8
L1D has LRU replacement policy
Initialize SRRIP state for L2C
Initialize DRRIP state for LLC
BTB has LRU replacement policy
ITLB has LRU replacement policy
DTLB has LRU replacement policy
STLB has LRU replacement policy
L1I has LRU replacement policy
IP Table Entries: 1024
CSPT Entries: 128
RR_ENTRIES: 32
RST_ENTRIES: 8
L1D has LRU replacement policy
Initialize SRRIP state for L2C
Initialize DRRIP state for LLC
BTB has LRU replacement policy
ITLB has LRU replacement policy
DTLB has LRU replacement policy
STLB has LRU replacement policy
L1I has LRU replacement policy
IP Table Entries: 1024
CSPT Entries: 128
RR_ENTRIES: 32
RST_ENTRIES: 8
L1D has LRU replacement policy
Initialize SRRIP state for L2C
Initialize DRRIP state for LLC
Heartbeat CPU 0 instructions: 10000001 cycles: 3333895 heartbeat IPC: 2.99949 cumulative IPC: 2.99949 (Simulation time: 0 hr 2 min 45 sec) 
Heartbeat CPU 1 instructions: 10000001 cycles: 3333913 heartbeat IPC: 2.99948 cumulative IPC: 2.99948 (Simulation time: 0 hr 2 min 45 sec) 
Heartbeat CPU 2 instructions: 10000001 cycles: 3333949 heartbeat IPC: 2.99945 cumulative IPC: 2.99945 (Simulation time: 0 hr 2 min 45 sec) 
Heartbeat CPU 3 instructions: 10000001 cycles: 3333954 heartbeat IPC: 2.99944 cumulative IPC: 2.99944 (Simulation time: 0 hr 2 min 45 sec) 
Heartbeat CPU 1 instructions: 20000001 cycles: 9990781 heartbeat IPC: 1.50221 cumulative IPC: 2.00185 (Simulation time: 0 hr 8 min 51 sec) 
Heartbeat CPU 2 instructions: 20000001 cycles: 10065050 heartbeat IPC: 1.48564 cumulative IPC: 1.98707 (Simulation time: 0 hr 8 min 55 sec) 
Heartbeat CPU 0 instructions: 20000001 cycles: 10073608 heartbeat IPC: 1.48374 cumulative IPC: 1.98539 (Simulation time: 0 hr 8 min 55 sec) 
Heartbeat CPU 3 instructions: 20000001 cycles: 10088363 heartbeat IPC: 1.48051 cumulative IPC: 1.98248 (Simulation time: 0 hr 8 min 56 sec) 
Heartbeat CPU 1 instructions: 30000000 cycles: 17125573 heartbeat IPC: 1.40158 cumulative IPC: 1.75177 (Simulation time: 0 hr 15 min 31 sec) 
Heartbeat CPU 0 instructions: 30000000 cycles: 17223076 heartbeat IPC: 1.39871 cumulative IPC: 1.74185 (Simulation time: 0 hr 15 min 37 sec) 
Heartbeat CPU 2 instructions: 30000000 cycles: 17296311 heartbeat IPC: 1.38288 cumulative IPC: 1.73447 (Simulation time: 0 hr 15 min 42 sec) 
Heartbeat CPU 3 instructions: 30000000 cycles: 17346515 heartbeat IPC: 1.37776 cumulative IPC: 1.72945 (Simulation time: 0 hr 15 min 45 sec) 
Heartbeat CPU 1 instructions: 40000002 cycles: 24298581 heartbeat IPC: 1.39412 cumulative IPC: 1.64619 (Simulation time: 0 hr 22 min 19 sec) 
Heartbeat CPU 0 instructions: 40000002 cycles: 24406550 heartbeat IPC: 1.39208 cumulative IPC: 1.6389 (Simulation time: 0 hr 22 min 25 sec) 
Heartbeat CPU 2 instructions: 40000002 cycles: 24557703 heartbeat IPC: 1.37715 cumulative IPC: 1.62882 (Simulation time: 0 hr 22 min 33 sec) 
Heartbeat CPU 3 instructions: 40000002 cycles: 24636988 heartbeat IPC: 1.37165 cumulative IPC: 1.62358 (Simulation time: 0 hr 22 min 37 sec) 
Heartbeat CPU 1 instructions: 50000003 cycles: 31467895 heartbeat IPC: 1.39483 cumulative IPC: 1.58892 (Simulation time: 0 hr 29 min 4 sec) 
Heartbeat CPU 0 instructions: 50000003 cycles: 31585402 heartbeat IPC: 1.39298 cumulative IPC: 1.58301 (Simulation time: 0 hr 29 min 10 sec) 
Heartbeat CPU 2 instructions: 50000003 cycles: 31805243 heartbeat IPC: 1.37978 cumulative IPC: 1.57207 (Simulation time: 0 hr 29 min 21 sec) 
Heartbeat CPU 3 instructions: 50000003 cycles: 31910055 heartbeat IPC: 1.37494 cumulative IPC: 1.5669 (Simulation time: 0 hr 29 min 26 sec) 

Warmup complete CPU 0 instructions: 50451570 cycles: 31910055 (Simulation time: 0 hr 29 min 26 sec) 
Warmup complete CPU 1 instructions: 50620848 cycles: 31910055 (Simulation time: 0 hr 29 min 26 sec) 
Warmup complete CPU 2 instructions: 50144151 cycles: 31910055 (Simulation time: 0 hr 29 min 26 sec) 
Warmup complete CPU 3 instructions: 50000003 cycles: 31910055 (Simulation time: 0 hr 29 min 26 sec) 

Heartbeat CPU 1 instructions: 60000000 cycles: 204844543 heartbeat IPC: 0.0576779 cumulative IPC: 0.0542353 (Simulation time: 0 hr 43 min 56 sec) 
Heartbeat CPU 0 instructions: 60000000 cycles: 219524123 heartbeat IPC: 0.0532088 cumulative IPC: 0.050894 (Simulation time: 0 hr 45 min 8 sec) 
Heartbeat CPU 2 instructions: 60000000 cycles: 228955915 heartbeat IPC: 0.0507226 cumulative IPC: 0.050018 (Simulation time: 0 hr 45 min 54 sec) 
Heartbeat CPU 3 instructions: 60000000 cycles: 229450807 heartbeat IPC: 0.0506225 cumulative IPC: 0.0506225 (Simulation time: 0 hr 45 min 57 sec) 
Heartbeat CPU 1 instructions: 70000002 cycles: 388786542 heartbeat IPC: 0.054365 cumulative IPC: 0.0543021 (Simulation time: 1 hr 0 min 17 sec) 
Heartbeat CPU 0 instructions: 70000002 cycles: 415442361 heartbeat IPC: 0.0510417 cumulative IPC: 0.0509695 (Simulation time: 1 hr 2 min 26 sec) 
Heartbeat CPU 3 instructions: 70000002 cycles: 425837904 heartbeat IPC: 0.0509199 cumulative IPC: 0.0507707 (Simulation time: 1 hr 3 min 16 sec) 
Heartbeat CPU 2 instructions: 70000002 cycles: 427663313 heartbeat IPC: 0.0503253 cumulative IPC: 0.0501723 (Simulation time: 1 hr 3 min 25 sec) 
Heartbeat CPU 1 instructions: 80000001 cycles: 573258661 heartbeat IPC: 0.0542087 cumulative IPC: 0.0542703 (Simulation time: 1 hr 15 min 12 sec) 
Heartbeat CPU 0 instructions: 80000001 cycles: 613582991 heartbeat IPC: 0.0504692 cumulative IPC: 0.050799 (Simulation time: 1 hr 18 min 35 sec) 
Heartbeat CPU 3 instructions: 80000001 cycles: 624120733 heartbeat IPC: 0.050433 cumulative IPC: 0.0506576 (Simulation time: 1 hr 19 min 37 sec) 
Heartbeat CPU 2 instructions: 80000001 cycles: 628374338 heartbeat IPC: 0.0498229 cumulative IPC: 0.0500547 (Simulation time: 1 hr 20 min 3 sec) 
Heartbeat CPU 1 instructions: 90000000 cycles: 759097480 heartbeat IPC: 0.0538101 cumulative IPC: 0.0541527 (Simulation time: 1 hr 32 min 3 sec) 
Heartbeat CPU 0 instructions: 90000000 cycles: 812942079 heartbeat IPC: 0.0501607 cumulative IPC: 0.0506361 (Simulation time: 1 hr 36 min 31 sec) 
Heartbeat CPU 3 instructions: 90000000 cycles: 823366632 heartbeat IPC: 0.0501892 cumulative IPC: 0.0505397 (Simulation time: 1 hr 37 min 24 sec) 
Heartbeat CPU 2 instructions: 90000000 cycles: 830245134 heartbeat IPC: 0.0495366 cumulative IPC: 0.0499237 (Simulation time: 1 hr 37 min 59 sec) 
Heartbeat CPU 1 instructions: 100000000 cycles: 944225628 heartbeat IPC: 0.0540166 cumulative IPC: 0.0541251 (Simulation time: 1 hr 47 min 55 sec) 
Heartbeat CPU 0 instructions: 100000000 cycles: 1010191993 heartbeat IPC: 0.0506971 cumulative IPC: 0.0506484 (Simulation time: 1 hr 54 min 16 sec) 
Heartbeat CPU 3 instructions: 100000000 cycles: 1021099824 heartbeat IPC: 0.0505732 cumulative IPC: 0.0505464 (Simulation time: 1 hr 55 min 28 sec) 
Heartbeat CPU 2 instructions: 100000000 cycles: 1030307624 heartbeat IPC: 0.0499844 cumulative IPC: 0.0499359 (Simulation time: 1 hr 56 min 28 sec) 
Heartbeat CPU 1 instructions: 110000000 cycles: 1130932138 heartbeat IPC: 0.05356 cumulative IPC: 0.0540291 (Simulation time: 2 hr 6 min 26 sec) 
Heartbeat CPU 0 instructions: 110000000 cycles: 1209079772 heartbeat IPC: 0.0502796 cumulative IPC: 0.0505861 (Simulation time: 2 hr 13 min 19 sec) 
Heartbeat CPU 3 instructions: 110000000 cycles: 1220150166 heartbeat IPC: 0.0502385 cumulative IPC: 0.0504948 (Simulation time: 2 hr 14 min 11 sec) 
Heartbeat CPU 2 instructions: 110000000 cycles: 1231276718 heartbeat IPC: 0.0497589 cumulative IPC: 0.0499062 (Simulation time: 2 hr 15 min 3 sec) 
Heartbeat CPU 1 instructions: 120000002 cycles: 1315907526 heartbeat IPC: 0.0540613 cumulative IPC: 0.0540337 (Simulation time: 2 hr 22 min 50 sec) 
Heartbeat CPU 0 instructions: 120000002 cycles: 1406064726 heartbeat IPC: 0.0507653 cumulative IPC: 0.0506118 (Simulation time: 2 hr 31 min 47 sec) 
Heartbeat CPU 3 instructions: 120000002 cycles: 1418073545 heartbeat IPC: 0.0505246 cumulative IPC: 0.0504991 (Simulation time: 2 hr 32 min 57 sec) 
Heartbeat CPU 2 instructions: 120000002 cycles: 1431216075 heartbeat IPC: 0.0500152 cumulative IPC: 0.0499218 (Simulation time: 2 hr 34 min 14 sec) 
Heartbeat CPU 1 instructions: 130000003 cycles: 1501692447 heartbeat IPC: 0.0538257 cumulative IPC: 0.0540074 (Simulation time: 2 hr 41 min 8 sec) 
Heartbeat CPU 0 instructions: 130000003 cycles: 1605951277 heartbeat IPC: 0.0500284 cumulative IPC: 0.0505377 (Simulation time: 2 hr 51 min 31 sec) 
Heartbeat CPU 3 instructions: 130000003 cycles: 1618164599 heartbeat IPC: 0.0499773 cumulative IPC: 0.0504333 (Simulation time: 2 hr 52 min 44 sec) 
Heartbeat CPU 2 instructions: 130000003 cycles: 1633494933 heartbeat IPC: 0.0494367 cumulative IPC: 0.0498605 (Simulation time: 2 hr 54 min 20 sec) 
Heartbeat CPU 1 instructions: 140000000 cycles: 1687323970 heartbeat IPC: 0.0538701 cumulative IPC: 0.053992 (Simulation time: 2 hr 59 min 44 sec) 
Heartbeat CPU 0 instructions: 140000000 cycles: 1804017891 heartbeat IPC: 0.0504881 cumulative IPC: 0.0505322 (Simulation time: 3 hr 10 min 37 sec) 
Heartbeat CPU 3 instructions: 140000000 cycles: 1815995936 heartbeat IPC: 0.0505481 cumulative IPC: 0.050446 (Simulation time: 3 hr 11 min 40 sec) 
Heartbeat CPU 2 instructions: 140000000 cycles: 1832943733 heartbeat IPC: 0.0501382 cumulative IPC: 0.0498913 (Simulation time: 3 hr 13 min 22 sec) 
Heartbeat CPU 1 instructions: 150000001 cycles: 1872718742 heartbeat IPC: 0.053939 cumulative IPC: 0.0539867 (Simulation time: 3 hr 17 min 12 sec) 
Heartbeat CPU 0 instructions: 150000001 cycles: 2001641486 heartbeat IPC: 0.0506013 cumulative IPC: 0.0505391 (Simulation time: 3 hr 30 min 3 sec) 
Heartbeat CPU 3 instructions: 150000001 cycles: 2014513699 heartbeat IPC: 0.0503733 cumulative IPC: 0.0504387 (Simulation time: 3 hr 31 min 12 sec) 
Heartbeat CPU 2 instructions: 150000001 cycles: 2033898410 heartbeat IPC: 0.0497625 cumulative IPC: 0.0498783 (Simulation time: 3 hr 33 min 3 sec) 
Heartbeat CPU 1 instructions: 160000001 cycles: 2057941677 heartbeat IPC: 0.053989 cumulative IPC: 0.0539869 (Simulation time: 3 hr 35 min 1 sec) 
Heartbeat CPU 0 instructions: 160000001 cycles: 2199596341 heartbeat IPC: 0.0505166 cumulative IPC: 0.050537 (Simulation time: 3 hr 46 min 30 sec) 
Heartbeat CPU 3 instructions: 160000001 cycles: 2212311527 heartbeat IPC: 0.0505567 cumulative IPC: 0.0504494 (Simulation time: 3 hr 47 min 29 sec) 
Heartbeat CPU 2 instructions: 160000001 cycles: 2233884907 heartbeat IPC: 0.0500034 cumulative IPC: 0.0498897 (Simulation time: 3 hr 49 min 10 sec) 
Heartbeat CPU 1 instructions: 170000001 cycles: 2243610506 heartbeat IPC: 0.0538593 cumulative IPC: 0.0539762 (Simulation time: 3 hr 49 min 55 sec) 
Heartbeat CPU 0 instructions: 170000001 cycles: 2397740792 heartbeat IPC: 0.0504682 cumulative IPC: 0.0505313 (Simulation time: 4 hr 4 min 0 sec) 
Heartbeat CPU 3 instructions: 170000001 cycles: 2411305744 heartbeat IPC: 0.0502527 cumulative IPC: 0.050433 (Simulation time: 4 hr 5 min 18 sec) 
Heartbeat CPU 1 instructions: 180000000 cycles: 2429267972 heartbeat IPC: 0.0538626 cumulative IPC: 0.0539674 (Simulation time: 4 hr 6 min 54 sec) 
Heartbeat CPU 2 instructions: 170000001 cycles: 2434332148 heartbeat IPC: 0.0498884 cumulative IPC: 0.0498896 (Simulation time: 4 hr 7 min 19 sec) 
Heartbeat CPU 1 instructions: 190000000 cycles: 2562175526 heartbeat IPC: 0.0752403 cumulative IPC: 0.0550848 (Simulation time: 4 hr 19 min 8 sec) 
Heartbeat CPU 0 instructions: 180000000 cycles: 2598544199 heartbeat IPC: 0.0497999 cumulative IPC: 0.0504741 (Simulation time: 4 hr 22 min 37 sec) 
Heartbeat CPU 1 instructions: 200000003 cycles: 2602922388 heartbeat IPC: 0.245418 cumulative IPC: 0.0581013 (Simulation time: 4 hr 22 min 58 sec) 
Heartbeat CPU 3 instructions: 180000000 cycles: 2612647817 heartbeat IPC: 0.0496667 cumulative IPC: 0.0503732 (Simulation time: 4 hr 23 min 49 sec) 
Heartbeat CPU 2 instructions: 180000000 cycles: 2637160999 heartbeat IPC: 0.0493026 cumulative IPC: 0.0498439 (Simulation time: 4 hr 26 min 9 sec) 
Heartbeat CPU 0 instructions: 190000000 cycles: 2739709954 heartbeat IPC: 0.0708387 cumulative IPC: 0.0515357 (Simulation time: 4 hr 36 min 8 sec) 
Heartbeat CPU 3 instructions: 190000000 cycles: 2758285340 heartbeat IPC: 0.0686636 cumulative IPC: 0.0513502 (Simulation time: 4 hr 38 min 19 sec) 
Heartbeat CPU 0 instructions: 200000003 cycles: 2786354867 heartbeat IPC: 0.214386 cumulative IPC: 0.0542935 (Simulation time: 4 hr 41 min 15 sec) 
Heartbeat CPU 2 instructions: 190000000 cycles: 2788109686 heartbeat IPC: 0.0662477 cumulative IPC: 0.0507423 (Simulation time: 4 hr 41 min 29 sec) 
Heartbeat CPU 1 instructions: 210000001 cycles: 2799981366 heartbeat IPC: 0.0507462 cumulative IPC: 0.0575777 (Simulation time: 4 hr 43 min 6 sec) 
Heartbeat CPU 3 instructions: 200000003 cycles: 2804710131 heartbeat IPC: 0.215402 cumulative IPC: 0.0540969 (Simulation time: 4 hr 43 min 34 sec) 
Heartbeat CPU 2 instructions: 200000003 cycles: 2830886397 heartbeat IPC: 0.233772 cumulative IPC: 0.0535395 (Simulation time: 4 hr 45 min 39 sec) 
Heartbeat CPU 1 instructions: 220000000 cycles: 2984315024 heartbeat IPC: 0.0542494 cumulative IPC: 0.0573699 (Simulation time: 5 hr 0 min 26 sec) 
Heartbeat CPU 0 instructions: 210000001 cycles: 2987044290 heartbeat IPC: 0.0498282 cumulative IPC: 0.0539902 (Simulation time: 5 hr 0 min 43 sec) 
Heartbeat CPU 3 instructions: 210000001 cycles: 3002390706 heartbeat IPC: 0.0505866 cumulative IPC: 0.0538633 (Simulation time: 5 hr 2 min 19 sec) 
Heartbeat CPU 2 instructions: 210000001 cycles: 3031341112 heartbeat IPC: 0.0498866 cumulative IPC: 0.0532954 (Simulation time: 5 hr 4 min 46 sec) 
Heartbeat CPU 1 instructions: 230000001 cycles: 3171812143 heartbeat IPC: 0.0533342 cumulative IPC: 0.0571289 (Simulation time: 5 hr 18 min 26 sec) 
Heartbeat CPU 0 instructions: 220000000 cycles: 3186266300 heartbeat IPC: 0.0501953 cumulative IPC: 0.0537506 (Simulation time: 5 hr 19 min 53 sec) 
Heartbeat CPU 3 instructions: 220000000 cycles: 3201235582 heartbeat IPC: 0.0502905 cumulative IPC: 0.0536392 (Simulation time: 5 hr 21 min 23 sec) 
Heartbeat CPU 2 instructions: 220000000 cycles: 3231873251 heartbeat IPC: 0.0498673 cumulative IPC: 0.0530806 (Simulation time: 5 hr 24 min 15 sec) 
Heartbeat CPU 1 instructions: 240000000 cycles: 3357665467 heartbeat IPC: 0.0538059 cumulative IPC: 0.0569432 (Simulation time: 5 hr 35 min 43 sec) 
Heartbeat CPU 0 instructions: 230000001 cycles: 3384869387 heartbeat IPC: 0.0503517 cumulative IPC: 0.0535492 (Simulation time: 5 hr 37 min 51 sec) 
Heartbeat CPU 3 instructions: 230000001 cycles: 3400091644 heartbeat IPC: 0.0502876 cumulative IPC: 0.0534413 (Simulation time: 5 hr 39 min 3 sec) 
Heartbeat CPU 2 instructions: 230000001 cycles: 3433356546 heartbeat IPC: 0.0496319 cumulative IPC: 0.0528763 (Simulation time: 5 hr 41 min 44 sec) 
Heartbeat CPU 1 instructions: 250000003 cycles: 3539975970 heartbeat IPC: 0.0548515 cumulative IPC: 0.0568345 (Simulation time: 5 hr 51 min 45 sec) 
Finished CPU 1 instructions: 200000002 cycles: 3519569459 cumulative IPC: 0.0568251 (Simulation time: 5 hr 52 min 40 sec) 
Heartbeat CPU 0 instructions: 240000000 cycles: 3582680644 heartbeat IPC: 0.0505532 cumulative IPC: 0.0533823 (Simulation time: 5 hr 55 min 44 sec) 
Heartbeat CPU 3 instructions: 240000000 cycles: 3598494283 heartbeat IPC: 0.0504026 cumulative IPC: 0.0532723 (Simulation time: 5 hr 57 min 17 sec) 
Heartbeat CPU 2 instructions: 240000000 cycles: 3633635229 heartbeat IPC: 0.0499304 cumulative IPC: 0.0527125 (Simulation time: 6 hr 0 min 51 sec) 
Heartbeat CPU 1 instructions: 260000000 cycles: 3726004629 heartbeat IPC: 0.0537551 cumulative IPC: 0.0566794 (Simulation time: 6 hr 9 min 58 sec) 
Heartbeat CPU 0 instructions: 250000003 cycles: 3778809298 heartbeat IPC: 0.050987 cumulative IPC: 0.053257 (Simulation time: 6 hr 15 min 3 sec) 
Finished CPU 0 instructions: 200000002 cycles: 3755736520 cumulative IPC: 0.0532519 (Simulation time: 6 hr 15 min 57 sec) 
Heartbeat CPU 3 instructions: 250000003 cycles: 3794725643 heartbeat IPC: 0.0509603 cumulative IPC: 0.0531517 (Simulation time: 6 hr 16 min 36 sec) 
Finished CPU 3 instructions: 200000000 cycles: 3762815588 cumulative IPC: 0.0531517 (Simulation time: 6 hr 16 min 36 sec) 
Heartbeat CPU 2 instructions: 250000003 cycles: 3831914133 heartbeat IPC: 0.050434 cumulative IPC: 0.0525936 (Simulation time: 6 hr 20 min 19 sec) 
Finished CPU 2 instructions: 200000001 cycles: 3802760110 cumulative IPC: 0.0525934 (Simulation time: 6 hr 20 min 33 sec) 

ChampSim completed all CPUs

Total Simulation Statistics (not including warmup)

CPU 0 cumulative IPC: 0.0532244 instructions: 202399583 cycles: 3802760110
ITLB TOTAL     ACCESS:   60745365  HIT:   60745365  MISS:          0  HIT %:        100  MISS %:          0   MPKI: 0
ITLB LOAD      ACCESS:          0  HIT:          0  MISS:          0  HIT %:       -nan  MISS %:       -nan   MPKI: 0
ITLB RFO       ACCESS:          0  HIT:          0  MISS:          0  HIT %:       -nan  MISS %:       -nan   MPKI: 0
ITLB PREFETCH  ACCESS:          0  HIT:          0  MISS:          0  HIT %:       -nan  MISS %:       -nan   MPKI: 0
ITLB WRITEBACK ACCESS:          0  HIT:          0  MISS:          0  HIT %:       -nan  MISS %:       -nan   MPKI: 0
DTLB TOTAL     ACCESS:   67809249  HIT:   44581140  MISS:   23228109  HIT %:    65.7449  MISS %:    34.2551   MPKI: 114.764
DTLB LOAD      ACCESS:          0  HIT:          0  MISS:          0  HIT %:       -nan  MISS %:       -nan   MPKI: 0
DTLB RFO       ACCESS:          0  HIT:          0  MISS:          0  HIT %:       -nan  MISS %:       -nan   MPKI: 0
DTLB PREFETCH  ACCESS:          0  HIT:          0  MISS:          0  HIT %:       -nan  MISS %:       -nan   MPKI: 0
DTLB WRITEBACK ACCESS:          0  HIT:          0  MISS:          0  HIT %:       -nan  MISS %:       -nan   MPKI: 0
STLB TOTAL     ACCESS:   57708623  HIT:   57667327  MISS:      41296  HIT %:    99.9284  MISS %:  0.0715595   MPKI: 0.204032
STLB LOAD      ACCESS:          0  HIT:          0  MISS:          0  HIT %:       -nan  MISS %:       -nan   MPKI: 0
STLB RFO       ACCESS:          0  HIT:          0  MISS:          0  HIT %:       -nan  MISS %:       -nan   MPKI: 0
STLB PREFETCH  ACCESS:          0  HIT:          0  MISS:          0  HIT %:       -nan  MISS %:       -nan   MPKI: 0
STLB WRITEBACK ACCESS:          0  HIT:          0  MISS:          0  HIT %:       -nan  MISS %:       -nan   MPKI: 0
L1D TOTAL     ACCESS:  106871840  HIT:   39977389  MISS:   66894451  HIT %:    37.4069  MISS %:    62.5931   MPKI: 330.507
L1D LOAD      ACCESS:   65032746  HIT:   32496929  MISS:   32535817  HIT %:    49.9701  MISS %:    50.0299   MPKI: 160.75
L1D RFO       ACCESS:    2515928  HIT:    2450374  MISS:      65554  HIT %:    97.3944  MISS %:    2.60556   MPKI: 0.323884
L1D PREFETCH  ACCESS:   39323166  HIT:    5030086  MISS:   34293080  HIT %:    12.7917  MISS %:    87.2083   MPKI: 169.433
L1D WRITEBACK ACCESS:          0  HIT:          0  MISS:          0  HIT %:       -nan  MISS %:       -nan   MPKI: 0
L1I TOTAL     ACCESS:   61886743  HIT:   61886721  MISS:         22  HIT %:        100  MISS %: 3.55488e-05   MPKI: 0.000108696
L1I LOAD      ACCESS:   61886743  HIT:   61886721  MISS:         22  HIT %:        100  MISS %: 3.55488e-05   MPKI: 0.000108696
L1I RFO       ACCESS:          0  HIT:          0  MISS:          0  HIT %:       -nan  MISS %:       -nan   MPKI: 0
L1I PREFETCH  ACCESS:          0  HIT:          0  MISS:          0  HIT %:       -nan  MISS %:       -nan   MPKI: 0
L1I WRITEBACK ACCESS:          0  HIT:          0  MISS:          0  HIT %:       -nan  MISS %:       -nan   MPKI: 0
L2C TOTAL     ACCESS:   67106771  HIT:   14025123  MISS:   53081648  HIT %:    20.8997  MISS %:    79.1003   MPKI: 262.262
L2C LOAD      ACCESS:   32176817  HIT:    7332073  MISS:   24844744  HIT %:    22.7868  MISS %:    77.2132   MPKI: 122.751
L2C RFO       ACCESS:      65554  HIT:        153  MISS:      65401  HIT %:   0.233395  MISS %:    99.7666   MPKI: 0.323128
L2C PREFETCH  ACCESS:   34652075  HIT:    6524389  MISS:   28127686  HIT %:    18.8283  MISS %:    81.1717   MPKI: 138.971
L2C WRITEBACK ACCESS:     170988  HIT:     135976  MISS:      35012  HIT %:    79.5237  MISS %:    20.4763   MPKI: 0.172985
PSCL5 TOTAL     ACCESS:      41296  HIT:      41296  MISS:          0  HIT %:        100  MISS %:          0   MPKI: 0
PSCL5 LOAD      ACCESS:          0  HIT:          0  MISS:          0  HIT %:       -nan  MISS %:       -nan   MPKI: 0
PSCL5 RFO       ACCESS:          0  HIT:          0  MISS:          0  HIT %:       -nan  MISS %:       -nan   MPKI: 0
PSCL5 PREFETCH  ACCESS:          0  HIT:          0  MISS:          0  HIT %:       -nan  MISS %:       -nan   MPKI: 0
PSCL5 WRITEBACK ACCESS:          0  HIT:          0  MISS:          0  HIT %:       -nan  MISS %:       -nan   MPKI: 0
PSCL4 TOTAL     ACCESS:      41296  HIT:      41296  MISS:          0  HIT %:        100  MISS %:          0   MPKI: 0
PSCL4 LOAD      ACCESS:          0  HIT:          0  MISS:          0  HIT %:       -nan  MISS %:       -nan   MPKI: 0
PSCL4 RFO       ACCESS:          0  HIT:          0  MISS:          0  HIT %:       -nan  MISS %:       -nan   MPKI: 0
PSCL4 PREFETCH  ACCESS:          0  HIT:          0  MISS:          0  HIT %:       -nan  MISS %:       -nan   MPKI: 0
PSCL4 WRITEBACK ACCESS:          0  HIT:          0  MISS:          0  HIT %:       -nan  MISS %:       -nan   MPKI: 0
PSCL3 TOTAL     ACCESS:      41296  HIT:      41296  MISS:          0  HIT %:        100  MISS %:          0   MPKI: 0
PSCL3 LOAD      ACCESS:          0  HIT:          0  MISS:          0  HIT %:       -nan  MISS %:       -nan   MPKI: 0
PSCL3 RFO       ACCESS:          0  HIT:          0  MISS:          0  HIT %:       -nan  MISS %:       -nan   MPKI: 0
PSCL3 PREFETCH  ACCESS:          0  HIT:          0  MISS:          0  HIT %:       -nan  MISS %:       -nan   MPKI: 0
PSCL3 WRITEBACK ACCESS:          0  HIT:          0  MISS:          0  HIT %:       -nan  MISS %:       -nan   MPKI: 0
PSCL2 TOTAL     ACCESS:      41296  HIT:      41209  MISS:         87  HIT %:    99.7893  MISS %:   0.210674   MPKI: 0.000429843
PSCL2 LOAD      ACCESS:          0  HIT:          0  MISS:          0  HIT %:       -nan  MISS %:       -nan   MPKI: 0
PSCL2 RFO       ACCESS:          0  HIT:          0  MISS:          0  HIT %:       -nan  MISS %:       -nan   MPKI: 0
PSCL2 PREFETCH  ACCESS:          0  HIT:          0  MISS:          0  HIT %:       -nan  MISS %:       -nan   MPKI: 0
PSCL2 WRITEBACK ACCESS:          0  HIT:          0  MISS:          0  HIT %:       -nan  MISS %:       -nan   MPKI: 0

stream: 
stream:times selected: 44076958
stream:pref_filled: 37747271
stream:pref_useful: 942889
stream:pref_late: 288507
stream:misses: 9402793
stream:misses_by_poll: 0

CS: 
CS:times selected: 4005128
CS:pref_filled: 3174562
CS:pref_useful: 2863173
CS:pref_late: 105312
CS:misses: 509625
CS:misses_by_poll: 3601

CPLX: 
CPLX:times selected: 39696053
CPLX:pref_filled: 763567
CPLX:pref_useful: 29828
CPLX:pref_late: 15792
CPLX:misses: 29379922
CPLX:misses_by_poll: 274

NL_L1: 
NL:times selected: 69576
NL:pref_filled: 64548
NL:pref_useful: 651
NL:pref_late: 205
NL:misses: 68688
NL:misses_by_poll: 0

total selections: 87847715
total_filled: 34293080
total_useful: 3064535
total_late: 415319
total_polluted: 3875
total_misses_after_warmup: 32803129
conflicts: 221
Degree Incremented Times: 1273954
Degree Decremented Times: 2698301

L1 IP Table Write Accesses: 265167803
L1 IP Table Read Accesses: 265167582
L1 RST Write Accesses: 148058058
L1 RST Read Accesses: 296116116
L1 CSPT Write Accesses: 148058058
L1 CSPT Read Accesses: 282140265
L1 RR Filter Tag Write Accesses: 161347158
L1 RR Filter Tag Read Accesses: 5780323915
L1 IP Table Tag Write Accesses: 265167988
L1 IP Table Tag Read Accesses: 265167988
L1 RST Tag Write Accesses: 0
L1 RST Tag Read Accesses: 1334030511
L1 RR Filter Write Accesses: 0
L1 RR Filter Read Accesses: 185108217
test: 95021919
LLC TOTAL     ACCESS:   53185886  HIT:   30940385  MISS:   22245501  HIT %:    58.1741  MISS %:    41.8259   MPKI: 109.909
LLC LOAD      ACCESS:   24844744  HIT:   15581637  MISS:    9263107  HIT %:     62.716  MISS %:     37.284   MPKI: 45.7664
LLC RFO       ACCESS:      65401  HIT:       6764  MISS:      58637  HIT %:    10.3423  MISS %:    89.6577   MPKI: 0.289709
LLC PREFETCH  ACCESS:   28127687  HIT:   15221853  MISS:   12905834  HIT %:     54.117  MISS %:     45.883   MPKI: 63.7641
LLC WRITEBACK ACCESS:     139249  HIT:     127454  MISS:      11795  HIT %:    91.5296  MISS %:    8.47044   MPKI: 0.0582758

RAW hits: 22
Loads Generated: 78296379
Loads sent to L1D: 78296357
Stores Generated: 3333003
Stores sent to L1D: 3333003

CPU 1 cumulative IPC: 0.0566109 instructions: 215277789 cycles: 3802760110
ITLB TOTAL     ACCESS:   64653249  HIT:   64653249  MISS:          0  HIT %:        100  MISS %:          0   MPKI: 0
ITLB LOAD      ACCESS:          0  HIT:          0  MISS:          0  HIT %:       -nan  MISS %:       -nan   MPKI: 0
ITLB RFO       ACCESS:          0  HIT:          0  MISS:          0  HIT %:       -nan  MISS %:       -nan   MPKI: 0
ITLB PREFETCH  ACCESS:          0  HIT:          0  MISS:          0  HIT %:       -nan  MISS %:       -nan   MPKI: 0
ITLB WRITEBACK ACCESS:          0  HIT:          0  MISS:          0  HIT %:       -nan  MISS %:       -nan   MPKI: 0
DTLB TOTAL     ACCESS:   72238906  HIT:   47420238  MISS:   24818668  HIT %:    65.6436  MISS %:    34.3564   MPKI: 115.287
DTLB LOAD      ACCESS:          0  HIT:          0  MISS:          0  HIT %:       -nan  MISS %:       -nan   MPKI: 0
DTLB RFO       ACCESS:          0  HIT:          0  MISS:          0  HIT %:       -nan  MISS %:       -nan   MPKI: 0
DTLB PREFETCH  ACCESS:          0  HIT:          0  MISS:          0  HIT %:       -nan  MISS %:       -nan   MPKI: 0
DTLB WRITEBACK ACCESS:          0  HIT:          0  MISS:          0  HIT %:       -nan  MISS %:       -nan   MPKI: 0
STLB TOTAL     ACCESS:   61613684  HIT:   61569921  MISS:      43763  HIT %:     99.929  MISS %:  0.0710281   MPKI: 0.203286
STLB LOAD      ACCESS:          0  HIT:          0  MISS:          0  HIT %:       -nan  MISS %:       -nan   MPKI: 0
STLB RFO       ACCESS:          0  HIT:          0  MISS:          0  HIT %:       -nan  MISS %:       -nan   MPKI: 0
STLB PREFETCH  ACCESS:          0  HIT:          0  MISS:          0  HIT %:       -nan  MISS %:       -nan   MPKI: 0
STLB WRITEBACK ACCESS:          0  HIT:          0  MISS:          0  HIT %:       -nan  MISS %:       -nan   MPKI: 0
L1D TOTAL     ACCESS:  113966086  HIT:   42571591  MISS:   71394495  HIT %:    37.3546  MISS %:    62.6454   MPKI: 331.639
L1D LOAD      ACCESS:   69338232  HIT:   34622267  MISS:   34715965  HIT %:    49.9324  MISS %:    50.0676   MPKI: 161.261
L1D RFO       ACCESS:    2688029  HIT:    2622474  MISS:      65555  HIT %:    97.5612  MISS %:    2.43878   MPKI: 0.304514
L1D PREFETCH  ACCESS:   41939825  HIT:    5326850  MISS:   36612975  HIT %:    12.7012  MISS %:    87.2988   MPKI: 170.073
L1D WRITEBACK ACCESS:          0  HIT:          0  MISS:          0  HIT %:       -nan  MISS %:       -nan   MPKI: 0
L1I TOTAL     ACCESS:   65873945  HIT:   65873923  MISS:         22  HIT %:        100  MISS %: 3.33971e-05   MPKI: 0.000102194
L1I LOAD      ACCESS:   65873945  HIT:   65873923  MISS:         22  HIT %:        100  MISS %: 3.33971e-05   MPKI: 0.000102194
L1I RFO       ACCESS:          0  HIT:          0  MISS:          0  HIT %:       -nan  MISS %:       -nan   MPKI: 0
L1I PREFETCH  ACCESS:          0  HIT:          0  MISS:          0  HIT %:       -nan  MISS %:       -nan   MPKI: 0
L1I WRITEBACK ACCESS:          0  HIT:          0  MISS:          0  HIT %:       -nan  MISS %:       -nan   MPKI: 0
L2C TOTAL     ACCESS:   71616639  HIT:   15105686  MISS:   56510953  HIT %:    21.0924  MISS %:    78.9076   MPKI: 262.502
L2C LOAD      ACCESS:   34354166  HIT:    7906128  MISS:   26448038  HIT %:    23.0136  MISS %:    76.9864   MPKI: 122.855
L2C RFO       ACCESS:      65555  HIT:        189  MISS:      65366  HIT %:   0.288308  MISS %:    99.7117   MPKI: 0.303636
L2C PREFETCH  ACCESS:   36974770  HIT:    7021173  MISS:   29953597  HIT %:    18.9891  MISS %:    81.0109   MPKI: 139.139
L2C WRITEBACK ACCESS:     178340  HIT:     143837  MISS:      34503  HIT %:    80.6532  MISS %:    19.3468   MPKI: 0.160272
PSCL5 TOTAL     ACCESS:      43763  HIT:      43763  MISS:          0  HIT %:        100  MISS %:          0   MPKI: 0
PSCL5 LOAD      ACCESS:          0  HIT:          0  MISS:          0  HIT %:       -nan  MISS %:       -nan   MPKI: 0
PSCL5 RFO       ACCESS:          0  HIT:          0  MISS:          0  HIT %:       -nan  MISS %:       -nan   MPKI: 0
PSCL5 PREFETCH  ACCESS:          0  HIT:          0  MISS:          0  HIT %:       -nan  MISS %:       -nan   MPKI: 0
PSCL5 WRITEBACK ACCESS:          0  HIT:          0  MISS:          0  HIT %:       -nan  MISS %:       -nan   MPKI: 0
PSCL4 TOTAL     ACCESS:      43763  HIT:      43763  MISS:          0  HIT %:        100  MISS %:          0   MPKI: 0
PSCL4 LOAD      ACCESS:          0  HIT:          0  MISS:          0  HIT %:       -nan  MISS %:       -nan   MPKI: 0
PSCL4 RFO       ACCESS:          0  HIT:          0  MISS:          0  HIT %:       -nan  MISS %:       -nan   MPKI: 0
PSCL4 PREFETCH  ACCESS:          0  HIT:          0  MISS:          0  HIT %:       -nan  MISS %:       -nan   MPKI: 0
PSCL4 WRITEBACK ACCESS:          0  HIT:          0  MISS:          0  HIT %:       -nan  MISS %:       -nan   MPKI: 0
PSCL3 TOTAL     ACCESS:      43763  HIT:      43763  MISS:          0  HIT %:        100  MISS %:          0   MPKI: 0
PSCL3 LOAD      ACCESS:          0  HIT:          0  MISS:          0  HIT %:       -nan  MISS %:       -nan   MPKI: 0
PSCL3 RFO       ACCESS:          0  HIT:          0  MISS:          0  HIT %:       -nan  MISS %:       -nan   MPKI: 0
PSCL3 PREFETCH  ACCESS:          0  HIT:          0  MISS:          0  HIT %:       -nan  MISS %:       -nan   MPKI: 0
PSCL3 WRITEBACK ACCESS:          0  HIT:          0  MISS:          0  HIT %:       -nan  MISS %:       -nan   MPKI: 0
PSCL2 TOTAL     ACCESS:      43763  HIT:      43672  MISS:         91  HIT %:    99.7921  MISS %:   0.207938   MPKI: 0.00042271
PSCL2 LOAD      ACCESS:          0  HIT:          0  MISS:          0  HIT %:       -nan  MISS %:       -nan   MPKI: 0
PSCL2 RFO       ACCESS:          0  HIT:          0  MISS:          0  HIT %:       -nan  MISS %:       -nan   MPKI: 0
PSCL2 PREFETCH  ACCESS:          0  HIT:          0  MISS:          0  HIT %:       -nan  MISS %:       -nan   MPKI: 0
PSCL2 WRITEBACK ACCESS:          0  HIT:          0  MISS:          0  HIT %:       -nan  MISS %:       -nan   MPKI: 0

stream: 
stream:times selected: 46533648
stream:pref_filled: 39459829
stream:pref_useful: 802555
stream:pref_late: 288759
stream:misses: 9938768
stream:misses_by_poll: 0

CS: 
CS:times selected: 4194121
CS:pref_filled: 3345527
CS:pref_useful: 3018845
CS:pref_late: 105842
CS:misses: 765823
CS:misses_by_poll: 3789

CPLX: 
CPLX:times selected: 41941981
CPLX:pref_filled: 806481
CPLX:pref_useful: 31888
CPLX:pref_late: 16031
CPLX:misses: 31036881
CPLX:misses_by_poll: 310

NL_L1: 
NL:times selected: 69564
NL:pref_filled: 64511
NL:pref_useful: 671
NL:pref_late: 185
NL:misses: 68666
NL:misses_by_poll: 0

total selections: 92739314
total_filled: 36612975
total_useful: 3269783
total_late: 416449
total_polluted: 4099
total_misses_after_warmup: 35021627
conflicts: 221
Degree Incremented Times: 1273954
Degree Decremented Times: 2698301

L1 IP Table Write Accesses: 265167803
L1 IP Table Read Accesses: 265167582
L1 RST Write Accesses: 148058058
L1 RST Read Accesses: 296116116
L1 CSPT Write Accesses: 148058058
L1 CSPT Read Accesses: 282140265
L1 RR Filter Tag Write Accesses: 161347158
L1 RR Filter Tag Read Accesses: 5780323915
L1 IP Table Tag Write Accesses: 265167988
L1 IP Table Tag Read Accesses: 265167988
L1 RST Tag Write Accesses: 0
L1 RST Tag Read Accesses: 1334030511
L1 RR Filter Write Accesses: 0
L1 RR Filter Read Accesses: 185108217
test: 95021919
LLC TOTAL     ACCESS:   56619459  HIT:   35452990  MISS:   21166469  HIT %:    62.6163  MISS %:    37.3837   MPKI: 98.3217
LLC LOAD      ACCESS:   26448038  HIT:   17785768  MISS:    8662270  HIT %:     67.248  MISS %:     32.752   MPKI: 40.2376
LLC RFO       ACCESS:      65366  HIT:       8996  MISS:      56370  HIT %:    13.7625  MISS %:    86.2375   MPKI: 0.261848
LLC PREFETCH  ACCESS:   29953598  HIT:   17523999  MISS:   12429599  HIT %:    58.5038  MISS %:    41.4962   MPKI: 57.7375
LLC WRITEBACK ACCESS:     143008  HIT:     131158  MISS:      11850  HIT %:    91.7138  MISS %:    8.28625   MPKI: 0.0550452

RAW hits: 22
Loads Generated: 83364646
Loads sent to L1D: 83364623
Stores Generated: 3491763
Stores sent to L1D: 3491763

CPU 2 cumulative IPC: 0.0525934 instructions: 200000001 cycles: 3802760110
ITLB TOTAL     ACCESS:   60030160  HIT:   60030160  MISS:          0  HIT %:        100  MISS %:          0   MPKI: 0
ITLB LOAD      ACCESS:          0  HIT:          0  MISS:          0  HIT %:       -nan  MISS %:       -nan   MPKI: 0
ITLB RFO       ACCESS:          0  HIT:          0  MISS:          0  HIT %:       -nan  MISS %:       -nan   MPKI: 0
ITLB PREFETCH  ACCESS:          0  HIT:          0  MISS:          0  HIT %:       -nan  MISS %:       -nan   MPKI: 0
ITLB WRITEBACK ACCESS:          0  HIT:          0  MISS:          0  HIT %:       -nan  MISS %:       -nan   MPKI: 0
DTLB TOTAL     ACCESS:   66987439  HIT:   44067514  MISS:   22919925  HIT %:    65.7847  MISS %:    34.2153   MPKI: 114.6
DTLB LOAD      ACCESS:          0  HIT:          0  MISS:          0  HIT %:       -nan  MISS %:       -nan   MPKI: 0
DTLB RFO       ACCESS:          0  HIT:          0  MISS:          0  HIT %:       -nan  MISS %:       -nan   MPKI: 0
DTLB PREFETCH  ACCESS:          0  HIT:          0  MISS:          0  HIT %:       -nan  MISS %:       -nan   MPKI: 0
DTLB WRITEBACK ACCESS:          0  HIT:          0  MISS:          0  HIT %:       -nan  MISS %:       -nan   MPKI: 0
STLB TOTAL     ACCESS:   56972355  HIT:   56931525  MISS:      40830  HIT %:    99.9283  MISS %:  0.0716663   MPKI: 0.20415
STLB LOAD      ACCESS:          0  HIT:          0  MISS:          0  HIT %:       -nan  MISS %:       -nan   MPKI: 0
STLB RFO       ACCESS:          0  HIT:          0  MISS:          0  HIT %:       -nan  MISS %:       -nan   MPKI: 0
STLB PREFETCH  ACCESS:          0  HIT:          0  MISS:          0  HIT %:       -nan  MISS %:       -nan   MPKI: 0
STLB WRITEBACK ACCESS:          0  HIT:          0  MISS:          0  HIT %:       -nan  MISS %:       -nan   MPKI: 0
L1D TOTAL     ACCESS:  105570385  HIT:   39510210  MISS:   66060175  HIT %:    37.4255  MISS %:    62.5745   MPKI: 330.301
L1D LOAD      ACCESS:   64238660  HIT:   32109499  MISS:   32129161  HIT %:    49.9847  MISS %:    50.0153   MPKI: 160.646
L1D RFO       ACCESS:    2491006  HIT:    2425452  MISS:      65554  HIT %:    97.3684  MISS %:    2.63163   MPKI: 0.32777
L1D PREFETCH  ACCESS:   38840719  HIT:    4975259  MISS:   33865460  HIT %:    12.8094  MISS %:    87.1906   MPKI: 169.327
L1D WRITEBACK ACCESS:          0  HIT:          0  MISS:          0  HIT %:       -nan  MISS %:       -nan   MPKI: 0
L1I TOTAL     ACCESS:   61155774  HIT:   61155752  MISS:         22  HIT %:        100  MISS %: 3.59737e-05   MPKI: 0.00011
L1I LOAD      ACCESS:   61155774  HIT:   61155752  MISS:         22  HIT %:        100  MISS %: 3.59737e-05   MPKI: 0.00011
L1I RFO       ACCESS:          0  HIT:          0  MISS:          0  HIT %:       -nan  MISS %:       -nan   MPKI: 0
L1I PREFETCH  ACCESS:          0  HIT:          0  MISS:          0  HIT %:       -nan  MISS %:       -nan   MPKI: 0
L1I WRITEBACK ACCESS:          0  HIT:          0  MISS:          0  HIT %:       -nan  MISS %:       -nan   MPKI: 0
L2C TOTAL     ACCESS:   66270648  HIT:   13833213  MISS:   52437435  HIT %:    20.8738  MISS %:    79.1262   MPKI: 262.187
L2C LOAD      ACCESS:   31771046  HIT:    7232307  MISS:   24538739  HIT %:    22.7638  MISS %:    77.2362   MPKI: 122.694
L2C RFO       ACCESS:      65554  HIT:        192  MISS:      65362  HIT %:   0.292888  MISS %:    99.7071   MPKI: 0.32681
L2C PREFETCH  ACCESS:   34223580  HIT:    6432717  MISS:   27790863  HIT %:    18.7962  MISS %:    81.2038   MPKI: 138.954
L2C WRITEBACK ACCESS:     169598  HIT:     135929  MISS:      33669  HIT %:    80.1478  MISS %:    19.8522   MPKI: 0.168345
PSCL5 TOTAL     ACCESS:      40830  HIT:      40830  MISS:          0  HIT %:        100  MISS %:          0   MPKI: 0
PSCL5 LOAD      ACCESS:          0  HIT:          0  MISS:          0  HIT %:       -nan  MISS %:       -nan   MPKI: 0
PSCL5 RFO       ACCESS:          0  HIT:          0  MISS:          0  HIT %:       -nan  MISS %:       -nan   MPKI: 0
PSCL5 PREFETCH  ACCESS:          0  HIT:          0  MISS:          0  HIT %:       -nan  MISS %:       -nan   MPKI: 0
PSCL5 WRITEBACK ACCESS:          0  HIT:          0  MISS:          0  HIT %:       -nan  MISS %:       -nan   MPKI: 0
PSCL4 TOTAL     ACCESS:      40830  HIT:      40830  MISS:          0  HIT %:        100  MISS %:          0   MPKI: 0
PSCL4 LOAD      ACCESS:          0  HIT:          0  MISS:          0  HIT %:       -nan  MISS %:       -nan   MPKI: 0
PSCL4 RFO       ACCESS:          0  HIT:          0  MISS:          0  HIT %:       -nan  MISS %:       -nan   MPKI: 0
PSCL4 PREFETCH  ACCESS:          0  HIT:          0  MISS:          0  HIT %:       -nan  MISS %:       -nan   MPKI: 0
PSCL4 WRITEBACK ACCESS:          0  HIT:          0  MISS:          0  HIT %:       -nan  MISS %:       -nan   MPKI: 0
PSCL3 TOTAL     ACCESS:      40830  HIT:      40830  MISS:          0  HIT %:        100  MISS %:          0   MPKI: 0
PSCL3 LOAD      ACCESS:          0  HIT:          0  MISS:          0  HIT %:       -nan  MISS %:       -nan   MPKI: 0
PSCL3 RFO       ACCESS:          0  HIT:          0  MISS:          0  HIT %:       -nan  MISS %:       -nan   MPKI: 0
PSCL3 PREFETCH  ACCESS:          0  HIT:          0  MISS:          0  HIT %:       -nan  MISS %:       -nan   MPKI: 0
PSCL3 WRITEBACK ACCESS:          0  HIT:          0  MISS:          0  HIT %:       -nan  MISS %:       -nan   MPKI: 0
PSCL2 TOTAL     ACCESS:      40830  HIT:      40743  MISS:         87  HIT %:    99.7869  MISS %:   0.213079   MPKI: 0.000435
PSCL2 LOAD      ACCESS:          0  HIT:          0  MISS:          0  HIT %:       -nan  MISS %:       -nan   MPKI: 0
PSCL2 RFO       ACCESS:          0  HIT:          0  MISS:          0  HIT %:       -nan  MISS %:       -nan   MPKI: 0
PSCL2 PREFETCH  ACCESS:          0  HIT:          0  MISS:          0  HIT %:       -nan  MISS %:       -nan   MPKI: 0
PSCL2 WRITEBACK ACCESS:          0  HIT:          0  MISS:          0  HIT %:       -nan  MISS %:       -nan   MPKI: 0

stream: 
stream:times selected: 43569976
stream:pref_filled: 36870814
stream:pref_useful: 737602
stream:pref_late: 290842
stream:misses: 9289042
stream:misses_by_poll: 0

CS: 
CS:times selected: 3970887
CS:pref_filled: 3143651
CS:pref_useful: 2834633
CS:pref_late: 103837
CS:misses: 737624
CS:misses_by_poll: 3446

CPLX: 
CPLX:times selected: 39228000
CPLX:pref_filled: 754953
CPLX:pref_useful: 29463
CPLX:pref_late: 15930
CPLX:misses: 29039244
CPLX:misses_by_poll: 280

NL_L1: 
NL:times selected: 69592
NL:pref_filled: 64465
NL:pref_useful: 640
NL:pref_late: 218
NL:misses: 68729
NL:misses_by_poll: 0

total selections: 86838455
total_filled: 33865460
total_useful: 3029040
total_late: 415921
total_polluted: 3726
total_misses_after_warmup: 32339004
conflicts: 221
Degree Incremented Times: 1273954
Degree Decremented Times: 2698301

L1 IP Table Write Accesses: 265167803
L1 IP Table Read Accesses: 265167582
L1 RST Write Accesses: 148058058
L1 RST Read Accesses: 296116116
L1 CSPT Write Accesses: 148058058
L1 CSPT Read Accesses: 282140265
L1 RR Filter Tag Write Accesses: 161347158
L1 RR Filter Tag Read Accesses: 5780323915
L1 IP Table Tag Write Accesses: 265167988
L1 IP Table Tag Read Accesses: 265167988
L1 RST Tag Write Accesses: 0
L1 RST Tag Read Accesses: 1334030511
L1 RR Filter Write Accesses: 0
L1 RR Filter Read Accesses: 185108217
test: 95021919
LLC TOTAL     ACCESS:   52541502  HIT:   30095911  MISS:   22445591  HIT %:    57.2803  MISS %:    42.7197   MPKI: 112.228
LLC LOAD      ACCESS:   24538738  HIT:   15165710  MISS:    9373028  HIT %:    61.8031  MISS %:    38.1969   MPKI: 46.8651
LLC RFO       ACCESS:      65362  HIT:       7224  MISS:      58138  HIT %:    11.0523  MISS %:    88.9477   MPKI: 0.29069
LLC PREFETCH  ACCESS:   27790863  HIT:   14795446  MISS:   12995417  HIT %:    53.2385  MISS %:    46.7615   MPKI: 64.9771
LLC WRITEBACK ACCESS:     137737  HIT:     124681  MISS:      13056  HIT %:    90.5211  MISS %:    9.47893   MPKI: 0.06528

RAW hits: 22
Loads Generated: 77353042
Loads sent to L1D: 77353019
Stores Generated: 3301475
Stores sent to L1D: 3301475

CPU 3 cumulative IPC: 0.0531326 instructions: 202050537 cycles: 3802760110
ITLB TOTAL     ACCESS:   60634726  HIT:   60634726  MISS:          0  HIT %:        100  MISS %:          0   MPKI: 0
ITLB LOAD      ACCESS:          0  HIT:          0  MISS:          0  HIT %:       -nan  MISS %:       -nan   MPKI: 0
ITLB RFO       ACCESS:          0  HIT:          0  MISS:          0  HIT %:       -nan  MISS %:       -nan   MPKI: 0
ITLB PREFETCH  ACCESS:          0  HIT:          0  MISS:          0  HIT %:       -nan  MISS %:       -nan   MPKI: 0
ITLB WRITEBACK ACCESS:          0  HIT:          0  MISS:          0  HIT %:       -nan  MISS %:       -nan   MPKI: 0
DTLB TOTAL     ACCESS:   67694470  HIT:   44512142  MISS:   23182328  HIT %:    65.7545  MISS %:    34.2455   MPKI: 114.735
DTLB LOAD      ACCESS:          0  HIT:          0  MISS:          0  HIT %:       -nan  MISS %:       -nan   MPKI: 0
DTLB RFO       ACCESS:          0  HIT:          0  MISS:          0  HIT %:       -nan  MISS %:       -nan   MPKI: 0
DTLB PREFETCH  ACCESS:          0  HIT:          0  MISS:          0  HIT %:       -nan  MISS %:       -nan   MPKI: 0
DTLB WRITEBACK ACCESS:          0  HIT:          0  MISS:          0  HIT %:       -nan  MISS %:       -nan   MPKI: 0
STLB TOTAL     ACCESS:   57602779  HIT:   57561559  MISS:      41220  HIT %:    99.9284  MISS %:   0.071559   MPKI: 0.204008
STLB LOAD      ACCESS:          0  HIT:          0  MISS:          0  HIT %:       -nan  MISS %:       -nan   MPKI: 0
STLB RFO       ACCESS:          0  HIT:          0  MISS:          0  HIT %:       -nan  MISS %:       -nan   MPKI: 0
STLB PREFETCH  ACCESS:          0  HIT:          0  MISS:          0  HIT %:       -nan  MISS %:       -nan   MPKI: 0
STLB WRITEBACK ACCESS:          0  HIT:          0  MISS:          0  HIT %:       -nan  MISS %:       -nan   MPKI: 0
L1D TOTAL     ACCESS:  106701139  HIT:   39925563  MISS:   66775576  HIT %:    37.4181  MISS %:    62.5819   MPKI: 330.489
L1D LOAD      ACCESS:   64923536  HIT:   32446700  MISS:   32476836  HIT %:    49.9768  MISS %:    50.0232   MPKI: 160.736
L1D RFO       ACCESS:    2518555  HIT:    2453000  MISS:      65555  HIT %:    97.3971  MISS %:    2.60288   MPKI: 0.324449
L1D PREFETCH  ACCESS:   39259048  HIT:    5025863  MISS:   34233185  HIT %:    12.8018  MISS %:    87.1982   MPKI: 169.429
L1D WRITEBACK ACCESS:          0  HIT:          0  MISS:          0  HIT %:       -nan  MISS %:       -nan   MPKI: 0
L1I TOTAL     ACCESS:   61773753  HIT:   61773731  MISS:         22  HIT %:        100  MISS %: 3.56138e-05   MPKI: 0.000108884
L1I LOAD      ACCESS:   61773753  HIT:   61773731  MISS:         22  HIT %:        100  MISS %: 3.56138e-05   MPKI: 0.000108884
L1I RFO       ACCESS:          0  HIT:          0  MISS:          0  HIT %:       -nan  MISS %:       -nan   MPKI: 0
L1I PREFETCH  ACCESS:          0  HIT:          0  MISS:          0  HIT %:       -nan  MISS %:       -nan   MPKI: 0
L1I WRITEBACK ACCESS:          0  HIT:          0  MISS:          0  HIT %:       -nan  MISS %:       -nan   MPKI: 0
L2C TOTAL     ACCESS:   66987655  HIT:   14015217  MISS:   52972438  HIT %:    20.9221  MISS %:    79.0779   MPKI: 262.174
L2C LOAD      ACCESS:   32119257  HIT:    7329823  MISS:   24789434  HIT %:    22.8206  MISS %:    77.1794   MPKI: 122.689
L2C RFO       ACCESS:      65555  HIT:        181  MISS:      65374  HIT %:   0.276104  MISS %:    99.7239   MPKI: 0.323553
L2C PREFETCH  ACCESS:   34590759  HIT:    6515848  MISS:   28074911  HIT %:     18.837  MISS %:     81.163   MPKI: 138.95
L2C WRITEBACK ACCESS:     170823  HIT:     136936  MISS:      33887  HIT %:    80.1625  MISS %:    19.8375   MPKI: 0.167715
PSCL5 TOTAL     ACCESS:      41220  HIT:      41220  MISS:          0  HIT %:        100  MISS %:          0   MPKI: 0
PSCL5 LOAD      ACCESS:          0  HIT:          0  MISS:          0  HIT %:       -nan  MISS %:       -nan   MPKI: 0
PSCL5 RFO       ACCESS:          0  HIT:          0  MISS:          0  HIT %:       -nan  MISS %:       -nan   MPKI: 0
PSCL5 PREFETCH  ACCESS:          0  HIT:          0  MISS:          0  HIT %:       -nan  MISS %:       -nan   MPKI: 0
PSCL5 WRITEBACK ACCESS:          0  HIT:          0  MISS:          0  HIT %:       -nan  MISS %:       -nan   MPKI: 0
PSCL4 TOTAL     ACCESS:      41220  HIT:      41220  MISS:          0  HIT %:        100  MISS %:          0   MPKI: 0
PSCL4 LOAD      ACCESS:          0  HIT:          0  MISS:          0  HIT %:       -nan  MISS %:       -nan   MPKI: 0
PSCL4 RFO       ACCESS:          0  HIT:          0  MISS:          0  HIT %:       -nan  MISS %:       -nan   MPKI: 0
PSCL4 PREFETCH  ACCESS:          0  HIT:          0  MISS:          0  HIT %:       -nan  MISS %:       -nan   MPKI: 0
PSCL4 WRITEBACK ACCESS:          0  HIT:          0  MISS:          0  HIT %:       -nan  MISS %:       -nan   MPKI: 0
PSCL3 TOTAL     ACCESS:      41220  HIT:      41220  MISS:          0  HIT %:        100  MISS %:          0   MPKI: 0
PSCL3 LOAD      ACCESS:          0  HIT:          0  MISS:          0  HIT %:       -nan  MISS %:       -nan   MPKI: 0
PSCL3 RFO       ACCESS:          0  HIT:          0  MISS:          0  HIT %:       -nan  MISS %:       -nan   MPKI: 0
PSCL3 PREFETCH  ACCESS:          0  HIT:          0  MISS:          0  HIT %:       -nan  MISS %:       -nan   MPKI: 0
PSCL3 WRITEBACK ACCESS:          0  HIT:          0  MISS:          0  HIT %:       -nan  MISS %:       -nan   MPKI: 0
PSCL2 TOTAL     ACCESS:      41220  HIT:      41132  MISS:         88  HIT %:    99.7865  MISS %:   0.213489   MPKI: 0.000435535
PSCL2 LOAD      ACCESS:          0  HIT:          0  MISS:          0  HIT %:       -nan  MISS %:       -nan   MPKI: 0
PSCL2 RFO       ACCESS:          0  HIT:          0  MISS:          0  HIT %:       -nan  MISS %:       -nan   MPKI: 0
PSCL2 PREFETCH  ACCESS:          0  HIT:          0  MISS:          0  HIT %:       -nan  MISS %:       -nan   MPKI: 0
PSCL2 WRITEBACK ACCESS:          0  HIT:          0  MISS:          0  HIT %:       -nan  MISS %:       -nan   MPKI: 0

stream: 
stream:times selected: 43925681
stream:pref_filled: 37177641
stream:pref_useful: 742883
stream:pref_late: 290857
stream:misses: 9369115
stream:misses_by_poll: 0

CS: 
CS:times selected: 3998883
CS:pref_filled: 3167408
CS:pref_useful: 2856830
CS:pref_late: 103897
CS:misses: 760885
CS:misses_by_poll: 3683

CPLX: 
CPLX:times selected: 39552297
CPLX:pref_filled: 760850
CPLX:pref_useful: 29776
CPLX:pref_late: 15803
CPLX:misses: 29279580
CPLX:misses_by_poll: 298

NL_L1: 
NL:times selected: 69610
NL:pref_filled: 64382
NL:pref_useful: 674
NL:pref_late: 199
NL:misses: 68710
NL:misses_by_poll: 0

total selections: 87546471
total_filled: 34233185
total_useful: 3059639
total_late: 415721
total_polluted: 3981
total_misses_after_warmup: 32662611
conflicts: 221
Degree Incremented Times: 1273954
Degree Decremented Times: 2698301

L1 IP Table Write Accesses: 265167803
L1 IP Table Read Accesses: 265167582
L1 RST Write Accesses: 148058058
L1 RST Read Accesses: 296116116
L1 CSPT Write Accesses: 148058058
L1 CSPT Read Accesses: 282140265
L1 RR Filter Tag Write Accesses: 161347158
L1 RR Filter Tag Read Accesses: 5780323915
L1 IP Table Tag Write Accesses: 265167988
L1 IP Table Tag Read Accesses: 265167988
L1 RST Tag Write Accesses: 0
L1 RST Tag Read Accesses: 1334030511
L1 RR Filter Write Accesses: 0
L1 RR Filter Read Accesses: 185108217
test: 95021919
LLC TOTAL     ACCESS:   53076876  HIT:   30802403  MISS:   22274473  HIT %:    58.0336  MISS %:    41.9664   MPKI: 110.242
LLC LOAD      ACCESS:   24789434  HIT:   15512402  MISS:    9277032  HIT %:    62.5767  MISS %:    37.4233   MPKI: 45.9144
LLC RFO       ACCESS:      65374  HIT:       7104  MISS:      58270  HIT %:    10.8667  MISS %:    89.1333   MPKI: 0.288393
LLC PREFETCH  ACCESS:   28074911  HIT:   15155262  MISS:   12919649  HIT %:    53.9815  MISS %:    46.0185   MPKI: 63.9427
LLC WRITEBACK ACCESS:     138325  HIT:     124820  MISS:      13505  HIT %:    90.2368  MISS %:    9.76324   MPKI: 0.0668397

RAW hits: 22
Loads Generated: 78159202
Loads sent to L1D: 78159180
Stores Generated: 3328307
Stores sent to L1D: 3328307

Region of Interest Statistics

CPU 0 cumulative IPC: 0.0532519 instructions: 200000002 cycles: 3755736520
ITLB TOTAL     ACCESS:   60027190  HIT:   60027190  MISS:          0  HIT %:        100  MISS %:          0   MPKI: 0
ITLB LOAD TRANSLATION ACCESS:   60027190  HIT:   60027190  MISS:          0  HIT %:        100  MISS %:          0   MPKI: 0
ITLB PREFETCH  REQUESTED:          0  ISSUED:          0  USEFUL:          0  USELESS:          0
ITLB USEFUL LOAD PREFETCHES:          0 PREFETCH ISSUED TO LOWER LEVEL:          0  ACCURACY: -nan
ITLB TIMELY PREFETCHES:          0 LATE PREFETCHES: 0 DROPPED PREFETCHES: 0
ITLB PREFETCHES SAME FILL-ORIGIN LEVEL: 0 DIFFERENT FILL-ORIGIN LEVEL: 0
ITLB AVERAGE MISS LATENCY: -nan cycles
ITLB RQ	ACCESS:   61886744	FORWARD:          0	MERGED:    1141379	TO_CACHE:   60745365

DTLB TOTAL     ACCESS:   66981158  HIT:   44059561  MISS:   22921597  HIT %:     65.779  MISS %:     34.221   MPKI: 114.608
DTLB LOAD TRANSLATION ACCESS:   66981158  HIT:   44059561  MISS:   22921597  HIT %:     65.779  MISS %:     34.221   MPKI: 114.608
DTLB PREFETCH  REQUESTED:          0  ISSUED:          0  USEFUL:          0  USELESS:          0
DTLB USEFUL LOAD PREFETCHES:          0 PREFETCH ISSUED TO LOWER LEVEL:          0  ACCURACY: -nan
DTLB TIMELY PREFETCHES:          0 LATE PREFETCHES: 0 DROPPED PREFETCHES: 0
DTLB PREFETCHES SAME FILL-ORIGIN LEVEL: 0 DIFFERENT FILL-ORIGIN LEVEL: 0
DTLB AVERAGE MISS LATENCY: 9.33232 cycles
DTLB RQ	ACCESS:   68554645	FORWARD:          0	MERGED:     734051	TO_CACHE:   67820594

STLB TOTAL     ACCESS:   56973757  HIT:   56932921  MISS:      40836  HIT %:    99.9283  MISS %:  0.0716751   MPKI: 0.20418
STLB LOAD TRANSLATION ACCESS:   22921596  HIT:   22880760  MISS:      40836  HIT %:    99.8218  MISS %:   0.178155   MPKI: 0.20418
STLB TRANSLATION FROM L1D PREFETCHER ACCESS:   34052161  HIT:   34052161  MISS:          0  HIT %:        100  MISS %:          0   MPKI: 0
STLB PREFETCH  REQUESTED:          0  ISSUED:          0  USEFUL:          0  USELESS:          0
STLB USEFUL LOAD PREFETCHES:          0 PREFETCH ISSUED TO LOWER LEVEL:          0  ACCURACY: -nan
STLB TIMELY PREFETCHES:          0 LATE PREFETCHES: 0 DROPPED PREFETCHES: 0
STLB PREFETCHES SAME FILL-ORIGIN LEVEL: 0 DIFFERENT FILL-ORIGIN LEVEL: 0
STLB AVERAGE MISS LATENCY: 113.743 cycles
STLB RQ	ACCESS:   62920075	FORWARD:          0	MERGED:    5211452	TO_CACHE:   57708623

STLB Hit, L1D data hit: 0
STLB Hit, L2C data hit: 0
STLB Hit, LLC data hit: 0
STLB Hit, LLC data miss: 0
STLB STLB hints to L2: 0
L1D TOTAL     ACCESS:  105545278  HIT:   39484322  MISS:   66060956  HIT %:    37.4098  MISS %:    62.5902   MPKI: 330.305
L1D LOAD      ACCESS:   64228628  HIT:   32100229  MISS:   32128399  HIT %:    49.9781  MISS %:    50.0219   MPKI: 160.642
L1D RFO       ACCESS:    2484276  HIT:    2418722  MISS:      65554  HIT %:    97.3612  MISS %:    2.63876   MPKI: 0.32777
L1D PREFETCH  ACCESS:   38832374  HIT:    4965371  MISS:   33867003  HIT %:    12.7867  MISS %:    87.2133   MPKI: 169.335
L1D PREFETCH  REQUESTED:   79383934  ISSUED:   79383934  USEFUL:    3064535  USELESS:   31228555
L1D USEFUL LOAD PREFETCHES:    3064535 PREFETCH ISSUED TO LOWER LEVEL:   34652075  ACCURACY: 8.84373
L1D TIMELY PREFETCHES:    3064535 LATE PREFETCHES: 358996 DROPPED PREFETCHES: 0
L1D PREFETCHES SAME FILL-ORIGIN LEVEL: 34652075 DIFFERENT FILL-ORIGIN LEVEL: 0
L1D AVERAGE MISS LATENCY: 106.924 cycles
L1D RQ	ACCESS:   78296357	FORWARD:          0	MERGED:   13074704	TO_CACHE:   65221645
L1D WQ	ACCESS:    3333003	FORWARD:          8	MERGED:          3	TO_CACHE:    3333000
L1D PQ	ACCESS:   39691967	FORWARD:          0	MERGED:          0	TO_CACHE:   39691967

L1D UNIQUE REGIONS ACCESSED: 0
L1D REGIONS CONFLICTS: 0
L1D Cross Page Prefetch Requests: 0
L1D Same Page Prefetch Requests: 48246947
L1D ROI Sum of L1D PQ occupancy: 441029492
L1D PREFETCHES PUSHED FROM L2C: 0
L1I TOTAL     ACCESS:   61152746  HIT:   61152724  MISS:         22  HIT %:        100  MISS %: 3.59755e-05   MPKI: 0.00011
L1I LOAD      ACCESS:   61152746  HIT:   61152724  MISS:         22  HIT %:        100  MISS %: 3.59755e-05   MPKI: 0.00011
L1I PREFETCH  REQUESTED:          0  ISSUED:          0  USEFUL:          0  USELESS:          0
L1I USEFUL LOAD PREFETCHES:          0 PREFETCH ISSUED TO LOWER LEVEL:          0  ACCURACY: -nan
L1I TIMELY PREFETCHES:          0 LATE PREFETCHES: 0 DROPPED PREFETCHES: 0
L1I PREFETCHES SAME FILL-ORIGIN LEVEL: 0 DIFFERENT FILL-ORIGIN LEVEL: 0
L1I AVERAGE MISS LATENCY: 242.136 cycles
L1I RQ	ACCESS:   73062928	FORWARD:          0	MERGED:   11176184	TO_CACHE:   61886744

BTB TOTAL     ACCESS:   37026044  HIT:   37025876  MISS:        168  HIT %:    99.9995  MISS %: 0.000453735   MPKI: 0.00084
BTB BRANCH_DIRECT_JUMP	ACCESS:         66  HIT:         33  MISS:         33
BTB BRANCH_INDIRECT	ACCESS:          4  HIT:          0  MISS:          4
BTB BRANCH_CONDITIONAL	ACCESS:   37025908  HIT:   37025823  MISS:         85
BTB BRANCH_DIRECT_CALL	ACCESS:         28  HIT:         10  MISS:         18
BTB BRANCH_INDIRECT_CALL	ACCESS:          5  HIT:          1  MISS:          4
BTB BRANCH_RETURN	ACCESS:         33  HIT:          9  MISS:         24
BTB BRANCH_OTHER ACCESS:          0  HIT:          0  MISS:          0

L2C TOTAL     ACCESS:   66271379  HIT:   13842878  MISS:   52428501  HIT %:    20.8882  MISS %:    79.1118   MPKI: 262.143
L2C LOAD      ACCESS:   31771235  HIT:    7236573  MISS:   24534662  HIT %:    22.7771  MISS %:    77.2229   MPKI: 122.673
L2C DATA LOAD MPKI: 122.673
L2C INSTRUCTION LOAD MPKI: 0.00011
L2C RFO       ACCESS:      65554  HIT:        153  MISS:      65401  HIT %:   0.233395  MISS %:    99.7666   MPKI: 0.327005
L2C PREFETCH  ACCESS:   34224163  HIT:    6439368  MISS:   27784795  HIT %:    18.8153  MISS %:    81.1847   MPKI: 138.924
L2C DATA PREFETCH MPKI: 138.924
L2C INSTRUCTION PREFETCH MPKI: 0
L2C WRITEBACK ACCESS:     169551  HIT:     134599  MISS:      34952  HIT %:    79.3856  MISS %:    20.6144   MPKI: 0.17476
L2C LOAD TRANSLATION ACCESS:      40876  HIT:      32185  MISS:       8691  HIT %:    78.7381  MISS %:    21.2619   MPKI: 0.043455
L2C PREFETCH  REQUESTED:          0  ISSUED:          0  USEFUL:    1084027  USELESS:   27043729
L2C USEFUL LOAD PREFETCHES:    1084027 PREFETCH ISSUED TO LOWER LEVEL:   28127686  ACCURACY: 3.85395
L2C TIMELY PREFETCHES:    1084027 LATE PREFETCHES: 0 DROPPED PREFETCHES: 0
L2C PREFETCHES SAME FILL-ORIGIN LEVEL: 0 DIFFERENT FILL-ORIGIN LEVEL: 0
L2C AVERAGE MISS LATENCY: 119.629 cycles
L2C RQ	ACCESS:   32283734	FORWARD:          0	MERGED:          0	TO_CACHE:   32283708
L2C WQ	ACCESS:     170988	FORWARD:         26	MERGED:          0	TO_CACHE:     170988
L2C PQ	ACCESS:   34652075	FORWARD:          0	MERGED:          0	TO_CACHE:   34652075

L2C Instructions Evicting Data 22
L2C Translations Evicting Data 8804
L2C Data Evicting Data 53029006
L2C Instructions Evicting Instructions 0
L2C Translations Evicting Instructions 0
L2C Data Evicting Instructions 22
L2C Instructions Evicting Translations 0
L2C Translations Evicting Translations 1
L2C Data Evicting Translations 8781
L2C Dense regions hint from L2: 0
PSCL5 TOTAL     ACCESS:      40836  HIT:      40836  MISS:          0  HIT %:        100  MISS %:          0   MPKI: 0
PSCL5 LOAD TRANSLATION ACCESS:      40836  HIT:      40836  MISS:          0  HIT %:        100  MISS %:          0   MPKI: 0
PSCL5 PREFETCH  REQUESTED:          0  ISSUED:          0  USEFUL:          0  USELESS:          0
PSCL5 USEFUL LOAD PREFETCHES:          0 PREFETCH ISSUED TO LOWER LEVEL:          0  ACCURACY: -nan
PSCL5 TIMELY PREFETCHES:          0 LATE PREFETCHES: 0 DROPPED PREFETCHES: 0
PSCL5 PREFETCHES SAME FILL-ORIGIN LEVEL: 0 DIFFERENT FILL-ORIGIN LEVEL: 0

PSCL4 TOTAL     ACCESS:      40836  HIT:      40836  MISS:          0  HIT %:        100  MISS %:          0   MPKI: 0
PSCL4 LOAD TRANSLATION ACCESS:      40836  HIT:      40836  MISS:          0  HIT %:        100  MISS %:          0   MPKI: 0
PSCL4 PREFETCH  REQUESTED:          0  ISSUED:          0  USEFUL:          0  USELESS:          0
PSCL4 USEFUL LOAD PREFETCHES:          0 PREFETCH ISSUED TO LOWER LEVEL:          0  ACCURACY: -nan
PSCL4 TIMELY PREFETCHES:          0 LATE PREFETCHES: 0 DROPPED PREFETCHES: 0
PSCL4 PREFETCHES SAME FILL-ORIGIN LEVEL: 0 DIFFERENT FILL-ORIGIN LEVEL: 0

PSCL3 TOTAL     ACCESS:      40836  HIT:      40836  MISS:          0  HIT %:        100  MISS %:          0   MPKI: 0
PSCL3 LOAD TRANSLATION ACCESS:      40836  HIT:      40836  MISS:          0  HIT %:        100  MISS %:          0   MPKI: 0
PSCL3 PREFETCH  REQUESTED:          0  ISSUED:          0  USEFUL:          0  USELESS:          0
PSCL3 USEFUL LOAD PREFETCHES:          0 PREFETCH ISSUED TO LOWER LEVEL:          0  ACCURACY: -nan
PSCL3 TIMELY PREFETCHES:          0 LATE PREFETCHES: 0 DROPPED PREFETCHES: 0
PSCL3 PREFETCHES SAME FILL-ORIGIN LEVEL: 0 DIFFERENT FILL-ORIGIN LEVEL: 0

PSCL2 TOTAL     ACCESS:      40836  HIT:      40750  MISS:         86  HIT %:    99.7894  MISS %:   0.210598   MPKI: 0.00043
PSCL2 LOAD TRANSLATION ACCESS:      40836  HIT:      40750  MISS:         86  HIT %:    99.7894  MISS %:   0.210598   MPKI: 0.00043
PSCL2 PREFETCH  REQUESTED:          0  ISSUED:          0  USEFUL:          0  USELESS:          0
PSCL2 USEFUL LOAD PREFETCHES:          0 PREFETCH ISSUED TO LOWER LEVEL:          0  ACCURACY: -nan
PSCL2 TIMELY PREFETCHES:          0 LATE PREFETCHES: 0 DROPPED PREFETCHES: 0
PSCL2 PREFETCHES SAME FILL-ORIGIN LEVEL: 0 DIFFERENT FILL-ORIGIN LEVEL: 0

LLC TOTAL     ACCESS:   52531819  HIT:   30556092  MISS:   21975727  HIT %:    58.1668  MISS %:    41.8332   MPKI: 109.879
LLC LOAD      ACCESS:   24534662  HIT:   15386329  MISS:    9148333  HIT %:    62.7126  MISS %:    37.2874   MPKI: 45.7417
LLC RFO       ACCESS:      65401  HIT:       6764  MISS:      58637  HIT %:    10.3423  MISS %:    89.6577   MPKI: 0.293185
LLC PREFETCH  ACCESS:   27784795  HIT:   15033666  MISS:   12751129  HIT %:    54.1075  MISS %:    45.8925   MPKI: 63.7556
LLC WRITEBACK ACCESS:     138270  HIT:     126707  MISS:      11563  HIT %:    91.6374  MISS %:    8.36262   MPKI: 0.057815
LLC LOAD TRANSLATION ACCESS:       8691  HIT:       2626  MISS:       6065  HIT %:    30.2152  MISS %:    69.7848   MPKI: 0.030325
LLC PREFETCH  REQUESTED:          0  ISSUED:          0  USEFUL:    5672582  USELESS:   45578724
LLC USEFUL LOAD PREFETCHES:    5672582 PREFETCH ISSUED TO LOWER LEVEL:   51250497  ACCURACY: 11.0683
LLC TIMELY PREFETCHES:    5672582 LATE PREFETCHES: 0 DROPPED PREFETCHES: 0
LLC PREFETCHES SAME FILL-ORIGIN LEVEL: 0 DIFFERENT FILL-ORIGIN LEVEL: 0
LLC AVERAGE MISS LATENCY: 844.249 cycles
LLC RQ	ACCESS:  100918346	FORWARD:          0	MERGED:          0	TO_CACHE:  100918345
LLC WQ	ACCESS:     558319	FORWARD:          1	MERGED:          0	TO_CACHE:     558319
LLC PQ	ACCESS:  113947057	FORWARD:          0	MERGED:          0	TO_CACHE:  113947057

LLC Dense regions hint to LLC: 0

RAW hits: 22
Loads Generated: 77353110
Loads sent to L1D: 77353086
Stores Generated: 3301351
Stores sent to L1D: 3301351
Major fault: 0 Minor fault: 34894
Allocated PAGES: 139576

CPU 1 cumulative IPC: 0.0568251 instructions: 200000002 cycles: 3519569459
ITLB TOTAL     ACCESS:   60001518  HIT:   60001518  MISS:          0  HIT %:        100  MISS %:          0   MPKI: 0
ITLB LOAD TRANSLATION ACCESS:   60001518  HIT:   60001518  MISS:          0  HIT %:        100  MISS %:          0   MPKI: 0
ITLB PREFETCH  REQUESTED:          0  ISSUED:          0  USEFUL:          0  USELESS:          0
ITLB USEFUL LOAD PREFETCHES:          0 PREFETCH ISSUED TO LOWER LEVEL:          0  ACCURACY: -nan
ITLB TIMELY PREFETCHES:          0 LATE PREFETCHES: 0 DROPPED PREFETCHES: 0
ITLB PREFETCHES SAME FILL-ORIGIN LEVEL: 0 DIFFERENT FILL-ORIGIN LEVEL: 0
ITLB AVERAGE MISS LATENCY: -nan cycles
ITLB RQ	ACCESS:   65873946	FORWARD:          0	MERGED:    1220697	TO_CACHE:   64653249

DTLB TOTAL     ACCESS:   66972587  HIT:   44047565  MISS:   22925022  HIT %:    65.7695  MISS %:    34.2305   MPKI: 114.625
DTLB LOAD TRANSLATION ACCESS:   66972587  HIT:   44047565  MISS:   22925022  HIT %:    65.7695  MISS %:    34.2305   MPKI: 114.625
DTLB PREFETCH  REQUESTED:          0  ISSUED:          0  USEFUL:          0  USELESS:          0
DTLB USEFUL LOAD PREFETCHES:          0 PREFETCH ISSUED TO LOWER LEVEL:          0  ACCURACY: -nan
DTLB TIMELY PREFETCHES:          0 LATE PREFETCHES: 0 DROPPED PREFETCHES: 0
DTLB PREFETCHES SAME FILL-ORIGIN LEVEL: 0 DIFFERENT FILL-ORIGIN LEVEL: 0
DTLB AVERAGE MISS LATENCY: 9.9612 cycles
DTLB RQ	ACCESS:   73028999	FORWARD:          0	MERGED:     777895	TO_CACHE:   72251104

STLB TOTAL     ACCESS:   56980931  HIT:   56940104  MISS:      40827  HIT %:    99.9283  MISS %:  0.0716503   MPKI: 0.204135
STLB LOAD TRANSLATION ACCESS:   22925022  HIT:   22884195  MISS:      40827  HIT %:    99.8219  MISS %:   0.178089   MPKI: 0.204135
STLB TRANSLATION FROM L1D PREFETCHER ACCESS:   34055909  HIT:   34055909  MISS:          0  HIT %:        100  MISS %:          0   MPKI: 0
STLB PREFETCH  REQUESTED:          0  ISSUED:          0  USEFUL:          0  USELESS:          0
STLB USEFUL LOAD PREFETCHES:          0 PREFETCH ISSUED TO LOWER LEVEL:          0  ACCURACY: -nan
STLB TIMELY PREFETCHES:          0 LATE PREFETCHES: 0 DROPPED PREFETCHES: 0
STLB PREFETCHES SAME FILL-ORIGIN LEVEL: 0 DIFFERENT FILL-ORIGIN LEVEL: 0
STLB AVERAGE MISS LATENCY: 116.815 cycles
STLB RQ	ACCESS:   67130715	FORWARD:          0	MERGED:    5517031	TO_CACHE:   61613684

STLB Hit, L1D data hit: 0
STLB Hit, L2C data hit: 0
STLB Hit, LLC data hit: 0
STLB Hit, LLC data miss: 0
STLB STLB hints to L2: 0
L1D TOTAL     ACCESS:  105522662  HIT:   39455077  MISS:   66067585  HIT %:    37.3901  MISS %:    62.6099   MPKI: 330.338
L1D LOAD      ACCESS:   64216431  HIT:   32098651  MISS:   32117780  HIT %:    49.9851  MISS %:    50.0149   MPKI: 160.589
L1D RFO       ACCESS:    2497607  HIT:    2432052  MISS:      65555  HIT %:    97.3753  MISS %:    2.62471   MPKI: 0.327775
L1D PREFETCH  ACCESS:   38808624  HIT:    4924374  MISS:   33884250  HIT %:    12.6889  MISS %:    87.3111   MPKI: 169.421
L1D PREFETCH  REQUESTED:   84624094  ISSUED:   84624094  USEFUL:    3269783  USELESS:   33343202
L1D USEFUL LOAD PREFETCHES:    3269783 PREFETCH ISSUED TO LOWER LEVEL:   36974771  ACCURACY: 8.84328
L1D TIMELY PREFETCHES:    3269783 LATE PREFETCHES: 361795 DROPPED PREFETCHES: 0
L1D PREFETCHES SAME FILL-ORIGIN LEVEL: 36974771 DIFFERENT FILL-ORIGIN LEVEL: 0
L1D AVERAGE MISS LATENCY: 106.23 cycles
L1D RQ	ACCESS:   83364623	FORWARD:          0	MERGED:   13827376	TO_CACHE:   69537239
L1D WQ	ACCESS:    3491763	FORWARD:          8	MERGED:          3	TO_CACHE:    3491760
L1D PQ	ACCESS:   42312047	FORWARD:          0	MERGED:          0	TO_CACHE:   42312047

L1D UNIQUE REGIONS ACCESSED: 0
L1D REGIONS CONFLICTS: 0
L1D Cross Page Prefetch Requests: 0
L1D Same Page Prefetch Requests: 50466846
L1D ROI Sum of L1D PQ occupancy: 470110788
L1D PREFETCHES PUSHED FROM L2C: 0
L1I TOTAL     ACCESS:   61127065  HIT:   61127043  MISS:         22  HIT %:        100  MISS %: 3.59906e-05   MPKI: 0.00011
L1I LOAD      ACCESS:   61127065  HIT:   61127043  MISS:         22  HIT %:        100  MISS %: 3.59906e-05   MPKI: 0.00011
L1I PREFETCH  REQUESTED:          0  ISSUED:          0  USEFUL:          0  USELESS:          0
L1I USEFUL LOAD PREFETCHES:          0 PREFETCH ISSUED TO LOWER LEVEL:          0  ACCURACY: -nan
L1I TIMELY PREFETCHES:          0 LATE PREFETCHES: 0 DROPPED PREFETCHES: 0
L1I PREFETCHES SAME FILL-ORIGIN LEVEL: 0 DIFFERENT FILL-ORIGIN LEVEL: 0
L1I AVERAGE MISS LATENCY: 250.545 cycles
L1I RQ	ACCESS:   77763603	FORWARD:          0	MERGED:   11889657	TO_CACHE:   65873946

BTB TOTAL     ACCESS:   37026083  HIT:   37025915  MISS:        168  HIT %:    99.9995  MISS %: 0.000453734   MPKI: 0.00084
BTB BRANCH_DIRECT_JUMP	ACCESS:         66  HIT:         33  MISS:         33
BTB BRANCH_INDIRECT	ACCESS:          4  HIT:          0  MISS:          4
BTB BRANCH_CONDITIONAL	ACCESS:   37025947  HIT:   37025862  MISS:         85
BTB BRANCH_DIRECT_CALL	ACCESS:         28  HIT:         10  MISS:         18
BTB BRANCH_INDIRECT_CALL	ACCESS:          5  HIT:          1  MISS:          4
BTB BRANCH_RETURN	ACCESS:         33  HIT:          9  MISS:         24
BTB BRANCH_OTHER ACCESS:          0  HIT:          0  MISS:          0

L2C TOTAL     ACCESS:   66278070  HIT:   13961586  MISS:   52316484  HIT %:    21.0652  MISS %:    78.9348   MPKI: 261.582
L2C LOAD      ACCESS:   31772542  HIT:    7305813  MISS:   24466729  HIT %:    22.9941  MISS %:    77.0059   MPKI: 122.334
L2C DATA LOAD MPKI: 122.334
L2C INSTRUCTION LOAD MPKI: 0.00011
L2C RFO       ACCESS:      65555  HIT:        189  MISS:      65366  HIT %:   0.288308  MISS %:    99.7117   MPKI: 0.32683
L2C PREFETCH  ACCESS:   34229484  HIT:    6488033  MISS:   27741451  HIT %:    18.9545  MISS %:    81.0455   MPKI: 138.707
L2C DATA PREFETCH MPKI: 138.707
L2C INSTRUCTION PREFETCH MPKI: 0
L2C WRITEBACK ACCESS:     169622  HIT:     135415  MISS:      34207  HIT %:    79.8334  MISS %:    20.1666   MPKI: 0.171035
L2C LOAD TRANSLATION ACCESS:      40867  HIT:      32136  MISS:       8731  HIT %:    78.6356  MISS %:    21.3644   MPKI: 0.043655
L2C PREFETCH  REQUESTED:          0  ISSUED:          0  USEFUL:    1156366  USELESS:   28797522
L2C USEFUL LOAD PREFETCHES:    1156366 PREFETCH ISSUED TO LOWER LEVEL:   29953598  ACCURACY: 3.86052
L2C TIMELY PREFETCHES:    1156366 LATE PREFETCHES: 0 DROPPED PREFETCHES: 0
L2C PREFETCHES SAME FILL-ORIGIN LEVEL: 0 DIFFERENT FILL-ORIGIN LEVEL: 0
L2C AVERAGE MISS LATENCY: 117.86 cycles
L2C RQ	ACCESS:   34463555	FORWARD:          0	MERGED:          0	TO_CACHE:   34463529
L2C WQ	ACCESS:     178340	FORWARD:         26	MERGED:          0	TO_CACHE:     178340
L2C PQ	ACCESS:   36974771	FORWARD:          0	MERGED:          0	TO_CACHE:   36974771

L2C Instructions Evicting Data 22
L2C Translations Evicting Data 9447
L2C Data Evicting Data 56457539
L2C Instructions Evicting Instructions 0
L2C Translations Evicting Instructions 0
L2C Data Evicting Instructions 22
L2C Instructions Evicting Translations 0
L2C Translations Evicting Translations 2
L2C Data Evicting Translations 9418
L2C Dense regions hint from L2: 0
PSCL5 TOTAL     ACCESS:      40827  HIT:      40827  MISS:          0  HIT %:        100  MISS %:          0   MPKI: 0
PSCL5 LOAD TRANSLATION ACCESS:      40827  HIT:      40827  MISS:          0  HIT %:        100  MISS %:          0   MPKI: 0
PSCL5 PREFETCH  REQUESTED:          0  ISSUED:          0  USEFUL:          0  USELESS:          0
PSCL5 USEFUL LOAD PREFETCHES:          0 PREFETCH ISSUED TO LOWER LEVEL:          0  ACCURACY: -nan
PSCL5 TIMELY PREFETCHES:          0 LATE PREFETCHES: 0 DROPPED PREFETCHES: 0
PSCL5 PREFETCHES SAME FILL-ORIGIN LEVEL: 0 DIFFERENT FILL-ORIGIN LEVEL: 0

PSCL4 TOTAL     ACCESS:      40827  HIT:      40827  MISS:          0  HIT %:        100  MISS %:          0   MPKI: 0
PSCL4 LOAD TRANSLATION ACCESS:      40827  HIT:      40827  MISS:          0  HIT %:        100  MISS %:          0   MPKI: 0
PSCL4 PREFETCH  REQUESTED:          0  ISSUED:          0  USEFUL:          0  USELESS:          0
PSCL4 USEFUL LOAD PREFETCHES:          0 PREFETCH ISSUED TO LOWER LEVEL:          0  ACCURACY: -nan
PSCL4 TIMELY PREFETCHES:          0 LATE PREFETCHES: 0 DROPPED PREFETCHES: 0
PSCL4 PREFETCHES SAME FILL-ORIGIN LEVEL: 0 DIFFERENT FILL-ORIGIN LEVEL: 0

PSCL3 TOTAL     ACCESS:      40827  HIT:      40827  MISS:          0  HIT %:        100  MISS %:          0   MPKI: 0
PSCL3 LOAD TRANSLATION ACCESS:      40827  HIT:      40827  MISS:          0  HIT %:        100  MISS %:          0   MPKI: 0
PSCL3 PREFETCH  REQUESTED:          0  ISSUED:          0  USEFUL:          0  USELESS:          0
PSCL3 USEFUL LOAD PREFETCHES:          0 PREFETCH ISSUED TO LOWER LEVEL:          0  ACCURACY: -nan
PSCL3 TIMELY PREFETCHES:          0 LATE PREFETCHES: 0 DROPPED PREFETCHES: 0
PSCL3 PREFETCHES SAME FILL-ORIGIN LEVEL: 0 DIFFERENT FILL-ORIGIN LEVEL: 0

PSCL2 TOTAL     ACCESS:      40827  HIT:      40741  MISS:         86  HIT %:    99.7894  MISS %:   0.210645   MPKI: 0.00043
PSCL2 LOAD TRANSLATION ACCESS:      40827  HIT:      40741  MISS:         86  HIT %:    99.7894  MISS %:   0.210645   MPKI: 0.00043
PSCL2 PREFETCH  REQUESTED:          0  ISSUED:          0  USEFUL:          0  USELESS:          0
PSCL2 USEFUL LOAD PREFETCHES:          0 PREFETCH ISSUED TO LOWER LEVEL:          0  ACCURACY: -nan
PSCL2 TIMELY PREFETCHES:          0 LATE PREFETCHES: 0 DROPPED PREFETCHES: 0
PSCL2 PREFETCHES SAME FILL-ORIGIN LEVEL: 0 DIFFERENT FILL-ORIGIN LEVEL: 0

LLC TOTAL     ACCESS:   52419266  HIT:   32807650  MISS:   19611616  HIT %:     62.587  MISS %:     37.413   MPKI: 98.0581
LLC LOAD      ACCESS:   24466729  HIT:   16452274  MISS:    8014455  HIT %:    67.2435  MISS %:    32.7565   MPKI: 40.0723
LLC RFO       ACCESS:      65366  HIT:       8996  MISS:      56370  HIT %:    13.7625  MISS %:    86.2375   MPKI: 0.28185
LLC PREFETCH  ACCESS:   27741451  HIT:   16217446  MISS:   11524005  HIT %:    58.4593  MISS %:    41.5407   MPKI: 57.62
LLC WRITEBACK ACCESS:     136989  HIT:     126153  MISS:      10836  HIT %:    92.0899  MISS %:    7.91012   MPKI: 0.05418
LLC LOAD TRANSLATION ACCESS:       8731  HIT:       2781  MISS:       5950  HIT %:     31.852  MISS %:     68.148   MPKI: 0.02975
LLC PREFETCH  REQUESTED:          0  ISSUED:          0  USEFUL:    5672582  USELESS:   45578724
LLC USEFUL LOAD PREFETCHES:    5672582 PREFETCH ISSUED TO LOWER LEVEL:   51250497  ACCURACY: 11.0683
LLC TIMELY PREFETCHES:    5672582 LATE PREFETCHES: 0 DROPPED PREFETCHES: 0
LLC PREFETCHES SAME FILL-ORIGIN LEVEL: 0 DIFFERENT FILL-ORIGIN LEVEL: 0
LLC AVERAGE MISS LATENCY: 946.02 cycles
LLC RQ	ACCESS:  100918346	FORWARD:          0	MERGED:          0	TO_CACHE:  100918345
LLC WQ	ACCESS:     558319	FORWARD:          1	MERGED:          0	TO_CACHE:     558319
LLC PQ	ACCESS:  113947057	FORWARD:          0	MERGED:          0	TO_CACHE:  113947057

LLC Dense regions hint to LLC: 0

RAW hits: 22
Loads Generated: 77353107
Loads sent to L1D: 77353084
Stores Generated: 3301341
Stores sent to L1D: 3301341
Major fault: 0 Minor fault: 34894
Allocated PAGES: 139576

CPU 2 cumulative IPC: 0.0525934 instructions: 200000001 cycles: 3802760110
ITLB TOTAL     ACCESS:   60030160  HIT:   60030160  MISS:          0  HIT %:        100  MISS %:          0   MPKI: 0
ITLB LOAD TRANSLATION ACCESS:   60030160  HIT:   60030160  MISS:          0  HIT %:        100  MISS %:          0   MPKI: 0
ITLB PREFETCH  REQUESTED:          0  ISSUED:          0  USEFUL:          0  USELESS:          0
ITLB USEFUL LOAD PREFETCHES:          0 PREFETCH ISSUED TO LOWER LEVEL:          0  ACCURACY: -nan
ITLB TIMELY PREFETCHES:          0 LATE PREFETCHES: 0 DROPPED PREFETCHES: 0
ITLB PREFETCHES SAME FILL-ORIGIN LEVEL: 0 DIFFERENT FILL-ORIGIN LEVEL: 0
ITLB AVERAGE MISS LATENCY: -nan cycles
ITLB RQ	ACCESS:   61155774	FORWARD:          0	MERGED:    1125615	TO_CACHE:   60030159

DTLB TOTAL     ACCESS:   66987439  HIT:   44067514  MISS:   22919925  HIT %:    65.7847  MISS %:    34.2153   MPKI: 114.6
DTLB LOAD TRANSLATION ACCESS:   66987439  HIT:   44067514  MISS:   22919925  HIT %:    65.7847  MISS %:    34.2153   MPKI: 114.6
DTLB PREFETCH  REQUESTED:          0  ISSUED:          0  USEFUL:          0  USELESS:          0
DTLB USEFUL LOAD PREFETCHES:          0 PREFETCH ISSUED TO LOWER LEVEL:          0  ACCURACY: -nan
DTLB TIMELY PREFETCHES:          0 LATE PREFETCHES: 0 DROPPED PREFETCHES: 0
DTLB PREFETCHES SAME FILL-ORIGIN LEVEL: 0 DIFFERENT FILL-ORIGIN LEVEL: 0
DTLB AVERAGE MISS LATENCY: 9.21007 cycles
DTLB RQ	ACCESS:   67724084	FORWARD:          0	MERGED:     724890	TO_CACHE:   66999194

STLB TOTAL     ACCESS:   56972355  HIT:   56931525  MISS:      40830  HIT %:    99.9283  MISS %:  0.0716663   MPKI: 0.20415
STLB LOAD TRANSLATION ACCESS:   22919925  HIT:   22879095  MISS:      40830  HIT %:    99.8219  MISS %:   0.178142   MPKI: 0.20415
STLB TRANSLATION FROM L1D PREFETCHER ACCESS:   34052430  HIT:   34052430  MISS:          0  HIT %:        100  MISS %:          0   MPKI: 0
STLB PREFETCH  REQUESTED:          0  ISSUED:          0  USEFUL:          0  USELESS:          0
STLB USEFUL LOAD PREFETCHES:          0 PREFETCH ISSUED TO LOWER LEVEL:          0  ACCURACY: -nan
STLB TIMELY PREFETCHES:          0 LATE PREFETCHES: 0 DROPPED PREFETCHES: 0
STLB PREFETCHES SAME FILL-ORIGIN LEVEL: 0 DIFFERENT FILL-ORIGIN LEVEL: 0
STLB AVERAGE MISS LATENCY: 112.665 cycles
STLB RQ	ACCESS:   62128502	FORWARD:          0	MERGED:    5156147	TO_CACHE:   56972355

STLB Hit, L1D data hit: 0
STLB Hit, L2C data hit: 0
STLB Hit, LLC data hit: 0
STLB Hit, LLC data miss: 0
STLB STLB hints to L2: 0
L1D TOTAL     ACCESS:  105570385  HIT:   39510210  MISS:   66060175  HIT %:    37.4255  MISS %:    62.5745   MPKI: 330.301
L1D LOAD      ACCESS:   64238660  HIT:   32109499  MISS:   32129161  HIT %:    49.9847  MISS %:    50.0153   MPKI: 160.646
L1D RFO       ACCESS:    2491006  HIT:    2425452  MISS:      65554  HIT %:    97.3684  MISS %:    2.63163   MPKI: 0.32777
L1D PREFETCH  ACCESS:   38840719  HIT:    4975259  MISS:   33865460  HIT %:    12.8094  MISS %:    87.1906   MPKI: 169.327
L1D PREFETCH  REQUESTED:   78417154  ISSUED:   78417154  USEFUL:    3029040  USELESS:   30836411
L1D USEFUL LOAD PREFETCHES:    3029040 PREFETCH ISSUED TO LOWER LEVEL:   34223580  ACCURACY: 8.85074
L1D TIMELY PREFETCHES:    3029040 LATE PREFETCHES: 358120 DROPPED PREFETCHES: 0
L1D PREFETCHES SAME FILL-ORIGIN LEVEL: 34223580 DIFFERENT FILL-ORIGIN LEVEL: 0
L1D AVERAGE MISS LATENCY: 107.062 cycles
L1D RQ	ACCESS:   77353019	FORWARD:          0	MERGED:   12930399	TO_CACHE:   64422612
L1D WQ	ACCESS:    3301475	FORWARD:          8	MERGED:          3	TO_CACHE:    3301472
L1D PQ	ACCESS:   39208577	FORWARD:          0	MERGED:          0	TO_CACHE:   39208577

L1D UNIQUE REGIONS ACCESSED: 0
L1D REGIONS CONFLICTS: 0
L1D Cross Page Prefetch Requests: 0
L1D Same Page Prefetch Requests: 47258964
L1D ROI Sum of L1D PQ occupancy: 435663692
L1D PREFETCHES PUSHED FROM L2C: 0
L1I TOTAL     ACCESS:   61155774  HIT:   61155752  MISS:         22  HIT %:        100  MISS %: 3.59737e-05   MPKI: 0.00011
L1I LOAD      ACCESS:   61155774  HIT:   61155752  MISS:         22  HIT %:        100  MISS %: 3.59737e-05   MPKI: 0.00011
L1I PREFETCH  REQUESTED:          0  ISSUED:          0  USEFUL:          0  USELESS:          0
L1I USEFUL LOAD PREFETCHES:          0 PREFETCH ISSUED TO LOWER LEVEL:          0  ACCURACY: -nan
L1I TIMELY PREFETCHES:          0 LATE PREFETCHES: 0 DROPPED PREFETCHES: 0
L1I PREFETCHES SAME FILL-ORIGIN LEVEL: 0 DIFFERENT FILL-ORIGIN LEVEL: 0
L1I AVERAGE MISS LATENCY: 257.727 cycles
L1I RQ	ACCESS:   72189331	FORWARD:          0	MERGED:   11033557	TO_CACHE:   61155774

BTB TOTAL     ACCESS:   37025977  HIT:   37025809  MISS:        168  HIT %:    99.9995  MISS %: 0.000453735   MPKI: 0.00084
BTB BRANCH_DIRECT_JUMP	ACCESS:         66  HIT:         33  MISS:         33
BTB BRANCH_INDIRECT	ACCESS:          4  HIT:          0  MISS:          4
BTB BRANCH_CONDITIONAL	ACCESS:   37025841  HIT:   37025756  MISS:         85
BTB BRANCH_DIRECT_CALL	ACCESS:         28  HIT:         10  MISS:         18
BTB BRANCH_INDIRECT_CALL	ACCESS:          5  HIT:          1  MISS:          4
BTB BRANCH_RETURN	ACCESS:         33  HIT:          9  MISS:         24
BTB BRANCH_OTHER ACCESS:          0  HIT:          0  MISS:          0

L2C TOTAL     ACCESS:   66270648  HIT:   13833213  MISS:   52437435  HIT %:    20.8738  MISS %:    79.1262   MPKI: 262.187
L2C LOAD      ACCESS:   31771046  HIT:    7232307  MISS:   24538739  HIT %:    22.7638  MISS %:    77.2362   MPKI: 122.694
L2C DATA LOAD MPKI: 122.694
L2C INSTRUCTION LOAD MPKI: 0.00011
L2C RFO       ACCESS:      65554  HIT:        192  MISS:      65362  HIT %:   0.292888  MISS %:    99.7071   MPKI: 0.32681
L2C PREFETCH  ACCESS:   34223580  HIT:    6432717  MISS:   27790863  HIT %:    18.7962  MISS %:    81.2038   MPKI: 138.954
L2C DATA PREFETCH MPKI: 138.954
L2C INSTRUCTION PREFETCH MPKI: 0
L2C WRITEBACK ACCESS:     169598  HIT:     135929  MISS:      33669  HIT %:    80.1478  MISS %:    19.8522   MPKI: 0.168345
L2C LOAD TRANSLATION ACCESS:      40870  HIT:      32068  MISS:       8802  HIT %:    78.4634  MISS %:    21.5366   MPKI: 0.04401
L2C PREFETCH  REQUESTED:          0  ISSUED:          0  USEFUL:    1070934  USELESS:   26719968
L2C USEFUL LOAD PREFETCHES:    1070934 PREFETCH ISSUED TO LOWER LEVEL:   27790862  ACCURACY: 3.85355
L2C TIMELY PREFETCHES:    1070934 LATE PREFETCHES: 0 DROPPED PREFETCHES: 0
L2C PREFETCHES SAME FILL-ORIGIN LEVEL: 0 DIFFERENT FILL-ORIGIN LEVEL: 0
L2C AVERAGE MISS LATENCY: 119.982 cycles
L2C RQ	ACCESS:   31877486	FORWARD:          0	MERGED:          0	TO_CACHE:   31877469
L2C WQ	ACCESS:     169598	FORWARD:         17	MERGED:          0	TO_CACHE:     169598
L2C PQ	ACCESS:   34223580	FORWARD:          0	MERGED:          0	TO_CACHE:   34223580

L2C Instructions Evicting Data 22
L2C Translations Evicting Data 8797
L2C Data Evicting Data 52386150
L2C Instructions Evicting Instructions 0
L2C Translations Evicting Instructions 0
L2C Data Evicting Instructions 22
L2C Instructions Evicting Translations 0
L2C Translations Evicting Translations 5
L2C Data Evicting Translations 8770
L2C Dense regions hint from L2: 0
PSCL5 TOTAL     ACCESS:      40830  HIT:      40830  MISS:          0  HIT %:        100  MISS %:          0   MPKI: 0
PSCL5 LOAD TRANSLATION ACCESS:      40830  HIT:      40830  MISS:          0  HIT %:        100  MISS %:          0   MPKI: 0
[...]
LLC PREFETCH  REQUESTED:          0  ISSUED:          0  USEFUL:    5672582  USELESS:   45578724
LLC USEFUL LOAD PREFETCHES:    5672582 PREFETCH ISSUED TO LOWER LEVEL:   51250497  ACCURACY: 11.0683
LLC TIMELY PREFETCHES:    5672582 LATE PREFETCHES: 0 DROPPED PREFETCHES: 0
LLC PREFETCHES SAME FILL-ORIGIN LEVEL: 0 DIFFERENT FILL-ORIGIN LEVEL: 0
LLC AVERAGE MISS LATENCY: 826.575 cycles
LLC RQ	ACCESS:  100918346	FORWARD:          0	MERGED:          0	TO_CACHE:  100918345
LLC WQ	ACCESS:     558319	FORWARD:          1	MERGED:          0	TO_CACHE:     558319
LLC PQ	ACCESS:  113947057	FORWARD:          0	MERGED:          0	TO_CACHE:  113947057

LLC Dense regions hint to LLC: 0

RAW hits: 22
Loads Generated: 77353042
Loads sent to L1D: 77353019
Stores Generated: 3301475
Stores sent to L1D: 3301475
Major fault: 0 Minor fault: 34894
Allocated PAGES: 139576

CPU 3 cumulative IPC: 0.0531517 instructions: 200000000 cycles: 3762815588
ITLB TOTAL     ACCESS:   60030935  HIT:   60030935  MISS:          0  HIT %:        100  MISS %:          0   MPKI: 0
ITLB LOAD TRANSLATION ACCESS:   60030935  HIT:   60030935  MISS:          0  HIT %:        100  MISS %:          0   MPKI: 0
ITLB PREFETCH  REQUESTED:          0  ISSUED:          0  USEFUL:          0  USELESS:          0
ITLB USEFUL LOAD PREFETCHES:          0 PREFETCH ISSUED TO LOWER LEVEL:          0  ACCURACY: -nan
ITLB TIMELY PREFETCHES:          0 LATE PREFETCHES: 0 DROPPED PREFETCHES: 0
ITLB PREFETCHES SAME FILL-ORIGIN LEVEL: 0 DIFFERENT FILL-ORIGIN LEVEL: 0
ITLB AVERAGE MISS LATENCY: -nan cycles
ITLB RQ	ACCESS:   61773753	FORWARD:          0	MERGED:    1139028	TO_CACHE:   60634725

DTLB TOTAL     ACCESS:   66986420  HIT:   44072539  MISS:   22913881  HIT %:    65.7932  MISS %:    34.2068   MPKI: 114.569
DTLB LOAD TRANSLATION ACCESS:   66986420  HIT:   44072539  MISS:   22913881  HIT %:    65.7932  MISS %:    34.2068   MPKI: 114.569
DTLB PREFETCH  REQUESTED:          0  ISSUED:          0  USEFUL:          0  USELESS:          0
DTLB USEFUL LOAD PREFETCHES:          0 PREFETCH ISSUED TO LOWER LEVEL:          0  ACCURACY: -nan
DTLB TIMELY PREFETCHES:          0 LATE PREFETCHES: 0 DROPPED PREFETCHES: 0
DTLB PREFETCHES SAME FILL-ORIGIN LEVEL: 0 DIFFERENT FILL-ORIGIN LEVEL: 0
DTLB AVERAGE MISS LATENCY: 9.3167 cycles
DTLB RQ	ACCESS:   68437614	FORWARD:          0	MERGED:     731721	TO_CACHE:   67705893

STLB TOTAL     ACCESS:   56969621  HIT:   56928795  MISS:      40826  HIT %:    99.9283  MISS %:  0.0716628   MPKI: 0.20413
STLB LOAD TRANSLATION ACCESS:   22913880  HIT:   22873054  MISS:      40826  HIT %:    99.8218  MISS %:   0.178171   MPKI: 0.20413
STLB TRANSLATION FROM L1D PREFETCHER ACCESS:   34055741  HIT:   34055741  MISS:          0  HIT %:        100  MISS %:          0   MPKI: 0
STLB PREFETCH  REQUESTED:          0  ISSUED:          0  USEFUL:          0  USELESS:          0
STLB USEFUL LOAD PREFETCHES:          0 PREFETCH ISSUED TO LOWER LEVEL:          0  ACCURACY: -nan
STLB TIMELY PREFETCHES:          0 LATE PREFETCHES: 0 DROPPED PREFETCHES: 0
STLB PREFETCHES SAME FILL-ORIGIN LEVEL: 0 DIFFERENT FILL-ORIGIN LEVEL: 0
STLB AVERAGE MISS LATENCY: 113.347 cycles
STLB RQ	ACCESS:   62808817	FORWARD:          0	MERGED:    5206038	TO_CACHE:   57602779

STLB Hit, L1D data hit: 0
STLB Hit, L2C data hit: 0
STLB Hit, LLC data hit: 0
STLB Hit, LLC data miss: 0
STLB STLB hints to L2: 0
L1D TOTAL     ACCESS:  105568389  HIT:   39502303  MISS:   66066086  HIT %:    37.4187  MISS %:    62.5813   MPKI: 330.33
L1D LOAD      ACCESS:   64236801  HIT:   32107225  MISS:   32129576  HIT %:    49.9826  MISS %:    50.0174   MPKI: 160.648
L1D RFO       ACCESS:    2490485  HIT:    2424930  MISS:      65555  HIT %:    97.3678  MISS %:    2.63222   MPKI: 0.327775
L1D PREFETCH  ACCESS:   38841103  HIT:    4970148  MISS:   33870955  HIT %:    12.7961  MISS %:    87.2039   MPKI: 169.355
L1D PREFETCH  REQUESTED:   79252980  ISSUED:   79252980  USEFUL:    3059639  USELESS:   31173565
L1D USEFUL LOAD PREFETCHES:    3059639 PREFETCH ISSUED TO LOWER LEVEL:   34590759  ACCURACY: 8.84525
L1D TIMELY PREFETCHES:    3059639 LATE PREFETCHES: 357574 DROPPED PREFETCHES: 0
L1D PREFETCHES SAME FILL-ORIGIN LEVEL: 34590759 DIFFERENT FILL-ORIGIN LEVEL: 0
L1D AVERAGE MISS LATENCY: 106.951 cycles
L1D RQ	ACCESS:   78159180	FORWARD:          0	MERGED:   13049862	TO_CACHE:   65109310
L1D WQ	ACCESS:    3328307	FORWARD:          8	MERGED:          3	TO_CACHE:    3328304
L1D PQ	ACCESS:   39626490	FORWARD:          0	MERGED:          0	TO_CACHE:   39626490

L1D UNIQUE REGIONS ACCESSED: 0
L1D REGIONS CONFLICTS: 0
L1D Cross Page Prefetch Requests: 0
L1D Same Page Prefetch Requests: 47641591
L1D ROI Sum of L1D PQ occupancy: 440303455
L1D PREFETCHES PUSHED FROM L2C: 0
L1I TOTAL     ACCESS:   61155926  HIT:   61155904  MISS:         22  HIT %:        100  MISS %: 3.59736e-05   MPKI: 0.00011
L1I LOAD      ACCESS:   61155926  HIT:   61155904  MISS:         22  HIT %:        100  MISS %: 3.59736e-05   MPKI: 0.00011
L1I PREFETCH  REQUESTED:          0  ISSUED:          0  USEFUL:          0  USELESS:          0
L1I USEFUL LOAD PREFETCHES:          0 PREFETCH ISSUED TO LOWER LEVEL:          0  ACCURACY: -nan
L1I TIMELY PREFETCHES:          0 LATE PREFETCHES: 0 DROPPED PREFETCHES: 0
L1I PREFETCHES SAME FILL-ORIGIN LEVEL: 0 DIFFERENT FILL-ORIGIN LEVEL: 0
L1I AVERAGE MISS LATENCY: 256.591 cycles
L1I RQ	ACCESS:   72930469	FORWARD:          0	MERGED:   11156716	TO_CACHE:   61773753

BTB TOTAL     ACCESS:   37026927  HIT:   37026756  MISS:        171  HIT %:    99.9995  MISS %: 0.000461826   MPKI: 0.000855
BTB BRANCH_DIRECT_JUMP	ACCESS:         66  HIT:         33  MISS:         33
BTB BRANCH_INDIRECT	ACCESS:          4  HIT:          0  MISS:          4
BTB BRANCH_CONDITIONAL	ACCESS:   37026791  HIT:   37026703  MISS:         88
BTB BRANCH_DIRECT_CALL	ACCESS:         28  HIT:         10  MISS:         18
BTB BRANCH_INDIRECT_CALL	ACCESS:          5  HIT:          1  MISS:          4
BTB BRANCH_RETURN	ACCESS:         33  HIT:          9  MISS:         24
BTB BRANCH_OTHER ACCESS:          0  HIT:          0  MISS:          0

L2C TOTAL     ACCESS:   66276507  HIT:   13857083  MISS:   52419424  HIT %:     20.908  MISS %:     79.092   MPKI: 262.097
L2C LOAD      ACCESS:   31773294  HIT:    7246914  MISS:   24526380  HIT %:    22.8082  MISS %:    77.1918   MPKI: 122.632
L2C DATA LOAD MPKI: 122.632
L2C INSTRUCTION LOAD MPKI: 0.00011
L2C RFO       ACCESS:      65555  HIT:        181  MISS:      65374  HIT %:   0.276104  MISS %:    99.7239   MPKI: 0.32687
L2C PREFETCH  ACCESS:   34227233  HIT:    6442134  MISS:   27785099  HIT %:    18.8217  MISS %:    81.1783   MPKI: 138.925
L2C DATA PREFETCH MPKI: 138.925
L2C INSTRUCTION PREFETCH MPKI: 0
L2C WRITEBACK ACCESS:     169559  HIT:     135718  MISS:      33841  HIT %:    80.0418  MISS %:    19.9582   MPKI: 0.169205
L2C LOAD TRANSLATION ACCESS:      40866  HIT:      32136  MISS:       8730  HIT %:    78.6375  MISS %:    21.3625   MPKI: 0.04365
L2C PREFETCH  REQUESTED:          0  ISSUED:          0  USEFUL:    1081959  USELESS:   26993006
L2C USEFUL LOAD PREFETCHES:    1081959 PREFETCH ISSUED TO LOWER LEVEL:   28074911  ACCURACY: 3.85383
L2C TIMELY PREFETCHES:    1081959 LATE PREFETCHES: 0 DROPPED PREFETCHES: 0
L2C PREFETCHES SAME FILL-ORIGIN LEVEL: 0 DIFFERENT FILL-ORIGIN LEVEL: 0
L2C AVERAGE MISS LATENCY: 119.708 cycles
L2C RQ	ACCESS:   32226101	FORWARD:          0	MERGED:          0	TO_CACHE:   32226074
L2C WQ	ACCESS:     170823	FORWARD:         27	MERGED:          0	TO_CACHE:     170823
L2C PQ	ACCESS:   34590759	FORWARD:          0	MERGED:          0	TO_CACHE:   34590759

L2C Instructions Evicting Data 22
L2C Translations Evicting Data 8827
L2C Data Evicting Data 52920869
L2C Instructions Evicting Instructions 0
L2C Translations Evicting Instructions 0
L2C Data Evicting Instructions 21
L2C Instructions Evicting Translations 0
L2C Translations Evicting Translations 5
L2C Data Evicting Translations 8807
L2C Dense regions hint from L2: 0
PSCL5 TOTAL     ACCESS:      40826  HIT:      40826  MISS:          0  HIT %:        100  MISS %:          0   MPKI: 0
PSCL5 LOAD TRANSLATION ACCESS:      40826  HIT:      40826  MISS:          0  HIT %:        100  MISS %:          0   MPKI: 0
PSCL5 PREFETCH  REQUESTED:          0  ISSUED:          0  USEFUL:          0  USELESS:          0
PSCL5 USEFUL LOAD PREFETCHES:          0 PREFETCH ISSUED TO LOWER LEVEL:          0  ACCURACY: -nan
PSCL5 TIMELY PREFETCHES:          0 LATE PREFETCHES: 0 DROPPED PREFETCHES: 0
PSCL5 PREFETCHES SAME FILL-ORIGIN LEVEL: 0 DIFFERENT FILL-ORIGIN LEVEL: 0

PSCL4 TOTAL     ACCESS:      40826  HIT:      40826  MISS:          0  HIT %:        100  MISS %:          0   MPKI: 0
PSCL4 LOAD TRANSLATION ACCESS:      40826  HIT:      40826  MISS:          0  HIT %:        100  MISS %:          0   MPKI: 0
PSCL4 PREFETCH  REQUESTED:          0  ISSUED:          0  USEFUL:          0  USELESS:          0
PSCL4 USEFUL LOAD PREFETCHES:          0 PREFETCH ISSUED TO LOWER LEVEL:          0  ACCURACY: -nan
PSCL4 TIMELY PREFETCHES:          0 LATE PREFETCHES: 0 DROPPED PREFETCHES: 0
PSCL4 PREFETCHES SAME FILL-ORIGIN LEVEL: 0 DIFFERENT FILL-ORIGIN LEVEL: 0

PSCL3 TOTAL     ACCESS:      40826  HIT:      40826  MISS:          0  HIT %:        100  MISS %:          0   MPKI: 0
PSCL3 LOAD TRANSLATION ACCESS:      40826  HIT:      40826  MISS:          0  HIT %:        100  MISS %:          0   MPKI: 0
PSCL3 PREFETCH  REQUESTED:          0  ISSUED:          0  USEFUL:          0  USELESS:          0
PSCL3 USEFUL LOAD PREFETCHES:          0 PREFETCH ISSUED TO LOWER LEVEL:          0  ACCURACY: -nan
PSCL3 TIMELY PREFETCHES:          0 LATE PREFETCHES: 0 DROPPED PREFETCHES: 0
PSCL3 PREFETCHES SAME FILL-ORIGIN LEVEL: 0 DIFFERENT FILL-ORIGIN LEVEL: 0

PSCL2 TOTAL     ACCESS:      40826  HIT:      40739  MISS:         87  HIT %:    99.7869  MISS %:   0.213099   MPKI: 0.000435
PSCL2 LOAD TRANSLATION ACCESS:      40826  HIT:      40739  MISS:         87  HIT %:    99.7869  MISS %:   0.213099   MPKI: 0.000435
PSCL2 PREFETCH  REQUESTED:          0  ISSUED:          0  USEFUL:          0  USELESS:          0
PSCL2 USEFUL LOAD PREFETCHES:          0 PREFETCH ISSUED TO LOWER LEVEL:          0  ACCURACY: -nan
PSCL2 TIMELY PREFETCHES:          0 LATE PREFETCHES: 0 DROPPED PREFETCHES: 0
PSCL2 PREFETCHES SAME FILL-ORIGIN LEVEL: 0 DIFFERENT FILL-ORIGIN LEVEL: 0

LLC TOTAL     ACCESS:   52523001  HIT:   30476087  MISS:   22046914  HIT %:    58.0243  MISS %:    41.9757   MPKI: 110.235
LLC LOAD      ACCESS:   24526380  HIT:   15346408  MISS:    9179972  HIT %:     62.571  MISS %:     37.429   MPKI: 45.8999
LLC RFO       ACCESS:      65374  HIT:       7104  MISS:      58270  HIT %:    10.8667  MISS %:    89.1333   MPKI: 0.29135
LLC PREFETCH  ACCESS:   27785100  HIT:   14995641  MISS:   12789459  HIT %:    53.9701  MISS %:    46.0299   MPKI: 63.9473
LLC WRITEBACK ACCESS:     137417  HIT:     124162  MISS:      13255  HIT %:    90.3542  MISS %:    9.64582   MPKI: 0.066275
LLC LOAD TRANSLATION ACCESS:       8730  HIT:       2772  MISS:       5958  HIT %:    31.7526  MISS %:    68.2474   MPKI: 0.02979
LLC PREFETCH  REQUESTED:          0  ISSUED:          0  USEFUL:    5672582  USELESS:   45578724
LLC USEFUL LOAD PREFETCHES:    5672582 PREFETCH ISSUED TO LOWER LEVEL:   51250497  ACCURACY: 11.0683
LLC TIMELY PREFETCHES:    5672582 LATE PREFETCHES: 0 DROPPED PREFETCHES: 0
LLC PREFETCHES SAME FILL-ORIGIN LEVEL: 0 DIFFERENT FILL-ORIGIN LEVEL: 0
LLC AVERAGE MISS LATENCY: 841.523 cycles
LLC RQ	ACCESS:  100918346	FORWARD:          0	MERGED:          0	TO_CACHE:  100918345
LLC WQ	ACCESS:     558319	FORWARD:          1	MERGED:          0	TO_CACHE:     558319
LLC PQ	ACCESS:  113947057	FORWARD:          0	MERGED:          0	TO_CACHE:  113947057

LLC Dense regions hint to LLC: 0

RAW hits: 22
Loads Generated: 77353692
Loads sent to L1D: 77353669
Stores Generated: 3300237
Stores sent to L1D: 3300237
Major fault: 0 Minor fault: 34894
Allocated PAGES: 139576

stream: 
stream:times selected: 44076958
stream:pref_filled: 37747271
stream:pref_useful: 942889
stream:pref_late: 288507
stream:misses: 9402793
stream:misses_by_poll: 0

CS: 
CS:times selected: 4005128
CS:pref_filled: 3174562
CS:pref_useful: 2863173
CS:pref_late: 105312
CS:misses: 509625
CS:misses_by_poll: 3601

CPLX: 
CPLX:times selected: 39696053
CPLX:pref_filled: 763567
CPLX:pref_useful: 29828
CPLX:pref_late: 15792
CPLX:misses: 29379922
CPLX:misses_by_poll: 274

NL_L1: 
NL:times selected: 69576
NL:pref_filled: 64548
NL:pref_useful: 651
NL:pref_late: 205
NL:misses: 68688
NL:misses_by_poll: 0

total selections: 87847715
total_filled: 34293080
total_useful: 3064535
total_late: 415319
total_polluted: 3875
total_misses_after_warmup: 32803129
conflicts: 221
Degree Incremented Times: 1273954
Degree Decremented Times: 2698301

L1 IP Table Write Accesses: 265167803
L1 IP Table Read Accesses: 265167582
L1 RST Write Accesses: 148058058
L1 RST Read Accesses: 296116116
L1 CSPT Write Accesses: 148058058
L1 CSPT Read Accesses: 282140265
L1 RR Filter Tag Write Accesses: 161347158
L1 RR Filter Tag Read Accesses: 5780323915
L1 IP Table Tag Write Accesses: 265167988
L1 IP Table Tag Read Accesses: 265167988
L1 RST Tag Write Accesses: 0
L1 RST Tag Read Accesses: 1334030511
L1 RR Filter Write Accesses: 0
L1 RR Filter Read Accesses: 185108217
test: 95021919

stream: 
stream:times selected: 46533648
stream:pref_filled: 39459829
stream:pref_useful: 802555
stream:pref_late: 288759
stream:misses: 9938768
stream:misses_by_poll: 0

CS: 
CS:times selected: 4194121
CS:pref_filled: 3345527
CS:pref_useful: 3018845
CS:pref_late: 105842
CS:misses: 765823
CS:misses_by_poll: 3789

CPLX: 
CPLX:times selected: 41941981
CPLX:pref_filled: 806481
CPLX:pref_useful: 31888
CPLX:pref_late: 16031
CPLX:misses: 31036881
CPLX:misses_by_poll: 310

NL_L1: 
NL:times selected: 69564
NL:pref_filled: 64511
NL:pref_useful: 671
NL:pref_late: 185
NL:misses: 68666
NL:misses_by_poll: 0

total selections: 92739314
total_filled: 36612975
total_useful: 3269783
total_late: 416449
total_polluted: 4099
total_misses_after_warmup: 35021627
conflicts: 221
Degree Incremented Times: 1273954
Degree Decremented Times: 2698301

L1 IP Table Write Accesses: 265167803
L1 IP Table Read Accesses: 265167582
L1 RST Write Accesses: 148058058
L1 RST Read Accesses: 296116116
L1 CSPT Write Accesses: 148058058
L1 CSPT Read Accesses: 282140265
L1 RR Filter Tag Write Accesses: 161347158
L1 RR Filter Tag Read Accesses: 5780323915
L1 IP Table Tag Write Accesses: 265167988
L1 IP Table Tag Read Accesses: 265167988
L1 RST Tag Write Accesses: 0
L1 RST Tag Read Accesses: 1334030511
L1 RR Filter Write Accesses: 0
L1 RR Filter Read Accesses: 185108217
test: 95021919

stream: 
stream:times selected: 43569976
stream:pref_filled: 36870814
stream:pref_useful: 737602
stream:pref_late: 290842
stream:misses: 9289042
stream:misses_by_poll: 0

CS: 
CS:times selected: 3970887
CS:pref_filled: 3143651
CS:pref_useful: 2834633
CS:pref_late: 103837
CS:misses: 737624
CS:misses_by_poll: 3446

CPLX: 
CPLX:times selected: 39228000
CPLX:pref_filled: 754953
CPLX:pref_useful: 29463
CPLX:pref_late: 15930
CPLX:misses: 29039244
CPLX:misses_by_poll: 280

NL_L1: 
NL:times selected: 69592
NL:pref_filled: 64465
NL:pref_useful: 640
NL:pref_late: 218
NL:misses: 68729
NL:misses_by_poll: 0

total selections: 86838455
total_filled: 33865460
total_useful: 3029040
total_late: 415921
total_polluted: 3726
total_misses_after_warmup: 32339004
conflicts: 221
Degree Incremented Times: 1273954
Degree Decremented Times: 2698301

L1 IP Table Write Accesses: 265167803
L1 IP Table Read Accesses: 265167582
L1 RST Write Accesses: 148058058
L1 RST Read Accesses: 296116116
L1 CSPT Write Accesses: 148058058
L1 CSPT Read Accesses: 282140265
L1 RR Filter Tag Write Accesses: 161347158
L1 RR Filter Tag Read Accesses: 5780323915
L1 IP Table Tag Write Accesses: 265167988
L1 IP Table Tag Read Accesses: 265167988
L1 RST Tag Write Accesses: 0
L1 RST Tag Read Accesses: 1334030511
L1 RR Filter Write Accesses: 0
L1 RR Filter Read Accesses: 185108217
test: 95021919

stream: 
stream:times selected: 43925681
stream:pref_filled: 37177641
stream:pref_useful: 742883
stream:pref_late: 290857
stream:misses: 9369115
stream:misses_by_poll: 0

CS: 
CS:times selected: 3998883
CS:pref_filled: 3167408
CS:pref_useful: 2856830
CS:pref_late: 103897
CS:misses: 760885
CS:misses_by_poll: 3683

CPLX: 
CPLX:times selected: 39552297
CPLX:pref_filled: 760850
CPLX:pref_useful: 29776
CPLX:pref_late: 15803
CPLX:misses: 29279580
CPLX:misses_by_poll: 298

NL_L1: 
NL:times selected: 69610
NL:pref_filled: 64382
NL:pref_useful: 674
NL:pref_late: 199
NL:misses: 68710
NL:misses_by_poll: 0

total selections: 87546471
total_filled: 34233185
total_useful: 3059639
total_late: 415721
total_polluted: 3981
total_misses_after_warmup: 32662611
conflicts: 221
Degree Incremented Times: 1273954
Degree Decremented Times: 2698301

L1 IP Table Write Accesses: 265167803
L1 IP Table Read Accesses: 265167582
L1 RST Write Accesses: 148058058
L1 RST Read Accesses: 296116116
L1 CSPT Write Accesses: 148058058
L1 CSPT Read Accesses: 282140265
L1 RR Filter Tag Write Accesses: 161347158
L1 RR Filter Tag Read Accesses: 5780323915
L1 IP Table Tag Write Accesses: 265167988
L1 IP Table Tag Read Accesses: 265167988
L1 RST Tag Write Accesses: 0
L1 RST Tag Read Accesses: 1334030511
L1 RR Filter Write Accesses: 0
L1 RR Filter Read Accesses: 185108217
test: 95021919

DRAM Statistics
 CHANNEL 0
 RQ ROW_BUFFER_HIT:    3317531  ROW_BUFFER_MISS:   84762848
 DBUS_CONGESTED:       2786
 WQ ROW_BUFFER_HIT:      59727  ROW_BUFFER_MISS:     493529  FULL:          0

 AVG_CONGESTED_CYCLE: 5
 All warmup complete: 5
Channel 0 Bank busy for read cycles: 0
Channel 0 Bank busy for write cycles: 0
Channel 0
Rank 0
0banks busy for read cycles: 1897732
0banks busy for write cycles: 0
1banks busy for read cycles: 243648792
1banks busy for write cycles: 1176575
2banks busy for read cycles: 699826316
2banks busy for write cycles: 1153728
3banks busy for read cycles: 1038201173
3banks busy for write cycles: 1130308
4banks busy for read cycles: 952239606
4banks busy for write cycles: 1109649
5banks busy for read cycles: 545457953
5banks busy for write cycles: 1092226
6banks busy for read cycles: 201655663
6banks busy for write cycles: 1173289
7banks busy for read cycles: 47186439
7banks busy for write cycles: 2610414
8banks busy for read cycles: 6770336
8banks busy for write cycles: 56429912

CPU 0 Branch Prediction Accuracy: 96.9519% MPKI: 5.63219 Average ROB Occupancy at Mispredict: 140.104
Branch types
NOT_BRANCH: 164917474 81.4811%
BRANCH_DIRECT_JUMP: 66 3.26088e-05%
BRANCH_INDIRECT: 4 1.97629e-06%
BRANCH_CONDITIONAL: 37481973 18.5188%
BRANCH_DIRECT_CALL: 28 1.3834e-05%
BRANCH_INDIRECT_CALL: 5 2.47036e-06%
BRANCH_RETURN: 33 1.63044e-05%
BRANCH_OTHER: 0 0%


CPU 1 Branch Prediction Accuracy: 96.9404% MPKI: 5.65954 Average ROB Occupancy at Mispredict: 139.91
Branch types
NOT_BRANCH: 175340671 81.4486%
BRANCH_DIRECT_JUMP: 66 3.06581e-05%
BRANCH_INDIRECT: 4 1.85806e-06%
BRANCH_CONDITIONAL: 39936672 18.5512%
BRANCH_DIRECT_CALL: 28 1.30065e-05%
BRANCH_INDIRECT_CALL: 5 2.32258e-06%
BRANCH_RETURN: 33 1.5329e-05%
BRANCH_OTHER: 0 0%


CPU 2 Branch Prediction Accuracy: 96.957% MPKI: 5.62956 Average ROB Occupancy at Mispredict: 140.172
Branch types
NOT_BRANCH: 162973804 81.4869%
BRANCH_DIRECT_JUMP: 66 3.3e-05%
BRANCH_INDIRECT: 4 2e-06%
BRANCH_CONDITIONAL: 37026061 18.513%
BRANCH_DIRECT_CALL: 28 1.4e-05%
BRANCH_INDIRECT_CALL: 5 2.5e-06%
BRANCH_RETURN: 33 1.65e-05%
BRANCH_OTHER: 0 0%


CPU 3 Branch Prediction Accuracy: 96.9528% MPKI: 5.64288 Average ROB Occupancy at Mispredict: 140.118
Branch types
NOT_BRANCH: 164634508 81.4818%
BRANCH_DIRECT_JUMP: 66 3.26651e-05%
BRANCH_INDIRECT: 4 1.9797e-06%
BRANCH_CONDITIONAL: 37415700 18.518%
BRANCH_DIRECT_CALL: 28 1.38579e-05%
BRANCH_INDIRECT_CALL: 5 2.47463e-06%
BRANCH_RETURN: 33 1.63325e-05%
BRANCH_OTHER: 0 0%

DRAM PAGES: 1048576
Allocated PAGES: 139576
