
*** ChampSim Multicore Out-of-Order Simulator ***

Warmup Instructions: 50000000
Simulation Instructions: 200000000
Number of CPUs: 4
LLC sets: 8192
LLC ways: 16
Off-chip DRAM Size: 4096 MB Channels: 1 Width: 64-bit Data Rate: 6400 MT/s
CPU 0 runs ./traces/ligra/ligra_BFS.com-lj.ungraph.gcc_6.3.0_O3.drop_15750M.length_250M.champsimtrace.xz
.xz
CPU 1 runs ./traces/spec/481.wrf-455B.champsimtrace.xz
.xz
CPU 2 runs ./traces/spec/410.bwaves-2097B.champsimtrace.xz
.xz
CPU 3 runs ./traces/spec/620.omnetpp_s-141B.champsimtrace.xz
.xz
BTB has LRU replacement policy
ITLB has LRU replacement policy
DTLB has LRU replacement policy
STLB has LRU replacement policy
L1I has LRU replacement policy
IP Table Entries: 1024
CSPT Entries: 128
RR_ENTRIES: 32
RST_ENTRIES: 8
L1D has LRU replacement policy
Initialize SRRIP state for L2C
Initialize DRRIP state for LLC
BTB has LRU replacement policy
ITLB has LRU replacement policy
DTLB has LRU replacement policy
STLB has LRU replacement policy
L1I has LRU replacement policy
IP Table Entries: 1024
CSPT Entries: 128
RR_ENTRIES: 32
RST_ENTRIES: 8
L1D has LRU replacement policy
Initialize SRRIP state for L2C
Initialize DRRIP state for LLC
BTB has LRU replacement policy
ITLB has LRU replacement policy
DTLB has LRU replacement policy
STLB has LRU replacement policy
L1I has LRU replacement policy
IP Table Entries: 1024
CSPT Entries: 128
RR_ENTRIES: 32
RST_ENTRIES: 8
L1D has LRU replacement policy
Initialize SRRIP state for L2C
Initialize DRRIP state for LLC
BTB has LRU replacement policy
ITLB has LRU replacement policy
DTLB has LRU replacement policy
STLB has LRU replacement policy
L1I has LRU replacement policy
IP Table Entries: 1024
CSPT Entries: 128
RR_ENTRIES: 32
RST_ENTRIES: 8
L1D has LRU replacement policy
Initialize SRRIP state for L2C
Initialize DRRIP state for LLC
Heartbeat CPU 0 instructions: 10000002 cycles: 3310464 heartbeat IPC: 3.02073 cumulative IPC: 3.02073 (Simulation time: 0 hr 3 min 49 sec) 
Heartbeat CPU 2 instructions: 10000002 cycles: 3912131 heartbeat IPC: 2.55615 cumulative IPC: 2.55615 (Simulation time: 0 hr 4 min 35 sec) 
Heartbeat CPU 3 instructions: 10000001 cycles: 3920245 heartbeat IPC: 2.55086 cumulative IPC: 2.55086 (Simulation time: 0 hr 4 min 36 sec) 
Heartbeat CPU 1 instructions: 10000000 cycles: 3962506 heartbeat IPC: 2.52366 cumulative IPC: 2.52366 (Simulation time: 0 hr 4 min 38 sec) 
Heartbeat CPU 0 instructions: 20000003 cycles: 6618766 heartbeat IPC: 3.0227 cumulative IPC: 3.02171 (Simulation time: 0 hr 7 min 59 sec) 
Heartbeat CPU 2 instructions: 20000000 cycles: 7824174 heartbeat IPC: 2.55621 cumulative IPC: 2.55618 (Simulation time: 0 hr 9 min 30 sec) 
Heartbeat CPU 3 instructions: 20000003 cycles: 7851545 heartbeat IPC: 2.54369 cumulative IPC: 2.54727 (Simulation time: 0 hr 9 min 32 sec) 
Heartbeat CPU 1 instructions: 20000003 cycles: 8104519 heartbeat IPC: 2.41429 cumulative IPC: 2.46776 (Simulation time: 0 hr 9 min 52 sec) 
Heartbeat CPU 0 instructions: 30000002 cycles: 9920633 heartbeat IPC: 3.02859 cumulative IPC: 3.024 (Simulation time: 0 hr 12 min 6 sec) 
Heartbeat CPU 2 instructions: 30000000 cycles: 11736079 heartbeat IPC: 2.5563 cumulative IPC: 2.55622 (Simulation time: 0 hr 14 min 19 sec) 
Heartbeat CPU 3 instructions: 30000000 cycles: 11788223 heartbeat IPC: 2.54021 cumulative IPC: 2.54491 (Simulation time: 0 hr 14 min 24 sec) 
Heartbeat CPU 1 instructions: 30000000 cycles: 12246451 heartbeat IPC: 2.41433 cumulative IPC: 2.44969 (Simulation time: 0 hr 14 min 59 sec) 
Heartbeat CPU 0 instructions: 40000000 cycles: 13215749 heartbeat IPC: 3.03479 cumulative IPC: 3.02669 (Simulation time: 0 hr 16 min 14 sec) 
Heartbeat CPU 2 instructions: 40000001 cycles: 15648463 heartbeat IPC: 2.55599 cumulative IPC: 2.55616 (Simulation time: 0 hr 18 min 46 sec) 
Heartbeat CPU 3 instructions: 40000001 cycles: 15713293 heartbeat IPC: 2.54773 cumulative IPC: 2.54562 (Simulation time: 0 hr 18 min 50 sec) 
Heartbeat CPU 1 instructions: 40000003 cycles: 16395427 heartbeat IPC: 2.41023 cumulative IPC: 2.4397 (Simulation time: 0 hr 19 min 31 sec) 
Heartbeat CPU 0 instructions: 50000001 cycles: 16516480 heartbeat IPC: 3.02963 cumulative IPC: 3.02728 (Simulation time: 0 hr 19 min 39 sec) 
Heartbeat CPU 2 instructions: 50000001 cycles: 19560957 heartbeat IPC: 2.55591 cumulative IPC: 2.55611 (Simulation time: 0 hr 23 min 20 sec) 
Heartbeat CPU 3 instructions: 50000003 cycles: 19651590 heartbeat IPC: 2.53917 cumulative IPC: 2.54432 (Simulation time: 0 hr 23 min 26 sec) 
Heartbeat CPU 0 instructions: 60000000 cycles: 20218142 heartbeat IPC: 2.70149 cumulative IPC: 0.494605 (Simulation time: 0 hr 23 min 54 sec) 
Heartbeat CPU 1 instructions: 50000003 cycles: 20460595 heartbeat IPC: 2.45992 cumulative IPC: 2.44372 (Simulation time: 0 hr 24 min 7 sec) 

Warmup complete CPU 0 instructions: 60655652 cycles: 20460595 (Simulation time: 0 hr 24 min 7 sec) 
Warmup complete CPU 1 instructions: 50000003 cycles: 20460595 (Simulation time: 0 hr 24 min 7 sec) 
Warmup complete CPU 2 instructions: 52300001 cycles: 20460594 (Simulation time: 0 hr 24 min 7 sec) 
Warmup complete CPU 3 instructions: 51603208 cycles: 20460594 (Simulation time: 0 hr 24 min 7 sec) 

Heartbeat CPU 1 instructions: 60000002 cycles: 28780285 heartbeat IPC: 1.20197 cumulative IPC: 1.20197 (Simulation time: 0 hr 26 min 47 sec) 
Heartbeat CPU 2 instructions: 60000001 cycles: 29725374 heartbeat IPC: 0.983824 cumulative IPC: 0.831104 (Simulation time: 0 hr 27 min 6 sec) 
Heartbeat CPU 0 instructions: 70000001 cycles: 33669268 heartbeat IPC: 0.743432 cumulative IPC: 0.70744 (Simulation time: 0 hr 28 min 29 sec) 
Heartbeat CPU 1 instructions: 70000000 cycles: 36315874 heartbeat IPC: 1.32704 cumulative IPC: 1.26141 (Simulation time: 0 hr 29 min 33 sec) 
Heartbeat CPU 2 instructions: 70000002 cycles: 39793312 heartbeat IPC: 0.993252 cumulative IPC: 0.915546 (Simulation time: 0 hr 30 min 59 sec) 
Heartbeat CPU 1 instructions: 80000003 cycles: 43391990 heartbeat IPC: 1.41321 cumulative IPC: 1.30825 (Simulation time: 0 hr 32 min 25 sec) 
Heartbeat CPU 0 instructions: 80000002 cycles: 46480656 heartbeat IPC: 0.780556 cumulative IPC: 0.74344 (Simulation time: 0 hr 33 min 34 sec) 
Heartbeat CPU 2 instructions: 80000002 cycles: 48964720 heartbeat IPC: 1.09035 cumulative IPC: 0.971789 (Simulation time: 0 hr 34 min 34 sec) 
Heartbeat CPU 1 instructions: 90000003 cycles: 50466824 heartbeat IPC: 1.41346 cumulative IPC: 1.33306 (Simulation time: 0 hr 35 min 11 sec) 
Heartbeat CPU 1 instructions: 100000001 cycles: 57127970 heartbeat IPC: 1.50124 cumulative IPC: 1.36361 (Simulation time: 0 hr 37 min 34 sec) 
Heartbeat CPU 2 instructions: 90000001 cycles: 58431074 heartbeat IPC: 1.05637 cumulative IPC: 0.992877 (Simulation time: 0 hr 38 min 1 sec) 
Heartbeat CPU 0 instructions: 90000001 cycles: 59768587 heartbeat IPC: 0.752563 cumulative IPC: 0.746524 (Simulation time: 0 hr 38 min 31 sec) 
Heartbeat CPU 1 instructions: 110000000 cycles: 63542538 heartbeat IPC: 1.55895 cumulative IPC: 1.39269 (Simulation time: 0 hr 39 min 50 sec) 
Heartbeat CPU 2 instructions: 100000000 cycles: 67803276 heartbeat IPC: 1.06699 cumulative IPC: 1.00755 (Simulation time: 0 hr 41 min 26 sec) 
Heartbeat CPU 1 instructions: 120000002 cycles: 70651470 heartbeat IPC: 1.40668 cumulative IPC: 1.39468 (Simulation time: 0 hr 42 min 28 sec) 
Heartbeat CPU 0 instructions: 100000000 cycles: 74511521 heartbeat IPC: 0.678291 cumulative IPC: 0.727913 (Simulation time: 0 hr 43 min 56 sec) 
Heartbeat CPU 2 instructions: 110000000 cycles: 77573063 heartbeat IPC: 1.02356 cumulative IPC: 1.01029 (Simulation time: 0 hr 44 min 56 sec) 
Heartbeat CPU 1 instructions: 130000001 cycles: 77795574 heartbeat IPC: 1.39976 cumulative IPC: 1.39531 (Simulation time: 0 hr 45 min 1 sec) 
Heartbeat CPU 1 instructions: 140000002 cycles: 83977533 heartbeat IPC: 1.61761 cumulative IPC: 1.41694 (Simulation time: 0 hr 47 min 14 sec) 
Heartbeat CPU 2 instructions: 120000000 cycles: 86858478 heartbeat IPC: 1.07696 cumulative IPC: 1.01961 (Simulation time: 0 hr 48 min 7 sec) 
Heartbeat CPU 0 instructions: 110000000 cycles: 90343930 heartbeat IPC: 0.631616 cumulative IPC: 0.706096 (Simulation time: 0 hr 49 min 21 sec) 
Heartbeat CPU 1 instructions: 150000001 cycles: 92181551 heartbeat IPC: 1.21891 cumulative IPC: 1.39429 (Simulation time: 0 hr 49 min 57 sec) 
Heartbeat CPU 2 instructions: 130000003 cycles: 97251784 heartbeat IPC: 0.962158 cumulative IPC: 1.01183 (Simulation time: 0 hr 51 min 38 sec) 
Heartbeat CPU 1 instructions: 160000001 cycles: 100249107 heartbeat IPC: 1.23953 cumulative IPC: 1.37864 (Simulation time: 0 hr 52 min 33 sec) 
Heartbeat CPU 3 instructions: 60000001 cycles: 104376674 heartbeat IPC: 0.118029 cumulative IPC: 0.100062 (Simulation time: 0 hr 53 min 51 sec) 
Heartbeat CPU 2 instructions: 140000002 cycles: 107350674 heartbeat IPC: 0.990208 cumulative IPC: 1.00932 (Simulation time: 0 hr 54 min 50 sec) 
Heartbeat CPU 0 instructions: 120000001 cycles: 107585132 heartbeat IPC: 0.580006 cumulative IPC: 0.681144 (Simulation time: 0 hr 54 min 55 sec) 
Heartbeat CPU 1 instructions: 170000002 cycles: 108231969 heartbeat IPC: 1.25268 cumulative IPC: 1.36719 (Simulation time: 0 hr 55 min 6 sec) 
Heartbeat CPU 1 instructions: 180000002 cycles: 115396444 heartbeat IPC: 1.39578 cumulative IPC: 1.36935 (Simulation time: 0 hr 57 min 29 sec) 
Heartbeat CPU 2 instructions: 150000003 cycles: 116499899 heartbeat IPC: 1.09299 cumulative IPC: 1.01729 (Simulation time: 0 hr 57 min 48 sec) 
Heartbeat CPU 1 instructions: 190000002 cycles: 122067709 heartbeat IPC: 1.49897 cumulative IPC: 1.37786 (Simulation time: 0 hr 59 min 22 sec) 
Heartbeat CPU 2 instructions: 160000001 cycles: 124598422 heartbeat IPC: 1.23479 cumulative IPC: 1.03421 (Simulation time: 1 hr 0 min 16 sec) 
Heartbeat CPU 0 instructions: 130000002 cycles: 125165955 heartbeat IPC: 0.568802 cumulative IPC: 0.662281 (Simulation time: 1 hr 0 min 28 sec) 
Heartbeat CPU 1 instructions: 200000003 cycles: 128961649 heartbeat IPC: 1.45055 cumulative IPC: 1.38248 (Simulation time: 1 hr 1 min 46 sec) 
Heartbeat CPU 2 instructions: 170000000 cycles: 132705172 heartbeat IPC: 1.23354 cumulative IPC: 1.0486 (Simulation time: 1 hr 2 min 55 sec) 
Heartbeat CPU 1 instructions: 210000003 cycles: 137160053 heartbeat IPC: 1.21975 cumulative IPC: 1.37104 (Simulation time: 1 hr 4 min 15 sec) 
Heartbeat CPU 2 instructions: 180000000 cycles: 140964346 heartbeat IPC: 1.21077 cumulative IPC: 1.05972 (Simulation time: 1 hr 5 min 19 sec) 
Heartbeat CPU 0 instructions: 140000000 cycles: 143924998 heartbeat IPC: 0.533076 cumulative IPC: 0.64265 (Simulation time: 1 hr 6 min 12 sec) 
Heartbeat CPU 1 instructions: 220000000 cycles: 145062586 heartbeat IPC: 1.26542 cumulative IPC: 1.36434 (Simulation time: 1 hr 6 min 32 sec) 
Heartbeat CPU 2 instructions: 190000003 cycles: 150080239 heartbeat IPC: 1.09699 cumulative IPC: 1.06234 (Simulation time: 1 hr 7 min 58 sec) 
Heartbeat CPU 1 instructions: 230000001 cycles: 152489892 heartbeat IPC: 1.34638 cumulative IPC: 1.36333 (Simulation time: 1 hr 8 min 40 sec) 
Heartbeat CPU 1 instructions: 240000001 cycles: 158407813 heartbeat IPC: 1.68978 cumulative IPC: 1.37734 (Simulation time: 1 hr 10 min 33 sec) 
Heartbeat CPU 2 instructions: 200000002 cycles: 158483127 heartbeat IPC: 1.19007 cumulative IPC: 1.07012 (Simulation time: 1 hr 10 min 35 sec) 
Heartbeat CPU 2 instructions: 210000000 cycles: 168053308 heartbeat IPC: 1.04491 cumulative IPC: 1.06848 (Simulation time: 1 hr 13 min 5 sec) 
Heartbeat CPU 0 instructions: 150000001 cycles: 169333302 heartbeat IPC: 0.393572 cumulative IPC: 0.600139 (Simulation time: 1 hr 13 min 23 sec) 
Heartbeat CPU 1 instructions: 250000002 cycles: 170107591 heartbeat IPC: 0.854717 cumulative IPC: 1.33648 (Simulation time: 1 hr 13 min 36 sec) 
Finished CPU 1 instructions: 200000003 cycles: 149646997 cumulative IPC: 1.33648 (Simulation time: 1 hr 13 min 36 sec) 
Heartbeat CPU 2 instructions: 220000000 cycles: 177011329 heartbeat IPC: 1.11632 cumulative IPC: 1.07122 (Simulation time: 1 hr 15 min 38 sec) 
Heartbeat CPU 1 instructions: 260000003 cycles: 179414718 heartbeat IPC: 1.07445 cumulative IPC: 1.32114 (Simulation time: 1 hr 16 min 19 sec) 
Heartbeat CPU 2 instructions: 230000002 cycles: 187064086 heartbeat IPC: 0.994752 cumulative IPC: 1.0666 (Simulation time: 1 hr 18 min 14 sec) 
Heartbeat CPU 1 instructions: 270000001 cycles: 188925579 heartbeat IPC: 1.05143 cumulative IPC: 1.30591 (Simulation time: 1 hr 18 min 43 sec) 
Heartbeat CPU 2 instructions: 240000000 cycles: 197695867 heartbeat IPC: 0.940576 cumulative IPC: 1.05904 (Simulation time: 1 hr 21 min 2 sec) 
Heartbeat CPU 1 instructions: 280000000 cycles: 198382396 heartbeat IPC: 1.05744 cumulative IPC: 1.2927 (Simulation time: 1 hr 21 min 12 sec) 
Heartbeat CPU 0 instructions: 160000002 cycles: 199685293 heartbeat IPC: 0.329468 cumulative IPC: 0.554301 (Simulation time: 1 hr 21 min 33 sec) 
Heartbeat CPU 3 instructions: 70000000 cycles: 200079462 heartbeat IPC: 0.10449 cumulative IPC: 0.102421 (Simulation time: 1 hr 21 min 39 sec) 
Heartbeat CPU 2 instructions: 250000002 cycles: 208705678 heartbeat IPC: 0.908281 cumulative IPC: 1.05023 (Simulation time: 1 hr 23 min 49 sec) 
Heartbeat CPU 1 instructions: 290000000 cycles: 208895338 heartbeat IPC: 0.951209 cumulative IPC: 1.27365 (Simulation time: 1 hr 23 min 52 sec) 
Finished CPU 2 instructions: 200000000 cycles: 190509309 cumulative IPC: 1.04982 (Simulation time: 1 hr 24 min 25 sec) 
Heartbeat CPU 1 instructions: 300000002 cycles: 216673149 heartbeat IPC: 1.28571 cumulative IPC: 1.27413 (Simulation time: 1 hr 25 min 59 sec) 
Heartbeat CPU 2 instructions: 260000000 cycles: 218163489 heartbeat IPC: 1.05733 cumulative IPC: 1.05057 (Simulation time: 1 hr 26 min 25 sec) 
Heartbeat CPU 1 instructions: 310000002 cycles: 226227801 heartbeat IPC: 1.04661 cumulative IPC: 1.26356 (Simulation time: 1 hr 28 min 26 sec) 
Heartbeat CPU 2 instructions: 270000003 cycles: 226669390 heartbeat IPC: 1.17565 cumulative IPC: 1.05573 (Simulation time: 1 hr 28 min 33 sec) 
Heartbeat CPU 0 instructions: 170000002 cycles: 230479264 heartbeat IPC: 0.324739 cumulative IPC: 0.520641 (Simulation time: 1 hr 29 min 45 sec) 
Heartbeat CPU 1 instructions: 320000000 cycles: 234017708 heartbeat IPC: 1.28371 cumulative IPC: 1.2643 (Simulation time: 1 hr 30 min 56 sec) 
Heartbeat CPU 2 instructions: 280000002 cycles: 234880560 heartbeat IPC: 1.21785 cumulative IPC: 1.06193 (Simulation time: 1 hr 31 min 10 sec) 
Heartbeat CPU 0 instructions: 180000000 cycles: 242535727 heartbeat IPC: 0.82943 cumulative IPC: 0.537405 (Simulation time: 1 hr 33 min 26 sec) 
Heartbeat CPU 2 instructions: 290000000 cycles: 244947717 heartbeat IPC: 0.993329 cumulative IPC: 1.05886 (Simulation time: 1 hr 34 min 5 sec) 
Heartbeat CPU 1 instructions: 330000000 cycles: 245378286 heartbeat IPC: 0.880237 cumulative IPC: 1.2449 (Simulation time: 1 hr 34 min 15 sec) 
Heartbeat CPU 2 instructions: 300000001 cycles: 252923025 heartbeat IPC: 1.25387 cumulative IPC: 1.06555 (Simulation time: 1 hr 37 min 14 sec) 
Heartbeat CPU 1 instructions: 340000003 cycles: 253099415 heartbeat IPC: 1.29515 cumulative IPC: 1.24657 (Simulation time: 1 hr 37 min 18 sec) 
Heartbeat CPU 0 instructions: 190000002 cycles: 254068582 heartbeat IPC: 0.867088 cumulative IPC: 0.553681 (Simulation time: 1 hr 37 min 42 sec) 
Heartbeat CPU 2 instructions: 310000001 cycles: 260430161 heartbeat IPC: 1.33207 cumulative IPC: 1.07389 (Simulation time: 1 hr 40 min 4 sec) 
Heartbeat CPU 1 instructions: 350000003 cycles: 260761307 heartbeat IPC: 1.30516 cumulative IPC: 1.24844 (Simulation time: 1 hr 40 min 12 sec) 
Heartbeat CPU 0 instructions: 200000000 cycles: 264646050 heartbeat IPC: 0.945406 cumulative IPC: 0.57065 (Simulation time: 1 hr 41 min 42 sec) 
Heartbeat CPU 1 instructions: 360000000 cycles: 268316974 heartbeat IPC: 1.32351 cumulative IPC: 1.25072 (Simulation time: 1 hr 43 min 5 sec) 
Heartbeat CPU 2 instructions: 320000002 cycles: 268650995 heartbeat IPC: 1.21642 cumulative IPC: 1.07861 (Simulation time: 1 hr 43 min 10 sec) 
Heartbeat CPU 0 instructions: 210000002 cycles: 274753037 heartbeat IPC: 0.989415 cumulative IPC: 0.587294 (Simulation time: 1 hr 45 min 2 sec) 
Heartbeat CPU 1 instructions: 370000001 cycles: 275772663 heartbeat IPC: 1.34126 cumulative IPC: 1.25337 (Simulation time: 1 hr 45 min 22 sec) 
Heartbeat CPU 2 instructions: 330000000 cycles: 281884563 heartbeat IPC: 0.755654 cumulative IPC: 1.06226 (Simulation time: 1 hr 47 min 21 sec) 
Heartbeat CPU 1 instructions: 380000002 cycles: 283284847 heartbeat IPC: 1.33117 cumulative IPC: 1.25559 (Simulation time: 1 hr 47 min 50 sec) 
Heartbeat CPU 3 instructions: 80000003 cycles: 284770740 heartbeat IPC: 0.118076 cumulative IPC: 0.107437 (Simulation time: 1 hr 48 min 21 sec) 
Heartbeat CPU 0 instructions: 220000000 cycles: 284937721 heartbeat IPC: 0.981866 cumulative IPC: 0.602488 (Simulation time: 1 hr 48 min 25 sec) 
Heartbeat CPU 1 instructions: 390000000 cycles: 291095527 heartbeat IPC: 1.2803 cumulative IPC: 1.2563 (Simulation time: 1 hr 50 min 23 sec) 
Heartbeat CPU 2 instructions: 340000002 cycles: 295741636 heartbeat IPC: 0.721653 cumulative IPC: 1.04511 (Simulation time: 1 hr 51 min 43 sec) 
Heartbeat CPU 0 instructions: 230000001 cycles: 296364814 heartbeat IPC: 0.875113 cumulative IPC: 0.613779 (Simulation time: 1 hr 51 min 54 sec) 
Heartbeat CPU 1 instructions: 400000001 cycles: 299165683 heartbeat IPC: 1.23913 cumulative IPC: 1.25581 (Simulation time: 1 hr 52 min 42 sec) 
Heartbeat CPU 1 instructions: 410000000 cycles: 307145697 heartbeat IPC: 1.25313 cumulative IPC: 1.25573 (Simulation time: 1 hr 54 min 53 sec) 
Heartbeat CPU 0 instructions: 240000002 cycles: 308654789 heartbeat IPC: 0.813671 cumulative IPC: 0.622304 (Simulation time: 1 hr 55 min 19 sec) 
Heartbeat CPU 2 instructions: 350000001 cycles: 311617523 heartbeat IPC: 0.629886 cumulative IPC: 1.02247 (Simulation time: 1 hr 56 min 11 sec) 
Heartbeat CPU 1 instructions: 420000000 cycles: 315404953 heartbeat IPC: 1.21076 cumulative IPC: 1.25447 (Simulation time: 1 hr 57 min 29 sec) 
Heartbeat CPU 2 instructions: 360000001 cycles: 320449905 heartbeat IPC: 1.1322 cumulative IPC: 1.0257 (Simulation time: 1 hr 59 min 28 sec) 
*** Reached end of trace for Core: 0 Repeating trace: ./traces/ligra/ligra_BFS.com-lj.ungraph.gcc_6.3.0_O3.drop_15750M.length_250M.champsimtrace.xz
Heartbeat CPU 0 instructions: 250000001 cycles: 320500122 heartbeat IPC: 0.844214 cumulative IPC: 0.631065 (Simulation time: 1 hr 59 min 30 sec) 
Heartbeat CPU 1 instructions: 430000000 cycles: 323114328 heartbeat IPC: 1.29712 cumulative IPC: 1.25556 (Simulation time: 2 hr 0 min 24 sec) 
Heartbeat CPU 2 instructions: 370000001 cycles: 332612906 heartbeat IPC: 0.822165 cumulative IPC: 1.01777 (Simulation time: 2 hr 3 min 5 sec) 
Heartbeat CPU 0 instructions: 260000000 cycles: 334590750 heartbeat IPC: 0.709692 cumulative IPC: 0.634592 (Simulation time: 2 hr 3 min 40 sec) 
Finished CPU 0 instructions: 200000002 cycles: 315013939 cumulative IPC: 0.634893 (Simulation time: 2 hr 3 min 58 sec) 
Heartbeat CPU 1 instructions: 440000000 cycles: 335971688 heartbeat IPC: 0.777765 cumulative IPC: 1.23609 (Simulation time: 2 hr 4 min 8 sec) 
Heartbeat CPU 2 instructions: 380000003 cycles: 344472231 heartbeat IPC: 0.843219 cumulative IPC: 1.01138 (Simulation time: 2 hr 6 min 59 sec) 
Heartbeat CPU 1 instructions: 450000002 cycles: 345442002 heartbeat IPC: 1.05593 cumulative IPC: 1.23084 (Simulation time: 2 hr 7 min 19 sec) 
Heartbeat CPU 0 instructions: 270000002 cycles: 347800075 heartbeat IPC: 0.757041 cumulative IPC: 0.639533 (Simulation time: 2 hr 8 min 7 sec) 
Heartbeat CPU 1 instructions: 460000000 cycles: 354868666 heartbeat IPC: 1.06082 cumulative IPC: 1.22605 (Simulation time: 2 hr 10 min 23 sec) 
Heartbeat CPU 2 instructions: 390000002 cycles: 356308164 heartbeat IPC: 0.844885 cumulative IPC: 1.00552 (Simulation time: 2 hr 10 min 51 sec) 
Heartbeat CPU 0 instructions: 280000000 cycles: 361491873 heartbeat IPC: 0.730364 cumulative IPC: 0.64318 (Simulation time: 2 hr 12 min 33 sec) 
Heartbeat CPU 1 instructions: 470000001 cycles: 364204732 heartbeat IPC: 1.07112 cumulative IPC: 1.22184 (Simulation time: 2 hr 13 min 27 sec) 
Heartbeat CPU 2 instructions: 400000001 cycles: 367719298 heartbeat IPC: 0.876337 cumulative IPC: 1.00127 (Simulation time: 2 hr 14 min 23 sec) 
Heartbeat CPU 1 instructions: 480000002 cycles: 376936519 heartbeat IPC: 0.785436 cumulative IPC: 1.20625 (Simulation time: 2 hr 16 min 44 sec) 
Heartbeat CPU 0 instructions: 290000000 cycles: 377327007 heartbeat IPC: 0.631507 cumulative IPC: 0.642662 (Simulation time: 2 hr 16 min 51 sec) 
Heartbeat CPU 2 instructions: 410000003 cycles: 381672901 heartbeat IPC: 0.716661 cumulative IPC: 0.990276 (Simulation time: 2 hr 18 min 12 sec) 
Heartbeat CPU 1 instructions: 490000003 cycles: 384880842 heartbeat IPC: 1.25876 cumulative IPC: 1.2074 (Simulation time: 2 hr 19 min 11 sec) 
Heartbeat CPU 3 instructions: 90000003 cycles: 387057550 heartbeat IPC: 0.0977643 cumulative IPC: 0.104738 (Simulation time: 2 hr 19 min 51 sec) 
Heartbeat CPU 0 instructions: 300000001 cycles: 391126059 heartbeat IPC: 0.724688 cumulative IPC: 0.645715 (Simulation time: 2 hr 21 min 9 sec) 
Heartbeat CPU 1 instructions: 500000002 cycles: 392648634 heartbeat IPC: 1.28737 cumulative IPC: 1.20907 (Simulation time: 2 hr 21 min 36 sec) 
Heartbeat CPU 2 instructions: 420000002 cycles: 393603914 heartbeat IPC: 0.838152 cumulative IPC: 0.985412 (Simulation time: 2 hr 21 min 53 sec) 
Heartbeat CPU 0 instructions: 310000001 cycles: 408253340 heartbeat IPC: 0.583864 cumulative IPC: 0.642984 (Simulation time: 2 hr 25 min 18 sec) 
Heartbeat CPU 2 instructions: 430000000 cycles: 409950350 heartbeat IPC: 0.611754 cumulative IPC: 0.96973 (Simulation time: 2 hr 25 min 41 sec) 
Heartbeat CPU 1 instructions: 510000000 cycles: 411912399 heartbeat IPC: 0.519109 cumulative IPC: 1.17511 (Simulation time: 2 hr 26 min 7 sec) 
Heartbeat CPU 2 instructions: 440000000 cycles: 423365549 heartbeat IPC: 0.745423 cumulative IPC: 0.962262 (Simulation time: 2 hr 28 min 48 sec) 
Heartbeat CPU 0 instructions: 320000003 cycles: 423584291 heartbeat IPC: 0.652275 cumulative IPC: 0.643337 (Simulation time: 2 hr 28 min 52 sec) 
Heartbeat CPU 1 instructions: 520000002 cycles: 430561064 heartbeat IPC: 0.536232 cumulative IPC: 1.14606 (Simulation time: 2 hr 30 min 42 sec) 
Heartbeat CPU 2 instructions: 450000003 cycles: 435343879 heartbeat IPC: 0.834841 cumulative IPC: 0.958583 (Simulation time: 2 hr 32 min 11 sec) 
Heartbeat CPU 0 instructions: 330000000 cycles: 438058633 heartbeat IPC: 0.690877 cumulative IPC: 0.644985 (Simulation time: 2 hr 33 min 4 sec) 
Heartbeat CPU 1 instructions: 530000000 cycles: 439775097 heartbeat IPC: 1.0853 cumulative IPC: 1.14473 (Simulation time: 2 hr 33 min 39 sec) 
Heartbeat CPU 2 instructions: 460000003 cycles: 446325244 heartbeat IPC: 0.910634 cumulative IPC: 0.957346 (Simulation time: 2 hr 35 min 38 sec) 
Heartbeat CPU 1 instructions: 540000000 cycles: 448979305 heartbeat IPC: 1.08646 cumulative IPC: 1.14347 (Simulation time: 2 hr 36 min 29 sec) 
Heartbeat CPU 0 instructions: 340000002 cycles: 452286687 heartbeat IPC: 0.702837 cumulative IPC: 0.646891 (Simulation time: 2 hr 37 min 34 sec) 
Heartbeat CPU 2 instructions: 470000002 cycles: 456672869 heartbeat IPC: 0.966405 cumulative IPC: 0.957561 (Simulation time: 2 hr 39 min 4 sec) 
Heartbeat CPU 1 instructions: 550000000 cycles: 457845611 heartbeat IPC: 1.12787 cumulative IPC: 1.14316 (Simulation time: 2 hr 39 min 22 sec) 
Heartbeat CPU 2 instructions: 480000001 cycles: 466615915 heartbeat IPC: 1.00573 cumulative IPC: 0.958635 (Simulation time: 2 hr 41 min 50 sec) 
Heartbeat CPU 1 instructions: 560000003 cycles: 466625102 heartbeat IPC: 1.13902 cumulative IPC: 1.14308 (Simulation time: 2 hr 41 min 50 sec) 
Heartbeat CPU 0 instructions: 350000000 cycles: 467447721 heartbeat IPC: 0.659585 cumulative IPC: 0.647321 (Simulation time: 2 hr 42 min 8 sec) 
Heartbeat CPU 1 instructions: 570000000 cycles: 475355063 heartbeat IPC: 1.14548 cumulative IPC: 1.14312 (Simulation time: 2 hr 44 min 39 sec) 
Heartbeat CPU 2 instructions: 490000000 cycles: 476371153 heartbeat IPC: 1.02509 cumulative IPC: 0.960057 (Simulation time: 2 hr 44 min 59 sec) 
Heartbeat CPU 0 instructions: 360000002 cycles: 483294761 heartbeat IPC: 0.631033 cumulative IPC: 0.646764 (Simulation time: 2 hr 47 min 14 sec) 
Heartbeat CPU 1 instructions: 580000001 cycles: 484011782 heartbeat IPC: 1.15517 cumulative IPC: 1.14335 (Simulation time: 2 hr 47 min 27 sec) 
Heartbeat CPU 2 instructions: 500000001 cycles: 486058457 heartbeat IPC: 1.03228 cumulative IPC: 0.961559 (Simulation time: 2 hr 48 min 9 sec) 
Heartbeat CPU 1 instructions: 590000002 cycles: 492599264 heartbeat IPC: 1.16449 cumulative IPC: 1.14373 (Simulation time: 2 hr 50 min 19 sec) 
Heartbeat CPU 3 instructions: 100000002 cycles: 493830639 heartbeat IPC: 0.0936565 cumulative IPC: 0.102239 (Simulation time: 2 hr 50 min 43 sec) 
Heartbeat CPU 2 instructions: 510000002 cycles: 495384020 heartbeat IPC: 1.07232 cumulative IPC: 0.963734 (Simulation time: 2 hr 51 min 12 sec) 
Heartbeat CPU 0 instructions: 370000003 cycles: 499768294 heartbeat IPC: 0.607034 cumulative IPC: 0.645398 (Simulation time: 2 hr 52 min 36 sec) 
Heartbeat CPU 1 instructions: 600000000 cycles: 501154454 heartbeat IPC: 1.16888 cumulative IPC: 1.14418 (Simulation time: 2 hr 53 min 1 sec) 
Heartbeat CPU 2 instructions: 520000003 cycles: 504724626 heartbeat IPC: 1.07059 cumulative IPC: 0.965795 (Simulation time: 2 hr 54 min 5 sec) 
Heartbeat CPU 1 instructions: 610000001 cycles: 513307052 heartbeat IPC: 0.822869 cumulative IPC: 1.13626 (Simulation time: 2 hr 56 min 8 sec) 
Heartbeat CPU 2 instructions: 530000001 cycles: 516196182 heartbeat IPC: 0.871721 cumulative IPC: 0.963619 (Simulation time: 2 hr 56 min 52 sec) 
Heartbeat CPU 0 instructions: 380000002 cycles: 521004364 heartbeat IPC: 0.470897 cumulative IPC: 0.637995 (Simulation time: 2 hr 58 min 14 sec) 
Heartbeat CPU 1 instructions: 620000003 cycles: 521935302 heartbeat IPC: 1.15898 cumulative IPC: 1.13665 (Simulation time: 2 hr 58 min 29 sec) 
Heartbeat CPU 2 instructions: 540000002 cycles: 527531326 heartbeat IPC: 0.882212 cumulative IPC: 0.961799 (Simulation time: 2 hr 59 min 56 sec) 
Heartbeat CPU 1 instructions: 630000001 cycles: 534417196 heartbeat IPC: 0.80116 cumulative IPC: 1.1285 (Simulation time: 3 hr 1 min 35 sec) 
Heartbeat CPU 2 instructions: 550000000 cycles: 538282304 heartbeat IPC: 0.930148 cumulative IPC: 0.961142 (Simulation time: 3 hr 2 min 51 sec) 
Heartbeat CPU 1 instructions: 640000002 cycles: 542185025 heartbeat IPC: 1.28736 cumulative IPC: 1.13087 (Simulation time: 3 hr 4 min 17 sec) 
Heartbeat CPU 0 instructions: 390000002 cycles: 543451714 heartbeat IPC: 0.445487 cumulative IPC: 0.629732 (Simulation time: 3 hr 4 min 46 sec) 
Heartbeat CPU 2 instructions: 560000002 cycles: 546060208 heartbeat IPC: 1.28569 cumulative IPC: 0.965944 (Simulation time: 3 hr 5 min 43 sec) 
Heartbeat CPU 1 instructions: 650000000 cycles: 549860384 heartbeat IPC: 1.30287 cumulative IPC: 1.13336 (Simulation time: 3 hr 7 min 5 sec) 
Heartbeat CPU 2 instructions: 570000000 cycles: 553715740 heartbeat IPC: 1.30624 cumulative IPC: 0.97083 (Simulation time: 3 hr 8 min 29 sec) 
Heartbeat CPU 1 instructions: 660000000 cycles: 557430091 heartbeat IPC: 1.32106 cumulative IPC: 1.136 (Simulation time: 3 hr 9 min 51 sec) 
Heartbeat CPU 2 instructions: 580000000 cycles: 561065529 heartbeat IPC: 1.36058 cumulative IPC: 0.976129 (Simulation time: 3 hr 11 min 13 sec) 
Heartbeat CPU 1 instructions: 670000002 cycles: 564954497 heartbeat IPC: 1.32901 cumulative IPC: 1.13867 (Simulation time: 3 hr 12 min 38 sec) 
Heartbeat CPU 0 instructions: 400000000 cycles: 566363600 heartbeat IPC: 0.436455 cumulative IPC: 0.62162 (Simulation time: 3 hr 13 min 7 sec) 
Heartbeat CPU 2 instructions: 590000003 cycles: 568256886 heartbeat IPC: 1.39056 cumulative IPC: 0.981569 (Simulation time: 3 hr 13 min 46 sec) 
Heartbeat CPU 1 instructions: 680000001 cycles: 572448494 heartbeat IPC: 1.3344 cumulative IPC: 1.14133 (Simulation time: 3 hr 15 min 6 sec) 
Heartbeat CPU 2 instructions: 600000000 cycles: 575468452 heartbeat IPC: 1.38666 cumulative IPC: 0.986833 (Simulation time: 3 hr 16 min 2 sec) 
Heartbeat CPU 1 instructions: 690000001 cycles: 580029755 heartbeat IPC: 1.31904 cumulative IPC: 1.14374 (Simulation time: 3 hr 17 min 27 sec) 
Heartbeat CPU 3 instructions: 110000000 cycles: 580246758 heartbeat IPC: 0.115719 cumulative IPC: 0.10432 (Simulation time: 3 hr 17 min 30 sec) 
Heartbeat CPU 2 instructions: 610000000 cycles: 583049348 heartbeat IPC: 1.31911 cumulative IPC: 0.99131 (Simulation time: 3 hr 18 min 20 sec) 
Heartbeat CPU 1 instructions: 700000001 cycles: 587317646 heartbeat IPC: 1.37214 cumulative IPC: 1.14667 (Simulation time: 3 hr 19 min 43 sec) 
Heartbeat CPU 2 instructions: 620000000 cycles: 590597010 heartbeat IPC: 1.32491 cumulative IPC: 0.995727 (Simulation time: 3 hr 20 min 46 sec) 
Heartbeat CPU 0 instructions: 410000001 cycles: 591423186 heartbeat IPC: 0.399049 cumulative IPC: 0.611852 (Simulation time: 3 hr 21 min 2 sec) 
Heartbeat CPU 1 instructions: 710000001 cycles: 594581193 heartbeat IPC: 1.37674 cumulative IPC: 1.14958 (Simulation time: 3 hr 22 min 2 sec) 
Heartbeat CPU 2 instructions: 630000003 cycles: 598061898 heartbeat IPC: 1.33961 cumulative IPC: 1.00017 (Simulation time: 3 hr 23 min 10 sec) 
Heartbeat CPU 1 instructions: 720000000 cycles: 601817615 heartbeat IPC: 1.3819 cumulative IPC: 1.15248 (Simulation time: 3 hr 24 min 29 sec) 
Heartbeat CPU 2 instructions: 640000000 cycles: 605396382 heartbeat IPC: 1.36342 cumulative IPC: 1.00473 (Simulation time: 3 hr 25 min 44 sec) 
Heartbeat CPU 1 instructions: 730000001 cycles: 609013368 heartbeat IPC: 1.38971 cumulative IPC: 1.15538 (Simulation time: 3 hr 27 min 1 sec) 
Heartbeat CPU 2 instructions: 650000001 cycles: 613041665 heartbeat IPC: 1.308 cumulative IPC: 1.00864 (Simulation time: 3 hr 28 min 9 sec) 
Heartbeat CPU 0 instructions: 420000001 cycles: 618067877 heartbeat IPC: 0.375309 cumulative IPC: 0.601305 (Simulation time: 3 hr 29 min 50 sec) 
Heartbeat CPU 1 instructions: 740000001 cycles: 619175736 heartbeat IPC: 0.984023 cumulative IPC: 1.15247 (Simulation time: 3 hr 30 min 13 sec) 
Heartbeat CPU 2 instructions: 660000000 cycles: 620641997 heartbeat IPC: 1.31573 cumulative IPC: 1.01253 (Simulation time: 3 hr 30 min 43 sec) 
Heartbeat CPU 1 instructions: 750000001 cycles: 627620817 heartbeat IPC: 1.18412 cumulative IPC: 1.15291 (Simulation time: 3 hr 33 min 17 sec) 
Heartbeat CPU 2 instructions: 670000001 cycles: 628551200 heartbeat IPC: 1.26435 cumulative IPC: 1.0158 (Simulation time: 3 hr 33 min 35 sec) 
Heartbeat CPU 0 instructions: 430000001 cycles: 629534441 heartbeat IPC: 0.872101 cumulative IPC: 0.606403 (Simulation time: 3 hr 33 min 57 sec) 
Heartbeat CPU 1 instructions: 760000001 cycles: 636126135 heartbeat IPC: 1.17573 cumulative IPC: 1.15322 (Simulation time: 3 hr 36 min 31 sec) 
Heartbeat CPU 2 instructions: 680000001 cycles: 636479493 heartbeat IPC: 1.26131 cumulative IPC: 1.01896 (Simulation time: 3 hr 36 min 40 sec) 
Heartbeat CPU 0 instructions: 440000000 cycles: 641163978 heartbeat IPC: 0.859879 cumulative IPC: 0.611152 (Simulation time: 3 hr 38 min 21 sec) 
Heartbeat CPU 2 instructions: 690000000 cycles: 644441214 heartbeat IPC: 1.25601 cumulative IPC: 1.02199 (Simulation time: 3 hr 39 min 34 sec) 
Heartbeat CPU 1 instructions: 770000000 cycles: 644772821 heartbeat IPC: 1.15651 cumulative IPC: 1.15327 (Simulation time: 3 hr 39 min 39 sec) 
Heartbeat CPU 0 instructions: 450000002 cycles: 654868669 heartbeat IPC: 0.729677 cumulative IPC: 0.613713 (Simulation time: 3 hr 42 min 16 sec) 
Heartbeat CPU 1 instructions: 780000000 cycles: 654887618 heartbeat IPC: 0.988651 cumulative IPC: 1.15064 (Simulation time: 3 hr 42 min 16 sec) 
Heartbeat CPU 2 instructions: 700000000 cycles: 655251670 heartbeat IPC: 0.92503 cumulative IPC: 1.02034 (Simulation time: 3 hr 42 min 22 sec) 
Heartbeat CPU 3 instructions: 120000000 cycles: 659569886 heartbeat IPC: 0.126067 cumulative IPC: 0.107019 (Simulation time: 3 hr 43 min 44 sec) 
Heartbeat CPU 1 instructions: 790000002 cycles: 661725935 heartbeat IPC: 1.46235 cumulative IPC: 1.15397 (Simulation time: 3 hr 44 min 31 sec) 
Heartbeat CPU 2 instructions: 710000002 cycles: 663997709 heartbeat IPC: 1.14337 cumulative IPC: 1.02201 (Simulation time: 3 hr 45 min 15 sec) 
Heartbeat CPU 0 instructions: 460000000 cycles: 666765102 heartbeat IPC: 0.840588 cumulative IPC: 0.617889 (Simulation time: 3 hr 46 min 5 sec) 
Heartbeat CPU 1 instructions: 800000000 cycles: 668338372 heartbeat IPC: 1.5123 cumulative IPC: 1.15763 (Simulation time: 3 hr 46 min 32 sec) 
Heartbeat CPU 2 instructions: 720000000 cycles: 678094572 heartbeat IPC: 0.709378 cumulative IPC: 1.01531 (Simulation time: 3 hr 48 min 45 sec) 
Heartbeat CPU 0 instructions: 470000002 cycles: 679226480 heartbeat IPC: 0.80248 cumulative IPC: 0.621381 (Simulation time: 3 hr 49 min 0 sec) 
Heartbeat CPU 1 instructions: 810000000 cycles: 683436094 heartbeat IPC: 0.662352 cumulative IPC: 1.14635 (Simulation time: 3 hr 49 min 55 sec) 
Heartbeat CPU 0 instructions: 480000000 cycles: 692022236 heartbeat IPC: 0.781509 cumulative IPC: 0.624432 (Simulation time: 3 hr 52 min 1 sec) 
Heartbeat CPU 2 instructions: 730000003 cycles: 693658932 heartbeat IPC: 0.642494 cumulative IPC: 1.00669 (Simulation time: 3 hr 52 min 26 sec) 
Heartbeat CPU 1 instructions: 820000002 cycles: 695221389 heartbeat IPC: 0.848515 cumulative IPC: 1.14115 (Simulation time: 3 hr 52 min 48 sec) 
Heartbeat CPU 0 instructions: 490000002 cycles: 707052832 heartbeat IPC: 0.66531 cumulative IPC: 0.625327 (Simulation time: 3 hr 55 min 22 sec) 
Heartbeat CPU 1 instructions: 830000003 cycles: 710489557 heartbeat IPC: 0.654957 cumulative IPC: 1.13039 (Simulation time: 3 hr 56 min 3 sec) 
Heartbeat CPU 2 instructions: 740000000 cycles: 712075305 heartbeat IPC: 0.542995 cumulative IPC: 0.99434 (Simulation time: 3 hr 56 min 27 sec) 
Heartbeat CPU 1 instructions: 840000002 cycles: 719901703 heartbeat IPC: 1.06246 cumulative IPC: 1.12947 (Simulation time: 3 hr 58 min 37 sec) 
*** Reached end of trace for Core: 0 Repeating trace: ./traces/ligra/ligra_BFS.com-lj.ungraph.gcc_6.3.0_O3.drop_15750M.length_250M.champsimtrace.xz
Heartbeat CPU 0 instructions: 500000003 cycles: 721458897 heartbeat IPC: 0.694152 cumulative IPC: 0.626741 (Simulation time: 3 hr 59 min 2 sec) 
Heartbeat CPU 1 instructions: 850000003 cycles: 730075743 heartbeat IPC: 0.982894 cumulative IPC: 1.12737 (Simulation time: 4 hr 1 min 15 sec) 
Heartbeat CPU 2 instructions: 750000003 cycles: 730741544 heartbeat IPC: 0.535727 cumulative IPC: 0.982287 (Simulation time: 4 hr 1 min 25 sec) 
Heartbeat CPU 0 instructions: 510000001 cycles: 737777957 heartbeat IPC: 0.61278 cumulative IPC: 0.626423 (Simulation time: 4 hr 3 min 4 sec) 
Heartbeat CPU 1 instructions: 860000003 cycles: 740687870 heartbeat IPC: 0.942318 cumulative IPC: 1.12464 (Simulation time: 4 hr 3 min 48 sec) 
Heartbeat CPU 1 instructions: 870000003 cycles: 751339642 heartbeat IPC: 0.938811 cumulative IPC: 1.12194 (Simulation time: 4 hr 6 min 22 sec) 
Heartbeat CPU 2 instructions: 760000000 cycles: 752758146 heartbeat IPC: 0.454203 cumulative IPC: 0.96641 (Simulation time: 4 hr 6 min 44 sec) 
Heartbeat CPU 0 instructions: 520000003 cycles: 753358789 heartbeat IPC: 0.641814 cumulative IPC: 0.626751 (Simulation time: 4 hr 6 min 53 sec) 
Heartbeat CPU 1 instructions: 880000000 cycles: 760450945 heartbeat IPC: 1.09754 cumulative IPC: 1.12164 (Simulation time: 4 hr 8 min 49 sec) 
Heartbeat CPU 3 instructions: 130000000 cycles: 764370182 heartbeat IPC: 0.0954196 cumulative IPC: 0.105385 (Simulation time: 4 hr 9 min 54 sec) 
Heartbeat CPU 0 instructions: 530000002 cycles: 765858503 heartbeat IPC: 0.800018 cumulative IPC: 0.629656 (Simulation time: 4 hr 10 min 17 sec) 
Heartbeat CPU 1 instructions: 890000002 cycles: 769047390 heartbeat IPC: 1.16327 cumulative IPC: 1.12211 (Simulation time: 4 hr 11 min 10 sec) 
Heartbeat CPU 2 instructions: 770000000 cycles: 771539542 heartbeat IPC: 0.532442 cumulative IPC: 0.955559 (Simulation time: 4 hr 11 min 49 sec) 
Heartbeat CPU 1 instructions: 900000001 cycles: 777873782 heartbeat IPC: 1.13297 cumulative IPC: 1.12224 (Simulation time: 4 hr 13 min 31 sec) 
Heartbeat CPU 0 instructions: 540000002 cycles: 778543068 heartbeat IPC: 0.78836 cumulative IPC: 0.632312 (Simulation time: 4 hr 13 min 42 sec) 
Heartbeat CPU 1 instructions: 910000000 cycles: 786995958 heartbeat IPC: 1.09623 cumulative IPC: 1.12193 (Simulation time: 4 hr 16 min 2 sec) 
Heartbeat CPU 0 instructions: 550000000 cycles: 791200646 heartbeat IPC: 0.79004 cumulative IPC: 0.634902 (Simulation time: 4 hr 17 min 11 sec) 
Heartbeat CPU 2 instructions: 780000003 cycles: 793230759 heartbeat IPC: 0.461016 cumulative IPC: 0.941677 (Simulation time: 4 hr 17 min 43 sec) 
Heartbeat CPU 1 instructions: 920000001 cycles: 800445139 heartbeat IPC: 0.74354 cumulative IPC: 1.11541 (Simulation time: 4 hr 18 min 52 sec) 
Heartbeat CPU 0 instructions: 560000003 cycles: 806141788 heartbeat IPC: 0.669293 cumulative IPC: 0.635556 (Simulation time: 4 hr 20 min 10 sec) 
Heartbeat CPU 1 instructions: 930000001 cycles: 810447525 heartbeat IPC: 0.999761 cumulative IPC: 1.11394 (Simulation time: 4 hr 21 min 4 sec) 
Heartbeat CPU 2 instructions: 790000000 cycles: 821507669 heartbeat IPC: 0.353645 cumulative IPC: 0.92092 (Simulation time: 4 hr 23 min 4 sec) 
Heartbeat CPU 0 instructions: 570000001 cycles: 822391792 heartbeat IPC: 0.615384 cumulative IPC: 0.635147 (Simulation time: 4 hr 23 min 13 sec) 
Heartbeat CPU 1 instructions: 940000001 cycles: 824486248 heartbeat IPC: 0.712315 cumulative IPC: 1.10693 (Simulation time: 4 hr 23 min 35 sec) 
Heartbeat CPU 0 instructions: 580000002 cycles: 839809145 heartbeat IPC: 0.57414 cumulative IPC: 0.63385 (Simulation time: 4 hr 26 min 25 sec) 
Heartbeat CPU 1 instructions: 950000001 cycles: 840502156 heartbeat IPC: 0.624379 cumulative IPC: 1.09751 (Simulation time: 4 hr 26 min 33 sec) 
Heartbeat CPU 2 instructions: 800000002 cycles: 847083593 heartbeat IPC: 0.390993 cumulative IPC: 0.904524 (Simulation time: 4 hr 27 min 52 sec) 
Heartbeat CPU 1 instructions: 960000001 cycles: 856171819 heartbeat IPC: 0.638176 cumulative IPC: 1.08889 (Simulation time: 4 hr 29 min 32 sec) 
Heartbeat CPU 0 instructions: 590000003 cycles: 858207433 heartbeat IPC: 0.543529 cumulative IPC: 0.631867 (Simulation time: 4 hr 29 min 55 sec) 
Heartbeat CPU 2 instructions: 810000000 cycles: 871730121 heartbeat IPC: 0.405737 cumulative IPC: 0.890082 (Simulation time: 4 hr 32 min 26 sec) 
Heartbeat CPU 1 instructions: 970000003 cycles: 872209482 heartbeat IPC: 0.623532 cumulative IPC: 1.08013 (Simulation time: 4 hr 32 min 34 sec) 
Heartbeat CPU 0 instructions: 600000002 cycles: 877584751 heartbeat IPC: 0.516067 cumulative IPC: 0.629249 (Simulation time: 4 hr 33 min 52 sec) 
Heartbeat CPU 1 instructions: 980000003 cycles: 880914309 heartbeat IPC: 1.14879 cumulative IPC: 1.08083 (Simulation time: 4 hr 34 min 42 sec) 
Heartbeat CPU 3 instructions: 140000000 cycles: 882112070 heartbeat IPC: 0.0849315 cumulative IPC: 0.10259 (Simulation time: 4 hr 35 min 4 sec) 
Heartbeat CPU 2 instructions: 820000003 cycles: 883835179 heartbeat IPC: 0.826101 cumulative IPC: 0.889185 (Simulation time: 4 hr 35 min 34 sec) 
Heartbeat CPU 1 instructions: 990000000 cycles: 887704677 heartbeat IPC: 1.47267 cumulative IPC: 1.08389 (Simulation time: 4 hr 36 min 45 sec) 
Heartbeat CPU 2 instructions: 830000002 cycles: 893310970 heartbeat IPC: 1.05532 cumulative IPC: 0.890989 (Simulation time: 4 hr 38 min 26 sec) 
Heartbeat CPU 0 instructions: 610000000 cycles: 893706297 heartbeat IPC: 0.620288 cumulative IPC: 0.629083 (Simulation time: 4 hr 38 min 33 sec) 
Heartbeat CPU 1 instructions: 1000000000 cycles: 894443167 heartbeat IPC: 1.48401 cumulative IPC: 1.08698 (Simulation time: 4 hr 38 min 44 sec) 
Heartbeat CPU 1 instructions: 1010000002 cycles: 900963553 heartbeat IPC: 1.53365 cumulative IPC: 1.09029 (Simulation time: 4 hr 40 min 35 sec) 
Heartbeat CPU 2 instructions: 840000002 cycles: 902659306 heartbeat IPC: 1.06971 cumulative IPC: 0.892883 (Simulation time: 4 hr 41 min 3 sec) 
Heartbeat CPU 1 instructions: 1020000003 cycles: 907425051 heartbeat IPC: 1.54763 cumulative IPC: 1.09362 (Simulation time: 4 hr 42 min 31 sec) 
Heartbeat CPU 0 instructions: 620000001 cycles: 909906884 heartbeat IPC: 0.617262 cumulative IPC: 0.628868 (Simulation time: 4 hr 43 min 13 sec) 
Heartbeat CPU 2 instructions: 850000000 cycles: 911774413 heartbeat IPC: 1.09708 cumulative IPC: 0.894971 (Simulation time: 4 hr 43 min 44 sec) 
Heartbeat CPU 1 instructions: 1030000001 cycles: 914399473 heartbeat IPC: 1.43381 cumulative IPC: 1.09627 (Simulation time: 4 hr 44 min 32 sec) 
Heartbeat CPU 2 instructions: 860000000 cycles: 920875076 heartbeat IPC: 1.09882 cumulative IPC: 0.897031 (Simulation time: 4 hr 46 min 18 sec) 
Heartbeat CPU 1 instructions: 1040000002 cycles: 921894171 heartbeat IPC: 1.33428 cumulative IPC: 1.09825 (Simulation time: 4 hr 46 min 33 sec) 
Heartbeat CPU 0 instructions: 630000000 cycles: 928297546 heartbeat IPC: 0.543754 cumulative IPC: 0.627144 (Simulation time: 4 hr 48 min 12 sec) 
Heartbeat CPU 2 instructions: 870000002 cycles: 930483946 heartbeat IPC: 1.04071 cumulative IPC: 0.898548 (Simulation time: 4 hr 48 min 36 sec) 
Heartbeat CPU 1 instructions: 1050000001 cycles: 931543678 heartbeat IPC: 1.03632 cumulative IPC: 1.09759 (Simulation time: 4 hr 48 min 51 sec) 
Heartbeat CPU 2 instructions: 880000000 cycles: 941264080 heartbeat IPC: 0.927632 cumulative IPC: 0.898889 (Simulation time: 4 hr 50 min 59 sec) 
Heartbeat CPU 1 instructions: 1060000002 cycles: 944975114 heartbeat IPC: 0.744522 cumulative IPC: 1.09247 (Simulation time: 4 hr 51 min 54 sec) 
Heartbeat CPU 2 instructions: 890000000 cycles: 951317760 heartbeat IPC: 0.994661 cumulative IPC: 0.899923 (Simulation time: 4 hr 53 min 25 sec) 
Heartbeat CPU 0 instructions: 640000000 cycles: 951648748 heartbeat IPC: 0.428243 cumulative IPC: 0.622156 (Simulation time: 4 hr 53 min 30 sec) 
Heartbeat CPU 1 instructions: 1070000003 cycles: 953679516 heartbeat IPC: 1.14884 cumulative IPC: 1.09299 (Simulation time: 4 hr 54 min 4 sec) 
Heartbeat CPU 2 instructions: 900000000 cycles: 959598035 heartbeat IPC: 1.20769 cumulative IPC: 0.902637 (Simulation time: 4 hr 55 min 43 sec) 
Heartbeat CPU 1 instructions: 1080000002 cycles: 961359412 heartbeat IPC: 1.3021 cumulative IPC: 1.0947 (Simulation time: 4 hr 56 min 12 sec) 
Heartbeat CPU 2 instructions: 910000001 cycles: 967060488 heartbeat IPC: 1.34004 cumulative IPC: 0.906085 (Simulation time: 4 hr 57 min 55 sec) 
Heartbeat CPU 1 instructions: 1090000000 cycles: 968679050 heartbeat IPC: 1.36619 cumulative IPC: 1.09679 (Simulation time: 4 hr 58 min 25 sec) 
Heartbeat CPU 3 instructions: 150000003 cycles: 973239811 heartbeat IPC: 0.109736 cumulative IPC: 0.103273 (Simulation time: 4 hr 59 min 53 sec) 
Heartbeat CPU 2 instructions: 920000001 cycles: 974631804 heartbeat IPC: 1.32077 cumulative IPC: 0.909376 (Simulation time: 5 hr 0 min 19 sec) 
Heartbeat CPU 1 instructions: 1100000000 cycles: 974731864 heartbeat IPC: 1.65212 cumulative IPC: 1.10032 (Simulation time: 5 hr 0 min 21 sec) 
Heartbeat CPU 0 instructions: 650000001 cycles: 975170675 heartbeat IPC: 0.425135 cumulative IPC: 0.617302 (Simulation time: 5 hr 0 min 29 sec) 
Heartbeat CPU 1 instructions: 1110000003 cycles: 980773437 heartbeat IPC: 1.6552 cumulative IPC: 1.10381 (Simulation time: 5 hr 2 min 10 sec) 
Heartbeat CPU 2 instructions: 930000002 cycles: 982071578 heartbeat IPC: 1.34413 cumulative IPC: 0.912739 (Simulation time: 5 hr 2 min 34 sec) 
Heartbeat CPU 1 instructions: 1120000000 cycles: 987194657 heartbeat IPC: 1.55734 cumulative IPC: 1.10682 (Simulation time: 5 hr 4 min 6 sec) 
Heartbeat CPU 2 instructions: 940000000 cycles: 989641114 heartbeat IPC: 1.32108 cumulative IPC: 0.915928 (Simulation time: 5 hr 4 min 50 sec) 
Heartbeat CPU 1 instructions: 1130000001 cycles: 994275335 heartbeat IPC: 1.41229 cumulative IPC: 1.10904 (Simulation time: 5 hr 6 min 12 sec) 
Heartbeat CPU 2 instructions: 950000000 cycles: 997241360 heartbeat IPC: 1.31575 cumulative IPC: 0.919039 (Simulation time: 5 hr 7 min 3 sec) 
Heartbeat CPU 0 instructions: 660000000 cycles: 1001284274 heartbeat IPC: 0.382942 cumulative IPC: 0.611062 (Simulation time: 5 hr 8 min 4 sec) 
Heartbeat CPU 1 instructions: 1140000002 cycles: 1002928107 heartbeat IPC: 1.1557 cumulative IPC: 1.10945 (Simulation time: 5 hr 8 min 25 sec) 
Heartbeat CPU 2 instructions: 960000000 cycles: 1006378742 heartbeat IPC: 1.09441 cumulative IPC: 0.920665 (Simulation time: 5 hr 9 min 12 sec) 
Heartbeat CPU 1 instructions: 1150000001 cycles: 1015021324 heartbeat IPC: 0.82691 cumulative IPC: 1.10602 (Simulation time: 5 hr 11 min 12 sec) 
Heartbeat CPU 2 instructions: 970000001 cycles: 1015743762 heartbeat IPC: 1.0678 cumulative IPC: 0.922049 (Simulation time: 5 hr 11 min 23 sec) 
Heartbeat CPU 1 instructions: 1160000002 cycles: 1022565865 heartbeat IPC: 1.32546 cumulative IPC: 1.10767 (Simulation time: 5 hr 13 min 9 sec) 
Heartbeat CPU 2 instructions: 980000003 cycles: 1024563289 heartbeat IPC: 1.13385 cumulative IPC: 0.923909 (Simulation time: 5 hr 13 min 46 sec) 
Heartbeat CPU 1 instructions: 1170000003 cycles: 1028674709 heartbeat IPC: 1.63697 cumulative IPC: 1.11088 (Simulation time: 5 hr 15 min 3 sec) 
Heartbeat CPU 2 instructions: 990000000 cycles: 1031842609 heartbeat IPC: 1.37375 cumulative IPC: 0.927147 (Simulation time: 5 hr 16 min 7 sec) 
Heartbeat CPU 0 instructions: 670000002 cycles: 1031921566 heartbeat IPC: 0.3264 cumulative IPC: 0.60244 (Simulation time: 5 hr 16 min 9 sec) 
Heartbeat CPU 1 instructions: 1180000003 cycles: 1034718941 heartbeat IPC: 1.65447 cumulative IPC: 1.11411 (Simulation time: 5 hr 17 min 6 sec) 
Heartbeat CPU 2 instructions: 1000000002 cycles: 1039483849 heartbeat IPC: 1.30869 cumulative IPC: 0.930008 (Simulation time: 5 hr 18 min 43 sec) 
Heartbeat CPU 1 instructions: 1190000001 cycles: 1040939368 heartbeat IPC: 1.60761 cumulative IPC: 1.11712 (Simulation time: 5 hr 19 min 15 sec) 
Heartbeat CPU 0 instructions: 680000000 cycles: 1043445769 heartbeat IPC: 0.867739 cumulative IPC: 0.605428 (Simulation time: 5 hr 20 min 5 sec) 
Heartbeat CPU 1 instructions: 1200000002 cycles: 1047138931 heartbeat IPC: 1.61302 cumulative IPC: 1.12012 (Simulation time: 5 hr 21 min 21 sec) 
Heartbeat CPU 2 instructions: 1010000003 cycles: 1047514129 heartbeat IPC: 1.24529 cumulative IPC: 0.932473 (Simulation time: 5 hr 21 min 30 sec) 
Heartbeat CPU 3 instructions: 160000001 cycles: 1053374513 heartbeat IPC: 0.12479 cumulative IPC: 0.104943 (Simulation time: 5 hr 23 min 32 sec) 
Heartbeat CPU 1 instructions: 1210000000 cycles: 1053746076 heartbeat IPC: 1.51351 cumulative IPC: 1.12263 (Simulation time: 5 hr 23 min 40 sec) 
Heartbeat CPU 0 instructions: 690000002 cycles: 1055244759 heartbeat IPC: 0.84753 cumulative IPC: 0.608189 (Simulation time: 5 hr 24 min 10 sec) 
Heartbeat CPU 2 instructions: 1020000001 cycles: 1055559728 heartbeat IPC: 1.24292 cumulative IPC: 0.934886 (Simulation time: 5 hr 24 min 17 sec) 
Heartbeat CPU 1 instructions: 1220000002 cycles: 1061041816 heartbeat IPC: 1.37066 cumulative IPC: 1.12437 (Simulation time: 5 hr 26 min 6 sec) 
Heartbeat CPU 2 instructions: 1030000001 cycles: 1063709202 heartbeat IPC: 1.22707 cumulative IPC: 0.937169 (Simulation time: 5 hr 26 min 54 sec) 
Heartbeat CPU 0 instructions: 700000000 cycles: 1067313047 heartbeat IPC: 0.828618 cumulative IPC: 0.61073 (Simulation time: 5 hr 27 min 56 sec) 
Heartbeat CPU 1 instructions: 1230000000 cycles: 1069658959 heartbeat IPC: 1.16048 cumulative IPC: 1.12467 (Simulation time: 5 hr 28 min 34 sec) 
Heartbeat CPU 2 instructions: 1040000002 cycles: 1073488597 heartbeat IPC: 1.02256 cumulative IPC: 0.937962 (Simulation time: 5 hr 29 min 33 sec) 
Heartbeat CPU 0 instructions: 710000001 cycles: 1081182002 heartbeat IPC: 0.721035 cumulative IPC: 0.612172 (Simulation time: 5 hr 31 min 42 sec) 
Heartbeat CPU 1 instructions: 1240000003 cycles: 1083142940 heartbeat IPC: 0.741621 cumulative IPC: 1.11981 (Simulation time: 5 hr 32 min 16 sec) 
Heartbeat CPU 2 instructions: 1050000001 cycles: 1083757481 heartbeat IPC: 0.973816 cumulative IPC: 0.938308 (Simulation time: 5 hr 32 min 27 sec) 
Heartbeat CPU 1 instructions: 1250000002 cycles: 1092104169 heartbeat IPC: 1.11592 cumulative IPC: 1.11978 (Simulation time: 5 hr 34 min 55 sec) 
Heartbeat CPU 2 instructions: 1060000002 cycles: 1093528896 heartbeat IPC: 1.02339 cumulative IPC: 0.939083 (Simulation time: 5 hr 35 min 25 sec) 
Heartbeat CPU 0 instructions: 720000003 cycles: 1094470449 heartbeat IPC: 0.752534 cumulative IPC: 0.613909 (Simulation time: 5 hr 35 min 46 sec) 
Heartbeat CPU 1 instructions: 1260000002 cycles: 1099582424 heartbeat IPC: 1.33721 cumulative IPC: 1.12128 (Simulation time: 5 hr 37 min 34 sec) 
Heartbeat CPU 2 instructions: 1070000002 cycles: 1101474492 heartbeat IPC: 1.25856 cumulative IPC: 0.941431 (Simulation time: 5 hr 38 min 14 sec) 
Heartbeat CPU 0 instructions: 730000001 cycles: 1106035712 heartbeat IPC: 0.864658 cumulative IPC: 0.61658 (Simulation time: 5 hr 39 min 47 sec) 
Heartbeat CPU 1 instructions: 1270000003 cycles: 1107002096 heartbeat IPC: 1.34777 cumulative IPC: 1.12283 (Simulation time: 5 hr 40 min 6 sec) 
Heartbeat CPU 2 instructions: 1080000001 cycles: 1109387852 heartbeat IPC: 1.26369 cumulative IPC: 0.943773 (Simulation time: 5 hr 40 min 55 sec) 
Heartbeat CPU 1 instructions: 1280000000 cycles: 1113286155 heartbeat IPC: 1.59133 cumulative IPC: 1.12552 (Simulation time: 5 hr 42 min 17 sec) 
Heartbeat CPU 2 instructions: 1090000001 cycles: 1117449376 heartbeat IPC: 1.24046 cumulative IPC: 0.945953 (Simulation time: 5 hr 43 min 39 sec) 
Heartbeat CPU 0 instructions: 740000002 cycles: 1117831312 heartbeat IPC: 0.847774 cumulative IPC: 0.619066 (Simulation time: 5 hr 43 min 45 sec) 
Heartbeat CPU 1 instructions: 1290000001 cycles: 1119441697 heartbeat IPC: 1.62455 cumulative IPC: 1.12832 (Simulation time: 5 hr 44 min 18 sec) 
Heartbeat CPU 2 instructions: 1100000000 cycles: 1125548646 heartbeat IPC: 1.23468 cumulative IPC: 0.948069 (Simulation time: 5 hr 46 min 17 sec) 
Heartbeat CPU 1 instructions: 1300000000 cycles: 1125937588 heartbeat IPC: 1.53943 cumulative IPC: 1.13073 (Simulation time: 5 hr 46 min 23 sec) 
*** Reached end of trace for Core: 0 Repeating trace: ./traces/ligra/ligra_BFS.com-lj.ungraph.gcc_6.3.0_O3.drop_15750M.length_250M.champsimtrace.xz
Heartbeat CPU 0 instructions: 750000002 cycles: 1129679130 heartbeat IPC: 0.844037 cumulative IPC: 0.621468 (Simulation time: 5 hr 47 min 40 sec) 
Heartbeat CPU 1 instructions: 1310000001 cycles: 1133527296 heartbeat IPC: 1.31757 cumulative IPC: 1.13201 (Simulation time: 5 hr 48 min 48 sec) 
Heartbeat CPU 2 instructions: 1110000000 cycles: 1134956121 heartbeat IPC: 1.06298 cumulative IPC: 0.949039 (Simulation time: 5 hr 49 min 13 sec) 
Heartbeat CPU 3 instructions: 170000003 cycles: 1138974432 heartbeat IPC: 0.116823 cumulative IPC: 0.105852 (Simulation time: 5 hr 50 min 20 sec) 
Heartbeat CPU 1 instructions: 1320000000 cycles: 1143194713 heartbeat IPC: 1.0344 cumulative IPC: 1.13117 (Simulation time: 5 hr 51 min 16 sec) 
Heartbeat CPU 0 instructions: 760000001 cycles: 1143832575 heartbeat IPC: 0.706542 cumulative IPC: 0.62254 (Simulation time: 5 hr 51 min 22 sec) 
Heartbeat CPU 2 instructions: 1120000003 cycles: 1148691597 heartbeat IPC: 0.728042 cumulative IPC: 0.946349 (Simulation time: 5 hr 52 min 20 sec) 
Heartbeat CPU 0 instructions: 770000000 cycles: 1159114531 heartbeat IPC: 0.654366 cumulative IPC: 0.622967 (Simulation time: 5 hr 54 min 31 sec) 
Heartbeat CPU 1 instructions: 1330000002 cycles: 1162026683 heartbeat IPC: 0.531012 cumulative IPC: 1.12127 (Simulation time: 5 hr 55 min 11 sec) 
Heartbeat CPU 2 instructions: 1130000002 cycles: 1162754088 heartbeat IPC: 0.711111 cumulative IPC: 0.943453 (Simulation time: 5 hr 55 min 22 sec) 
Heartbeat CPU 1 instructions: 1340000002 cycles: 1171941010 heartbeat IPC: 1.00864 cumulative IPC: 1.1203 (Simulation time: 5 hr 57 min 32 sec) 
Heartbeat CPU 0 instructions: 780000003 cycles: 1174735441 heartbeat IPC: 0.640168 cumulative IPC: 0.6232 (Simulation time: 5 hr 58 min 17 sec) 
Heartbeat CPU 2 instructions: 1140000000 cycles: 1175858618 heartbeat IPC: 0.763095 cumulative IPC: 0.941407 (Simulation time: 5 hr 58 min 32 sec) 
Heartbeat CPU 1 instructions: 1350000002 cycles: 1179017877 heartbeat IPC: 1.41305 cumulative IPC: 1.12209 (Simulation time: 5 hr 59 min 27 sec) 
Heartbeat CPU 1 instructions: 1360000003 cycles: 1186297263 heartbeat IPC: 1.37374 cumulative IPC: 1.12366 (Simulation time: 6 hr 1 min 28 sec) 
Heartbeat CPU 2 instructions: 1150000001 cycles: 1186697016 heartbeat IPC: 0.922646 cumulative IPC: 0.941233 (Simulation time: 6 hr 1 min 34 sec) 
Heartbeat CPU 0 instructions: 790000002 cycles: 1188412990 heartbeat IPC: 0.731125 cumulative IPC: 0.624464 (Simulation time: 6 hr 2 min 2 sec) 
Heartbeat CPU 1 instructions: 1370000000 cycles: 1193435764 heartbeat IPC: 1.40085 cumulative IPC: 1.12534 (Simulation time: 6 hr 3 min 27 sec) 
Heartbeat CPU 2 instructions: 1160000002 cycles: 1198134003 heartbeat IPC: 0.874356 cumulative IPC: 0.940583 (Simulation time: 6 hr 4 min 42 sec) 
Heartbeat CPU 1 instructions: 1380000001 cycles: 1200501835 heartbeat IPC: 1.41521 cumulative IPC: 1.12708 (Simulation time: 6 hr 5 min 22 sec) 
Heartbeat CPU 0 instructions: 800000003 cycles: 1201631736 heartbeat IPC: 0.756501 cumulative IPC: 0.625942 (Simulation time: 6 hr 5 min 43 sec) 
Heartbeat CPU 1 instructions: 1390000001 cycles: 1207813283 heartbeat IPC: 1.36772 cumulative IPC: 1.12856 (Simulation time: 6 hr 7 min 29 sec) 
Heartbeat CPU 2 instructions: 1170000002 cycles: 1211188790 heartbeat IPC: 0.766003 cumulative IPC: 0.938669 (Simulation time: 6 hr 8 min 14 sec) 
Heartbeat CPU 0 instructions: 810000000 cycles: 1214362473 heartbeat IPC: 0.7855 cumulative IPC: 0.627643 (Simulation time: 6 hr 8 min 54 sec) 
Heartbeat CPU 1 instructions: 1400000003 cycles: 1215708783 heartbeat IPC: 1.26654 cumulative IPC: 1.12947 (Simulation time: 6 hr 9 min 12 sec) 
Heartbeat CPU 1 instructions: 1410000000 cycles: 1224347639 heartbeat IPC: 1.15756 cumulative IPC: 1.12967 (Simulation time: 6 hr 11 min 1 sec) 
Heartbeat CPU 0 instructions: 820000000 cycles: 1228333478 heartbeat IPC: 0.715768 cumulative IPC: 0.628662 (Simulation time: 6 hr 11 min 42 sec) 
Heartbeat CPU 2 instructions: 1180000001 cycles: 1235711475 heartbeat IPC: 0.407786 cumulative IPC: 0.927957 (Simulation time: 6 hr 12 min 59 sec) 
Heartbeat CPU 1 instructions: 1420000002 cycles: 1240510726 heartbeat IPC: 0.618694 cumulative IPC: 1.1229 (Simulation time: 6 hr 13 min 46 sec) 
Heartbeat CPU 0 instructions: 830000002 cycles: 1243141262 heartbeat IPC: 0.675321 cumulative IPC: 0.629228 (Simulation time: 6 hr 14 min 13 sec) 
Heartbeat CPU 1 instructions: 1430000000 cycles: 1250979904 heartbeat IPC: 0.955185 cumulative IPC: 1.12148 (Simulation time: 6 hr 15 min 49 sec) 
Heartbeat CPU 3 instructions: 180000000 cycles: 1252348265 heartbeat IPC: 0.0882038 cumulative IPC: 0.104228 (Simulation time: 6 hr 16 min 4 sec) 
Heartbeat CPU 0 instructions: 840000000 cycles: 1258764287 heartbeat IPC: 0.640081 cumulative IPC: 0.629364 (Simulation time: 6 hr 17 min 23 sec) 
Heartbeat CPU 2 instructions: 1190000002 cycles: 1259309629 heartbeat IPC: 0.423762 cumulative IPC: 0.918352 (Simulation time: 6 hr 17 min 31 sec) 
Heartbeat CPU 1 instructions: 1440000002 cycles: 1260559250 heartbeat IPC: 1.04391 cumulative IPC: 1.12088 (Simulation time: 6 hr 17 min 44 sec) 
Heartbeat CPU 1 instructions: 1450000000 cycles: 1269783471 heartbeat IPC: 1.0841 cumulative IPC: 1.12061 (Simulation time: 6 hr 19 min 38 sec) 
Heartbeat CPU 0 instructions: 850000000 cycles: 1274795494 heartbeat IPC: 0.623783 cumulative IPC: 0.629293 (Simulation time: 6 hr 20 min 40 sec) 
Heartbeat CPU 1 instructions: 1460000003 cycles: 1277191730 heartbeat IPC: 1.34985 cumulative IPC: 1.12196 (Simulation time: 6 hr 21 min 11 sec) 
Heartbeat CPU 2 instructions: 1200000001 cycles: 1279019822 heartbeat IPC: 0.507352 cumulative IPC: 0.911916 (Simulation time: 6 hr 21 min 34 sec) 
Heartbeat CPU 1 instructions: 1470000001 cycles: 1284311271 heartbeat IPC: 1.40458 cumulative IPC: 1.12355 (Simulation time: 6 hr 22 min 57 sec) 
Heartbeat CPU 2 instructions: 1210000000 cycles: 1289596983 heartbeat IPC: 0.945433 cumulative IPC: 0.912195 (Simulation time: 6 hr 24 min 29 sec) 
Heartbeat CPU 1 instructions: 1480000002 cycles: 1291124468 heartbeat IPC: 1.46774 cumulative IPC: 1.1254 (Simulation time: 6 hr 24 min 55 sec) 
Heartbeat CPU 0 instructions: 860000002 cycles: 1291669296 heartbeat IPC: 0.592635 cumulative IPC: 0.628807 (Simulation time: 6 hr 25 min 3 sec) 
Heartbeat CPU 1 instructions: 1490000001 cycles: 1298791886 heartbeat IPC: 1.30422 cumulative IPC: 1.12647 (Simulation time: 6 hr 27 min 4 sec) 
Heartbeat CPU 2 instructions: 1220000003 cycles: 1299168379 heartbeat IPC: 1.04478 cumulative IPC: 0.913188 (Simulation time: 6 hr 27 min 10 sec) 
Heartbeat CPU 1 instructions: 1500000003 cycles: 1306658344 heartbeat IPC: 1.27122 cumulative IPC: 1.12735 (Simulation time: 6 hr 29 min 3 sec) 
Heartbeat CPU 0 instructions: 870000001 cycles: 1308714337 heartbeat IPC: 0.586681 cumulative IPC: 0.628249 (Simulation time: 6 hr 29 min 27 sec) 
Heartbeat CPU 2 instructions: 1230000001 cycles: 1309500084 heartbeat IPC: 0.967894 cumulative IPC: 0.913626 (Simulation time: 6 hr 29 min 36 sec) 
Heartbeat CPU 2 instructions: 1240000002 cycles: 1320710761 heartbeat IPC: 0.892007 cumulative IPC: 0.91344 (Simulation time: 6 hr 32 min 3 sec) 
Heartbeat CPU 1 instructions: 1510000003 cycles: 1322013803 heartbeat IPC: 0.651234 cumulative IPC: 1.12174 (Simulation time: 6 hr 32 min 21 sec) 
Heartbeat CPU 0 instructions: 880000000 cycles: 1329358439 heartbeat IPC: 0.4844 cumulative IPC: 0.62598 (Simulation time: 6 hr 34 min 13 sec) 
Heartbeat CPU 2 instructions: 1250000001 cycles: 1330063784 heartbeat IPC: 1.06917 cumulative IPC: 0.914552 (Simulation time: 6 hr 34 min 26 sec) 
Heartbeat CPU 1 instructions: 1520000000 cycles: 1335810250 heartbeat IPC: 0.724824 cumulative IPC: 1.11757 (Simulation time: 6 hr 35 min 58 sec) 
Heartbeat CPU 2 instructions: 1260000000 cycles: 1337582867 heartbeat IPC: 1.32995 cumulative IPC: 0.916923 (Simulation time: 6 hr 36 min 26 sec) 
Heartbeat CPU 3 instructions: 190000000 cycles: 1344626259 heartbeat IPC: 0.108368 cumulative IPC: 0.104516 (Simulation time: 6 hr 38 min 19 sec) 
Heartbeat CPU 2 instructions: 1270000000 cycles: 1344704014 heartbeat IPC: 1.40427 cumulative IPC: 0.919544 (Simulation time: 6 hr 38 min 21 sec) 
Heartbeat CPU 0 instructions: 890000000 cycles: 1347174857 heartbeat IPC: 0.56128 cumulative IPC: 0.625112 (Simulation time: 6 hr 39 min 4 sec) 
Heartbeat CPU 1 instructions: 1530000000 cycles: 1351673446 heartbeat IPC: 0.63039 cumulative IPC: 1.11177 (Simulation time: 6 hr 40 min 13 sec) 
Heartbeat CPU 2 instructions: 1280000002 cycles: 1351881007 heartbeat IPC: 1.39334 cumulative IPC: 0.922098 (Simulation time: 6 hr 40 min 16 sec) 
Heartbeat CPU 2 instructions: 1290000003 cycles: 1358803520 heartbeat IPC: 1.44456 cumulative IPC: 0.9248 (Simulation time: 6 hr 42 min 10 sec) 
Heartbeat CPU 2 instructions: 1300000001 cycles: 1365566238 heartbeat IPC: 1.4787 cumulative IPC: 0.927585 (Simulation time: 6 hr 43 min 58 sec) 
Heartbeat CPU 1 instructions: 1540000000 cycles: 1367511066 heartbeat IPC: 0.631408 cumulative IPC: 1.10612 (Simulation time: 6 hr 44 min 27 sec) 
Heartbeat CPU 0 instructions: 900000001 cycles: 1368483053 heartbeat IPC: 0.469303 cumulative IPC: 0.622649 (Simulation time: 6 hr 44 min 41 sec) 
Heartbeat CPU 2 instructions: 1310000000 cycles: 1372290101 heartbeat IPC: 1.48724 cumulative IPC: 0.930369 (Simulation time: 6 hr 45 min 37 sec) 
Heartbeat CPU 2 instructions: 1320000000 cycles: 1378872228 heartbeat IPC: 1.51927 cumulative IPC: 0.933222 (Simulation time: 6 hr 47 min 17 sec) 
Heartbeat CPU 1 instructions: 1550000000 cycles: 1383374048 heartbeat IPC: 0.630399 cumulative IPC: 1.10058 (Simulation time: 6 hr 48 min 27 sec) 
Heartbeat CPU 2 instructions: 1330000001 cycles: 1385630647 heartbeat IPC: 1.47964 cumulative IPC: 0.935927 (Simulation time: 6 hr 49 min 4 sec) 
Heartbeat CPU 0 instructions: 910000000 cycles: 1391025270 heartbeat IPC: 0.443612 cumulative IPC: 0.619704 (Simulation time: 6 hr 50 min 32 sec) 
Heartbeat CPU 2 instructions: 1340000001 cycles: 1392226411 heartbeat IPC: 1.51612 cumulative IPC: 0.938717 (Simulation time: 6 hr 50 min 51 sec) 
Heartbeat CPU 2 instructions: 1350000003 cycles: 1398888219 heartbeat IPC: 1.50109 cumulative IPC: 0.941435 (Simulation time: 6 hr 52 min 25 sec) 
Heartbeat CPU 1 instructions: 1560000003 cycles: 1399214108 heartbeat IPC: 0.631311 cumulative IPC: 1.09519 (Simulation time: 6 hr 52 min 30 sec) 
Heartbeat CPU 2 instructions: 1360000000 cycles: 1405386728 heartbeat IPC: 1.53881 cumulative IPC: 0.944238 (Simulation time: 6 hr 54 min 4 sec) 
Heartbeat CPU 2 instructions: 1370000000 cycles: 1412027320 heartbeat IPC: 1.50589 cumulative IPC: 0.946918 (Simulation time: 6 hr 55 min 50 sec) 
Heartbeat CPU 3 instructions: 200000000 cycles: 1412528946 heartbeat IPC: 0.14727 cumulative IPC: 0.106602 (Simulation time: 6 hr 55 min 58 sec) 
Heartbeat CPU 0 instructions: 920000000 cycles: 1413877131 heartbeat IPC: 0.437601 cumulative IPC: 0.616718 (Simulation time: 6 hr 56 min 21 sec) 
Heartbeat CPU 1 instructions: 1570000003 cycles: 1415045884 heartbeat IPC: 0.631641 cumulative IPC: 1.08993 (Simulation time: 6 hr 56 min 45 sec) 
Heartbeat CPU 2 instructions: 1380000003 cycles: 1418629755 heartbeat IPC: 1.51459 cumulative IPC: 0.949599 (Simulation time: 6 hr 57 min 47 sec) 
Heartbeat CPU 0 instructions: 930000001 cycles: 1424448068 heartbeat IPC: 0.94599 cumulative IPC: 0.619197 (Simulation time: 6 hr 59 min 24 sec) 
Heartbeat CPU 2 instructions: 1390000000 cycles: 1425747543 heartbeat IPC: 1.40493 cumulative IPC: 0.951905 (Simulation time: 6 hr 59 min 50 sec) 
Heartbeat CPU 1 instructions: 1580000000 cycles: 1430927425 heartbeat IPC: 0.629662 cumulative IPC: 1.08475 (Simulation time: 7 hr 1 min 18 sec) 
Heartbeat CPU 2 instructions: 1400000002 cycles: 1432825635 heartbeat IPC: 1.41281 cumulative IPC: 0.954215 (Simulation time: 7 hr 1 min 54 sec) 
Heartbeat CPU 0 instructions: 940000003 cycles: 1435211504 heartbeat IPC: 0.929072 cumulative IPC: 0.621554 (Simulation time: 7 hr 2 min 38 sec) 
Heartbeat CPU 2 instructions: 1410000003 cycles: 1439906736 heartbeat IPC: 1.41221 cumulative IPC: 0.9565 (Simulation time: 7 hr 3 min 59 sec) 
Heartbeat CPU 0 instructions: 950000001 cycles: 1446010678 heartbeat IPC: 0.925997 cumulative IPC: 0.62386 (Simulation time: 7 hr 5 min 43 sec) 
Heartbeat CPU 1 instructions: 1590000002 cycles: 1446781073 heartbeat IPC: 0.63077 cumulative IPC: 1.0797 (Simulation time: 7 hr 5 min 57 sec) 
Heartbeat CPU 2 instructions: 1420000001 cycles: 1446947432 heartbeat IPC: 1.42031 cumulative IPC: 0.958789 (Simulation time: 7 hr 5 min 59 sec) 
Heartbeat CPU 2 instructions: 1430000000 cycles: 1453984164 heartbeat IPC: 1.42111 cumulative IPC: 0.961058 (Simulation time: 7 hr 8 min 4 sec) 
Heartbeat CPU 0 instructions: 960000003 cycles: 1456719732 heartbeat IPC: 0.933789 cumulative IPC: 0.626171 (Simulation time: 7 hr 8 min 51 sec) 
Heartbeat CPU 2 instructions: 1440000002 cycles: 1461021278 heartbeat IPC: 1.42104 cumulative IPC: 0.963305 (Simulation time: 7 hr 10 min 13 sec) 
Heartbeat CPU 1 instructions: 1600000001 cycles: 1462619733 heartbeat IPC: 0.631366 cumulative IPC: 1.07478 (Simulation time: 7 hr 10 min 44 sec) 
Heartbeat CPU 0 instructions: 970000001 cycles: 1467559733 heartbeat IPC: 0.922509 cumulative IPC: 0.628391 (Simulation time: 7 hr 12 min 22 sec) 
Heartbeat CPU 2 instructions: 1450000000 cycles: 1468131261 heartbeat IPC: 1.40647 cumulative IPC: 0.965482 (Simulation time: 7 hr 12 min 33 sec) 
Heartbeat CPU 2 instructions: 1460000002 cycles: 1475314297 heartbeat IPC: 1.39217 cumulative IPC: 0.967589 (Simulation time: 7 hr 14 min 35 sec) 
Heartbeat CPU 0 instructions: 980000003 cycles: 1478398250 heartbeat IPC: 0.922636 cumulative IPC: 0.630579 (Simulation time: 7 hr 15 min 31 sec) 
Heartbeat CPU 1 instructions: 1610000003 cycles: 1478508091 heartbeat IPC: 0.629392 cumulative IPC: 1.06992 (Simulation time: 7 hr 15 min 33 sec) 
Heartbeat CPU 3 instructions: 210000000 cycles: 1481696789 heartbeat IPC: 0.144576 cumulative IPC: 0.108399 (Simulation time: 7 hr 16 min 33 sec) 
Heartbeat CPU 2 instructions: 1470000003 cycles: 1482470035 heartbeat IPC: 1.39748 cumulative IPC: 0.969693 (Simulation time: 7 hr 16 min 48 sec) 
Heartbeat CPU 0 instructions: 990000000 cycles: 1489218108 heartbeat IPC: 0.924226 cumulative IPC: 0.632742 (Simulation time: 7 hr 18 min 55 sec) 
Heartbeat CPU 2 instructions: 1480000001 cycles: 1489496086 heartbeat IPC: 1.42327 cumulative IPC: 0.971862 (Simulation time: 7 hr 18 min 58 sec) 
Heartbeat CPU 1 instructions: 1620000001 cycles: 1494349748 heartbeat IPC: 0.631247 cumulative IPC: 1.06521 (Simulation time: 7 hr 20 min 28 sec) 
Heartbeat CPU 2 instructions: 1490000001 cycles: 1496546564 heartbeat IPC: 1.41834 cumulative IPC: 0.973995 (Simulation time: 7 hr 21 min 9 sec) 
*** Reached end of trace for Core: 0 Repeating trace: ./traces/ligra/ligra_BFS.com-lj.ungraph.gcc_6.3.0_O3.drop_15750M.length_250M.champsimtrace.xz
Heartbeat CPU 0 instructions: 1000000000 cycles: 1499994590 heartbeat IPC: 0.927947 cumulative IPC: 0.634892 (Simulation time: 7 hr 22 min 8 sec) 
Heartbeat CPU 2 instructions: 1500000002 cycles: 1504558888 heartbeat IPC: 1.24808 cumulative IPC: 0.975474 (Simulation time: 7 hr 23 min 22 sec) 
Heartbeat CPU 1 instructions: 1630000000 cycles: 1510230035 heartbeat IPC: 0.629711 cumulative IPC: 1.06057 (Simulation time: 7 hr 24 min 48 sec) 
Heartbeat CPU 0 instructions: 1010000003 cycles: 1511979319 heartbeat IPC: 0.834395 cumulative IPC: 0.636495 (Simulation time: 7 hr 25 min 14 sec) 
Heartbeat CPU 2 instructions: 1510000003 cycles: 1514845771 heartbeat IPC: 0.972112 cumulative IPC: 0.975451 (Simulation time: 7 hr 25 min 57 sec) 
Heartbeat CPU 0 instructions: 1020000001 cycles: 1524119251 heartbeat IPC: 0.823728 cumulative IPC: 0.638007 (Simulation time: 7 hr 28 min 11 sec) 
Heartbeat CPU 2 instructions: 1520000001 cycles: 1525223471 heartbeat IPC: 0.963604 cumulative IPC: 0.97537 (Simulation time: 7 hr 28 min 27 sec) 
Heartbeat CPU 1 instructions: 1640000000 cycles: 1526161262 heartbeat IPC: 0.627698 cumulative IPC: 1.05599 (Simulation time: 7 hr 28 min 39 sec) 
Heartbeat CPU 2 instructions: 1530000000 cycles: 1535390833 heartbeat IPC: 0.983539 cumulative IPC: 0.975424 (Simulation time: 7 hr 30 min 58 sec) 
Heartbeat CPU 0 instructions: 1030000000 cycles: 1536675607 heartbeat IPC: 0.796409 cumulative IPC: 0.639319 (Simulation time: 7 hr 31 min 17 sec) 
Heartbeat CPU 1 instructions: 1650000000 cycles: 1542043642 heartbeat IPC: 0.629629 cumulative IPC: 1.05154 (Simulation time: 7 hr 32 min 41 sec) 
Heartbeat CPU 2 instructions: 1540000000 cycles: 1544663559 heartbeat IPC: 1.07843 cumulative IPC: 0.976051 (Simulation time: 7 hr 33 min 20 sec) 
Heartbeat CPU 0 instructions: 1040000002 cycles: 1549185346 heartbeat IPC: 0.799377 cumulative IPC: 0.640628 (Simulation time: 7 hr 34 min 26 sec) 
Heartbeat CPU 2 instructions: 1550000000 cycles: 1554468986 heartbeat IPC: 1.01984 cumulative IPC: 0.976331 (Simulation time: 7 hr 35 min 47 sec) 
Heartbeat CPU 1 instructions: 1660000000 cycles: 1557943549 heartbeat IPC: 0.628935 cumulative IPC: 1.04717 (Simulation time: 7 hr 36 min 37 sec) 
Heartbeat CPU 0 instructions: 1050000001 cycles: 1561346042 heartbeat IPC: 0.822321 cumulative IPC: 0.642062 (Simulation time: 7 hr 37 min 32 sec) 
Heartbeat CPU 2 instructions: 1560000002 cycles: 1564643222 heartbeat IPC: 0.982875 cumulative IPC: 0.976374 (Simulation time: 7 hr 38 min 20 sec) 
Heartbeat CPU 3 instructions: 220000000 cycles: 1569224485 heartbeat IPC: 0.11425 cumulative IPC: 0.10873 (Simulation time: 7 hr 39 min 20 sec) 
Heartbeat CPU 0 instructions: 1060000001 cycles: 1572814381 heartbeat IPC: 0.871966 cumulative IPC: 0.643761 (Simulation time: 7 hr 40 min 2 sec) 
Heartbeat CPU 1 instructions: 1670000002 cycles: 1573850841 heartbeat IPC: 0.628643 cumulative IPC: 1.04288 (Simulation time: 7 hr 40 min 14 sec) 
Heartbeat CPU 2 instructions: 1570000003 cycles: 1579206147 heartbeat IPC: 0.686675 cumulative IPC: 0.973668 (Simulation time: 7 hr 41 min 15 sec) 
Heartbeat CPU 0 instructions: 1070000002 cycles: 1584528491 heartbeat IPC: 0.853671 cumulative IPC: 0.645333 (Simulation time: 7 hr 42 min 21 sec) 
Heartbeat CPU 1 instructions: 1680000002 cycles: 1589733007 heartbeat IPC: 0.629637 cumulative IPC: 1.0387 (Simulation time: 7 hr 43 min 27 sec) 
Heartbeat CPU 2 instructions: 1580000003 cycles: 1593406286 heartbeat IPC: 0.704218 cumulative IPC: 0.971235 (Simulation time: 7 hr 44 min 16 sec) 
Heartbeat CPU 0 instructions: 1080000000 cycles: 1598665512 heartbeat IPC: 0.707362 cumulative IPC: 0.645888 (Simulation time: 7 hr 45 min 8 sec) 
Heartbeat CPU 1 instructions: 1690000000 cycles: 1610254738 heartbeat IPC: 0.487288 cumulative IPC: 1.03158 (Simulation time: 7 hr 47 min 12 sec) 
Heartbeat CPU 2 instructions: 1590000000 cycles: 1617364758 heartbeat IPC: 0.417389 cumulative IPC: 0.962926 (Simulation time: 7 hr 48 min 29 sec) 
Heartbeat CPU 0 instructions: 1090000000 cycles: 1617911072 heartbeat IPC: 0.5196 cumulative IPC: 0.644367 (Simulation time: 7 hr 48 min 34 sec) 
Heartbeat CPU 1 instructions: 1700000000 cycles: 1626452262 heartbeat IPC: 0.617378 cumulative IPC: 1.0274 (Simulation time: 7 hr 50 min 11 sec) 
Heartbeat CPU 1 instructions: 1710000000 cycles: 1634466637 heartbeat IPC: 1.24776 cumulative IPC: 1.0285 (Simulation time: 7 hr 51 min 53 sec) 
Heartbeat CPU 0 instructions: 1100000000 cycles: 1637420116 heartbeat IPC: 0.512583 cumulative IPC: 0.642777 (Simulation time: 7 hr 52 min 33 sec) 
Heartbeat CPU 2 instructions: 1600000003 cycles: 1638294357 heartbeat IPC: 0.477792 cumulative IPC: 0.95665 (Simulation time: 7 hr 52 min 46 sec) 
Heartbeat CPU 1 instructions: 1720000002 cycles: 1642518695 heartbeat IPC: 1.24192 cumulative IPC: 1.02956 (Simulation time: 7 hr 53 min 34 sec) 
Heartbeat CPU 0 instructions: 1110000000 cycles: 1656336460 heartbeat IPC: 0.528643 cumulative IPC: 0.641457 (Simulation time: 7 hr 56 min 18 sec) 
Heartbeat CPU 1 instructions: 1730000001 cycles: 1657115950 heartbeat IPC: 0.68506 cumulative IPC: 1.02648 (Simulation time: 7 hr 56 min 28 sec) 
Heartbeat CPU 2 instructions: 1610000000 cycles: 1657303052 heartbeat IPC: 0.526075 cumulative IPC: 0.951649 (Simulation time: 7 hr 56 min 31 sec) 
Heartbeat CPU 1 instructions: 1740000003 cycles: 1670357122 heartbeat IPC: 0.75522 cumulative IPC: 1.02431 (Simulation time: 7 hr 59 min 23 sec) 
Heartbeat CPU 0 instructions: 1120000002 cycles: 1671081138 heartbeat IPC: 0.678211 cumulative IPC: 0.641786 (Simulation time: 7 hr 59 min 33 sec) 
Heartbeat CPU 2 instructions: 1620000003 cycles: 1672004652 heartbeat IPC: 0.680198 cumulative IPC: 0.949233 (Simulation time: 7 hr 59 min 46 sec) 
Heartbeat CPU 3 instructions: 230000001 cycles: 1672962916 heartbeat IPC: 0.0963963 cumulative IPC: 0.107956 (Simulation time: 8 hr 0 min 0 sec) 
Heartbeat CPU 1 instructions: 1750000001 cycles: 1685509973 heartbeat IPC: 0.659942 cumulative IPC: 1.02099 (Simulation time: 8 hr 2 min 37 sec) 
Heartbeat CPU 2 instructions: 1630000003 cycles: 1687523496 heartbeat IPC: 0.644378 cumulative IPC: 0.946395 (Simulation time: 8 hr 3 min 1 sec) 
Heartbeat CPU 0 instructions: 1130000002 cycles: 1687647384 heartbeat IPC: 0.603637 cumulative IPC: 0.641406 (Simulation time: 8 hr 3 min 3 sec) 
Heartbeat CPU 2 instructions: 1640000000 cycles: 1702182572 heartbeat IPC: 0.682171 cumulative IPC: 0.944092 (Simulation time: 8 hr 6 min 1 sec) 
Heartbeat CPU 1 instructions: 1760000000 cycles: 1703408901 heartbeat IPC: 0.558693 cumulative IPC: 1.01607 (Simulation time: 8 hr 6 min 16 sec) 
Heartbeat CPU 0 instructions: 1140000001 cycles: 1706931574 heartbeat IPC: 0.518559 cumulative IPC: 0.640002 (Simulation time: 8 hr 6 min 57 sec) 
Heartbeat CPU 2 instructions: 1650000000 cycles: 1717979731 heartbeat IPC: 0.633025 cumulative IPC: 0.941197 (Simulation time: 8 hr 8 min 51 sec) 
Heartbeat CPU 1 instructions: 1770000003 cycles: 1722497684 heartbeat IPC: 0.523868 cumulative IPC: 1.01055 (Simulation time: 8 hr 9 min 42 sec) 
Heartbeat CPU 2 instructions: 1660000003 cycles: 1731796935 heartbeat IPC: 0.723736 cumulative IPC: 0.939441 (Simulation time: 8 hr 11 min 38 sec) 
Heartbeat CPU 0 instructions: 1150000000 cycles: 1733566301 heartbeat IPC: 0.37545 cumulative IPC: 0.635889 (Simulation time: 8 hr 12 min 4 sec) 
Heartbeat CPU 2 instructions: 1670000002 cycles: 1739377793 heartbeat IPC: 1.31911 cumulative IPC: 0.941116 (Simulation time: 8 hr 13 min 40 sec) 
Heartbeat CPU 1 instructions: 1780000000 cycles: 1739490367 heartbeat IPC: 0.588488 cumulative IPC: 1.00638 (Simulation time: 8 hr 13 min 41 sec) 
Heartbeat CPU 2 instructions: 1680000000 cycles: 1746621606 heartbeat IPC: 1.38049 cumulative IPC: 0.94296 (Simulation time: 8 hr 15 min 37 sec) 
Heartbeat CPU 3 instructions: 240000001 cycles: 1752640113 heartbeat IPC: 0.125506 cumulative IPC: 0.108763 (Simulation time: 8 hr 17 min 14 sec) 
Heartbeat CPU 2 instructions: 1690000000 cycles: 1753883247 heartbeat IPC: 1.3771 cumulative IPC: 0.944778 (Simulation time: 8 hr 17 min 35 sec) 
Heartbeat CPU 1 instructions: 1790000000 cycles: 1755191842 heartbeat IPC: 0.636883 cumulative IPC: 1.00304 (Simulation time: 8 hr 17 min 57 sec) 
Heartbeat CPU 0 instructions: 1160000000 cycles: 1758612631 heartbeat IPC: 0.39926 cumulative IPC: 0.632479 (Simulation time: 8 hr 18 min 55 sec) 
Heartbeat CPU 2 instructions: 1700000001 cycles: 1761111608 heartbeat IPC: 1.38344 cumulative IPC: 0.9466 (Simulation time: 8 hr 19 min 40 sec) 
Heartbeat CPU 2 instructions: 1710000003 cycles: 1769330595 heartbeat IPC: 1.2167 cumulative IPC: 0.947869 (Simulation time: 8 hr 21 min 45 sec) 
Heartbeat CPU 1 instructions: 1800000002 cycles: 1770441036 heartbeat IPC: 0.655773 cumulative IPC: 1.00001 (Simulation time: 8 hr 21 min 58 sec) 
Heartbeat CPU 2 instructions: 1720000002 cycles: 1779035951 heartbeat IPC: 1.03036 cumulative IPC: 0.948324 (Simulation time: 8 hr 24 min 2 sec) 
Heartbeat CPU 1 instructions: 1810000001 cycles: 1784693491 heartbeat IPC: 0.701633 cumulative IPC: 0.997601 (Simulation time: 8 hr 25 min 10 sec) 
Heartbeat CPU 2 instructions: 1730000001 cycles: 1792705729 heartbeat IPC: 0.731541 cumulative IPC: 0.946652 (Simulation time: 8 hr 26 min 43 sec) 
Heartbeat CPU 1 instructions: 1820000000 cycles: 1793303760 heartbeat IPC: 1.1614 cumulative IPC: 0.998396 (Simulation time: 8 hr 26 min 51 sec) 
Heartbeat CPU 0 instructions: 1170000001 cycles: 1795342511 heartbeat IPC: 0.272258 cumulative IPC: 0.625024 (Simulation time: 8 hr 27 min 18 sec) 
Heartbeat CPU 1 instructions: 1830000001 cycles: 1802219210 heartbeat IPC: 1.12165 cumulative IPC: 0.999013 (Simulation time: 8 hr 29 min 1 sec) 
Heartbeat CPU 2 instructions: 1740000000 cycles: 1808305659 heartbeat IPC: 0.641028 cumulative IPC: 0.943986 (Simulation time: 8 hr 30 min 42 sec) 
Heartbeat CPU 1 instructions: 1840000000 cycles: 1810213509 heartbeat IPC: 1.25089 cumulative IPC: 1.00014 (Simulation time: 8 hr 31 min 21 sec) 
Heartbeat CPU 0 instructions: 1180000003 cycles: 1811545224 heartbeat IPC: 0.617181 cumulative IPC: 0.624953 (Simulation time: 8 hr 31 min 48 sec) 
Heartbeat CPU 2 instructions: 1750000002 cycles: 1816533961 heartbeat IPC: 1.21532 cumulative IPC: 0.945229 (Simulation time: 8 hr 33 min 32 sec) 
Heartbeat CPU 1 instructions: 1850000002 cycles: 1817338247 heartbeat IPC: 1.40356 cumulative IPC: 1.00174 (Simulation time: 8 hr 33 min 48 sec) 
Heartbeat CPU 0 instructions: 1190000001 cycles: 1823162825 heartbeat IPC: 0.860763 cumulative IPC: 0.626473 (Simulation time: 8 hr 35 min 49 sec) 
Heartbeat CPU 1 instructions: 1860000003 cycles: 1824134188 heartbeat IPC: 1.47147 cumulative IPC: 1.00351 (Simulation time: 8 hr 36 min 11 sec) 
Heartbeat CPU 2 instructions: 1760000000 cycles: 1824466124 heartbeat IPC: 1.26069 cumulative IPC: 0.946616 (Simulation time: 8 hr 36 min 18 sec) 
Heartbeat CPU 1 instructions: 1870000000 cycles: 1829628748 heartbeat IPC: 1.81998 cumulative IPC: 1.00599 (Simulation time: 8 hr 38 min 14 sec) 
Heartbeat CPU 2 instructions: 1770000001 cycles: 1832732193 heartbeat IPC: 1.20976 cumulative IPC: 0.947816 (Simulation time: 8 hr 39 min 20 sec) 
Heartbeat CPU 0 instructions: 1200000003 cycles: 1835091245 heartbeat IPC: 0.838334 cumulative IPC: 0.627866 (Simulation time: 8 hr 40 min 8 sec) 
Heartbeat CPU 1 instructions: 1880000003 cycles: 1835145174 heartbeat IPC: 1.81277 cumulative IPC: 1.00844 (Simulation time: 8 hr 40 min 9 sec) 
Heartbeat CPU 2 instructions: 1780000001 cycles: 1840943992 heartbeat IPC: 1.21776 cumulative IPC: 0.949034 (Simulation time: 8 hr 42 min 10 sec) 
Heartbeat CPU 1 instructions: 1890000003 cycles: 1841380241 heartbeat IPC: 1.60383 cumulative IPC: 1.01048 (Simulation time: 8 hr 42 min 19 sec) 
Heartbeat CPU 3 instructions: 250000000 cycles: 1842195887 heartbeat IPC: 0.111662 cumulative IPC: 0.108905 (Simulation time: 8 hr 42 min 35 sec) 
Heartbeat CPU 0 instructions: 1210000000 cycles: 1846979206 heartbeat IPC: 0.841187 cumulative IPC: 0.629254 (Simulation time: 8 hr 44 min 9 sec) 
Heartbeat CPU 1 instructions: 1900000003 cycles: 1848416649 heartbeat IPC: 1.42118 cumulative IPC: 1.01206 (Simulation time: 8 hr 44 min 37 sec) 
Heartbeat CPU 2 instructions: 1790000003 cycles: 1849178490 heartbeat IPC: 1.2144 cumulative IPC: 0.950229 (Simulation time: 8 hr 44 min 52 sec) 
Finished CPU 3 instructions: 200000000 cycles: 1834683394 cumulative IPC: 0.109011 (Simulation time: 8 hr 46 min 50 sec) 

ChampSim completed all CPUs

Total Simulation Statistics (not including warmup)

CPU 0 cumulative IPC: 0.630161 instructions: 1156146482 cycles: 1834683393
ITLB TOTAL     ACCESS:  194688273  HIT:  194688253  MISS:         20  HIT %:        100  MISS %: 1.02728e-05   MPKI: 1.72988e-05
ITLB LOAD      ACCESS:          0  HIT:          0  MISS:          0  HIT %:       -nan  MISS %:       -nan   MPKI: 0
ITLB RFO       ACCESS:          0  HIT:          0  MISS:          0  HIT %:       -nan  MISS %:       -nan   MPKI: 0
ITLB PREFETCH  ACCESS:          0  HIT:          0  MISS:          0  HIT %:       -nan  MISS %:       -nan   MPKI: 0
ITLB WRITEBACK ACCESS:          0  HIT:          0  MISS:          0  HIT %:       -nan  MISS %:       -nan   MPKI: 0
DTLB TOTAL     ACCESS:  229941126  HIT:  229552499  MISS:     388627  HIT %:     99.831  MISS %:   0.169012   MPKI: 0.33614
DTLB LOAD      ACCESS:          0  HIT:          0  MISS:          0  HIT %:       -nan  MISS %:       -nan   MPKI: 0
DTLB RFO       ACCESS:          0  HIT:          0  MISS:          0  HIT %:       -nan  MISS %:       -nan   MPKI: 0
DTLB PREFETCH  ACCESS:          0  HIT:          0  MISS:          0  HIT %:       -nan  MISS %:       -nan   MPKI: 0
DTLB WRITEBACK ACCESS:          0  HIT:          0  MISS:          0  HIT %:       -nan  MISS %:       -nan   MPKI: 0
STLB TOTAL     ACCESS:   19387791  HIT:   19001245  MISS:     386546  HIT %:    98.0062  MISS %:    1.99376   MPKI: 0.33434
STLB LOAD      ACCESS:          0  HIT:          0  MISS:          0  HIT %:       -nan  MISS %:       -nan   MPKI: 0
STLB RFO       ACCESS:          0  HIT:          0  MISS:          0  HIT %:       -nan  MISS %:       -nan   MPKI: 0
STLB PREFETCH  ACCESS:          0  HIT:          0  MISS:          0  HIT %:       -nan  MISS %:       -nan   MPKI: 0
[...]
ITLB TOTAL     ACCESS:   32806055  HIT:   32515517  MISS:     290538  HIT %:    99.1144  MISS %:   0.885623   MPKI: 1.45269
ITLB LOAD TRANSLATION ACCESS:   32806055  HIT:   32515517  MISS:     290538  HIT %:    99.1144  MISS %:   0.885623   MPKI: 1.45269
ITLB PREFETCH  REQUESTED:          0  ISSUED:          0  USEFUL:          0  USELESS:          0
ITLB USEFUL LOAD PREFETCHES:          0 PREFETCH ISSUED TO LOWER LEVEL:          0  ACCURACY: -nan
ITLB TIMELY PREFETCHES:          0 LATE PREFETCHES: 0 DROPPED PREFETCHES: 0
ITLB PREFETCHES SAME FILL-ORIGIN LEVEL: 0 DIFFERENT FILL-ORIGIN LEVEL: 0
ITLB AVERAGE MISS LATENCY: 14.1513 cycles
ITLB RQ	ACCESS:   37052260	FORWARD:          0	MERGED:    4154964	TO_CACHE:   32897296

DTLB TOTAL     ACCESS:   76252013  HIT:   72094778  MISS:    4157235  HIT %:     94.548  MISS %:    5.45197   MPKI: 20.7862
DTLB LOAD TRANSLATION ACCESS:   76252013  HIT:   72094778  MISS:    4157235  HIT %:     94.548  MISS %:    5.45197   MPKI: 20.7862
DTLB PREFETCH  REQUESTED:          0  ISSUED:          0  USEFUL:          0  USELESS:          0
DTLB USEFUL LOAD PREFETCHES:          0 PREFETCH ISSUED TO LOWER LEVEL:          0  ACCURACY: -nan
DTLB TIMELY PREFETCHES:          0 LATE PREFETCHES: 0 DROPPED PREFETCHES: 0
DTLB PREFETCHES SAME FILL-ORIGIN LEVEL: 0 DIFFERENT FILL-ORIGIN LEVEL: 0
DTLB AVERAGE MISS LATENCY: 139.363 cycles
DTLB RQ	ACCESS:   87479575	FORWARD:          0	MERGED:   11109597	TO_CACHE:   76369978

STLB TOTAL     ACCESS:   16022520  HIT:   15051490  MISS:     971030  HIT %:    93.9396  MISS %:    6.06041   MPKI: 4.85515
STLB LOAD TRANSLATION ACCESS:    4447773  HIT:    3476749  MISS:     971024  HIT %:    78.1683  MISS %:    21.8317   MPKI: 4.85512
STLB TRANSLATION FROM L1D PREFETCHER ACCESS:   11574747  HIT:   11574741  MISS:          6  HIT %:    99.9999  MISS %: 5.1837e-05   MPKI: 3e-05
STLB PREFETCH  REQUESTED:          0  ISSUED:          0  USEFUL:          3  USELESS:          3
STLB USEFUL LOAD PREFETCHES:          3 PREFETCH ISSUED TO LOWER LEVEL:          0  ACCURACY: inf
STLB TIMELY PREFETCHES:          3 LATE PREFETCHES: 0 DROPPED PREFETCHES: 0
STLB PREFETCHES SAME FILL-ORIGIN LEVEL: 0 DIFFERENT FILL-ORIGIN LEVEL: 0
STLB AVERAGE MISS LATENCY: 559.458 cycles
STLB RQ	ACCESS:   20226813	FORWARD:          0	MERGED:    4204294	TO_CACHE:   16022519

STLB Hit, L1D data hit: 0
STLB Hit, L2C data hit: 0
STLB Hit, LLC data hit: 0
STLB Hit, LLC data miss: 0
STLB STLB hints to L2: 0
L1D TOTAL     ACCESS:  101447917  HIT:   93894587  MISS:    7553330  HIT %:    92.5545  MISS %:    7.44552   MPKI: 37.7666
L1D LOAD      ACCESS:   50191118  HIT:   47036879  MISS:    3154239  HIT %:    93.7155  MISS %:    6.28446   MPKI: 15.7712
L1D RFO       ACCESS:   36154100  HIT:   35752653  MISS:     401447  HIT %:    98.8896  MISS %:    1.11038   MPKI: 2.00724
L1D PREFETCH  ACCESS:   15102699  HIT:   11105055  MISS:    3997644  HIT %:    73.5303  MISS %:    26.4697   MPKI: 19.9882
L1D PREFETCH  REQUESTED:   31587842  ISSUED:   31587394  USEFUL:     515723  USELESS:    3481926
L1D USEFUL LOAD PREFETCHES:     515723 PREFETCH ISSUED TO LOWER LEVEL:    4092615  ACCURACY: 12.6013
L1D TIMELY PREFETCHES:     515723 LATE PREFETCHES: 62765 DROPPED PREFETCHES: 0
L1D PREFETCHES SAME FILL-ORIGIN LEVEL: 4092615 DIFFERENT FILL-ORIGIN LEVEL: 0
L1D AVERAGE MISS LATENCY: 478.596 cycles
L1D RQ	ACCESS:   63121653	FORWARD:          0	MERGED:   10600081	TO_CACHE:   50614261
L1D WQ	ACCESS:   37145679	FORWARD:    1914927	MERGED:     280365	TO_CACHE:   36865314
L1D PQ	ACCESS:   15808353	FORWARD:          0	MERGED:      21696	TO_CACHE:   15779041

L1D UNIQUE REGIONS ACCESSED: 0
L1D REGIONS CONFLICTS: 0
L1D Cross Page Prefetch Requests: 0
L1D Same Page Prefetch Requests: 19282159
L1D ROI Sum of L1D PQ occupancy: 172545190
L1D PREFETCHES PUSHED FROM L2C: 0
L1I TOTAL     ACCESS:   37009427  HIT:   36888528  MISS:     120899  HIT %:    99.6733  MISS %:   0.326671   MPKI: 0.604495
L1I LOAD      ACCESS:   37009427  HIT:   36888528  MISS:     120899  HIT %:    99.6733  MISS %:   0.326671   MPKI: 0.604495
L1I PREFETCH  REQUESTED:          0  ISSUED:          0  USEFUL:          0  USELESS:          0
L1I USEFUL LOAD PREFETCHES:          0 PREFETCH ISSUED TO LOWER LEVEL:          0  ACCURACY: -nan
L1I TIMELY PREFETCHES:          0 LATE PREFETCHES: 0 DROPPED PREFETCHES: 0
L1I PREFETCHES SAME FILL-ORIGIN LEVEL: 0 DIFFERENT FILL-ORIGIN LEVEL: 0
L1I AVERAGE MISS LATENCY: 120.875 cycles
L1I RQ	ACCESS:   55540863	FORWARD:          0	MERGED:   18488603	TO_CACHE:   37052260

BTB TOTAL     ACCESS:   32878083  HIT:   30953696  MISS:    1924387  HIT %:    94.1469  MISS %:     5.8531   MPKI: 9.62194
BTB BRANCH_DIRECT_JUMP	ACCESS:    2330443  HIT:    2330369  MISS:         74
BTB BRANCH_INDIRECT	ACCESS:     674258  HIT:     571079  MISS:     103179
BTB BRANCH_CONDITIONAL	ACCESS:   17728036  HIT:   17727791  MISS:        245
BTB BRANCH_DIRECT_CALL	ACCESS:    3700527  HIT:    3700361  MISS:        166
BTB BRANCH_INDIRECT_CALL	ACCESS:    2372144  HIT:    2363598  MISS:       8546
BTB BRANCH_RETURN	ACCESS:    6072675  HIT:    4260498  MISS:    1812177
BTB BRANCH_OTHER ACCESS:          0  HIT:          0  MISS:          0

L2C TOTAL     ACCESS:   11018933  HIT:    4573370  MISS:    6445563  HIT %:    41.5047  MISS %:    58.4953   MPKI: 32.2278
L2C LOAD      ACCESS:    3212139  HIT:     967839  MISS:    2244300  HIT %:    30.1307  MISS %:    69.8693   MPKI: 11.2215
L2C DATA LOAD MPKI: 10.9932
L2C INSTRUCTION LOAD MPKI: 0.22826
L2C RFO       ACCESS:     369211  HIT:      71575  MISS:     297636  HIT %:    19.3859  MISS %:    80.6141   MPKI: 1.48818
L2C PREFETCH  ACCESS:    4092505  HIT:    1023243  MISS:    3069262  HIT %:    25.0029  MISS %:    74.9971   MPKI: 15.3463
L2C DATA PREFETCH MPKI: 15.3463
L2C INSTRUCTION PREFETCH MPKI: 0
L2C WRITEBACK ACCESS:    1953385  HIT:    1812609  MISS:     140776  HIT %:    92.7932  MISS %:    7.20677   MPKI: 0.70388
L2C LOAD TRANSLATION ACCESS:    1391685  HIT:     698100  MISS:     693585  HIT %:    50.1622  MISS %:    49.8378   MPKI: 3.46793
L2C TRANSLATION FROM L1D PREFETCHER ACCESS:          8  HIT:          4  MISS:          4  HIT %:         50  MISS %:         50   MPKI: 2e-05
L2C PREFETCH  REQUESTED:          0  ISSUED:          0  USEFUL:     110556  USELESS:    2958777
L2C USEFUL LOAD PREFETCHES:     110556 PREFETCH ISSUED TO LOWER LEVEL:    3069265  ACCURACY: 3.60204
L2C TIMELY PREFETCHES:     110556 LATE PREFETCHES: 0 DROPPED PREFETCHES: 0
L2C PREFETCHES SAME FILL-ORIGIN LEVEL: 0 DIFFERENT FILL-ORIGIN LEVEL: 0
L2C AVERAGE MISS LATENCY: 623.225 cycles
L2C RQ	ACCESS:    4973309	FORWARD:          0	MERGED:          0	TO_CACHE:    4973042
L2C WQ	ACCESS:    1953385	FORWARD:        374	MERGED:          0	TO_CACHE:    1953385
L2C PQ	ACCESS:    4092615	FORWARD:          0	MERGED:          0	TO_CACHE:    4092508

L2C Instructions Evicting Data 39501
L2C Translations Evicting Data 620081
L2C Data Evicting Data 4922355
L2C Instructions Evicting Instructions 1271
L2C Translations Evicting Instructions 4835
L2C Data Evicting Instructions 38654
L2C Instructions Evicting Translations 4880
L2C Translations Evicting Translations 68673
L2C Data Evicting Translations 604537
L2C Dense regions hint from L2: 0
PSCL5 TOTAL     ACCESS:     971029  HIT:     971029  MISS:          0  HIT %:        100  MISS %:          0   MPKI: 0
PSCL5 LOAD TRANSLATION ACCESS:     971023  HIT:     971023  MISS:          0  HIT %:        100  MISS %:          0   MPKI: 0
PSCL5 TRANSLATION FROM L1D PREFETCHER ACCESS:          6  HIT:          6  MISS:          0  HIT %:        100  MISS %:          0   MPKI: 0
PSCL5 PREFETCH  REQUESTED:          0  ISSUED:          0  USEFUL:          0  USELESS:          0
PSCL5 USEFUL LOAD PREFETCHES:          0 PREFETCH ISSUED TO LOWER LEVEL:          0  ACCURACY: -nan
PSCL5 TIMELY PREFETCHES:          0 LATE PREFETCHES: 0 DROPPED PREFETCHES: 0
PSCL5 PREFETCHES SAME FILL-ORIGIN LEVEL: 0 DIFFERENT FILL-ORIGIN LEVEL: 0

PSCL4 TOTAL     ACCESS:     971029  HIT:     971029  MISS:          0  HIT %:        100  MISS %:          0   MPKI: 0
PSCL4 LOAD TRANSLATION ACCESS:     971023  HIT:     971023  MISS:          0  HIT %:        100  MISS %:          0   MPKI: 0
PSCL4 TRANSLATION FROM L1D PREFETCHER ACCESS:          6  HIT:          6  MISS:          0  HIT %:        100  MISS %:          0   MPKI: 0
PSCL4 PREFETCH  REQUESTED:          0  ISSUED:          0  USEFUL:          0  USELESS:          0
PSCL4 USEFUL LOAD PREFETCHES:          0 PREFETCH ISSUED TO LOWER LEVEL:          0  ACCURACY: -nan
PSCL4 TIMELY PREFETCHES:          0 LATE PREFETCHES: 0 DROPPED PREFETCHES: 0
PSCL4 PREFETCHES SAME FILL-ORIGIN LEVEL: 0 DIFFERENT FILL-ORIGIN LEVEL: 0

PSCL3 TOTAL     ACCESS:     971029  HIT:     971029  MISS:          0  HIT %:        100  MISS %:          0   MPKI: 0
PSCL3 LOAD TRANSLATION ACCESS:     971023  HIT:     971023  MISS:          0  HIT %:        100  MISS %:          0   MPKI: 0
PSCL3 TRANSLATION FROM L1D PREFETCHER ACCESS:          6  HIT:          6  MISS:          0  HIT %:        100  MISS %:          0   MPKI: 0
PSCL3 PREFETCH  REQUESTED:          0  ISSUED:          0  USEFUL:          0  USELESS:          0
PSCL3 USEFUL LOAD PREFETCHES:          0 PREFETCH ISSUED TO LOWER LEVEL:          0  ACCURACY: -nan
PSCL3 TIMELY PREFETCHES:          0 LATE PREFETCHES: 0 DROPPED PREFETCHES: 0
PSCL3 PREFETCHES SAME FILL-ORIGIN LEVEL: 0 DIFFERENT FILL-ORIGIN LEVEL: 0

PSCL2 TOTAL     ACCESS:     971029  HIT:     550366  MISS:     420663  HIT %:    56.6786  MISS %:    43.3214   MPKI: 2.10331
PSCL2 LOAD TRANSLATION ACCESS:     971025  HIT:     550362  MISS:     420663  HIT %:    56.6785  MISS %:    43.3215   MPKI: 2.10331
PSCL2 TRANSLATION FROM L1D PREFETCHER ACCESS:          4  HIT:          4  MISS:          0  HIT %:        100  MISS %:          0   MPKI: 0
PSCL2 PREFETCH  REQUESTED:          0  ISSUED:          0  USEFUL:          0  USELESS:          0
PSCL2 USEFUL LOAD PREFETCHES:          0 PREFETCH ISSUED TO LOWER LEVEL:          0  ACCURACY: -nan
PSCL2 TIMELY PREFETCHES:          0 LATE PREFETCHES: 0 DROPPED PREFETCHES: 0
PSCL2 PREFETCHES SAME FILL-ORIGIN LEVEL: 0 DIFFERENT FILL-ORIGIN LEVEL: 0

LLC TOTAL     ACCESS:    7834387  HIT:    1952021  MISS:    5882366  HIT %:    24.9161  MISS %:    75.0839   MPKI: 29.4118
LLC LOAD      ACCESS:    2244293  HIT:     324725  MISS:    1919568  HIT %:    14.4689  MISS %:    85.5311   MPKI: 9.59784
LLC RFO       ACCESS:     297636  HIT:      39377  MISS:     258259  HIT %:    13.2299  MISS %:    86.7701   MPKI: 1.2913
LLC PREFETCH  ACCESS:    3069254  HIT:     368141  MISS:    2701113  HIT %:    11.9945  MISS %:    88.0055   MPKI: 13.5056
LLC WRITEBACK ACCESS:    1529616  HIT:    1070481  MISS:     459135  HIT %:    69.9836  MISS %:    30.0164   MPKI: 2.29568
LLC LOAD TRANSLATION ACCESS:     693584  HIT:     149297  MISS:     544287  HIT %:    21.5254  MISS %:    78.4746   MPKI: 2.72144
LLC TRANSLATION FROM L1D PREFETCHER ACCESS:          4  HIT:          0  MISS:          4  HIT %:          0  MISS %:        100   MPKI: 2e-05
LLC PREFETCH  REQUESTED:          0  ISSUED:          0  USEFUL:      69802  USELESS:   56616472
LLC USEFUL LOAD PREFETCHES:      69802 PREFETCH ISSUED TO LOWER LEVEL:   56705899  ACCURACY: 0.123095
LLC TIMELY PREFETCHES:      69802 LATE PREFETCHES: 0 DROPPED PREFETCHES: 0
LLC PREFETCHES SAME FILL-ORIGIN LEVEL: 0 DIFFERENT FILL-ORIGIN LEVEL: 0
LLC AVERAGE MISS LATENCY: 7683.42 cycles
LLC RQ	ACCESS:   19079918	FORWARD:          0	MERGED:          0	TO_CACHE:   19079899
LLC WQ	ACCESS:   19140938	FORWARD:         34	MERGED:          0	TO_CACHE:   19140938
LLC PQ	ACCESS:   57959182	FORWARD:          0	MERGED:          0	TO_CACHE:   57959167

LLC Dense regions hint to LLC: 0

RAW hits: 3749434
Loads Generated: 66871089
Loads sent to L1D: 63121653
Stores Generated: 37145678
Stores sent to L1D: 37145679
Major fault: 0 Minor fault: 53045
Allocated PAGES: 278527

stream: 
stream:times selected: 26975256
stream:pref_filled: 12657380
stream:pref_useful: 12574566
stream:pref_late: 2232004
stream:misses: 3182
stream:misses_by_poll: 0

CS: 
CS:times selected: 23031291
CS:pref_filled: 506119
CS:pref_useful: 501764
CS:pref_late: 139465
CS:misses: 6676732
CS:misses_by_poll: 6057

CPLX: 
CPLX:times selected: 3943896
CPLX:pref_filled: 245885
CPLX:pref_useful: 219306
CPLX:pref_late: 21951
CPLX:misses: 56910
CPLX:misses_by_poll: 516

NL_L1: 
NL:times selected: 61397
NL:pref_filled: 576
NL:pref_useful: 302
NL:pref_late: 2
NL:misses: 28770
NL:misses_by_poll: 0

total selections: 54011840
total_filled: 12829199
total_useful: 12715243
total_late: 2406357
total_polluted: 6573
total_misses_after_warmup: 6768678
conflicts: 2217662
Degree Incremented Times: 12867567
Degree Decremented Times: 1101104

L1 IP Table Write Accesses: 1111895178
L1 IP Table Read Accesses: 1109677516
L1 RST Write Accesses: 255651206
L1 RST Read Accesses: 511302412
L1 CSPT Write Accesses: 255651206
L1 CSPT Read Accesses: 331077943
L1 RR Filter Tag Write Accesses: 1143130224
L1 RR Filter Tag Read Accesses: 57329984050
L1 IP Table Tag Write Accesses: 1118055594
L1 IP Table Tag Read Accesses: 1118055594
L1 RST Tag Write Accesses: 0
L1 RST Tag Read Accesses: 2336463632
L1 RR Filter Write Accesses: 0
L1 RR Filter Read Accesses: 2020744692
test: 23762424

stream: 
stream:times selected: 39516689
stream:pref_filled: 12818663
stream:pref_useful: 12016207
stream:pref_late: 747509
stream:misses: 94300
stream:misses_by_poll: 0

CS: 
CS:times selected: 27858048
CS:pref_filled: 44601
CS:pref_useful: 43917
CS:pref_late: 7556
CS:misses: 3855547
CS:misses_by_poll: 227

CPLX: 
CPLX:times selected: 11658047
CPLX:pref_filled: 588777
CPLX:pref_useful: 521314
CPLX:pref_late: 4201
CPLX:misses: 376890
CPLX:misses_by_poll: 2050

NL_L1: 
NL:times selected: 92751
NL:pref_filled: 6678
NL:pref_useful: 6137
NL:pref_late: 176
NL:misses: 3534
NL:misses_by_poll: 0

total selections: 79125535
total_filled: 13086063
total_useful: 12227235
total_late: 762978
total_polluted: 2277
total_misses_after_warmup: 4458889
conflicts: 2217662
Degree Incremented Times: 12867567
Degree Decremented Times: 1101104

L1 IP Table Write Accesses: 1111895178
L1 IP Table Read Accesses: 1109677516
L1 RST Write Accesses: 255651206
L1 RST Read Accesses: 511302412
L1 CSPT Write Accesses: 255651206
L1 CSPT Read Accesses: 331077943
L1 RR Filter Tag Write Accesses: 1143130224
L1 RR Filter Tag Read Accesses: 57329984050
L1 IP Table Tag Write Accesses: 1118055594
L1 IP Table Tag Read Accesses: 1118055594
L1 RST Tag Write Accesses: 0
L1 RST Tag Read Accesses: 2336463632
L1 RR Filter Write Accesses: 0
L1 RR Filter Read Accesses: 2020744692
test: 23762424

stream: 
stream:times selected: 176431928
stream:pref_filled: 29182438
stream:pref_useful: 29174663
stream:pref_late: 3432915
stream:misses: 7921
stream:misses_by_poll: 0

CS: 
CS:times selected: 169960851
CS:pref_filled: 209251
CS:pref_useful: 209217
CS:pref_late: 45887
CS:misses: 6964140
CS:misses_by_poll: 2074

CPLX: 
CPLX:times selected: 6470918
CPLX:pref_filled: 354694
CPLX:pref_useful: 287804
CPLX:pref_late: 13376
CPLX:misses: 310482
CPLX:misses_by_poll: 669

NL_L1: 
NL:times selected: 57494
NL:pref_filled: 1763
NL:pref_useful: 1763
NL:pref_late: 131
NL:misses: 223
NL:misses_by_poll: 0

total selections: 352921191
total_filled: 28781004
total_useful: 28709078
total_late: 3509735
total_polluted: 2743
total_misses_after_warmup: 7265570
conflicts: 2217662
Degree Incremented Times: 12867567
Degree Decremented Times: 1101104

L1 IP Table Write Accesses: 1111895178
L1 IP Table Read Accesses: 1109677516
L1 RST Write Accesses: 255651206
L1 RST Read Accesses: 511302412
L1 CSPT Write Accesses: 255651206
L1 CSPT Read Accesses: 331077943
L1 RR Filter Tag Write Accesses: 1143130224
L1 RR Filter Tag Read Accesses: 57329984050
L1 IP Table Tag Write Accesses: 1118055594
L1 IP Table Tag Read Accesses: 1118055594
L1 RST Tag Write Accesses: 0
L1 RST Tag Read Accesses: 2336463632
L1 RR Filter Write Accesses: 0
L1 RR Filter Read Accesses: 2020744692
test: 23762424

stream: 
stream:times selected: 21840967
stream:pref_filled: 3248843
stream:pref_useful: 554077
stream:pref_late: 71236
stream:misses: 870027
stream:misses_by_poll: 0

CS: 
CS:times selected: 131567
CS:pref_filled: 34587
CS:pref_useful: 7014
CS:pref_late: 41
CS:misses: 2644
CS:misses_by_poll: 29

CPLX: 
CPLX:times selected: 21695209
CPLX:pref_filled: 1698966
CPLX:pref_useful: 86347
CPLX:pref_late: 7117
CPLX:misses: 2886067
CPLX:misses_by_poll: 5204

NL_L1: 
NL:times selected: 108524
NL:pref_filled: 35044
NL:pref_useful: 7027
NL:pref_late: 1030
NL:misses: 31812
NL:misses_by_poll: 2

total selections: 43776267
total_filled: 3997644
total_useful: 515723
total_late: 80623
total_polluted: 5235
total_misses_after_warmup: 3601129
conflicts: 2217662
Degree Incremented Times: 12867567
Degree Decremented Times: 1101104

L1 IP Table Write Accesses: 1111895178
L1 IP Table Read Accesses: 1109677516
L1 RST Write Accesses: 255651206
L1 RST Read Accesses: 511302412
L1 CSPT Write Accesses: 255651206
L1 CSPT Read Accesses: 331077943
L1 RR Filter Tag Write Accesses: 1143130224
L1 RR Filter Tag Read Accesses: 57329984050
L1 IP Table Tag Write Accesses: 1118055594
L1 IP Table Tag Read Accesses: 1118055594
L1 RST Tag Write Accesses: 0
L1 RST Tag Read Accesses: 2336463632
L1 RR Filter Write Accesses: 0
L1 RR Filter Read Accesses: 2020744692
test: 23762424

DRAM Statistics
 CHANNEL 0
 RQ ROW_BUFFER_HIT:   24717664  ROW_BUFFER_MISS:   50350604
 DBUS_CONGESTED:          2
 WQ ROW_BUFFER_HIT:    1858232  ROW_BUFFER_MISS:   16886900  FULL:          0

 AVG_CONGESTED_CYCLE: 6
 All warmup complete: 5
Channel 0 Bank busy for read cycles: 0
Channel 0 Bank busy for write cycles: 0
Channel 0
Rank 0
0banks busy for read cycles: 9931
0banks busy for write cycles: 0
1banks busy for read cycles: 3227201
1banks busy for write cycles: 1982700
2banks busy for read cycles: 7247556
2banks busy for write cycles: 1982699
3banks busy for read cycles: 17688687
3banks busy for write cycles: 1982695
4banks busy for read cycles: 41762799
4banks busy for write cycles: 1983168
5banks busy for read cycles: 91663392
5banks busy for write cycles: 2045499
6banks busy for read cycles: 179292124
6banks busy for write cycles: 5053104
7banks busy for read cycles: 333384030
7banks busy for write cycles: 61726034
8banks busy for read cycles: 678392060
8banks busy for write cycles: 405259715

CPU 0 Branch Prediction Accuracy: 90.6778% MPKI: 10.8808 Average ROB Occupancy at Mispredict: 22.89
Branch types
NOT_BRANCH: 1019957592 88.2204%
BRANCH_DIRECT_JUMP: 2167 0.000187433%
BRANCH_INDIRECT: 15 1.29741e-06%
BRANCH_CONDITIONAL: 136182655 11.779%
BRANCH_DIRECT_CALL: 2177 0.000188298%
BRANCH_INDIRECT_CALL: 10 8.64942e-07%
BRANCH_RETURN: 2172 0.000187865%
BRANCH_OTHER: 0 0%


CPU 1 Branch Prediction Accuracy: 99.946% MPKI: 0.0321785 Average ROB Occupancy at Mispredict: 167.313
Branch types
NOT_BRANCH: 1748455671 94.0375%
BRANCH_DIRECT_JUMP: 2227083 0.11978%
BRANCH_INDIRECT: 0 0%
BRANCH_CONDITIONAL: 104247943 5.60678%
BRANCH_DIRECT_CALL: 2193387 0.117967%
BRANCH_INDIRECT_CALL: 0 0%
BRANCH_RETURN: 2193387 0.117967%
BRANCH_OTHER: 0 0%


CPU 2 Branch Prediction Accuracy: 99.8928% MPKI: 0.0439924 Average ROB Occupancy at Mispredict: 233.134
Branch types
NOT_BRANCH: 1673202122 95.8891%
BRANCH_DIRECT_JUMP: 9365894 0.536748%
BRANCH_INDIRECT: 0 0%
BRANCH_CONDITIONAL: 62366187 3.57413%
BRANCH_DIRECT_CALL: 4 2.29235e-07%
BRANCH_INDIRECT_CALL: 0 0%
BRANCH_RETURN: 4 2.29235e-07%
BRANCH_OTHER: 0 0%


CPU 3 Branch Prediction Accuracy: 98.1719% MPKI: 3.80776 Average ROB Occupancy at Mispredict: 46.1982
Branch types
NOT_BRANCH: 158008604 79.0043%
BRANCH_DIRECT_JUMP: 2330443 1.16522%
BRANCH_INDIRECT: 674258 0.337129%
BRANCH_CONDITIONAL: 26841320 13.4207%
BRANCH_DIRECT_CALL: 3700527 1.85026%
BRANCH_INDIRECT_CALL: 2372144 1.18607%
BRANCH_RETURN: 6072675 3.03634%
BRANCH_OTHER: 0 0%

DRAM PAGES: 1048576
Allocated PAGES: 278527
