
*** ChampSim Multicore Out-of-Order Simulator ***

Warmup Instructions: 50000000
Simulation Instructions: 200000000
Number of CPUs: 4
LLC sets: 8192
LLC ways: 16
Off-chip DRAM Size: 4096 MB Channels: 1 Width: 64-bit Data Rate: 6400 MT/s
CPU 0 runs ./traces/gap/pr-3.trace.gz
.gz
CPU 1 runs ./traces/spec/620.omnetpp_s-874B.champsimtrace.xz
.xz
CPU 2 runs ./traces/spec/436.cactusADM-1804B.champsimtrace.xz
.xz
CPU 3 runs ./traces/gap/bc-5.trace.gz
.gz
BTB has LRU replacement policy
ITLB has LRU replacement policy
DTLB has LRU replacement policy
STLB has LRU replacement policy
L1I has LRU replacement policy
L1D has LRU replacement policy
Initialize SRRIP state for L2C
Initialize DRRIP state for LLC
BTB has LRU replacement policy
ITLB has LRU replacement policy
DTLB has LRU replacement policy
STLB has LRU replacement policy
L1I has LRU replacement policy
L1D has LRU replacement policy
Initialize SRRIP state for L2C
Initialize DRRIP state for LLC
BTB has LRU replacement policy
ITLB has LRU replacement policy
DTLB has LRU replacement policy
STLB has LRU replacement policy
L1I has LRU replacement policy
L1D has LRU replacement policy
Initialize SRRIP state for L2C
Initialize DRRIP state for LLC
BTB has LRU replacement policy
ITLB has LRU replacement policy
DTLB has LRU replacement policy
STLB has LRU replacement policy
L1I has LRU replacement policy
L1D has LRU replacement policy
Initialize SRRIP state for L2C
Initialize DRRIP state for LLC
Heartbeat CPU 0 instructions: 10000002 cycles: 3334028 heartbeat IPC: 2.99938 cumulative IPC: 2.99938 (Simulation time: 0 hr 3 min 9 sec) 
Heartbeat CPU 3 instructions: 10000002 cycles: 3530009 heartbeat IPC: 2.83285 cumulative IPC: 2.83285 (Simulation time: 0 hr 3 min 23 sec) 
Heartbeat CPU 2 instructions: 10000000 cycles: 3895383 heartbeat IPC: 2.56714 cumulative IPC: 2.56714 (Simulation time: 0 hr 3 min 43 sec) 
Heartbeat CPU 1 instructions: 10000001 cycles: 3910433 heartbeat IPC: 2.55726 cumulative IPC: 2.55726 (Simulation time: 0 hr 3 min 44 sec) 
Heartbeat CPU 3 instructions: 20000001 cycles: 6564886 heartbeat IPC: 3.29503 cumulative IPC: 3.04651 (Simulation time: 0 hr 6 min 42 sec) 
Heartbeat CPU 1 instructions: 20000000 cycles: 7819419 heartbeat IPC: 2.55821 cumulative IPC: 2.55773 (Simulation time: 0 hr 8 min 1 sec) 
Heartbeat CPU 2 instructions: 20000002 cycles: 7879941 heartbeat IPC: 2.50969 cumulative IPC: 2.53809 (Simulation time: 0 hr 8 min 5 sec) 
Heartbeat CPU 0 instructions: 20000002 cycles: 9426527 heartbeat IPC: 1.64136 cumulative IPC: 2.12167 (Simulation time: 0 hr 9 min 44 sec) 
Heartbeat CPU 3 instructions: 30000001 cycles: 9598665 heartbeat IPC: 3.29622 cumulative IPC: 3.12543 (Simulation time: 0 hr 9 min 54 sec) 
Heartbeat CPU 1 instructions: 30000003 cycles: 11724029 heartbeat IPC: 2.56108 cumulative IPC: 2.55885 (Simulation time: 0 hr 12 min 4 sec) 
Heartbeat CPU 2 instructions: 30000003 cycles: 11774386 heartbeat IPC: 2.56776 cumulative IPC: 2.5479 (Simulation time: 0 hr 12 min 8 sec) 
Heartbeat CPU 3 instructions: 40000003 cycles: 12619989 heartbeat IPC: 3.30981 cumulative IPC: 3.16958 (Simulation time: 0 hr 13 min 6 sec) 
Heartbeat CPU 1 instructions: 40000001 cycles: 15637028 heartbeat IPC: 2.55558 cumulative IPC: 2.55803 (Simulation time: 0 hr 16 min 21 sec) 
Heartbeat CPU 3 instructions: 50000000 cycles: 15655739 heartbeat IPC: 3.29408 cumulative IPC: 3.19372 (Simulation time: 0 hr 16 min 22 sec) 
Heartbeat CPU 2 instructions: 40000002 cycles: 15667430 heartbeat IPC: 2.56868 cumulative IPC: 2.55307 (Simulation time: 0 hr 16 min 23 sec) 
Heartbeat CPU 0 instructions: 30000001 cycles: 15914372 heartbeat IPC: 1.54134 cumulative IPC: 1.88509 (Simulation time: 0 hr 16 min 39 sec) 
Heartbeat CPU 3 instructions: 60000000 cycles: 19435808 heartbeat IPC: 2.64545 cumulative IPC: 0.514514 (Simulation time: 0 hr 19 min 43 sec) 
Heartbeat CPU 1 instructions: 50000000 cycles: 19551938 heartbeat IPC: 2.55434 cumulative IPC: 2.55729 (Simulation time: 0 hr 19 min 48 sec) 
Heartbeat CPU 2 instructions: 50000000 cycles: 19652582 heartbeat IPC: 2.50931 cumulative IPC: 2.54419 (Simulation time: 0 hr 19 min 52 sec) 
Heartbeat CPU 0 instructions: 40000000 cycles: 22414642 heartbeat IPC: 1.5384 cumulative IPC: 1.78455 (Simulation time: 0 hr 21 min 45 sec) 
Heartbeat CPU 3 instructions: 70000001 cycles: 23192034 heartbeat IPC: 2.66225 cumulative IPC: 0.862365 (Simulation time: 0 hr 22 min 14 sec) 
Heartbeat CPU 2 instructions: 60000001 cycles: 23545831 heartbeat IPC: 2.56855 cumulative IPC: 0.424704 (Simulation time: 0 hr 22 min 29 sec) 
Heartbeat CPU 1 instructions: 60000001 cycles: 24562114 heartbeat IPC: 1.99594 cumulative IPC: 0.407131 (Simulation time: 0 hr 23 min 9 sec) 
Heartbeat CPU 3 instructions: 80000003 cycles: 26878702 heartbeat IPC: 2.71248 cumulative IPC: 1.11613 (Simulation time: 0 hr 24 min 56 sec) 
Heartbeat CPU 2 instructions: 70000000 cycles: 27527921 heartbeat IPC: 2.51124 cumulative IPC: 0.726535 (Simulation time: 0 hr 25 min 27 sec) 
Heartbeat CPU 0 instructions: 50000000 cycles: 28905628 heartbeat IPC: 1.5406 cumulative IPC: 1.72977 (Simulation time: 0 hr 26 min 29 sec) 

Warmup complete CPU 0 instructions: 50000001 cycles: 28905629 (Simulation time: 0 hr 26 min 29 sec) 
Warmup complete CPU 1 instructions: 68676597 cycles: 28905628 (Simulation time: 0 hr 26 min 29 sec) 
Warmup complete CPU 2 instructions: 73538991 cycles: 28905628 (Simulation time: 0 hr 26 min 29 sec) 
Warmup complete CPU 3 instructions: 85470954 cycles: 28905628 (Simulation time: 0 hr 26 min 29 sec) 

Heartbeat CPU 2 instructions: 80000001 cycles: 35186464 heartbeat IPC: 1.30573 cumulative IPC: 1.02869 (Simulation time: 0 hr 27 min 40 sec) 
Heartbeat CPU 1 instructions: 70000001 cycles: 35199303 heartbeat IPC: 0.940098 cumulative IPC: 0.210275 (Simulation time: 0 hr 27 min 40 sec) 
Heartbeat CPU 2 instructions: 90000000 cycles: 46427578 heartbeat IPC: 0.889591 cumulative IPC: 0.939451 (Simulation time: 0 hr 29 min 45 sec) 
Heartbeat CPU 3 instructions: 90000000 cycles: 48709403 heartbeat IPC: 0.45807 cumulative IPC: 0.228696 (Simulation time: 0 hr 30 min 14 sec) 
Heartbeat CPU 2 instructions: 100000002 cycles: 55999594 heartbeat IPC: 1.04471 cumulative IPC: 0.976638 (Simulation time: 0 hr 31 min 47 sec) 
Heartbeat CPU 2 instructions: 110000000 cycles: 67180045 heartbeat IPC: 0.894418 cumulative IPC: 0.952621 (Simulation time: 0 hr 33 min 56 sec) 
Heartbeat CPU 2 instructions: 120000000 cycles: 76771533 heartbeat IPC: 1.04259 cumulative IPC: 0.970649 (Simulation time: 0 hr 35 min 57 sec) 
Heartbeat CPU 1 instructions: 80000002 cycles: 82392602 heartbeat IPC: 0.211895 cumulative IPC: 0.211704 (Simulation time: 0 hr 37 min 1 sec) 
Heartbeat CPU 2 instructions: 130000002 cycles: 86812853 heartbeat IPC: 0.995885 cumulative IPC: 0.975025 (Simulation time: 0 hr 37 min 51 sec) 
Heartbeat CPU 3 instructions: 100000003 cycles: 91460405 heartbeat IPC: 0.233913 cumulative IPC: 0.232261 (Simulation time: 0 hr 38 min 36 sec) 
Heartbeat CPU 2 instructions: 140000001 cycles: 97529350 heartbeat IPC: 0.933141 cumulative IPC: 0.968484 (Simulation time: 0 hr 39 min 54 sec) 
Heartbeat CPU 2 instructions: 150000000 cycles: 107145788 heartbeat IPC: 1.03989 cumulative IPC: 0.97726 (Simulation time: 0 hr 41 min 40 sec) 
Heartbeat CPU 2 instructions: 160000000 cycles: 118304752 heartbeat IPC: 0.896141 cumulative IPC: 0.967135 (Simulation time: 0 hr 43 min 42 sec) 
Heartbeat CPU 2 instructions: 170000001 cycles: 127907347 heartbeat IPC: 1.04139 cumulative IPC: 0.974337 (Simulation time: 0 hr 45 min 33 sec) 
Heartbeat CPU 1 instructions: 90000001 cycles: 129848085 heartbeat IPC: 0.210724 cumulative IPC: 0.211243 (Simulation time: 0 hr 45 min 56 sec) 
Heartbeat CPU 3 instructions: 110000000 cycles: 135200811 heartbeat IPC: 0.228621 cumulative IPC: 0.230763 (Simulation time: 0 hr 46 min 48 sec) 
Heartbeat CPU 2 instructions: 180000003 cycles: 139075277 heartbeat IPC: 0.895421 cumulative IPC: 0.966337 (Simulation time: 0 hr 47 min 28 sec) 
Heartbeat CPU 2 instructions: 190000001 cycles: 148682018 heartbeat IPC: 1.04094 cumulative IPC: 0.97232 (Simulation time: 0 hr 49 min 21 sec) 
Heartbeat CPU 2 instructions: 200000002 cycles: 160349182 heartbeat IPC: 0.857106 cumulative IPC: 0.962094 (Simulation time: 0 hr 51 min 24 sec) 
Heartbeat CPU 2 instructions: 210000000 cycles: 169958407 heartbeat IPC: 1.04067 cumulative IPC: 0.967446 (Simulation time: 0 hr 53 min 19 sec) 
Heartbeat CPU 3 instructions: 120000001 cycles: 176972368 heartbeat IPC: 0.239397 cumulative IPC: 0.233199 (Simulation time: 0 hr 54 min 37 sec) 
Heartbeat CPU 1 instructions: 100000000 cycles: 176995175 heartbeat IPC: 0.212102 cumulative IPC: 0.211517 (Simulation time: 0 hr 54 min 37 sec) 
Heartbeat CPU 2 instructions: 220000000 cycles: 180525539 heartbeat IPC: 0.946331 cumulative IPC: 0.965975 (Simulation time: 0 hr 55 min 12 sec) 
Heartbeat CPU 2 instructions: 230000000 cycles: 191186578 heartbeat IPC: 0.937995 cumulative IPC: 0.964137 (Simulation time: 0 hr 57 min 7 sec) 
Heartbeat CPU 2 instructions: 240000000 cycles: 200780021 heartbeat IPC: 1.04238 cumulative IPC: 0.968504 (Simulation time: 0 hr 58 min 59 sec) 
Heartbeat CPU 2 instructions: 250000000 cycles: 212286217 heartbeat IPC: 0.869097 cumulative IPC: 0.962267 (Simulation time: 1 hr 0 min 53 sec) 
Heartbeat CPU 3 instructions: 130000002 cycles: 219797788 heartbeat IPC: 0.233506 cumulative IPC: 0.233268 (Simulation time: 1 hr 2 min 23 sec) 
Heartbeat CPU 2 instructions: 260000000 cycles: 221887837 heartbeat IPC: 1.04149 cumulative IPC: 0.966208 (Simulation time: 1 hr 2 min 50 sec) 
Heartbeat CPU 1 instructions: 110000000 cycles: 224154629 heartbeat IPC: 0.212047 cumulative IPC: 0.211645 (Simulation time: 1 hr 3 min 17 sec) 
Heartbeat CPU 2 instructions: 270000003 cycles: 233129304 heartbeat IPC: 0.889564 cumulative IPC: 0.961989 (Simulation time: 1 hr 4 min 55 sec) 
Finished CPU 2 instructions: 200000000 cycles: 207643237 cumulative IPC: 0.963191 (Simulation time: 1 hr 5 min 34 sec) 
Heartbeat CPU 2 instructions: 280000000 cycles: 242753330 heartbeat IPC: 1.03907 cumulative IPC: 0.965458 (Simulation time: 1 hr 6 min 50 sec) 
Heartbeat CPU 2 instructions: 290000000 cycles: 253743007 heartbeat IPC: 0.909945 cumulative IPC: 0.962745 (Simulation time: 1 hr 8 min 58 sec) 
Heartbeat CPU 3 instructions: 140000002 cycles: 259166493 heartbeat IPC: 0.254009 cumulative IPC: 0.236814 (Simulation time: 1 hr 10 min 8 sec) 
Heartbeat CPU 2 instructions: 300000003 cycles: 263309001 heartbeat IPC: 1.04537 cumulative IPC: 0.966117 (Simulation time: 1 hr 11 min 1 sec) 
Heartbeat CPU 1 instructions: 120000003 cycles: 268162794 heartbeat IPC: 0.227231 cumulative IPC: 0.214511 (Simulation time: 1 hr 12 min 7 sec) 
Heartbeat CPU 0 instructions: 60000003 cycles: 272437292 heartbeat IPC: 0.0410624 cumulative IPC: 0.0410624 (Simulation time: 1 hr 13 min 0 sec) 
Heartbeat CPU 2 instructions: 310000000 cycles: 273926631 heartbeat IPC: 0.94183 cumulative IPC: 0.965064 (Simulation time: 1 hr 13 min 13 sec) 
Heartbeat CPU 2 instructions: 320000002 cycles: 283813180 heartbeat IPC: 1.01148 cumulative IPC: 0.966864 (Simulation time: 1 hr 15 min 18 sec) 
Heartbeat CPU 3 instructions: 150000002 cycles: 292006950 heartbeat IPC: 0.304502 cumulative IPC: 0.245263 (Simulation time: 1 hr 17 min 12 sec) 
Heartbeat CPU 2 instructions: 330000000 cycles: 293381672 heartbeat IPC: 1.0451 cumulative IPC: 0.969695 (Simulation time: 1 hr 17 min 29 sec) 
Heartbeat CPU 2 instructions: 340000003 cycles: 304349391 heartbeat IPC: 0.911767 cumulative IPC: 0.967388 (Simulation time: 1 hr 19 min 43 sec) 
Heartbeat CPU 1 instructions: 130000000 cycles: 310677701 heartbeat IPC: 0.235212 cumulative IPC: 0.217635 (Simulation time: 1 hr 21 min 9 sec) 
Heartbeat CPU 2 instructions: 350000000 cycles: 313916757 heartbeat IPC: 1.04522 cumulative IPC: 0.970001 (Simulation time: 1 hr 21 min 55 sec) 
Heartbeat CPU 2 instructions: 360000000 cycles: 324880147 heartbeat IPC: 0.912127 cumulative IPC: 0.967857 (Simulation time: 1 hr 24 min 14 sec) 
Heartbeat CPU 3 instructions: 160000001 cycles: 325420012 heartbeat IPC: 0.299284 cumulative IPC: 0.251351 (Simulation time: 1 hr 24 min 22 sec) 
Heartbeat CPU 2 instructions: 370000001 cycles: 334450374 heartbeat IPC: 1.04491 cumulative IPC: 0.97027 (Simulation time: 1 hr 26 min 25 sec) 
Heartbeat CPU 2 instructions: 380000002 cycles: 345414882 heartbeat IPC: 0.912034 cumulative IPC: 0.968253 (Simulation time: 1 hr 28 min 42 sec) 
Heartbeat CPU 1 instructions: 140000001 cycles: 352769704 heartbeat IPC: 0.237575 cumulative IPC: 0.220226 (Simulation time: 1 hr 30 min 19 sec) 
Heartbeat CPU 2 instructions: 390000000 cycles: 355027744 heartbeat IPC: 1.04027 cumulative IPC: 0.970376 (Simulation time: 1 hr 30 min 48 sec) 
Heartbeat CPU 3 instructions: 170000001 cycles: 357822137 heartbeat IPC: 0.308622 cumulative IPC: 0.256992 (Simulation time: 1 hr 31 min 27 sec) 
Heartbeat CPU 2 instructions: 400000002 cycles: 366006521 heartbeat IPC: 0.910848 cumulative IPC: 0.968437 (Simulation time: 1 hr 33 min 1 sec) 
Heartbeat CPU 2 instructions: 410000002 cycles: 375590528 heartbeat IPC: 1.0434 cumulative IPC: 0.97051 (Simulation time: 1 hr 35 min 3 sec) 
Heartbeat CPU 2 instructions: 420000003 cycles: 385168406 heartbeat IPC: 1.04407 cumulative IPC: 0.972487 (Simulation time: 1 hr 37 min 11 sec) 
Heartbeat CPU 3 instructions: 180000003 cycles: 391375536 heartbeat IPC: 0.298032 cumulative IPC: 0.260791 (Simulation time: 1 hr 38 min 26 sec) 
Heartbeat CPU 1 instructions: 150000002 cycles: 395029654 heartbeat IPC: 0.236631 cumulative IPC: 0.22212 (Simulation time: 1 hr 39 min 12 sec) 
Heartbeat CPU 2 instructions: 430000001 cycles: 396158908 heartbeat IPC: 0.909876 cumulative IPC: 0.970614 (Simulation time: 1 hr 39 min 26 sec) 
Heartbeat CPU 2 instructions: 440000000 cycles: 405731706 heartbeat IPC: 1.04463 cumulative IPC: 0.972494 (Simulation time: 1 hr 41 min 41 sec) 
Heartbeat CPU 2 instructions: 450000001 cycles: 416710180 heartbeat IPC: 0.910873 cumulative IPC: 0.970749 (Simulation time: 1 hr 44 min 0 sec) 
Heartbeat CPU 3 instructions: 190000002 cycles: 424760156 heartbeat IPC: 0.299539 cumulative IPC: 0.264059 (Simulation time: 1 hr 45 min 51 sec) 
Heartbeat CPU 2 instructions: 460000001 cycles: 426255132 heartbeat IPC: 1.04767 cumulative IPC: 0.972597 (Simulation time: 1 hr 46 min 12 sec) 
Heartbeat CPU 2 instructions: 470000001 cycles: 437189913 heartbeat IPC: 0.914513 cumulative IPC: 0.971042 (Simulation time: 1 hr 48 min 34 sec) 
Heartbeat CPU 1 instructions: 160000000 cycles: 437869777 heartbeat IPC: 0.233426 cumulative IPC: 0.223304 (Simulation time: 1 hr 48 min 43 sec) 
Heartbeat CPU 2 instructions: 480000001 cycles: 446724596 heartbeat IPC: 1.0488 cumulative IPC: 0.972816 (Simulation time: 1 hr 50 min 47 sec) 
Heartbeat CPU 2 instructions: 490000000 cycles: 457674071 heartbeat IPC: 0.913286 cumulative IPC: 0.971296 (Simulation time: 1 hr 53 min 5 sec) 
Heartbeat CPU 3 instructions: 200000002 cycles: 458470927 heartbeat IPC: 0.296641 cumulative IPC: 0.266616 (Simulation time: 1 hr 53 min 16 sec) 
Heartbeat CPU 2 instructions: 500000003 cycles: 467209774 heartbeat IPC: 1.04869 cumulative IPC: 0.97298 (Simulation time: 1 hr 55 min 10 sec) 
Heartbeat CPU 0 instructions: 70000001 cycles: 475393536 heartbeat IPC: 0.0492717 cumulative IPC: 0.044794 (Simulation time: 1 hr 57 min 6 sec) 
Heartbeat CPU 2 instructions: 510000000 cycles: 476749987 heartbeat IPC: 1.04819 cumulative IPC: 0.974582 (Simulation time: 1 hr 57 min 26 sec) 
Heartbeat CPU 1 instructions: 170000001 cycles: 479675921 heartbeat IPC: 0.239199 cumulative IPC: 0.224778 (Simulation time: 1 hr 57 min 59 sec) 
Heartbeat CPU 2 instructions: 520000003 cycles: 487673030 heartbeat IPC: 0.915496 cumulative IPC: 0.973175 (Simulation time: 1 hr 59 min 48 sec) 
Heartbeat CPU 3 instructions: 210000003 cycles: 491880455 heartbeat IPC: 0.299316 cumulative IPC: 0.268976 (Simulation time: 2 hr 0 min 49 sec) 
Heartbeat CPU 2 instructions: 530000002 cycles: 497230422 heartbeat IPC: 1.04631 cumulative IPC: 0.974668 (Simulation time: 2 hr 2 min 5 sec) 
Heartbeat CPU 2 instructions: 540000002 cycles: 508177912 heartbeat IPC: 0.913451 cumulative IPC: 0.973269 (Simulation time: 2 hr 4 min 29 sec) 
Heartbeat CPU 2 instructions: 550000000 cycles: 517739116 heartbeat IPC: 1.04589 cumulative IPC: 0.97469 (Simulation time: 2 hr 6 min 46 sec) 
Heartbeat CPU 1 instructions: 180000000 cycles: 521448363 heartbeat IPC: 0.239392 cumulative IPC: 0.226018 (Simulation time: 2 hr 7 min 39 sec) 
Heartbeat CPU 3 instructions: 220000000 cycles: 525325116 heartbeat IPC: 0.299001 cumulative IPC: 0.270999 (Simulation time: 2 hr 8 min 26 sec) 
Heartbeat CPU 2 instructions: 560000001 cycles: 528683043 heartbeat IPC: 0.913749 cumulative IPC: 0.973355 (Simulation time: 2 hr 9 min 10 sec) 
Heartbeat CPU 2 instructions: 570000000 cycles: 538252826 heartbeat IPC: 1.04496 cumulative IPC: 0.974701 (Simulation time: 2 hr 11 min 26 sec) 
Heartbeat CPU 2 instructions: 580000000 cycles: 549202582 heartbeat IPC: 0.913262 cumulative IPC: 0.973408 (Simulation time: 2 hr 13 min 54 sec) 
Heartbeat CPU 2 instructions: 590000002 cycles: 558794211 heartbeat IPC: 1.04258 cumulative IPC: 0.97466 (Simulation time: 2 hr 16 min 8 sec) 
Heartbeat CPU 3 instructions: 230000002 cycles: 559519432 heartbeat IPC: 0.292446 cumulative IPC: 0.272381 (Simulation time: 2 hr 16 min 18 sec) 
Heartbeat CPU 1 instructions: 190000003 cycles: 563642103 heartbeat IPC: 0.237002 cumulative IPC: 0.226884 (Simulation time: 2 hr 17 min 16 sec) 
Heartbeat CPU 2 instructions: 600000000 cycles: 568361410 heartbeat IPC: 1.04524 cumulative IPC: 0.975911 (Simulation time: 2 hr 18 min 23 sec) 
Heartbeat CPU 2 instructions: 610000000 cycles: 579322288 heartbeat IPC: 0.912336 cumulative IPC: 0.974645 (Simulation time: 2 hr 20 min 46 sec) 
Heartbeat CPU 2 instructions: 620000000 cycles: 588905424 heartbeat IPC: 1.0435 cumulative IPC: 0.975824 (Simulation time: 2 hr 23 min 0 sec) 
Heartbeat CPU 3 instructions: 240000002 cycles: 593513751 heartbeat IPC: 0.294167 cumulative IPC: 0.273693 (Simulation time: 2 hr 24 min 0 sec) 
Heartbeat CPU 2 instructions: 630000001 cycles: 599857864 heartbeat IPC: 0.913039 cumulative IPC: 0.974619 (Simulation time: 2 hr 25 min 20 sec) 
Heartbeat CPU 1 instructions: 200000000 cycles: 605560513 heartbeat IPC: 0.238559 cumulative IPC: 0.227733 (Simulation time: 2 hr 26 min 39 sec) 
Heartbeat CPU 2 instructions: 640000000 cycles: 609423711 heartbeat IPC: 1.04539 cumulative IPC: 0.975785 (Simulation time: 2 hr 27 min 33 sec) 
Heartbeat CPU 2 instructions: 650000003 cycles: 620355518 heartbeat IPC: 0.914762 cumulative IPC: 0.974657 (Simulation time: 2 hr 29 min 54 sec) 
Heartbeat CPU 3 instructions: 250000002 cycles: 628329153 heartbeat IPC: 0.287229 cumulative IPC: 0.274479 (Simulation time: 2 hr 31 min 45 sec) 
Heartbeat CPU 2 instructions: 660000000 cycles: 629910508 heartbeat IPC: 1.04657 cumulative IPC: 0.975801 (Simulation time: 2 hr 32 min 7 sec) 
Heartbeat CPU 2 instructions: 670000003 cycles: 640859113 heartbeat IPC: 0.913359 cumulative IPC: 0.974684 (Simulation time: 2 hr 34 min 29 sec) 
Heartbeat CPU 1 instructions: 210000000 cycles: 647695929 heartbeat IPC: 0.23733 cumulative IPC: 0.228387 (Simulation time: 2 hr 36 min 1 sec) 
Heartbeat CPU 2 instructions: 680000003 cycles: 650447017 heartbeat IPC: 1.04298 cumulative IPC: 0.975737 (Simulation time: 2 hr 36 min 39 sec) 
Heartbeat CPU 2 instructions: 690000000 cycles: 660042512 heartbeat IPC: 1.04216 cumulative IPC: 0.976747 (Simulation time: 2 hr 38 min 51 sec) 
Heartbeat CPU 3 instructions: 260000000 cycles: 664468846 heartbeat IPC: 0.276704 cumulative IPC: 0.274605 (Simulation time: 2 hr 39 min 41 sec) 
Heartbeat CPU 2 instructions: 700000001 cycles: 670976859 heartbeat IPC: 0.914549 cumulative IPC: 0.975688 (Simulation time: 2 hr 41 min 7 sec) 
Heartbeat CPU 0 instructions: 80000003 cycles: 675922736 heartbeat IPC: 0.0498681 cumulative IPC: 0.0463666 (Simulation time: 2 hr 42 min 7 sec) 
Heartbeat CPU 2 instructions: 710000003 cycles: 680545896 heartbeat IPC: 1.04504 cumulative IPC: 0.976706 (Simulation time: 2 hr 43 min 5 sec) 
Heartbeat CPU 1 instructions: 220000000 cycles: 690007954 heartbeat IPC: 0.236339 cumulative IPC: 0.228896 (Simulation time: 2 hr 45 min 4 sec) 
Heartbeat CPU 2 instructions: 720000002 cycles: 691467249 heartbeat IPC: 0.915637 cumulative IPC: 0.975699 (Simulation time: 2 hr 45 min 24 sec) 
Heartbeat CPU 3 instructions: 270000002 cycles: 699786052 heartbeat IPC: 0.283148 cumulative IPC: 0.275055 (Simulation time: 2 hr 47 min 18 sec) 
Heartbeat CPU 2 instructions: 730000000 cycles: 701034319 heartbeat IPC: 1.04525 cumulative IPC: 0.976689 (Simulation time: 2 hr 47 min 36 sec) 
Heartbeat CPU 2 instructions: 740000000 cycles: 711956943 heartbeat IPC: 0.915531 cumulative IPC: 0.975711 (Simulation time: 2 hr 49 min 59 sec) 
Heartbeat CPU 2 instructions: 750000002 cycles: 721510637 heartbeat IPC: 1.04672 cumulative IPC: 0.976691 (Simulation time: 2 hr 52 min 13 sec) 
Heartbeat CPU 1 instructions: 230000002 cycles: 731428109 heartbeat IPC: 0.241428 cumulative IPC: 0.229635 (Simulation time: 2 hr 54 min 10 sec) 
Heartbeat CPU 2 instructions: 760000002 cycles: 732440920 heartbeat IPC: 0.914889 cumulative IPC: 0.975731 (Simulation time: 2 hr 54 min 23 sec) 
Heartbeat CPU 3 instructions: 280000003 cycles: 735229336 heartbeat IPC: 0.282141 cumulative IPC: 0.275411 (Simulation time: 2 hr 55 min 3 sec) 
Heartbeat CPU 2 instructions: 770000000 cycles: 741989739 heartbeat IPC: 1.04725 cumulative IPC: 0.976688 (Simulation time: 2 hr 56 min 35 sec) 
Heartbeat CPU 2 instructions: 780000002 cycles: 751525271 heartbeat IPC: 1.04871 cumulative IPC: 0.977639 (Simulation time: 2 hr 58 min 44 sec) 
Finished CPU 3 instructions: 200000000 cycles: 726152580 cumulative IPC: 0.275424 (Simulation time: 2 hr 59 min 22 sec) 
Heartbeat CPU 2 instructions: 790000001 cycles: 762488437 heartbeat IPC: 0.912145 cumulative IPC: 0.97666 (Simulation time: 3 hr 1 min 0 sec) 
Heartbeat CPU 3 instructions: 290000000 cycles: 771806588 heartbeat IPC: 0.273394 cumulative IPC: 0.275311 (Simulation time: 3 hr 3 min 7 sec) 
Heartbeat CPU 2 instructions: 800000000 cycles: 772064023 heartbeat IPC: 1.04432 cumulative IPC: 0.977532 (Simulation time: 3 hr 3 min 11 sec) 
Heartbeat CPU 1 instructions: 240000001 cycles: 773319179 heartbeat IPC: 0.238714 cumulative IPC: 0.230145 (Simulation time: 3 hr 3 min 29 sec) 
Heartbeat CPU 2 instructions: 810000001 cycles: 783011032 heartbeat IPC: 0.913492 cumulative IPC: 0.976602 (Simulation time: 3 hr 5 min 33 sec) 
Heartbeat CPU 2 instructions: 820000001 cycles: 792548535 heartbeat IPC: 1.04849 cumulative IPC: 0.9775 (Simulation time: 3 hr 7 min 46 sec) 
Heartbeat CPU 2 instructions: 830000000 cycles: 803439588 heartbeat IPC: 0.918185 cumulative IPC: 0.976666 (Simulation time: 3 hr 10 min 9 sec) 
Heartbeat CPU 3 instructions: 300000002 cycles: 810077682 heartbeat IPC: 0.261294 cumulative IPC: 0.274625 (Simulation time: 3 hr 11 min 38 sec) 
Heartbeat CPU 2 instructions: 840000000 cycles: 812967518 heartbeat IPC: 1.04955 cumulative IPC: 0.977552 (Simulation time: 3 hr 12 min 18 sec) 
Heartbeat CPU 1 instructions: 250000000 cycles: 815301980 heartbeat IPC: 0.238193 cumulative IPC: 0.230575 (Simulation time: 3 hr 12 min 50 sec) 
Heartbeat CPU 2 instructions: 850000001 cycles: 823898026 heartbeat IPC: 0.914871 cumulative IPC: 0.97669 (Simulation time: 3 hr 14 min 38 sec) 
Heartbeat CPU 2 instructions: 860000002 cycles: 833454580 heartbeat IPC: 1.0464 cumulative IPC: 0.977518 (Simulation time: 3 hr 16 min 45 sec) 
Heartbeat CPU 2 instructions: 870000000 cycles: 843220755 heartbeat IPC: 1.02394 cumulative IPC: 0.978075 (Simulation time: 3 hr 18 min 51 sec) 
Heartbeat CPU 3 instructions: 310000000 cycles: 848559182 heartbeat IPC: 0.259865 cumulative IPC: 0.273932 (Simulation time: 3 hr 19 min 53 sec) 
Heartbeat CPU 2 instructions: 880000000 cycles: 853906121 heartbeat IPC: 0.935859 cumulative IPC: 0.977528 (Simulation time: 3 hr 21 min 2 sec) 
Heartbeat CPU 1 instructions: 260000000 cycles: 857091066 heartbeat IPC: 0.239297 cumulative IPC: 0.231015 (Simulation time: 3 hr 21 min 44 sec) 
Heartbeat CPU 2 instructions: 890000000 cycles: 863462684 heartbeat IPC: 1.0464 cumulative IPC: 0.978317 (Simulation time: 3 hr 23 min 11 sec) 
Heartbeat CPU 0 instructions: 90000000 cycles: 873705734 heartbeat IPC: 0.0505604 cumulative IPC: 0.0473485 (Simulation time: 3 hr 25 min 20 sec) 
Heartbeat CPU 2 instructions: 900000001 cycles: 874401683 heartbeat IPC: 0.91416 cumulative IPC: 0.977487 (Simulation time: 3 hr 25 min 30 sec) 
Heartbeat CPU 2 instructions: 910000001 cycles: 883951108 heartbeat IPC: 1.04718 cumulative IPC: 0.978265 (Simulation time: 3 hr 27 min 36 sec) 
Heartbeat CPU 3 instructions: 320000001 cycles: 886920062 heartbeat IPC: 0.260682 cumulative IPC: 0.273339 (Simulation time: 3 hr 28 min 18 sec) 
Finished CPU 1 instructions: 200000000 cycles: 865015956 cumulative IPC: 0.23121 (Simulation time: 3 hr 29 min 44 sec) 
Heartbeat CPU 2 instructions: 920000000 cycles: 894856082 heartbeat IPC: 0.917013 cumulative IPC: 0.977494 (Simulation time: 3 hr 29 min 57 sec) 
Heartbeat CPU 1 instructions: 270000000 cycles: 899492273 heartbeat IPC: 0.235842 cumulative IPC: 0.23125 (Simulation time: 3 hr 30 min 56 sec) 
Heartbeat CPU 2 instructions: 930000001 cycles: 904390772 heartbeat IPC: 1.0488 cumulative IPC: 0.97827 (Simulation time: 3 hr 31 min 57 sec) 
Heartbeat CPU 2 instructions: 940000000 cycles: 915281270 heartbeat IPC: 0.918232 cumulative IPC: 0.977533 (Simulation time: 3 hr 34 min 17 sec) 
Heartbeat CPU 2 instructions: 950000000 cycles: 924844129 heartbeat IPC: 1.04571 cumulative IPC: 0.97826 (Simulation time: 3 hr 36 min 22 sec) 
Heartbeat CPU 3 instructions: 330000000 cycles: 927801097 heartbeat IPC: 0.244612 cumulative IPC: 0.272033 (Simulation time: 3 hr 37 min 2 sec) 
Heartbeat CPU 2 instructions: 960000001 cycles: 934944406 heartbeat IPC: 0.990072 cumulative IPC: 0.978392 (Simulation time: 3 hr 38 min 34 sec) 
Heartbeat CPU 1 instructions: 280000001 cycles: 941229165 heartbeat IPC: 0.239596 cumulative IPC: 0.231632 (Simulation time: 3 hr 39 min 45 sec) 
Heartbeat CPU 2 instructions: 970000001 cycles: 945309837 heartbeat IPC: 0.964745 cumulative IPC: 0.978238 (Simulation time: 3 hr 40 min 35 sec) 
Heartbeat CPU 2 instructions: 980000000 cycles: 954858586 heartbeat IPC: 1.04726 cumulative IPC: 0.978949 (Simulation time: 3 hr 42 min 36 sec) 
Heartbeat CPU 2 instructions: 990000000 cycles: 965756801 heartbeat IPC: 0.917581 cumulative IPC: 0.978235 (Simulation time: 3 hr 44 min 50 sec) 
Heartbeat CPU 3 instructions: 340000002 cycles: 969923899 heartbeat IPC: 0.237401 cumulative IPC: 0.270483 (Simulation time: 3 hr 45 min 45 sec) 
Heartbeat CPU 2 instructions: 1000000000 cycles: 975342608 heartbeat IPC: 1.04321 cumulative IPC: 0.978894 (Simulation time: 3 hr 46 min 58 sec) 
Heartbeat CPU 1 instructions: 290000000 cycles: 983236287 heartbeat IPC: 0.238055 cumulative IPC: 0.231915 (Simulation time: 3 hr 48 min 36 sec) 
Heartbeat CPU 2 instructions: 1010000000 cycles: 986242849 heartbeat IPC: 0.917411 cumulative IPC: 0.978193 (Simulation time: 3 hr 49 min 12 sec) 
Heartbeat CPU 2 instructions: 1020000002 cycles: 995779591 heartbeat IPC: 1.04858 cumulative IPC: 0.978888 (Simulation time: 3 hr 51 min 15 sec) 
Heartbeat CPU 2 instructions: 1030000001 cycles: 1006665953 heartbeat IPC: 0.91858 cumulative IPC: 0.978216 (Simulation time: 3 hr 53 min 26 sec) 
Heartbeat CPU 3 instructions: 350000003 cycles: 1012978519 heartbeat IPC: 0.232263 cumulative IPC: 0.26881 (Simulation time: 3 hr 54 min 48 sec) 
Heartbeat CPU 2 instructions: 1040000002 cycles: 1016197861 heartbeat IPC: 1.04911 cumulative IPC: 0.978901 (Simulation time: 3 hr 55 min 33 sec) 
Heartbeat CPU 1 instructions: 300000000 cycles: 1024661359 heartbeat IPC: 0.2414 cumulative IPC: 0.232309 (Simulation time: 3 hr 57 min 21 sec) 
Heartbeat CPU 2 instructions: 1050000000 cycles: 1026640374 heartbeat IPC: 0.957624 cumulative IPC: 0.978678 (Simulation time: 3 hr 57 min 42 sec) 
Heartbeat CPU 2 instructions: 1060000003 cycles: 1036637256 heartbeat IPC: 1.00031 cumulative IPC: 0.978893 (Simulation time: 3 hr 59 min 44 sec) 
Heartbeat CPU 2 instructions: 1070000000 cycles: 1046182306 heartbeat IPC: 1.04766 cumulative IPC: 0.979538 (Simulation time: 4 hr 1 min 51 sec) 
Heartbeat CPU 2 instructions: 1080000000 cycles: 1057234329 heartbeat IPC: 0.904812 cumulative IPC: 0.978735 (Simulation time: 4 hr 4 min 7 sec) 
Heartbeat CPU 3 instructions: 360000003 cycles: 1057708994 heartbeat IPC: 0.223561 cumulative IPC: 0.266843 (Simulation time: 4 hr 4 min 13 sec) 
Heartbeat CPU 1 instructions: 310000000 cycles: 1066007621 heartbeat IPC: 0.24186 cumulative IPC: 0.23269 (Simulation time: 4 hr 6 min 4 sec) 
Heartbeat CPU 2 instructions: 1090000003 cycles: 1066779375 heartbeat IPC: 1.04766 cumulative IPC: 0.979369 (Simulation time: 4 hr 6 min 15 sec) 
Heartbeat CPU 0 instructions: 100000002 cycles: 1068916235 heartbeat IPC: 0.0512268 cumulative IPC: 0.0480764 (Simulation time: 4 hr 6 min 43 sec) 
Heartbeat CPU 2 instructions: 1100000000 cycles: 1077972740 heartbeat IPC: 0.893386 cumulative IPC: 0.978451 (Simulation time: 4 hr 8 min 23 sec) 
Heartbeat CPU 2 instructions: 1110000003 cycles: 1087729887 heartbeat IPC: 1.02489 cumulative IPC: 0.978879 (Simulation time: 4 hr 10 min 33 sec) 
Heartbeat CPU 2 instructions: 1120000002 cycles: 1098997767 heartbeat IPC: 0.887478 cumulative IPC: 0.977917 (Simulation time: 4 hr 12 min 51 sec) 
Heartbeat CPU 3 instructions: 370000001 cycles: 1106198106 heartbeat IPC: 0.206232 cumulative IPC: 0.264115 (Simulation time: 4 hr 14 min 21 sec) 
Heartbeat CPU 1 instructions: 320000002 cycles: 1108280955 heartbeat IPC: 0.236556 cumulative IPC: 0.232842 (Simulation time: 4 hr 14 min 48 sec) 
Heartbeat CPU 2 instructions: 1130000001 cycles: 1108758890 heartbeat IPC: 1.02447 cumulative IPC: 0.978338 (Simulation time: 4 hr 14 min 53 sec) 
Heartbeat CPU 2 instructions: 1140000003 cycles: 1119921827 heartbeat IPC: 0.895822 cumulative IPC: 0.977493 (Simulation time: 4 hr 17 min 3 sec) 
Heartbeat CPU 2 instructions: 1150000000 cycles: 1129853343 heartbeat IPC: 1.0069 cumulative IPC: 0.977759 (Simulation time: 4 hr 19 min 7 sec) 
Heartbeat CPU 2 instructions: 1160000000 cycles: 1139654483 heartbeat IPC: 1.02029 cumulative IPC: 0.978134 (Simulation time: 4 hr 21 min 13 sec) 
Heartbeat CPU 1 instructions: 330000000 cycles: 1150059555 heartbeat IPC: 0.239357 cumulative IPC: 0.233084 (Simulation time: 4 hr 23 min 13 sec) 
Heartbeat CPU 2 instructions: 1170000000 cycles: 1150960914 heartbeat IPC: 0.884452 cumulative IPC: 0.97719 (Simulation time: 4 hr 23 min 25 sec) 
Heartbeat CPU 3 instructions: 380000000 cycles: 1157059119 heartbeat IPC: 0.196614 cumulative IPC: 0.261072 (Simulation time: 4 hr 24 min 39 sec) 
Heartbeat CPU 2 instructions: 1180000000 cycles: 1160727317 heartbeat IPC: 1.02392 cumulative IPC: 0.977593 (Simulation time: 4 hr 25 min 26 sec) 
Heartbeat CPU 2 instructions: 1190000001 cycles: 1171978521 heartbeat IPC: 0.888794 cumulative IPC: 0.976719 (Simulation time: 4 hr 27 min 38 sec) 
Heartbeat CPU 2 instructions: 1200000001 cycles: 1181765439 heartbeat IPC: 1.02177 cumulative IPC: 0.977101 (Simulation time: 4 hr 29 min 39 sec) 
Heartbeat CPU 1 instructions: 340000001 cycles: 1191474827 heartbeat IPC: 0.241457 cumulative IPC: 0.233383 (Simulation time: 4 hr 31 min 32 sec) 
Heartbeat CPU 2 instructions: 1210000000 cycles: 1193033753 heartbeat IPC: 0.887444 cumulative IPC: 0.976234 (Simulation time: 4 hr 31 min 52 sec) 
Heartbeat CPU 2 instructions: 1220000000 cycles: 1202794104 heartbeat IPC: 1.02455 cumulative IPC: 0.976635 (Simulation time: 4 hr 33 min 57 sec) 
Heartbeat CPU 3 instructions: 390000002 cycles: 1211233141 heartbeat IPC: 0.18459 cumulative IPC: 0.257567 (Simulation time: 4 hr 35 min 45 sec) 
Heartbeat CPU 2 instructions: 1230000000 cycles: 1214063600 heartbeat IPC: 0.887351 cumulative IPC: 0.975786 (Simulation time: 4 hr 36 min 10 sec) 
Heartbeat CPU 2 instructions: 1240000002 cycles: 1223810857 heartbeat IPC: 1.02593 cumulative IPC: 0.976195 (Simulation time: 4 hr 38 min 14 sec) 
Heartbeat CPU 1 instructions: 350000000 cycles: 1232921180 heartbeat IPC: 0.241276 cumulative IPC: 0.233654 (Simulation time: 4 hr 40 min 10 sec) 
Heartbeat CPU 2 instructions: 1250000002 cycles: 1233565484 heartbeat IPC: 1.02515 cumulative IPC: 0.976592 (Simulation time: 4 hr 40 min 18 sec) 
Heartbeat CPU 2 instructions: 1260000000 cycles: 1244785820 heartbeat IPC: 0.891239 cumulative IPC: 0.975804 (Simulation time: 4 hr 42 min 31 sec) 
Heartbeat CPU 0 instructions: 110000000 cycles: 1253454610 heartbeat IPC: 0.0541893 cumulative IPC: 0.0489976 (Simulation time: 4 hr 44 min 23 sec) 
Heartbeat CPU 2 instructions: 1270000002 cycles: 1254537908 heartbeat IPC: 1.02542 cumulative IPC: 0.976199 (Simulation time: 4 hr 44 min 37 sec) 
Heartbeat CPU 2 instructions: 1280000001 cycles: 1265820191 heartbeat IPC: 0.886345 cumulative IPC: 0.975379 (Simulation time: 4 hr 46 min 57 sec) 
Heartbeat CPU 3 instructions: 400000000 cycles: 1273001492 heartbeat IPC: 0.161895 cumulative IPC: 0.252817 (Simulation time: 4 hr 48 min 24 sec) 
Heartbeat CPU 1 instructions: 360000003 cycles: 1274320656 heartbeat IPC: 0.241549 cumulative IPC: 0.233917 (Simulation time: 4 hr 48 min 40 sec) 
Heartbeat CPU 2 instructions: 1290000000 cycles: 1275568772 heartbeat IPC: 1.02579 cumulative IPC: 0.975774 (Simulation time: 4 hr 48 min 55 sec) 
Heartbeat CPU 2 instructions: 1300000003 cycles: 1286806258 heartbeat IPC: 0.889879 cumulative IPC: 0.975006 (Simulation time: 4 hr 51 min 3 sec) 
Heartbeat CPU 2 instructions: 1310000001 cycles: 1296566307 heartbeat IPC: 1.02458 cumulative IPC: 0.975388 (Simulation time: 4 hr 53 min 7 sec) 
Heartbeat CPU 2 instructions: 1320000000 cycles: 1307792335 heartbeat IPC: 0.890787 cumulative IPC: 0.974645 (Simulation time: 4 hr 55 min 21 sec) 
Heartbeat CPU 1 instructions: 370000001 cycles: 1315342264 heartbeat IPC: 0.243774 cumulative IPC: 0.234231 (Simulation time: 4 hr 56 min 52 sec) 
Heartbeat CPU 2 instructions: 1330000001 cycles: 1317531606 heartbeat IPC: 1.02677 cumulative IPC: 0.975039 (Simulation time: 4 hr 57 min 18 sec) 
Heartbeat CPU 2 instructions: 1340000001 cycles: 1327270605 heartbeat IPC: 1.0268 cumulative IPC: 0.975428 (Simulation time: 4 hr 59 min 16 sec) 
Heartbeat CPU 2 instructions: 1350000000 cycles: 1338486674 heartbeat IPC: 0.891578 cumulative IPC: 0.974709 (Simulation time: 5 hr 1 min 23 sec) 
Heartbeat CPU 3 instructions: 410000003 cycles: 1344181505 heartbeat IPC: 0.140489 cumulative IPC: 0.246738 (Simulation time: 5 hr 2 min 33 sec) 
Heartbeat CPU 2 instructions: 1360000001 cycles: 1348231911 heartbeat IPC: 1.02614 cumulative IPC: 0.975089 (Simulation time: 5 hr 3 min 26 sec) 
Heartbeat CPU 1 instructions: 380000000 cycles: 1356167604 heartbeat IPC: 0.244946 cumulative IPC: 0.234561 (Simulation time: 5 hr 4 min 58 sec) 
Heartbeat CPU 2 instructions: 1370000003 cycles: 1359448986 heartbeat IPC: 0.891498 cumulative IPC: 0.974385 (Simulation time: 5 hr 5 min 40 sec) 
Heartbeat CPU 2 instructions: 1380000000 cycles: 1369188738 heartbeat IPC: 1.02672 cumulative IPC: 0.974765 (Simulation time: 5 hr 7 min 42 sec) 
Heartbeat CPU 2 instructions: 1390000000 cycles: 1380367879 heartbeat IPC: 0.894523 cumulative IPC: 0.974101 (Simulation time: 5 hr 9 min 51 sec) 
Heartbeat CPU 2 instructions: 1400000000 cycles: 1390118194 heartbeat IPC: 1.02561 cumulative IPC: 0.97447 (Simulation time: 5 hr 11 min 52 sec) 
Heartbeat CPU 1 instructions: 390000003 cycles: 1396110211 heartbeat IPC: 0.250359 cumulative IPC: 0.235022 (Simulation time: 5 hr 13 min 8 sec) 
Heartbeat CPU 2 instructions: 1410000003 cycles: 1401479144 heartbeat IPC: 0.880208 cumulative IPC: 0.97369 (Simulation time: 5 hr 14 min 8 sec) 
Heartbeat CPU 2 instructions: 1420000003 cycles: 1411259555 heartbeat IPC: 1.02245 cumulative IPC: 0.974035 (Simulation time: 5 hr 16 min 11 sec) 
Heartbeat CPU 2 instructions: 1430000000 cycles: 1421025711 heartbeat IPC: 1.02394 cumulative IPC: 0.974385 (Simulation time: 5 hr 18 min 15 sec) 
Heartbeat CPU 0 instructions: 120000001 cycles: 1428035917 heartbeat IPC: 0.0572799 cumulative IPC: 0.0500311 (Simulation time: 5 hr 19 min 34 sec) 
Heartbeat CPU 2 instructions: 1440000001 cycles: 1432255219 heartbeat IPC: 0.890511 cumulative IPC: 0.973714 (Simulation time: 5 hr 20 min 18 sec) 
Heartbeat CPU 3 instructions: 420000002 cycles: 1435302620 heartbeat IPC: 0.109744 cumulative IPC: 0.237862 (Simulation time: 5 hr 20 min 50 sec) 
Heartbeat CPU 1 instructions: 400000000 cycles: 1437880493 heartbeat IPC: 0.239405 cumulative IPC: 0.235152 (Simulation time: 5 hr 21 min 17 sec) 
Heartbeat CPU 2 instructions: 1450000001 cycles: 1442030915 heartbeat IPC: 1.02295 cumulative IPC: 0.974054 (Simulation time: 5 hr 22 min 0 sec) 
Heartbeat CPU 2 instructions: 1460000002 cycles: 1453272750 heartbeat IPC: 0.889535 cumulative IPC: 0.973387 (Simulation time: 5 hr 24 min 0 sec) 
Heartbeat CPU 2 instructions: 1470000002 cycles: 1463140615 heartbeat IPC: 1.01339 cumulative IPC: 0.973663 (Simulation time: 5 hr 26 min 2 sec) 
Heartbeat CPU 2 instructions: 1480000000 cycles: 1474426115 heartbeat IPC: 0.886093 cumulative IPC: 0.972979 (Simulation time: 5 hr 28 min 10 sec) 
Heartbeat CPU 1 instructions: 410000001 cycles: 1478518675 heartbeat IPC: 0.246074 cumulative IPC: 0.235458 (Simulation time: 5 hr 28 min 54 sec) 
Heartbeat CPU 2 instructions: 1490000000 cycles: 1484276661 heartbeat IPC: 1.01517 cumulative IPC: 0.973265 (Simulation time: 5 hr 30 min 1 sec) 
Heartbeat CPU 2 instructions: 1500000001 cycles: 1495561623 heartbeat IPC: 0.886135 cumulative IPC: 0.972594 (Simulation time: 5 hr 32 min 8 sec) 
Heartbeat CPU 2 instructions: 1510000001 cycles: 1505470822 heartbeat IPC: 1.00916 cumulative IPC: 0.97284 (Simulation time: 5 hr 34 min 0 sec) 
Heartbeat CPU 2 instructions: 1520000000 cycles: 1515331361 heartbeat IPC: 1.01414 cumulative IPC: 0.973114 (Simulation time: 5 hr 35 min 54 sec) 
Heartbeat CPU 1 instructions: 420000000 cycles: 1519006078 heartbeat IPC: 0.24699 cumulative IPC: 0.235772 (Simulation time: 5 hr 36 min 30 sec) 
Heartbeat CPU 2 instructions: 1530000003 cycles: 1526682448 heartbeat IPC: 0.880973 cumulative IPC: 0.972415 (Simulation time: 5 hr 38 min 0 sec) 
Heartbeat CPU 2 instructions: 1540000000 cycles: 1536535936 heartbeat IPC: 1.01487 cumulative IPC: 0.972693 (Simulation time: 5 hr 39 min 54 sec) 
Heartbeat CPU 2 instructions: 1550000002 cycles: 1547641767 heartbeat IPC: 0.900428 cumulative IPC: 0.972164 (Simulation time: 5 hr 41 min 53 sec) 
Heartbeat CPU 2 instructions: 1560000001 cycles: 1557484532 heartbeat IPC: 1.01597 cumulative IPC: 0.972446 (Simulation time: 5 hr 43 min 47 sec) 
Heartbeat CPU 1 instructions: 430000000 cycles: 1560051993 heartbeat IPC: 0.24363 cumulative IPC: 0.235982 (Simulation time: 5 hr 44 min 16 sec) 
Heartbeat CPU 3 instructions: 430000001 cycles: 1562520869 heartbeat IPC: 0.0786051 cumulative IPC: 0.224652 (Simulation time: 5 hr 44 min 44 sec) 
Heartbeat CPU 2 instructions: 1570000003 cycles: 1568490746 heartbeat IPC: 0.908578 cumulative IPC: 0.97199 (Simulation time: 5 hr 45 min 45 sec) 
Heartbeat CPU 2 instructions: 1580000002 cycles: 1578140130 heartbeat IPC: 1.03634 cumulative IPC: 0.972391 (Simulation time: 5 hr 47 min 39 sec) 
Heartbeat CPU 2 instructions: 1590000001 cycles: 1589031651 heartbeat IPC: 0.918145 cumulative IPC: 0.972012 (Simulation time: 5 hr 49 min 37 sec) 
Heartbeat CPU 0 instructions: 130000001 cycles: 1593119781 heartbeat IPC: 0.0605753 cumulative IPC: 0.0511439 (Simulation time: 5 hr 50 min 24 sec) 
Heartbeat CPU 2 instructions: 1600000000 cycles: 1598679394 heartbeat IPC: 1.03651 cumulative IPC: 0.972408 (Simulation time: 5 hr 51 min 29 sec) 
Heartbeat CPU 1 instructions: 440000000 cycles: 1601011476 heartbeat IPC: 0.244144 cumulative IPC: 0.236195 (Simulation time: 5 hr 51 min 56 sec) 
Heartbeat CPU 2 instructions: 1610000000 cycles: 1608424772 heartbeat IPC: 1.02613 cumulative IPC: 0.97274 (Simulation time: 5 hr 53 min 21 sec) 
Heartbeat CPU 2 instructions: 1620000001 cycles: 1619306200 heartbeat IPC: 0.918997 cumulative IPC: 0.972372 (Simulation time: 5 hr 55 min 18 sec) 
Heartbeat CPU 2 instructions: 1630000001 cycles: 1628987267 heartbeat IPC: 1.03294 cumulative IPC: 0.972739 (Simulation time: 5 hr 57 min 10 sec) 
Heartbeat CPU 2 instructions: 1640000003 cycles: 1639968179 heartbeat IPC: 0.910671 cumulative IPC: 0.972315 (Simulation time: 5 hr 59 min 11 sec) 
Heartbeat CPU 1 instructions: 450000001 cycles: 1642526696 heartbeat IPC: 0.240876 cumulative IPC: 0.236315 (Simulation time: 5 hr 59 min 40 sec) 
Heartbeat CPU 2 instructions: 1650000000 cycles: 1649739068 heartbeat IPC: 1.02345 cumulative IPC: 0.972624 (Simulation time: 6 hr 1 min 8 sec) 
Heartbeat CPU 2 instructions: 1660000003 cycles: 1660843982 heartbeat IPC: 0.900503 cumulative IPC: 0.972133 (Simulation time: 6 hr 3 min 12 sec) 
Heartbeat CPU 2 instructions: 1670000001 cycles: 1670749591 heartbeat IPC: 1.00953 cumulative IPC: 0.972359 (Simulation time: 6 hr 5 min 16 sec) 
Heartbeat CPU 2 instructions: 1680000002 cycles: 1682005616 heartbeat IPC: 0.888413 cumulative IPC: 0.971787 (Simulation time: 6 hr 7 min 13 sec) 
Heartbeat CPU 1 instructions: 460000000 cycles: 1687531294 heartbeat IPC: 0.222199 cumulative IPC: 0.235932 (Simulation time: 6 hr 8 min 19 sec) 
Heartbeat CPU 2 instructions: 1690000001 cycles: 1691800884 heartbeat IPC: 1.0209 cumulative IPC: 0.972076 (Simulation time: 6 hr 9 min 7 sec) 
Heartbeat CPU 2 instructions: 1700000003 cycles: 1702034353 heartbeat IPC: 0.977186 cumulative IPC: 0.972108 (Simulation time: 6 hr 11 min 4 sec) 
Heartbeat CPU 3 instructions: 440000000 cycles: 1705856287 heartbeat IPC: 0.0697664 cumulative IPC: 0.211413 (Simulation time: 6 hr 11 min 44 sec) 
Heartbeat CPU 2 instructions: 1710000000 cycles: 1712835219 heartbeat IPC: 0.925851 cumulative IPC: 0.971811 (Simulation time: 6 hr 13 min 7 sec) 
Heartbeat CPU 2 instructions: 1720000001 cycles: 1722568614 heartbeat IPC: 1.02739 cumulative IPC: 0.97213 (Simulation time: 6 hr 15 min 4 sec) 
Heartbeat CPU 1 instructions: 470000002 cycles: 1731585681 heartbeat IPC: 0.226992 cumulative IPC: 0.235701 (Simulation time: 6 hr 16 min 42 sec) 
Heartbeat CPU 2 instructions: 1730000002 cycles: 1733790928 heartbeat IPC: 0.891082 cumulative IPC: 0.971597 (Simulation time: 6 hr 17 min 5 sec) 
Heartbeat CPU 2 instructions: 1740000001 cycles: 1743550453 heartbeat IPC: 1.02464 cumulative IPC: 0.971899 (Simulation time: 6 hr 19 min 0 sec) 
Heartbeat CPU 2 instructions: 1750000000 cycles: 1754963440 heartbeat IPC: 0.876195 cumulative IPC: 0.971266 (Simulation time: 6 hr 20 min 59 sec) 
Heartbeat CPU 2 instructions: 1760000000 cycles: 1764848363 heartbeat IPC: 1.01164 cumulative IPC: 0.971496 (Simulation time: 6 hr 22 min 54 sec) 
Heartbeat CPU 2 instructions: 1770000001 cycles: 1776288318 heartbeat IPC: 0.874129 cumulative IPC: 0.970858 (Simulation time: 6 hr 24 min 59 sec) 
Heartbeat CPU 1 instructions: 480000000 cycles: 1780207137 heartbeat IPC: 0.20567 cumulative IPC: 0.234867 (Simulation time: 6 hr 25 min 48 sec) 
Heartbeat CPU 3 instructions: 450000003 cycles: 1785480827 heartbeat IPC: 0.125589 cumulative IPC: 0.207523 (Simulation time: 6 hr 27 min 4 sec) 
Heartbeat CPU 2 instructions: 1780000000 cycles: 1785991210 heartbeat IPC: 1.03062 cumulative IPC: 0.971188 (Simulation time: 6 hr 27 min 12 sec) 
Heartbeat CPU 2 instructions: 1790000002 cycles: 1796329996 heartbeat IPC: 0.967232 cumulative IPC: 0.971165 (Simulation time: 6 hr 29 min 35 sec) 
Heartbeat CPU 0 instructions: 140000002 cycles: 1797483229 heartbeat IPC: 0.0489324 cumulative IPC: 0.0508884 (Simulation time: 6 hr 29 min 49 sec) 
Heartbeat CPU 3 instructions: 460000002 cycles: 1799679489 heartbeat IPC: 0.704292 cumulative IPC: 0.211506 (Simulation time: 6 hr 30 min 16 sec) 
Heartbeat CPU 2 instructions: 1800000003 cycles: 1806554963 heartbeat IPC: 0.977998 cumulative IPC: 0.971204 (Simulation time: 6 hr 31 min 55 sec) 
Heartbeat CPU 3 instructions: 470000003 cycles: 1813825516 heartbeat IPC: 0.706912 cumulative IPC: 0.215432 (Simulation time: 6 hr 33 min 40 sec) 
Heartbeat CPU 2 instructions: 1810000000 cycles: 1816180192 heartbeat IPC: 1.03894 cumulative IPC: 0.971569 (Simulation time: 6 hr 34 min 16 sec) 
Heartbeat CPU 1 instructions: 490000000 cycles: 1819751779 heartbeat IPC: 0.252879 cumulative IPC: 0.235265 (Simulation time: 6 hr 35 min 4 sec) 
Heartbeat CPU 2 instructions: 1820000000 cycles: 1827092859 heartbeat IPC: 0.916366 cumulative IPC: 0.971234 (Simulation time: 6 hr 36 min 49 sec) 
Heartbeat CPU 3 instructions: 480000002 cycles: 1827949256 heartbeat IPC: 0.708028 cumulative IPC: 0.219299 (Simulation time: 6 hr 37 min 1 sec) 
Heartbeat CPU 2 instructions: 1830000000 cycles: 1836737032 heartbeat IPC: 1.0369 cumulative IPC: 0.971584 (Simulation time: 6 hr 39 min 9 sec) 
Heartbeat CPU 3 instructions: 490000003 cycles: 1841781331 heartbeat IPC: 0.722957 cumulative IPC: 0.223142 (Simulation time: 6 hr 40 min 12 sec) 
Heartbeat CPU 2 instructions: 1840000001 cycles: 1847649047 heartbeat IPC: 0.916421 cumulative IPC: 0.971254 (Simulation time: 6 hr 41 min 31 sec) 
*** Reached end of trace for Core: 3 Repeating trace: ./traces/gap/bc-5.trace.gz
Heartbeat CPU 3 instructions: 500000002 cycles: 1855660692 heartbeat IPC: 0.720494 cumulative IPC: 0.226921 (Simulation time: 6 hr 43 min 30 sec) 
Heartbeat CPU 2 instructions: 1850000003 cycles: 1857447581 heartbeat IPC: 1.02056 cumulative IPC: 0.971518 (Simulation time: 6 hr 43 min 59 sec) 
Heartbeat CPU 1 instructions: 500000003 cycles: 1862244243 heartbeat IPC: 0.235336 cumulative IPC: 0.235267 (Simulation time: 6 hr 45 min 6 sec) 
Heartbeat CPU 2 instructions: 1860000002 cycles: 1870893275 heartbeat IPC: 0.743732 cumulative IPC: 0.969855 (Simulation time: 6 hr 46 min 43 sec) 
Heartbeat CPU 2 instructions: 1870000000 cycles: 1880687597 heartbeat IPC: 1.021 cumulative IPC: 0.970126 (Simulation time: 6 hr 48 min 43 sec) 
Heartbeat CPU 2 instructions: 1880000000 cycles: 1891725162 heartbeat IPC: 0.905997 cumulative IPC: 0.969746 (Simulation time: 6 hr 50 min 50 sec) 
Heartbeat CPU 2 instructions: 1890000002 cycles: 1901751995 heartbeat IPC: 0.997324 cumulative IPC: 0.969893 (Simulation time: 6 hr 52 min 49 sec) 
Heartbeat CPU 1 instructions: 510000003 cycles: 1909729172 heartbeat IPC: 0.210593 cumulative IPC: 0.234644 (Simulation time: 6 hr 54 min 27 sec) 
Heartbeat CPU 2 instructions: 1900000000 cycles: 1911466480 heartbeat IPC: 1.02939 cumulative IPC: 0.9702 (Simulation time: 6 hr 54 min 50 sec) 
Heartbeat CPU 3 instructions: 510000001 cycles: 1913433646 heartbeat IPC: 0.173091 cumulative IPC: 0.225271 (Simulation time: 6 hr 55 min 14 sec) 
Heartbeat CPU 2 instructions: 1910000003 cycles: 1922768046 heartbeat IPC: 0.884833 cumulative IPC: 0.969691 (Simulation time: 6 hr 57 min 5 sec) 
Heartbeat CPU 2 instructions: 1920000002 cycles: 1932550001 heartbeat IPC: 1.02229 cumulative IPC: 0.969961 (Simulation time: 6 hr 59 min 6 sec) 
Heartbeat CPU 2 instructions: 1930000002 cycles: 1944334131 heartbeat IPC: 0.848599 cumulative IPC: 0.969214 (Simulation time: 7 hr 1 min 16 sec) 
Heartbeat CPU 2 instructions: 1940000003 cycles: 1954200738 heartbeat IPC: 1.01352 cumulative IPC: 0.969442 (Simulation time: 7 hr 3 min 13 sec) 
Heartbeat CPU 1 instructions: 520000001 cycles: 1955475057 heartbeat IPC: 0.218599 cumulative IPC: 0.234263 (Simulation time: 7 hr 3 min 29 sec) 
Heartbeat CPU 3 instructions: 520000002 cycles: 1963314259 heartbeat IPC: 0.200479 cumulative IPC: 0.224631 (Simulation time: 7 hr 4 min 59 sec) 
Heartbeat CPU 2 instructions: 1950000001 cycles: 1965523901 heartbeat IPC: 0.883145 cumulative IPC: 0.968937 (Simulation time: 7 hr 5 min 23 sec) 
Heartbeat CPU 2 instructions: 1960000003 cycles: 1975289882 heartbeat IPC: 1.02396 cumulative IPC: 0.969213 (Simulation time: 7 hr 7 min 20 sec) 
Heartbeat CPU 2 instructions: 1970000000 cycles: 1986555164 heartbeat IPC: 0.887683 cumulative IPC: 0.968744 (Simulation time: 7 hr 9 min 30 sec) 
Heartbeat CPU 0 instructions: 150000000 cycles: 1988366667 heartbeat IPC: 0.052388 cumulative IPC: 0.0510344 (Simulation time: 7 hr 9 min 52 sec) 
Heartbeat CPU 2 instructions: 1980000000 cycles: 1996305732 heartbeat IPC: 1.02558 cumulative IPC: 0.969026 (Simulation time: 7 hr 11 min 29 sec) 
Heartbeat CPU 1 instructions: 530000000 cycles: 2000911061 heartbeat IPC: 0.22009 cumulative IPC: 0.233936 (Simulation time: 7 hr 12 min 23 sec) 
Heartbeat CPU 2 instructions: 1990000003 cycles: 2006123443 heartbeat IPC: 1.01857 cumulative IPC: 0.969272 (Simulation time: 7 hr 13 min 27 sec) 
Heartbeat CPU 3 instructions: 530000002 cycles: 2008562488 heartbeat IPC: 0.221003 cumulative IPC: 0.224549 (Simulation time: 7 hr 13 min 53 sec) 
*** Reached end of trace for Core: 2 Repeating trace: ./traces/spec/436.cactusADM-1804B.champsimtrace.xz
Heartbeat CPU 2 instructions: 2000000001 cycles: 2017851109 heartbeat IPC: 0.852684 cumulative IPC: 0.968584 (Simulation time: 7 hr 15 min 39 sec) 
Heartbeat CPU 2 instructions: 2010000002 cycles: 2029104082 heartbeat IPC: 0.888654 cumulative IPC: 0.968134 (Simulation time: 7 hr 17 min 45 sec) 
Heartbeat CPU 2 instructions: 2020000001 cycles: 2040596593 heartbeat IPC: 0.870132 cumulative IPC: 0.967575 (Simulation time: 7 hr 19 min 56 sec) 
Heartbeat CPU 1 instructions: 540000001 cycles: 2048518680 heartbeat IPC: 0.21005 cumulative IPC: 0.233373 (Simulation time: 7 hr 21 min 30 sec) 
Heartbeat CPU 3 instructions: 540000003 cycles: 2049319639 heartbeat IPC: 0.245356 cumulative IPC: 0.224968 (Simulation time: 7 hr 21 min 40 sec) 
Heartbeat CPU 2 instructions: 2030000001 cycles: 2050587752 heartbeat IPC: 1.00088 cumulative IPC: 0.967739 (Simulation time: 7 hr 21 min 56 sec) 
Heartbeat CPU 2 instructions: 2040000002 cycles: 2060318059 heartbeat IPC: 1.02772 cumulative IPC: 0.968026 (Simulation time: 7 hr 23 min 59 sec) 
Heartbeat CPU 2 instructions: 2050000001 cycles: 2071704670 heartbeat IPC: 0.878224 cumulative IPC: 0.967526 (Simulation time: 7 hr 26 min 0 sec) 
Heartbeat CPU 2 instructions: 2060000001 cycles: 2081465972 heartbeat IPC: 1.02445 cumulative IPC: 0.967797 (Simulation time: 7 hr 28 min 0 sec) 
Heartbeat CPU 3 instructions: 550000000 cycles: 2092457030 heartbeat IPC: 0.231817 cumulative IPC: 0.225111 (Simulation time: 7 hr 30 min 3 sec) 
Heartbeat CPU 2 instructions: 2070000003 cycles: 2092800728 heartbeat IPC: 0.882242 cumulative IPC: 0.967327 (Simulation time: 7 hr 30 min 7 sec) 
Heartbeat CPU 1 instructions: 550000000 cycles: 2093468883 heartbeat IPC: 0.222468 cumulative IPC: 0.233136 (Simulation time: 7 hr 30 min 15 sec) 
Heartbeat CPU 2 instructions: 2080000001 cycles: 2102739322 heartbeat IPC: 1.00618 cumulative IPC: 0.967513 (Simulation time: 7 hr 32 min 11 sec) 
Heartbeat CPU 2 instructions: 2090000000 cycles: 2114042446 heartbeat IPC: 0.884711 cumulative IPC: 0.967064 (Simulation time: 7 hr 34 min 18 sec) 
Heartbeat CPU 2 instructions: 2100000003 cycles: 2123847076 heartbeat IPC: 1.01993 cumulative IPC: 0.967312 (Simulation time: 7 hr 36 min 15 sec) 
Heartbeat CPU 3 instructions: 560000001 cycles: 2134524023 heartbeat IPC: 0.237716 cumulative IPC: 0.225363 (Simulation time: 7 hr 38 min 16 sec) 
Heartbeat CPU 2 instructions: 2110000002 cycles: 2135102326 heartbeat IPC: 0.888474 cumulative IPC: 0.96689 (Simulation time: 7 hr 38 min 23 sec) 
Heartbeat CPU 1 instructions: 560000000 cycles: 2139981645 heartbeat IPC: 0.214995 cumulative IPC: 0.232736 (Simulation time: 7 hr 39 min 23 sec) 
Heartbeat CPU 2 instructions: 2120000000 cycles: 2144901246 heartbeat IPC: 1.02052 cumulative IPC: 0.967139 (Simulation time: 7 hr 40 min 22 sec) 
Heartbeat CPU 2 instructions: 2130000002 cycles: 2155098544 heartbeat IPC: 0.980652 cumulative IPC: 0.967203 (Simulation time: 7 hr 42 min 27 sec) 
Heartbeat CPU 2 instructions: 2140000001 cycles: 2166028483 heartbeat IPC: 0.914918 cumulative IPC: 0.966936 (Simulation time: 7 hr 44 min 31 sec) 
Heartbeat CPU 2 instructions: 2150000000 cycles: 2175756850 heartbeat IPC: 1.02792 cumulative IPC: 0.967212 (Simulation time: 7 hr 46 min 33 sec) 
Heartbeat CPU 3 instructions: 570000001 cycles: 2175968290 heartbeat IPC: 0.241288 cumulative IPC: 0.225671 (Simulation time: 7 hr 46 min 35 sec) 
Heartbeat CPU 1 instructions: 570000002 cycles: 2186715957 heartbeat IPC: 0.213976 cumulative IPC: 0.23233 (Simulation time: 7 hr 48 min 40 sec) 
Heartbeat CPU 2 instructions: 2160000000 cycles: 2186923492 heartbeat IPC: 0.895524 cumulative IPC: 0.966841 (Simulation time: 7 hr 48 min 43 sec) 
Heartbeat CPU 2 instructions: 2170000001 cycles: 2196651745 heartbeat IPC: 1.02793 cumulative IPC: 0.967116 (Simulation time: 7 hr 50 min 46 sec) 
Heartbeat CPU 2 instructions: 2180000003 cycles: 2207920283 heartbeat IPC: 0.887427 cumulative IPC: 0.966703 (Simulation time: 7 hr 53 min 0 sec) 
Heartbeat CPU 3 instructions: 580000000 cycles: 2216800474 heartbeat IPC: 0.244905 cumulative IPC: 0.22603 (Simulation time: 7 hr 54 min 53 sec) 
Heartbeat CPU 2 instructions: 2190000001 cycles: 2217698788 heartbeat IPC: 1.02265 cumulative IPC: 0.966953 (Simulation time: 7 hr 55 min 4 sec) 
Heartbeat CPU 0 instructions: 160000002 cycles: 2222288625 heartbeat IPC: 0.0427493 cumulative IPC: 0.0501508 (Simulation time: 7 hr 56 min 1 sec) 
Heartbeat CPU 2 instructions: 2200000000 cycles: 2228965240 heartbeat IPC: 0.887591 cumulative IPC: 0.966547 (Simulation time: 7 hr 57 min 17 sec) 
Heartbeat CPU 1 instructions: 580000000 cycles: 2231084545 heartbeat IPC: 0.225385 cumulative IPC: 0.23219 (Simulation time: 7 hr 57 min 44 sec) 
Heartbeat CPU 2 instructions: 2210000000 cycles: 2238743326 heartbeat IPC: 1.0227 cumulative IPC: 0.966795 (Simulation time: 7 hr 59 min 23 sec) 
Heartbeat CPU 2 instructions: 2220000001 cycles: 2249365194 heartbeat IPC: 0.941454 cumulative IPC: 0.966674 (Simulation time: 8 hr 1 min 27 sec) 
Heartbeat CPU 3 instructions: 590000000 cycles: 2257686610 heartbeat IPC: 0.244582 cumulative IPC: 0.22637 (Simulation time: 8 hr 3 min 2 sec) 
Heartbeat CPU 2 instructions: 2230000000 cycles: 2259894517 heartbeat IPC: 0.949729 cumulative IPC: 0.966594 (Simulation time: 8 hr 3 min 28 sec) 
Heartbeat CPU 2 instructions: 2240000000 cycles: 2269674517 heartbeat IPC: 1.02249 cumulative IPC: 0.966838 (Simulation time: 8 hr 5 min 32 sec) 
Heartbeat CPU 1 instructions: 590000002 cycles: 2277301894 heartbeat IPC: 0.216369 cumulative IPC: 0.231865 (Simulation time: 8 hr 6 min 58 sec) 
Heartbeat CPU 2 instructions: 2250000000 cycles: 2280960256 heartbeat IPC: 0.886074 cumulative IPC: 0.966433 (Simulation time: 8 hr 7 min 44 sec) 
Heartbeat CPU 2 instructions: 2260000000 cycles: 2290841558 heartbeat IPC: 1.01201 cumulative IPC: 0.966633 (Simulation time: 8 hr 9 min 50 sec) 
Heartbeat CPU 3 instructions: 600000000 cycles: 2298001600 heartbeat IPC: 0.248047 cumulative IPC: 0.226755 (Simulation time: 8 hr 11 min 13 sec) 
Heartbeat CPU 2 instructions: 2270000003 cycles: 2302114548 heartbeat IPC: 0.887076 cumulative IPC: 0.966238 (Simulation time: 8 hr 12 min 1 sec) 
Heartbeat CPU 2 instructions: 2280000000 cycles: 2311948316 heartbeat IPC: 1.0169 cumulative IPC: 0.966456 (Simulation time: 8 hr 14 min 4 sec) 
Heartbeat CPU 1 instructions: 600000000 cycles: 2322937296 heartbeat IPC: 0.219128 cumulative IPC: 0.231611 (Simulation time: 8 hr 16 min 14 sec) 
Heartbeat CPU 2 instructions: 2290000000 cycles: 2323199454 heartbeat IPC: 0.888799 cumulative IPC: 0.966075 (Simulation time: 8 hr 16 min 17 sec) 
Heartbeat CPU 2 instructions: 2300000003 cycles: 2332991332 heartbeat IPC: 1.02125 cumulative IPC: 0.96631 (Simulation time: 8 hr 18 min 15 sec) 
Heartbeat CPU 3 instructions: 610000001 cycles: 2337502052 heartbeat IPC: 0.253162 cumulative IPC: 0.227207 (Simulation time: 8 hr 19 min 12 sec) 
Heartbeat CPU 2 instructions: 2310000000 cycles: 2343904622 heartbeat IPC: 0.916314 cumulative IPC: 0.966074 (Simulation time: 8 hr 20 min 28 sec) 
Heartbeat CPU 2 instructions: 2320000002 cycles: 2354025883 heartbeat IPC: 0.988019 cumulative IPC: 0.96617 (Simulation time: 8 hr 22 min 27 sec) 
Heartbeat CPU 2 instructions: 2330000002 cycles: 2363819850 heartbeat IPC: 1.02104 cumulative IPC: 0.9664 (Simulation time: 8 hr 24 min 32 sec) 
Heartbeat CPU 1 instructions: 610000000 cycles: 2368525476 heartbeat IPC: 0.219355 cumulative IPC: 0.231372 (Simulation time: 8 hr 25 min 18 sec) 
Heartbeat CPU 2 instructions: 2340000000 cycles: 2375066204 heartbeat IPC: 0.889177 cumulative IPC: 0.96603 (Simulation time: 8 hr 26 min 40 sec) 
Heartbeat CPU 3 instructions: 620000002 cycles: 2377650402 heartbeat IPC: 0.249076 cumulative IPC: 0.227581 (Simulation time: 8 hr 27 min 15 sec) 
Heartbeat CPU 2 instructions: 2350000000 cycles: 2384872700 heartbeat IPC: 1.01973 cumulative IPC: 0.966253 (Simulation time: 8 hr 28 min 48 sec) 
Heartbeat CPU 2 instructions: 2360000000 cycles: 2396101130 heartbeat IPC: 0.890596 cumulative IPC: 0.965894 (Simulation time: 8 hr 31 min 3 sec) 
Heartbeat CPU 2 instructions: 2370000001 cycles: 2405921249 heartbeat IPC: 1.01832 cumulative IPC: 0.966111 (Simulation time: 8 hr 33 min 5 sec) 
Heartbeat CPU 1 instructions: 620000000 cycles: 2415313903 heartbeat IPC: 0.213728 cumulative IPC: 0.231026 (Simulation time: 8 hr 34 min 52 sec) 
Heartbeat CPU 2 instructions: 2380000002 cycles: 2417233674 heartbeat IPC: 0.883984 cumulative IPC: 0.965722 (Simulation time: 8 hr 35 min 17 sec) 
Heartbeat CPU 3 instructions: 630000002 cycles: 2417936376 heartbeat IPC: 0.248225 cumulative IPC: 0.227929 (Simulation time: 8 hr 35 min 26 sec) 
Heartbeat CPU 2 instructions: 2390000000 cycles: 2427035044 heartbeat IPC: 1.02027 cumulative IPC: 0.965945 (Simulation time: 8 hr 37 min 22 sec) 
Heartbeat CPU 2 instructions: 2400000002 cycles: 2438281133 heartbeat IPC: 0.889198 cumulative IPC: 0.965587 (Simulation time: 8 hr 39 min 34 sec) 
Heartbeat CPU 2 instructions: 2410000002 cycles: 2448031873 heartbeat IPC: 1.02556 cumulative IPC: 0.965828 (Simulation time: 8 hr 41 min 40 sec) 
Heartbeat CPU 3 instructions: 640000003 cycles: 2455220989 heartbeat IPC: 0.268207 cumulative IPC: 0.228548 (Simulation time: 8 hr 43 min 17 sec) 
Heartbeat CPU 2 instructions: 2420000000 cycles: 2457737708 heartbeat IPC: 1.03031 cumulative IPC: 0.966086 (Simulation time: 8 hr 43 min 51 sec) 
Heartbeat CPU 0 instructions: 170000003 cycles: 2458284935 heartbeat IPC: 0.0423735 cumulative IPC: 0.0493953 (Simulation time: 8 hr 43 min 59 sec) 
Heartbeat CPU 1 instructions: 630000001 cycles: 2458557167 heartbeat IPC: 0.23125 cumulative IPC: 0.23103 (Simulation time: 8 hr 44 min 2 sec) 
Heartbeat CPU 2 instructions: 2430000001 cycles: 2468726979 heartbeat IPC: 0.909979 cumulative IPC: 0.965833 (Simulation time: 8 hr 46 min 10 sec) 
Heartbeat CPU 2 instructions: 2440000002 cycles: 2478430254 heartbeat IPC: 1.03058 cumulative IPC: 0.96609 (Simulation time: 8 hr 48 min 21 sec) 
Heartbeat CPU 3 instructions: 650000003 cycles: 2487856378 heartbeat IPC: 0.306416 cumulative IPC: 0.229581 (Simulation time: 8 hr 50 min 16 sec) 
Heartbeat CPU 2 instructions: 2450000001 cycles: 2489441000 heartbeat IPC: 0.908204 cumulative IPC: 0.965831 (Simulation time: 8 hr 50 min 36 sec) 
Heartbeat CPU 2 instructions: 2460000001 cycles: 2499081754 heartbeat IPC: 1.03726 cumulative IPC: 0.96611 (Simulation time: 8 hr 52 min 48 sec) 
Heartbeat CPU 1 instructions: 640000003 cycles: 2500444445 heartbeat IPC: 0.238736 cumulative IPC: 0.231161 (Simulation time: 8 hr 53 min 6 sec) 
Heartbeat CPU 2 instructions: 2470000001 cycles: 2510059631 heartbeat IPC: 0.910923 cumulative IPC: 0.965865 (Simulation time: 8 hr 55 min 3 sec) 
Heartbeat CPU 3 instructions: 660000000 cycles: 2519109189 heartbeat IPC: 0.319971 cumulative IPC: 0.230716 (Simulation time: 8 hr 56 min 56 sec) 
Heartbeat CPU 2 instructions: 2480000001 cycles: 2519702947 heartbeat IPC: 1.03699 cumulative IPC: 0.966141 (Simulation time: 8 hr 57 min 4 sec) 
Heartbeat CPU 2 instructions: 2490000000 cycles: 2530710642 heartbeat IPC: 0.908455 cumulative IPC: 0.965887 (Simulation time: 8 hr 59 min 26 sec) 
Heartbeat CPU 2 instructions: 2500000003 cycles: 2540372083 heartbeat IPC: 1.03504 cumulative IPC: 0.966153 (Simulation time: 9 hr 1 min 32 sec) 
Heartbeat CPU 1 instructions: 650000000 cycles: 2542598765 heartbeat IPC: 0.237224 cumulative IPC: 0.231263 (Simulation time: 9 hr 1 min 57 sec) 
Heartbeat CPU 2 instructions: 2510000000 cycles: 2549995628 heartbeat IPC: 1.03912 cumulative IPC: 0.966432 (Simulation time: 9 hr 3 min 36 sec) 
Heartbeat CPU 3 instructions: 670000002 cycles: 2550539479 heartbeat IPC: 0.318164 cumulative IPC: 0.231806 (Simulation time: 9 hr 3 min 43 sec) 
Heartbeat CPU 2 instructions: 2520000003 cycles: 2560986097 heartbeat IPC: 0.90988 cumulative IPC: 0.966186 (Simulation time: 9 hr 5 min 49 sec) 
Heartbeat CPU 2 instructions: 2530000000 cycles: 2570637901 heartbeat IPC: 1.03608 cumulative IPC: 0.966452 (Simulation time: 9 hr 7 min 53 sec) 
Heartbeat CPU 2 instructions: 2540000002 cycles: 2581690622 heartbeat IPC: 0.904755 cumulative IPC: 0.966184 (Simulation time: 9 hr 10 min 4 sec) 
Heartbeat CPU 3 instructions: 680000000 cycles: 2583339073 heartbeat IPC: 0.304882 cumulative IPC: 0.232744 (Simulation time: 9 hr 10 min 24 sec) 
Heartbeat CPU 1 instructions: 660000000 cycles: 2584510399 heartbeat IPC: 0.238597 cumulative IPC: 0.231383 (Simulation time: 9 hr 10 min 40 sec) 
Heartbeat CPU 2 instructions: 2550000001 cycles: 2591370230 heartbeat IPC: 1.0331 cumulative IPC: 0.966437 (Simulation time: 9 hr 12 min 8 sec) 
Heartbeat CPU 2 instructions: 2560000001 cycles: 2602355214 heartbeat IPC: 0.910334 cumulative IPC: 0.966198 (Simulation time: 9 hr 14 min 25 sec) 
Heartbeat CPU 2 instructions: 2570000000 cycles: 2612037674 heartbeat IPC: 1.0328 cumulative IPC: 0.966447 (Simulation time: 9 hr 16 min 22 sec) 
Heartbeat CPU 3 instructions: 690000003 cycles: 2614668065 heartbeat IPC: 0.319193 cumulative IPC: 0.233791 (Simulation time: 9 hr 16 min 57 sec) 
Heartbeat CPU 2 instructions: 2580000001 cycles: 2623047401 heartbeat IPC: 0.908288 cumulative IPC: 0.9662 (Simulation time: 9 hr 18 min 36 sec) 
Heartbeat CPU 1 instructions: 670000000 cycles: 2626088692 heartbeat IPC: 0.24051 cumulative IPC: 0.231529 (Simulation time: 9 hr 19 min 15 sec) 
Heartbeat CPU 2 instructions: 2590000002 cycles: 2632790198 heartbeat IPC: 1.0264 cumulative IPC: 0.966426 (Simulation time: 9 hr 20 min 43 sec) 
Heartbeat CPU 2 instructions: 2600000000 cycles: 2642439303 heartbeat IPC: 1.03637 cumulative IPC: 0.966684 (Simulation time: 9 hr 22 min 45 sec) 
Heartbeat CPU 0 instructions: 180000002 cycles: 2642733430 heartbeat IPC: 0.0542157 cumulative IPC: 0.0497355 (Simulation time: 9 hr 22 min 48 sec) 
Heartbeat CPU 3 instructions: 700000000 cycles: 2646866474 heartbeat IPC: 0.310574 cumulative IPC: 0.234736 (Simulation time: 9 hr 23 min 36 sec) 
Heartbeat CPU 2 instructions: 2610000000 cycles: 2653426832 heartbeat IPC: 0.910123 cumulative IPC: 0.966447 (Simulation time: 9 hr 24 min 56 sec) 
Heartbeat CPU 2 instructions: 2620000003 cycles: 2663115508 heartbeat IPC: 1.03213 cumulative IPC: 0.966689 (Simulation time: 9 hr 26 min 59 sec) 
Heartbeat CPU 1 instructions: 680000001 cycles: 2666755452 heartbeat IPC: 0.245901 cumulative IPC: 0.231751 (Simulation time: 9 hr 27 min 44 sec) 
Heartbeat CPU 2 instructions: 2630000001 cycles: 2674149595 heartbeat IPC: 0.906282 cumulative IPC: 0.966437 (Simulation time: 9 hr 29 min 17 sec) 
Heartbeat CPU 3 instructions: 710000000 cycles: 2678422491 heartbeat IPC: 0.316897 cumulative IPC: 0.235714 (Simulation time: 9 hr 30 min 11 sec) 
Heartbeat CPU 2 instructions: 2640000000 cycles: 2683876402 heartbeat IPC: 1.02809 cumulative IPC: 0.966663 (Simulation time: 9 hr 31 min 18 sec) 
Heartbeat CPU 2 instructions: 2650000002 cycles: 2694870745 heartbeat IPC: 0.909559 cumulative IPC: 0.966427 (Simulation time: 9 hr 33 min 32 sec) 
Heartbeat CPU 2 instructions: 2660000003 cycles: 2704547349 heartbeat IPC: 1.03342 cumulative IPC: 0.966669 (Simulation time: 9 hr 35 min 41 sec) 
Heartbeat CPU 1 instructions: 690000001 cycles: 2708913355 heartbeat IPC: 0.237203 cumulative IPC: 0.231836 (Simulation time: 9 hr 36 min 42 sec) 
Heartbeat CPU 3 instructions: 720000000 cycles: 2710859330 heartbeat IPC: 0.308291 cumulative IPC: 0.236592 (Simulation time: 9 hr 37 min 8 sec) 
Heartbeat CPU 2 instructions: 2670000001 cycles: 2715503282 heartbeat IPC: 0.912747 cumulative IPC: 0.966449 (Simulation time: 9 hr 38 min 2 sec) 
Heartbeat CPU 2 instructions: 2680000003 cycles: 2725183252 heartbeat IPC: 1.03306 cumulative IPC: 0.966689 (Simulation time: 9 hr 40 min 7 sec) 
Heartbeat CPU 2 instructions: 2690000000 cycles: 2734867919 heartbeat IPC: 1.03256 cumulative IPC: 0.966924 (Simulation time: 9 hr 42 min 14 sec) 
Heartbeat CPU 3 instructions: 730000000 cycles: 2744214495 heartbeat IPC: 0.299804 cumulative IPC: 0.237369 (Simulation time: 9 hr 44 min 9 sec) 
Heartbeat CPU 2 instructions: 2700000001 cycles: 2745831186 heartbeat IPC: 0.912137 cumulative IPC: 0.966703 (Simulation time: 9 hr 44 min 32 sec) 
Heartbeat CPU 1 instructions: 700000000 cycles: 2750136608 heartbeat IPC: 0.242582 cumulative IPC: 0.231999 (Simulation time: 9 hr 45 min 26 sec) 
Heartbeat CPU 2 instructions: 2710000003 cycles: 2755475051 heartbeat IPC: 1.03693 cumulative IPC: 0.966952 (Simulation time: 9 hr 46 min 38 sec) 
Heartbeat CPU 2 instructions: 2720000002 cycles: 2766437725 heartbeat IPC: 0.912186 cumulative IPC: 0.966732 (Simulation time: 9 hr 48 min 49 sec) 
Heartbeat CPU 0 instructions: 190000001 cycles: 2772818078 heartbeat IPC: 0.076873 cumulative IPC: 0.051022 (Simulation time: 9 hr 50 min 17 sec) 
Heartbeat CPU 2 instructions: 2730000000 cycles: 2776283748 heartbeat IPC: 1.01564 cumulative IPC: 0.966908 (Simulation time: 9 hr 51 min 12 sec) 
Heartbeat CPU 3 instructions: 740000000 cycles: 2781693407 heartbeat IPC: 0.266817 cumulative IPC: 0.23777 (Simulation time: 9 hr 52 min 35 sec) 
Heartbeat CPU 2 instructions: 2740000000 cycles: 2787505762 heartbeat IPC: 0.891106 cumulative IPC: 0.966599 (Simulation time: 9 hr 53 min 43 sec) 
Heartbeat CPU 1 instructions: 710000001 cycles: 2794655571 heartbeat IPC: 0.224623 cumulative IPC: 0.23188 (Simulation time: 9 hr 55 min 12 sec) 
Heartbeat CPU 2 instructions: 2750000000 cycles: 2797186212 heartbeat IPC: 1.03301 cumulative IPC: 0.966832 (Simulation time: 9 hr 55 min 45 sec) 
Heartbeat CPU 2 instructions: 2760000002 cycles: 2808180611 heartbeat IPC: 0.909554 cumulative IPC: 0.966605 (Simulation time: 9 hr 57 min 58 sec) 
Heartbeat CPU 0 instructions: 200000001 cycles: 2812549323 heartbeat IPC: 0.251691 cumulative IPC: 0.0538862 (Simulation time: 9 hr 58 min 53 sec) 
Heartbeat CPU 3 instructions: 750000003 cycles: 2817118434 heartbeat IPC: 0.282286 cumulative IPC: 0.238335 (Simulation time: 9 hr 59 min 50 sec) 
Heartbeat CPU 2 instructions: 2770000000 cycles: 2817861261 heartbeat IPC: 1.03299 cumulative IPC: 0.966835 (Simulation time: 10 hr 0 min 0 sec) 
Heartbeat CPU 2 instructions: 2780000002 cycles: 2827520550 heartbeat IPC: 1.03527 cumulative IPC: 0.967072 (Simulation time: 10 hr 2 min 8 sec) 
Heartbeat CPU 1 instructions: 720000001 cycles: 2836290927 heartbeat IPC: 0.24018 cumulative IPC: 0.232004 (Simulation time: 10 hr 3 min 51 sec) 
Heartbeat CPU 2 instructions: 2790000001 cycles: 2838568289 heartbeat IPC: 0.905163 cumulative IPC: 0.966828 (Simulation time: 10 hr 4 min 18 sec) 
Heartbeat CPU 2 instructions: 2800000000 cycles: 2848222673 heartbeat IPC: 1.0358 cumulative IPC: 0.967064 (Simulation time: 10 hr 6 min 27 sec) 
Heartbeat CPU 3 instructions: 760000001 cycles: 2850748113 heartbeat IPC: 0.297356 cumulative IPC: 0.239039 (Simulation time: 10 hr 7 min 1 sec) 
Heartbeat CPU 2 instructions: 2810000002 cycles: 2859198920 heartbeat IPC: 0.911058 cumulative IPC: 0.966847 (Simulation time: 10 hr 8 min 45 sec) 
Heartbeat CPU 2 instructions: 2820000003 cycles: 2868844918 heartbeat IPC: 1.0367 cumulative IPC: 0.967084 (Simulation time: 10 hr 11 min 0 sec) 
Heartbeat CPU 1 instructions: 730000001 cycles: 2877632161 heartbeat IPC: 0.241889 cumulative IPC: 0.232147 (Simulation time: 10 hr 12 min 50 sec) 
Heartbeat CPU 2 instructions: 2830000000 cycles: 2879774504 heartbeat IPC: 0.914947 cumulative IPC: 0.966885 (Simulation time: 10 hr 13 min 19 sec) 
Heartbeat CPU 3 instructions: 770000000 cycles: 2885412344 heartbeat IPC: 0.288482 cumulative IPC: 0.239639 (Simulation time: 10 hr 14 min 36 sec) 
Heartbeat CPU 2 instructions: 2840000000 cycles: 2889427682 heartbeat IPC: 1.03593 cumulative IPC: 0.967118 (Simulation time: 10 hr 15 min 28 sec) 
Heartbeat CPU 2 instructions: 2850000001 cycles: 2900410454 heartbeat IPC: 0.910517 cumulative IPC: 0.966901 (Simulation time: 10 hr 17 min 55 sec) 
Heartbeat CPU 2 instructions: 2860000000 cycles: 2910094466 heartbeat IPC: 1.03263 cumulative IPC: 0.967122 (Simulation time: 10 hr 19 min 59 sec) 
Heartbeat CPU 1 instructions: 740000000 cycles: 2918741678 heartbeat IPC: 0.243253 cumulative IPC: 0.232305 (Simulation time: 10 hr 21 min 51 sec) 
Heartbeat CPU 3 instructions: 780000001 cycles: 2918966425 heartbeat IPC: 0.298026 cumulative IPC: 0.240316 (Simulation time: 10 hr 21 min 54 sec) 
Heartbeat CPU 2 instructions: 2870000000 cycles: 2919925547 heartbeat IPC: 1.01718 cumulative IPC: 0.967292 (Simulation time: 10 hr 22 min 5 sec) 
Heartbeat CPU 2 instructions: 2880000001 cycles: 2930667330 heartbeat IPC: 0.930944 cumulative IPC: 0.967158 (Simulation time: 10 hr 24 min 14 sec) 
Heartbeat CPU 2 instructions: 2890000002 cycles: 2940318003 heartbeat IPC: 1.0362 cumulative IPC: 0.967386 (Simulation time: 10 hr 26 min 19 sec) 
Heartbeat CPU 2 instructions: 2900000001 cycles: 2951264922 heartbeat IPC: 0.913499 cumulative IPC: 0.967185 (Simulation time: 10 hr 28 min 38 sec) 
Heartbeat CPU 3 instructions: 790000001 cycles: 2954566543 heartbeat IPC: 0.280898 cumulative IPC: 0.24081 (Simulation time: 10 hr 29 min 20 sec) 
Heartbeat CPU 1 instructions: 750000000 cycles: 2960187659 heartbeat IPC: 0.241278 cumulative IPC: 0.232432 (Simulation time: 10 hr 30 min 34 sec) 
Heartbeat CPU 2 instructions: 2910000002 cycles: 2960905777 heartbeat IPC: 1.03725 cumulative IPC: 0.967415 (Simulation time: 10 hr 30 min 44 sec) 
Heartbeat CPU 2 instructions: 2920000000 cycles: 2971873099 heartbeat IPC: 0.911799 cumulative IPC: 0.967208 (Simulation time: 10 hr 33 min 0 sec) 
Heartbeat CPU 2 instructions: 2930000001 cycles: 2981537551 heartbeat IPC: 1.03472 cumulative IPC: 0.967429 (Simulation time: 10 hr 35 min 0 sec) 
Heartbeat CPU 3 instructions: 800000003 cycles: 2991040501 heartbeat IPC: 0.274168 cumulative IPC: 0.241221 (Simulation time: 10 hr 36 min 52 sec) 
Heartbeat CPU 0 instructions: 210000003 cycles: 2991793531 heartbeat IPC: 0.0557898 cumulative IPC: 0.0540014 (Simulation time: 10 hr 37 min 1 sec) 
Heartbeat CPU 2 instructions: 2940000000 cycles: 2992427300 heartbeat IPC: 0.918295 cumulative IPC: 0.967248 (Simulation time: 10 hr 37 min 9 sec) 
Heartbeat CPU 1 instructions: 760000001 cycles: 3001693079 heartbeat IPC: 0.240932 cumulative IPC: 0.232551 (Simulation time: 10 hr 39 min 2 sec) 
Heartbeat CPU 2 instructions: 2950000000 cycles: 3002114950 heartbeat IPC: 1.03224 cumulative IPC: 0.96746 (Simulation time: 10 hr 39 min 7 sec) 
Heartbeat CPU 2 instructions: 2960000000 cycles: 3012315803 heartbeat IPC: 0.98031 cumulative IPC: 0.967504 (Simulation time: 10 hr 41 min 3 sec) 
Heartbeat CPU 2 instructions: 2970000000 cycles: 3022771445 heartbeat IPC: 0.956421 cumulative IPC: 0.967465 (Simulation time: 10 hr 43 min 1 sec) 
Heartbeat CPU 3 instructions: 810000001 cycles: 3027869569 heartbeat IPC: 0.271525 cumulative IPC: 0.241593 (Simulation time: 10 hr 44 min 2 sec) 
Heartbeat CPU 2 instructions: 2980000000 cycles: 3032411240 heartbeat IPC: 1.03737 cumulative IPC: 0.96769 (Simulation time: 10 hr 44 min 57 sec) 
Heartbeat CPU 2 instructions: 2990000000 cycles: 3043420171 heartbeat IPC: 0.908353 cumulative IPC: 0.967473 (Simulation time: 10 hr 47 min 1 sec) 
Heartbeat CPU 1 instructions: 770000000 cycles: 3043928791 heartbeat IPC: 0.236766 cumulative IPC: 0.23261 (Simulation time: 10 hr 47 min 8 sec) 
Heartbeat CPU 2 instructions: 3000000003 cycles: 3053107350 heartbeat IPC: 1.03229 cumulative IPC: 0.967681 (Simulation time: 10 hr 48 min 56 sec) 
Heartbeat CPU 2 instructions: 3010000000 cycles: 3064037526 heartbeat IPC: 0.914898 cumulative IPC: 0.96749 (Simulation time: 10 hr 51 min 1 sec) 
Heartbeat CPU 3 instructions: 820000002 cycles: 3066475511 heartbeat IPC: 0.259028 cumulative IPC: 0.241815 (Simulation time: 10 hr 51 min 31 sec) 
Heartbeat CPU 2 instructions: 3020000000 cycles: 3073663942 heartbeat IPC: 1.03881 cumulative IPC: 0.967716 (Simulation time: 10 hr 53 min 1 sec) 
Heartbeat CPU 2 instructions: 3030000001 cycles: 3084600341 heartbeat IPC: 0.914378 cumulative IPC: 0.967525 (Simulation time: 10 hr 55 min 6 sec) 
Heartbeat CPU 1 instructions: 780000000 cycles: 3085382304 heartbeat IPC: 0.241234 cumulative IPC: 0.232727 (Simulation time: 10 hr 55 min 16 sec) 
Heartbeat CPU 2 instructions: 3040000002 cycles: 3094266460 heartbeat IPC: 1.03454 cumulative IPC: 0.967736 (Simulation time: 10 hr 57 min 7 sec) 
Heartbeat CPU 2 instructions: 3050000000 cycles: 3104816319 heartbeat IPC: 0.94788 cumulative IPC: 0.967668 (Simulation time: 10 hr 59 min 16 sec) 
Heartbeat CPU 3 instructions: 830000002 cycles: 3106150208 heartbeat IPC: 0.25205 cumulative IPC: 0.241947 (Simulation time: 10 hr 59 min 31 sec) 
Heartbeat CPU 2 instructions: 3060000003 cycles: 3114909834 heartbeat IPC: 0.990735 cumulative IPC: 0.967744 (Simulation time: 11 hr 1 min 20 sec) 
Heartbeat CPU 2 instructions: 3070000000 cycles: 3124542180 heartbeat IPC: 1.03817 cumulative IPC: 0.967963 (Simulation time: 11 hr 3 min 17 sec) 
Heartbeat CPU 1 instructions: 790000001 cycles: 3128548907 heartbeat IPC: 0.231661 cumulative IPC: 0.232712 (Simulation time: 11 hr 4 min 1 sec) 
Heartbeat CPU 2 instructions: 3080000000 cycles: 3135643855 heartbeat IPC: 0.900765 cumulative IPC: 0.967723 (Simulation time: 11 hr 5 min 26 sec) 
Heartbeat CPU 2 instructions: 3090000003 cycles: 3145284419 heartbeat IPC: 1.03728 cumulative IPC: 0.967938 (Simulation time: 11 hr 7 min 28 sec) 
Heartbeat CPU 3 instructions: 840000000 cycles: 3145705246 heartbeat IPC: 0.252812 cumulative IPC: 0.242085 (Simulation time: 11 hr 7 min 34 sec) 
Heartbeat CPU 2 instructions: 3100000000 cycles: 3156669262 heartbeat IPC: 0.878361 cumulative IPC: 0.967612 (Simulation time: 11 hr 9 min 44 sec) 
Heartbeat CPU 0 instructions: 220000000 cycles: 3162311015 heartbeat IPC: 0.058645 cumulative IPC: 0.0542541 (Simulation time: 11 hr 10 min 51 sec) 
Heartbeat CPU 2 instructions: 3110000003 cycles: 3166509822 heartbeat IPC: 1.0162 cumulative IPC: 0.967764 (Simulation time: 11 hr 11 min 45 sec) 
Heartbeat CPU 1 instructions: 800000002 cycles: 3169847696 heartbeat IPC: 0.242138 cumulative IPC: 0.232836 (Simulation time: 11 hr 12 min 28 sec) 
Heartbeat CPU 2 instructions: 3120000002 cycles: 3177845474 heartbeat IPC: 0.882172 cumulative IPC: 0.967456 (Simulation time: 11 hr 13 min 58 sec) 
Heartbeat CPU 2 instructions: 3130000001 cycles: 3187728391 heartbeat IPC: 1.01185 cumulative IPC: 0.967595 (Simulation time: 11 hr 16 min 9 sec) 
Heartbeat CPU 3 instructions: 850000000 cycles: 3188129171 heartbeat IPC: 0.235716 cumulative IPC: 0.241999 (Simulation time: 11 hr 16 min 14 sec) 
Heartbeat CPU 2 instructions: 3140000003 cycles: 3198934333 heartbeat IPC: 0.892384 cumulative IPC: 0.967329 (Simulation time: 11 hr 18 min 23 sec) 
Heartbeat CPU 2 instructions: 3150000000 cycles: 3208960505 heartbeat IPC: 0.997389 cumulative IPC: 0.967424 (Simulation time: 11 hr 20 min 27 sec) 
Heartbeat CPU 1 instructions: 810000003 cycles: 3211216035 heartbeat IPC: 0.241731 cumulative IPC: 0.232951 (Simulation time: 11 hr 20 min 57 sec) 
Heartbeat CPU 2 instructions: 3160000000 cycles: 3218847568 heartbeat IPC: 1.01142 cumulative IPC: 0.96756 (Simulation time: 11 hr 22 min 31 sec) 
Heartbeat CPU 2 instructions: 3170000000 cycles: 3230218347 heartbeat IPC: 0.879447 cumulative IPC: 0.967247 (Simulation time: 11 hr 24 min 49 sec) 
Heartbeat CPU 3 instructions: 860000000 cycles: 3231440522 heartbeat IPC: 0.230886 cumulative IPC: 0.241849 (Simulation time: 11 hr 25 min 3 sec) 
Heartbeat CPU 2 instructions: 3180000000 cycles: 3240075464 heartbeat IPC: 1.0145 cumulative IPC: 0.967392 (Simulation time: 11 hr 26 min 54 sec) 
Heartbeat CPU 2 instructions: 3190000000 cycles: 3251363627 heartbeat IPC: 0.885884 cumulative IPC: 0.967107 (Simulation time: 11 hr 29 min 9 sec) 
Heartbeat CPU 1 instructions: 820000003 cycles: 3252214060 heartbeat IPC: 0.243914 cumulative IPC: 0.233091 (Simulation time: 11 hr 29 min 19 sec) 
Heartbeat CPU 2 instructions: 3200000001 cycles: 3261249272 heartbeat IPC: 1.01157 cumulative IPC: 0.967243 (Simulation time: 11 hr 31 min 10 sec) 
Heartbeat CPU 2 instructions: 3210000002 cycles: 3272554459 heartbeat IPC: 0.88455 cumulative IPC: 0.966955 (Simulation time: 11 hr 33 min 31 sec) 
Heartbeat CPU 3 instructions: 870000000 cycles: 3276931317 heartbeat IPC: 0.219825 cumulative IPC: 0.24154 (Simulation time: 11 hr 34 min 26 sec) 
Heartbeat CPU 2 instructions: 3220000000 cycles: 3282414276 heartbeat IPC: 1.01422 cumulative IPC: 0.967098 (Simulation time: 11 hr 35 min 37 sec) 
Heartbeat CPU 1 instructions: 830000003 cycles: 3293606587 heartbeat IPC: 0.24159 cumulative IPC: 0.233199 (Simulation time: 11 hr 37 min 41 sec) 
Heartbeat CPU 2 instructions: 3230000000 cycles: 3293684111 heartbeat IPC: 0.887324 cumulative IPC: 0.966822 (Simulation time: 11 hr 37 min 42 sec) 
Heartbeat CPU 2 instructions: 3240000002 cycles: 3303546805 heartbeat IPC: 1.01392 cumulative IPC: 0.966964 (Simulation time: 11 hr 39 min 42 sec) 
Heartbeat CPU 2 instructions: 3250000001 cycles: 3313373253 heartbeat IPC: 1.01766 cumulative IPC: 0.967116 (Simulation time: 11 hr 41 min 45 sec) 
Heartbeat CPU 2 instructions: 3260000000 cycles: 3324700896 heartbeat IPC: 0.882796 cumulative IPC: 0.966826 (Simulation time: 11 hr 43 min 54 sec) 
Heartbeat CPU 3 instructions: 880000000 cycles: 3325753106 heartbeat IPC: 0.204827 cumulative IPC: 0.240997 (Simulation time: 11 hr 44 min 7 sec) 
Heartbeat CPU 2 instructions: 3270000002 cycles: 3334546493 heartbeat IPC: 1.01568 cumulative IPC: 0.966972 (Simulation time: 11 hr 45 min 49 sec) 
Heartbeat CPU 0 instructions: 230000000 cycles: 3334825663 heartbeat IPC: 0.0579661 cumulative IPC: 0.0544478 (Simulation time: 11 hr 45 min 53 sec) 
Heartbeat CPU 1 instructions: 840000001 cycles: 3334874565 heartbeat IPC: 0.242319 cumulative IPC: 0.233312 (Simulation time: 11 hr 45 min 54 sec) 
Heartbeat CPU 2 instructions: 3280000001 cycles: 3345840564 heartbeat IPC: 0.88542 cumulative IPC: 0.966694 (Simulation time: 11 hr 48 min 1 sec) 
Heartbeat CPU 2 instructions: 3290000000 cycles: 3355705240 heartbeat IPC: 1.01372 cumulative IPC: 0.966833 (Simulation time: 11 hr 49 min 59 sec) 
Heartbeat CPU 2 instructions: 3300000000 cycles: 3367029218 heartbeat IPC: 0.883082 cumulative IPC: 0.966549 (Simulation time: 11 hr 52 min 9 sec) 
Heartbeat CPU 1 instructions: 850000001 cycles: 3376181227 heartbeat IPC: 0.242092 cumulative IPC: 0.233421 (Simulation time: 11 hr 53 min 52 sec) 
Heartbeat CPU 2 instructions: 3310000001 cycles: 3376921243 heartbeat IPC: 1.01092 cumulative IPC: 0.96668 (Simulation time: 11 hr 54 min 1 sec) 
Heartbeat CPU 3 instructions: 890000003 cycles: 3378236871 heartbeat IPC: 0.190535 cumulative IPC: 0.240206 (Simulation time: 11 hr 54 min 15 sec) 
Heartbeat CPU 2 instructions: 3320000003 cycles: 3388198974 heartbeat IPC: 0.886703 cumulative IPC: 0.966412 (Simulation time: 11 hr 56 min 0 sec) 
Heartbeat CPU 2 instructions: 3330000001 cycles: 3398054875 heartbeat IPC: 1.01462 cumulative IPC: 0.966553 (Simulation time: 11 hr 57 min 49 sec) 
[...]
IIIIIIIIIIIIIIIIIIIIIIIIIIIIIAIIIIIIIIIIIIIIIIIIIIIIIIIIIIIIIIII
IIIIIIIIIIIIIIIIIIIIIIIAIIIIIIIIIIIIIIIIIIIIIIIIIIIIIIIIIIIIIIII
IIIIIIIIIIIIIIIIIIIIIIIIIAIIIIIIIIIIIIIIIIIIIIIIIIIIIIIIIIIIIIII
IIIIIIIIIIIIIIIIIIIIIIIIIIAIIIIIIIIIIIIIIIIIIIIIIIIIIIIIIIIIIIII
IIIIIIIIIIIIIIIIIIIIIIIIIIIIIIIIIIIIIIIIIIIIIIAIIIIIIIIIIIIIIIII
IIIIIIIAIIIIIIIIIIIIIIIIIIIIIIIIIIIIIIIIIIIIIIIIIIIIIIIIIIIIIIII
IIIIIIIIIIIIIIIIIIIIIIIIIIIIIIIIIIIIAIIIIIIIIIIIIIIIIIIIIIIIIIII
IIIIIIIIIIIIIIIIIIIIIIAIIIIIIIIIIIIIIIIIIIIIIIIIIIIIIIIIIIIIIIII
IIIIIIIIIIIIIIIIIIIIIIIIIIIIIAIIIIIIIIIIIIIIIIIIIIIIIIIIIIIIIIII
IIIIIIIIIIIIIIIIIIIIIIIIIIIIIAIIIIIIIIIIAIIIIIIIIIIIIIIIIIIIIIII
IIIIIIIIIIIIIIIIIIIIIIIIIIIIIIIIIIIIIIIIIIIIAIIIIIIIIIIIIIIIIIII
IIIIIIIIIIIIIIIIIIIIIIIIIIAIIIIIIIIIIIIIIIIIIIIIIIIIIIIIIIIIIIII
IIIIIIIIIIIIIIIIIIIIIIIIIIIIAIIIIIIIIIIIIIIIIIIIIIIIIIIIIIIIIIII
IIIIIIIIIIIIIIAIIIIIIIIIIIIIIIIIIIIIIIIIIIIIIIIIIIIIIIIIIIIIIIII
IIIIIIIIIIIIIIIIIIIIIIIIIIIIIIIIIIIIIIIIIIIAIIIIIIIIIIIIIIIIIIII
IIIIIIIIIIIIIIIIIIIIIIIIIIIIIIIIIIAIIIIIIIIIIIIIIIIIIIIIIIIIIIII
IIIIIIIIIIIIIIIIIIIIIIIIIIAIIIIIIIIIIIIIIIIIIIIIIIIIIIIIIIIIIIII
IIIIIIIIIIIIIIIIIIIIIIIIIIIIIIIIIIIIIIIIIIIIIIIIIIIIIIIIIAIIIIII
IIIIIIIIIIIIIIIIIIIIIIIIIIIIIIIIIIIIIIIAIIIIIIIIIIIIIIIIIIIIIIII
IIIIIIIIIIIIIIIIAIIIIIIIIIIIIIIIIIIIIIIIIIIIIIIIIIIIIIIIIIIIIIII
IIIIIIIIIIIIIIIIIIIIIIIIIIIIIIIIIIIIIIIIIIIIIIIIIIIIIIIAIIIIIIII
IIIIIIIIIIIIIIIIIIIIIIIIIIIIIIIIIIIIIIIIIAIIIIIIIIIIIIIIIIIIIIII
IIIIIIIIIIIIIIIIIIIIIIIIIIIIAIIIIIIIIIIIIIIIIIIIIIIIIIIIIIIIIIII
IIIIIIIIIIIIIIIIIIIIIIIIIIIIIIIIIIIIIIIIAIIIIIIIIIIIIIIIIIIIIIII
IIIIIIIIIIIIIIIIIIIIIIIIIIAIIIIIIIIIIIIIIIIIIIIIIIIIIIIIIIIIIIII
IIIIIIIIIIIIIIIIIIIIIIIIIAIIIIIIIIIIIIIIIIIIIIIIIIIIIIIIIIIIIIII
IIIIIIIIIIIIIIIIIIIIIIIIIAIIIIIIIIIIIIIIIIIIIIIIIIIIIIIIIIIIIIAI
IIIAIIIIIIIIIIIIIIIIIIIIIIIIIIIIIIIIIIIIIIIIIIIIIIIIIIIIIIIIIIII
IIIIIIIIIIIIIIIIIIIIIIIIIIIIIIIIIIIIIIIIIIIIIIIIIIIIIIIIAIIIIIII
IIIIIIIIIIIIIIIIIIIIIIIIIIIIIIIIIIIIIIIIIIIIIIIIIIIIIIIIAIIIIIAI
IIIIIIIIIIIIAIIIIIIIIIIIIIIIIIIIIIIIIIIIIIIIIIIIIIIIIIIIAIIIIIAI
IIIIIIIIIIIIIIIIAIIIIIIIIIIIIIIIIIIIIIIIIIIIIIIIIIIIIIIIIIIIIIII
IIIIIIIIIIIIIIIIIIIIIIIIIIIIIIIIIIIAIIIIIIIIIIIIIIIIIIIIIIIIIIII
IIIIIIIIIIIIIIIIIIIIIIIIIIIIAIIIIIIIIIIIIIIIIIIIIIIIIIIIIIIIIIII
IIIIIIIIIIIIIIIIIIIIIIIIIIIIIIIIIIIIIIIIIIIIIIIIIIIIIAIIIIIIIIII
IIIIIIIIIIIIIIIIAIIIIIIIIIIIIIIIIIIIIIIIIIIIIIIIIIIIIIIIIIIIIIII
IIIIIIIIIIIIIIIIIIIIIIIIIIIIIIIIIIIIIIAIIIIIIIIIIIIIIIIIIIIIIIII
IIIIIIIIIIIIIIIIIIIIIIIIIIIIIAIIIIIIIIIIIIIIIIIIIIIIIIIIIIIIIIII
IIIIIIAIIIIIIIIIIIIIIIIIIIIIIIIIIIIIIIIIIIIIIIIIIIIIIIIIIIIIIIII
IAIIIIIIIIIIIIIIIIIIIIIIIIIIIIIIIIIIIIIIIIIIIIIIIIIIIIIIIIIIIIII
IIIIIIIIIIIIIIIIIIIIIIIIIIIIIIIIIIIIIIAIIIIIIIIIIIIIIIIIIIIIIIII
IIIIIIIIIIIIIIIIIIIIIIIIIIIIIIAIIIIIIIIIIIIIIIIIIIIIIIIIIIIIIIII
IIIIIIIIIIIIIIIIAIIIIIIIIIIIIIIIIIIIIIIIIIIIIIIIIIIIIIIIIIIIIIII
IIIIIIIIIAIIIIIIIIIIIIIIIIIIIIIIIIIIIIIIIIIIIIIIIIIIIIIIIIIIIIII
IIIIIIIIIAIIIIIIIIIIIIIIIIIIIIIIIIIIAIIIIIIIIIIIIIIIIIIIIIIIIIII
IIAIIIIIIIIIIIIIIIIIIIIIIIIIIIIIIIIIIIIIIIIIIIIIIIIIIIIIIIIIIIII
IIIIIIIIIIIIIIIIIIIIIIIIIIIIIIIIIIIIIIIIIIIIIIIIIIIAIIIIIIIIIIII
IIIIIIIIIIIIIIIIIIIIAIIIIIIIIIIIIIIIIIIIIIIIIIIIIIIIIIIIIIIIIIII
IIIIIIIIIIIIIIIIIIIIIIIIIIIIIIIIIIIIIIIIIIIIIIIIIIIIIIAIIIIIIIII
IIIIIIIIIIIIIAIIIIIIIIIIIIIIIIIIIIIIIIIIIIIIIIIIIIIIIIIIIIIIIIII
IIIIIIIIIIIIIIIIIIIIIIIIIIIIIIIIIIIIIIIIIIIIIIIIIIIAIIIIIIIIIIII
IIIIIIIIIIIIIIIAIIIIIIIIIIIIIIIIIIIIIIIIIIIIIIIIIIIIIIIIIIIIIIII
IIIIIIIIIIIIIIIIIIIIIIIIIIIIIIIIAIIIIIIIIIIIIIIIIIIIIIIIIIIIIIII
IAIIIIIIIIIIIIIIIIIIIIIIIIIIIIIIIIIIIIIIIIIIIIIIIIIIIIIIIIIIIIII
IIIIIIIIIIIIIIIIIIIIIIIAIIIIIIIIIIIIIIIIIIIIIIIIIIIIIIIIIIIIIIII
AIIIIIIIIIIIIIIIIIIIIIIIIIIIIIIIIIIIIIIIIIIIIIIIIIIIIIIIIIIIIIII
AAIIIIIIIIIIIIIIIIIIIIIIIIIIIIIIIIIIIIIIIIIIIIIIIIIIIIIIIIIIIIII
AAIIIIIIIIIIAIIIIIIIIIIIIIIIIIIIIIIIIIIIIIIIIIIIIIIIIIIIIIIIIIII
AAIIIIIIIIIIAIIIIIIIIIIIIIIIIIIIIIIIIIIIIIIIIIIIIIIIIAIIIIIIIIII
IIIIIIIIIIIIIIIIIIIIIIIIIIIIIIIIIIIIIIIIIAIIIIIIIIIIIIIIIIIIIIII
IIIIIIIIIIIIIIIIIIIIIIIIIIIIIIIIIIIIIIIIIIIAIIIIIIIIIIIIIIIIIIII
IIIIIIIIIIIIIIIIIIIIIIIIIIIIIIIIIIIIIIIIIIIIIIIIIIIIIIIIAIIIIIII
IIIIIIIIIIIIIIIIAIIIIIIIIIIIIIIIIIIIIIIIIIIIIIIIIIIIIIIIIIIIIIII
IIIIIIIIIIIIIIIIIIIIIIIIIIIAIIIIIIIIIIIIIIIIIIIIIIIIIIIIIIIIIIII
IIIIIIIIIIIIIIIIIIIIIIIIIIIIIIIIIIIIAIIIIIIIIIIIIIIIIIIIIIIIIIII
IIIIIIIIIIIIIIIIIIIIIIIIIIIIIIIIIIIIIIIIIIIIIIIIIIIIAIIIIIIIIIII
IIIIIIIIIIIIIIIIAIIIIIIIIIIIIIIIIIIIIIIIIIIIIIIIIIIIIIIIIIIIIIII
IIIIIIIIIIIIIIIIIIIIIIIIIIIIIIIIIIIIIIIIIIIIIIIAIIIIIIIIIIIIIIII
IIIIIIIIIIIIIIIIIIIIIIIIIIIIIIIIAIIIIIIIIIIIIIIIIIIIIIIIIIIIIIII
IIIIIIIIIIIIIIIIIIIIIIIIIIIIIIIIIIIIIIIIIIIAIIIIIIIIIIIIIIIIIIII
IIIIIIIIIIIIIIIIIIIIIIIIIIIIIIIIIIIIAIIIIIIIIIIIIIIIIIIIIIIIIIII
IIIIIIIIIIIIIIIIIIIIIIIIIIAIIIIIIIIIIIIIIIIIIIIIIIIIIIIIIIIIIIII
IIIIIIIIIIIIIIIIIIIIIIIIIIIIIAIIIIIIIIIIIIIIIIIIIIIIIIIIIIIIIIII
IIIIIIIIIIIIIIIIIIIIIIIIIIIIIIIIIIIIIIIIIIIIIIIIIIIAIIIIIIIIIIII
IIIIIIIIIIIIIIIIIIIIIIIIIIIIAIIIIIIIIIIIIIIIIIIIIIIIIIIIIIIIIIII
IIIIIIIIIIIIIIIIIIIIIIIIIIIIIIIIIIIIIIIIIIIIIIIIIIIIIIIIIIIAIIII
IIIIIIIIIIIIIIIIIIIIIAIIIIIIIIIIIIIIIIIIIIIIIIIIIIIIIIIIIIIIIIII
IIIIIIIIIIIIIIIIAIIIIIIIIIIIIIIIIIIIIIIIIIIIIIIIIIIIIIIIIIIIIIII
IIIIIIIIIIIIIIIIIIIIIIIIIIIIIIIIIIIIIIIIIIIAIIIIIIIIIIIIIIIIIIII
IIIIIIIIIIIIIIIIIIIIIIIIIIIIIIIIIIIIIIIIIIIIIIIIIIIIIIIIIIIIIIAI
IIIIIIIIIAIIIIIIIIIIIIIIIIIIIIIIIIIIIIIIIIIIIIIIIIIIIIIIIIIIIIII
IIIIIIIIIIIIIIIIIIIIIIIIIIIIIIIIIIIIIIIAIIIIIIIIIIIIIIIIIIIIIIII
IIIIIIIIIIIIIIIIIIIAIIIIIIIIIIIIIIIIIIIIIIIIIIIIIIIIIIIIIIIIIIII
IIIIIIIIIIIIIIIIIIIIIIIIIIIIIIAIIIIIIIIIIIIIIIIIIIIIIIIIIIIIIIII
IIIIIIIIIIIIIIIIIIIIIIIIIIIIIIIIIIIIIIIIIIIIIIIIIIIIIAIIIIIIIIII
IIIIIIIIIIIIAIIIIIIIIIIIIIIIIIIIIIIIIIIIIIIIIIIIIIIIIIIIIIIIIIII
IIIIIIIIIIIIIIIIIIIIIIIIIIIIIIIIIIIIIIIIIIIIIIIIIIIIIIIAIIIIIIII
IIIIIIIIIIIIIIIIIIIIIIIIIIIIIIIIIIIIIIIIIIIIIIIIIIIIIIIIIIIIIIIA
IIIIIIIIIIIIIIIIIIIIIIIIIIIIIIIIIIIIIIIIIIIIIIIIIIIIIIIAIIIIIIII
IIIIIIIIIIIIIIIIIIIIIIIIIIIIIIIIIIIIIIIIIIIIIIAIIIIIIIIIIIIIIIII
IIIIIIIIIIIIIIIIIIIIIIIIIIIIIIIIIIAIIIIIIIIIIIIIIIIIIIIIIIIIIIII
IIIIIAIIIIIIIIIIIIIIIIIIIIIIIIIIIIIIIIIIIIIIIIIIIIIIIIIIIIIIIIII
IIIIIIIIIAIIIIIIIIIIIIIIIIIIIIIIIIIIIIIIIIIIIIIIIIIIIIIIIIIIIIII
IIIIIIAIIIIIIIIIIIIIIIIIIIIIIIIIIIIIIIIIIIIIIIIIIIIIIIIIIIIIIIII
IIIIIIIIIIIIIIIIIIIIIIIIIIIIIIIIIIIIIIIIIIIIIIIIIIIIIIIIIIAIIIII
IIIIIIIIIIIIIIIIIIIIIIIIIIIIIIIIIIIIIIIIIIIIIIIIIIIIIIIIIIIIIIAI
IIIIIIIIIIIIIIIIIIIIIIIIIIIIIIAIIIIIIIIIIIIIIIIIIIIIIIIIIIIIIIII
IIIIIIIIIIIIIIIIIIIIIIIIIIIIIIIIIIIIIIIIIIIIIIIIIIIIIIIIIIIAIIII
IIIIIAIIIIIIIIIIIIIIIIIIIIIIIIIIIIIIIIIIIIIIIIIIIIIIIIIIIIIAIIII
IIIIIAIIIIIIIIIIIIIIIIIIIIIIIIIIIIIIIIIIAIIIIIIIIIIIIIIIIIIAIIII
IIIIIIIIAIIIIIIIIIIIIIIIIIIIIIIIIIIIIIIIIIIIIIIIIIIIIIIIIIIIIIII
IIIIIIIIIIIIIIIIIIIIIIIIIIIIIIAIIIIIIIIIIIIIIIIIIIIIIIIIIIIIIIII
IIIIIIIIIIIIIIIIIIIIIIIIIIIIIIIIIIIIIIIIIAIIIIIIIIIIIIIIIIIIIIII
IIIIIIIIIIIIIIIIIIIIIIIIIIIIIIIIIIIAIIIIIIIIIIIIIIIIIIIIIIIIIIII
IIIIIIIIIIIAIIIIIIIIIIIIIIIIIIIIIIIIIIIIIIIIIIIIIIIIIIIIIIIIIIII
IIIIIIIIIIIIAIIIIIIIIIIIIIIIIIIIIIIIIIIIIIIIIIIIIIIIIIIIIIIIIIII
IIIIIIIIIIIIAIIIIIIIIIIIIIIIIIIIIIIIIIIIIIIIIIIIIIIIIAIIIIIIIIII
IIIIIIIIIIIIIIIIIIIIIIIIIIIIAIIIIIIIIIIIIIIIIIIIIIIIIIIIIIIIIIII
IIIIIIIIIIIIIIIIIIIIIIIIIIIIAIIIIIIIIIIIIIIIIIIIIIIIIIIIIIIIIIAI
IIIIIIIIIIIIIIIIIIIIIIIIIIIIIIIIIIIIIIIAIIIIIIIIIIIIIIIIIIIIIIII
IIIIIIIIIIIIIIIIIIIIIIIIIIIIIIIIIIIIIIIIIIIIIIIIIIIIAIIIIIIIIIII
IIIIIIIIIIIIIIIIIIIIIIIIIIIIIIIIIIIIIIIIIIIIIIIIIIIIIIAIIIIIIIII
IIIIIIIAIIIIIIIIIIIIIIIIIIIIIIIIIIIIIIIIIIIIIIIIIIIIIIIIIIIIIIII
IIIIIIIIIIIIIIIIAIIIIIIIIIIIIIIIIIIIIIIIIIIIIIIIIIIIIIIIIIIIIIII
IIIIIIIIIIIIIIIIIIIIIIIIIIIIIIIIIIIIIIIIIIIIIIIIIIIIAIIIIIIIIIII
IIIIIIIIIIIIIIIIIIIIIIIAIIIIIIIIIIIIIIIIIIIIIIIIIIIIIIIIIIIIIIII
IIIIIIIIIIIIIIAIIIIIIIIIIIIIIIIIIIIIIIIIIIIIIIIIIIIIIIIIIIIIIIII
IIIIIIIIIIIAIIIIIIIIIIIIIIIIIIIIIIIIIIIIIIIIIIIIIIIIIIIIIIIIIIII
IIIIIIIIIIIIIIIIIIIIIIIIIIIIIIIIIIIIIIIIIIIIIIIIIIIIIIIAIIIIIIII
IIIIIAIIIIIIIIIIIIIIIIIIIIIIIIIIIIIIIIIIIIIIIIIIIIIIIIIIIIIIIIII
IIIIIIIIIIIIIIIIIIIIIIIIIIIIIAIIIIIIIIIIIIIIIIIIIIIIIIIIIIIIIIII
IIIIIIIIIIIIIIIIIIIAIIIIIIIIIIIIIIIIIIIIIIIIIIIIIIIIIIIIIIIIIIII
IIIIIIIIIIIIIIIIIIIIIIIIIIIIIIIIIIIIAIIIIIIIIIIIIIIIIIIIIIIIIIII
IIIIIIIIIIIIIIIIIIIIIIIIIIIIIIIIIIIIIIIAIIIIIIIIIIIIIIIIIIIIIIII
IIIIIIIIIIIIIIIIAIIIIIIIIIIIIIIIIIIIIIIIIIIIIIIIIIIIIIIIIIIIIIII
IIIIIIIIAIIIIIIIIIIIIIIIIIIIIIIIIIIIIIIIIIIIIIIIIIIIIIIIIIIIIIII
IIIIIIIIIIIIIIIIIAIIIIIIIIIIIIIIIIIIIIIIIIIIIIIIIIIIIIIIIIIIIIII
IIIIIIIIIIIIIIIIIIIIIIIIIIIIIIIIIIIIIIIIIIIIIIIIIIIIIIIIIIIIIIAI
IIIIIIIIIIIIIIIIAIIIIIIIIIIIIIIIIIIIIIIIIIIIIIIIIIIIIIIIIIIIIIII
IIIIIIIIIIIIIIIIIIIIIIIIIIIIIIIIIIIIIIIIIIIIIIIIIIIIAIIIIIIIIIII
IIIIIIIIIIIIIIIIIIIIIIIIIIIIIIIIIIIIIIIIIIIIAIIIIIIIIIIIIIIIIIII
IIIIIIIIIIIIIIIIAIIIIIIIIIIIIIIIIIIIIIIIIIIIIIIIIIIIIIIIIIIIIIII
IIIIIIIIIIIIIIIIIIIIIIIIIIIIIIIIIIIIIIIIIIAIIIIIIIIIIIIIIIIIIIII
IIIIIIIIIIIIIIIIIIIIIIIIIIIIIAIIIIIIIIIIIIIIIIIIIIIIIIIIIIIIIIII
IIIIIIIIIIIIIIIIIIIIIIIIIIIIIIIIIIIIIIIIIIIIIIIIIIIIIIAIIIIIIIII
AIIIIIIIIIIIIIIIIIIIIIIIIIIIIIIIIIIIIIIIIIIIIIIIIIIIIIIIIIIIIIII
IIIIIIIIIIIIIIIIIIIIIIIIIIIIIIIIIIIIIIIIIIIIIIIIIIIIIIIIIIIIIIAI
IIIIIIAIIIIIIIIIIIIIIIIIIIIIIIIIIIIIIIIIIIIIIIIIIIIIIIIIIIIIIIII
IIIIIIIIIIIIIIIIIIIIIIIIIIIIIIIIIIIIIIIIIIIIIIIIIIIIIIIIIAIIIIII
IIIIIIIIIIIIIIIIIIIIIIIIIAIIIIIIIIIIIIIIIIIIIIIIIIIIIIIIIIIIIIII
IIIIIIIIIIIIIIIIAIIIIIIIIIIIIIIIIIIIIIIIIIIIIIIIIIIIIIIIIIIIIIII
IIAIIIIIIIIIIIIIIIIIIIIIIIIIIIIIIIIIIIIIIIIIIIIIIIIIIIIIIIIIIIII
IIIIAIIIIIIIIIIIIIIIIIIIIIIIIIIIIIIIIIIIIIIIIIIIIIIIIIIIIIIIIIII
IIIIAIIIIIIIIIIIIAIIIIIIIIIIIIIIIIIIIIIIIIIIIIIIIIIIIIIIIIIIIIII
IIIIAIIIIIIIIIIIIAIIIIIIIIIIIIIIIIIIIIIIIIIAIIIIIIIIIIIIIIIIIIII
IIIIAIIIIIIIIIIIIAIIIIIIIIIIIIIIIIIIIIIIIIIAIIIIAIIIIIIIIIIIIIII
IIIIIIIIIIIIIIIIIIIIIIIIIIIIIIIIIIIIIIIAIIIIIIIIIIIIIIIIIIIIIIII
IIIIIIIIIIIIIIIIIIIIIIAIIIIIIIIIIIIIIIIIIIIIIIIIIIIIIIIIIIIIIIII
IIIIIIIIIIIIIIIIIIIIIIIIIIIIIIIIIIIIIIIIIIIIIIIIIIAIIIIIIIIIIIII
IIIIIIIIIIIIIIIIIIIIIIIIIIIIIIIIAIIIIIIIIIIIIIIIIIAIIIIIIIIIIIII
IIIIIIIIIIIIIIIIIIIIIIIIIIIIIIIIIIIIIIIAIIIIIIIIIIIIIIIIIIIIIIII
IIIIIIIIAIIIIIIIIIIIIIIIIIIIIIIIIIIIIIIIIIIIIIIIIIIIIIIIIIIIIIII
IIIIIIIIIIIIIIIIIIIIIIIIIIIIIIIIIIIIIIIIIIIIIIIIIIIIIIIIIIIAIIII
IIIAIIIIIIIIIIIIIIIIIIIIIIIIIIIIIIIIIIIIIIIIIIIIIIIIIIIIIIIIIIII
IIIAIIIIIIIIIIIIIIIIIIIIIIIIIIIIIIIIIIIIIIIIIIIIIIIIIIIIIAIIIIII
IIIIIIIIIIIIIIIIIIIIIIIIIIIIIAIIIIIIIIIIIIIIIIIIIIIIIIIIIIIIIIII
IIIIIIIIIIIIIIIIIIIIIIIIIIIIIAIIIIIIIIIIIIIIIIIAIIIIIIIIIIIIIIII
IIIIIIIIIIIIIIIIIIIIIIIIAIIIIIIIIIIIIIIIIIIIIIIIIIIIIIIIIIIIIIII
IIIIIIIIIIIIIIIIIIIIIIIIIIIIIIIIIIIIIIIIIIIIIIIIIIIIIIIIIAIIIIII
IIIIIIIIIIIIIIIIIIIIIIIIIIIIIIIIIIIIIIIIIIAIIIIIIIIIIIIIIIIIIIII
IIIIIIIIIIIIIIIIIIIIIIIIIIIIIIIIIAIIIIIIIIIIIIIIIIIIIIIIIIIIIIII
IIIIIIIIIIIIIAIIIIIIIIIIIIIIIIIIIIIIIIIIIIIIIIIIIIIIIIIIIIIIIIII
IIIIIIIIIIIIIIIIIIIIIAIIIIIIIIIIIIIIIIIIIIIIIIIIIIIIIIIIIIIIIIII
IIIIIAIIIIIIIIIIIIIIIIIIIIIIIIIIIIIIIIIIIIIIIIIIIIIIIIIIIIIIIIII
IIIIIIIIIIIIIIIIIIIIIIIIIIIIIIIIIIIIIIIIIIAIIIIIIIIIIIIIIIIIIIII
IIIIIIIIIIIIIIIIIIIIIIIIIIIIIIAIIIIIIIIIIIIIIIIIIIIIIIIIIIIIIIII
IIIIAIIIIIIIIIIIIIIIIIIIIIIIIIIIIIIIIIIIIIIIIIIIIIIIIIIIIIIIIIII
IIIIIIIIIIIIIIIIIIIIIIIIIIIIIIIIIIIIIIAIIIIIIIIIIIIIIIIIIIIIIIII
IIIIIIIIIIIIIIIIIIIIIIIIIIIIIAIIIIIIIIIIIIIIIIIIIIIIIIIIIIIIIIII
IIIIIIIIIIIIIIIIAIIIIIIIIIIIIIIIIIIIIIIIIIIIIIIIIIIIIIIIIIIIIIII
IIIIIIAIIIIIIIIIIIIIIIIIIIIIIIIIIIIIIIIIIIIIIIIIIIIIIIIIIIIIIIII
IIIIIIIIIIIIIIIIIIIIIIIIIIIIIIIIIIIIIIIIIIIIIIIIIIIAIIIIIIIIIIII
IIIIIIIIIIIIIIIIIIIIIIIIIIIIIIIIIIIIAIIIIIIIIIIIIIIIIIIIIIIIIIII
IIIIIIAIIIIIIIIIIIIIIIIIIIIIIIIIIIIIIIIIIIIIIIIIIIIIIIIIIIIIIIII
IIIIIIIIIIIIIIIIIIIIIIIIIIIIIIIIIIIAIIIIIIIIIIIIIIIIIIIIIIIIIIII
IIIIIIIIIIIIIIIIIIIIIIIIIIIIIIIIIIAIIIIIIIIIIIIIIIIIIIIIIIIIIIII
IIIIIIIIIAIIIIIIIIIIIIIIIIIIIIIIIIIIIIIIIIIIIIIIIIIIIIIIIIIIIIII
IIIIIIIIIIIAIIIIIIIIIIIIIIIIIIIIIIIIIIIIIIIIIIIIIIIIIIIIIIIIIIII
IIIIIIIIIIIIIIIIIIIIIIIIIIIIIIIIIIIIIIIIIIIIIIIIIAIIIIIIIIIIIIII
IIIIIIIIIIIIIIIIIIIIIIIIIIIIIIIIIIIIIIIIIIIIIIIIIIIIIIIIIIIIAIII
IIIIIIIIIIIIIIIIIIIIIIIIIIIIIIIIIIIIIIIIIIIIIIIIIIIAIIIIIIIIIIII
IIIIIIIIIIIIIIIIIIIIIIIIIIIIIIIIIIIIIIIIIIIIIIIIIIIAIIIIIIIIIIAI
IIIIIIIIIIIIIIIIAIIIIIIIIIIIIIIIIIIIIIIIIIIIIIIIIIIIIIIIIIIIIIII
IIIIIIAIIIIIIIIIIIIIIIIIIIIIIIIIIIIIIIIIIIIIIIIIIIIIIIIIIIIIIIII
IIIIIIIIIIIIIIIIIIIIIIIIIIIIIIIIIIIIIIAIIIIIIIIIIIIIIIIIIIIIIIII
IIIIIIIIIIIIIIIIIIIIIIIIAIIIIIIIIIIIIIIIIIIIIIIIIIIIIIIIIIIIIIII
IIIIIIIIIIIIIIIIIIIIIIIIIIIIIIIIIAIIIIIIIIIIIIIIIIIIIIIIIIIIIIII
IIIIIIAIIIIIIIIIIIIIIIIIIIIIIIIIIIIIIIIIIIIIIIIIIIIIIIIIIIIIIIII
IIIIIIIIIIIIIIIIIIIIIIIIIIIIIIIIIIIIIIIIIIAIIIIIIIIIIIIIIIIIIIII
IIIIIIIIIIIIIIIIIIIIIIIIIIIIIIIIIIIIIIIAIIIIIIIIIIIIIIIIIIIIIIII
IIIIIIIIIIIIIIIIIIIIIAIIIIIIIIIIIIIIIIIIIIIIIIIIIIIIIIIIIIIIIIII
IIIIIIIIIIIIIIIAIIIIIIIIIIIIIIIIIIIIIIIIIIIIIIIIIIIIIIIIIIIIIIII
IIIIIIIIIIIIIIIIIIIIIIIIIIIIIIIIAIIIIIIIIIIIIIIIIIIIIIIIIIIIIIII
IIIIIIIIIIIIIIIIIIIIIIIIIIIIIIIIIIIIIIIIIIIIIIIIIIAIIIIIIIIIIIII
IIIIIIIIIIIIIIIIIIIIIIIIIIIIIIIIIIIIIIAIIIIIIIIIIIIIIIIIIIIIIIII
IIIIIIIIIIIIIIIIIIIIIIIIIIIIIIIIIAIIIIIIIIIIIIIIIIIIIIIIIIIIIIII
IIIIIIIIIIIIIIIIIIIIIIIIIIIIIIIIIIIIIIIIIIIIIIIIIAIIIIIIIIIIIIII
IIIIIIIIIIIIIIIIIIIIIIIIIIIIIIIIIIIIIIIIIIIIIIIIIIIIIIIIIIIIIIIA
IIIIIIIIIIIIIIIIIIIIIIIIIIIIIIIIIIIIIIIIIIIIIIIIIIIIIIIIIAIIIIII
IIIIIIIIIIIIIIIIAIIIIIIIIIIIIIIIIIIIIIIIIIIIIIIIIIIIIIIIIIIIIIII
IIIIIIIIIAIIIIIIIIIIIIIIIIIIIIIIIIIIIIIIIIIIIIIIIIIIIIIIIIIIIIII
IIIIIIIIIIIIIIIIIIIIIIIIIIIAIIIIIIIIIIIIIIIIIIIIIIIIIIIIIIIIIIII
IIIIIIIIIIIIIIIIIIIIIIIIIIAIIIIIIIIIIIIIIIIIIIIIIIIIIIIIIIIIIIII
IIIIIIIIIIIIIIIIIIIIIIIAIIIIIIIIIIIIIIIIIIIIIIIIIIIIIIIIIIIIIIII
IIIIIIIIAIIIIIIIIIIIIIIIIIIIIIIIIIIIIIIIIIIIIIIIIIIIIIIIIIIIIIII
IIIIIIIIIAIIIIIIIIIIIIIIIIIIIIIIIIIIIIIIIIIIIIIIIIIIIIIIIIIIIIII
IIIIIIIIIIIIIIIIIIIIIIIIIIIIIIIIIAIIIIIIIIIIIIIIIIIIIIIIIIIIIIII
IIIIIIIIIIIIIIIIIIIIIIIIIIIIIIIIIIIIIIIIIIIIIIIIIIIAIIIIIIIIIIII
IIIIIIIIIIIIIIIIIIIIIIIIIIIIIIIIIIIIIIIIIIIIIIIIIIIIIIIIIIIIIIIA
IIIIIIIIIIIIIIIIIIIIIIIIIIIIIIIIIIAIIIIIIIIIIIIIIIIIIIIIIIIIIIII
IIIIIIIIIIIIIIIIIIIIIIIIIIIIIIIIIIIIAIIIIIIIIIIIIIIIIIIIIIIIIIII
IIIIIIIIIIIIIIIIIIIIIIIIIIIIIIIIIIIIIAIIIIIIIIIIIIIIIIIIIIIIIIII
IIIIIIIIIIIIIIIIIIIAIIIIIIIIIIIIIIIIIIIIIIIIIIIIIIIIIIIIIIIIIIII
IIIIIIIIIIIIIIIIIIIIIIIIIIIIIAIIIIIIIIIIIIIIIIIIIIIIIIIIIIIIIIII
IIIIIIIIIIIIIIIIIIIIIIIIIIIIIIIIIIIIIIIIIIIIIIIAIIIIIIIIIIIIIIII
IIIIIIIIIIIIIIIIIIIIIIIIIIIIIIIIIIIIIIIIIIIIIIIAIIIIIIIIIIAIIIII
IIIIIIIIIIIIIIIIIIIIIIIIIIIIIIIIIIIIIIIIIIIIIIIAIIIIIIIIIIAAIIII
IIIIIIIIIIIIIIIIIIIIIIIIIIIIIIIIIIAIIIIIIIIIIIIIIIIIIIIIIIIIIIII
IIIIIIIIIIIIIIIIIIIIIIIIIIIIIIIIIIIIIIIIIIIIIIIIIIIIIIIIIIIAIIII
AIIIIIIIIIIIIIIIIIIIIIIIIIIIIIIIIIIIIIIIIIIIIIIIIIIIIIIIIIIIIIII
IIIIIIIIIIIIIIIIIIIIIIIIIIIIIIIIIIIIIIIIIIAIIIIIIIIIIIIIIIIIIIII
IIIIIIIIIIIIIIAIIIIIIIIIIIIIIIIIIIIIIIIIIIIIIIIIIIIIIIIIIIIIIIII
IIAIIIIIIIIIIIIIIIIIIIIIIIIIIIIIIIIIIIIIIIIIIIIIIIIIIIIIIIIIIIII
IIIIIIIIIIIIIIIIIIIIIIIIIIIIIAIIIIIIIIIIIIIIIIIIIIIIIIIIIIIIIIII
IIIIIIIAIIIIIIIIIIIIIIIIIIIIIIIIIIIIIIIIIIIIIIIIIIIIIIIIIIIIIIII
IIIIIIIIIIIIIIIIIIIIIIIIIIIIIIIIIIIIIIIIIIIIAIIIIIIIIIIIIIIIIIII
IIIIIIIIIIIIIIIAIIIIIIIIIIIIIIIIIIIIIIIIIIIIIIIIIIIIIIIIIIIIIIII
IIIIIIIIIIIIIIIIIIIIIIIIIIIAIIIIIIIIIIIIIIIIIIIIIIIIIIIIIIIIIIII
IIIIIIIIIIIIIIIIIIIIIIIIIIIIIIIIIIIIAIIIIIIIIIIIIIIIIIIIIIIIIIII
IIIIIIIIIIIIIIIIIIIIIIIIIIIIIIIIIIIIIIIIIIIIIIIIIIIIIIIAIIIIIIII
IIIIIIIIIIIIIIIIIIIIIIIIIIIIIIIIIIIIIIIIIIIIIIIIIIIIIIIAIIIIIIIA
IIIIIIIIIIIIIIIIIIIIIIIIIIIIIIAIIIIIIIIIIIIIIIIIIIIIIIIIIIIIIIII
IIIIIIIIIIIIIIIIIIIIIIIIIIIIIIAIIIIIIIIIIIIIIIIIIIIIIIIIIIIAIIII
IIIIIIIIIIIIIIIIIIIIIIIIIIIIIIAIIIIIIIIIIIIIIIIIIIIIIIIIIIIAIIIA
IIIIIAIIIIIIIIIIIIIIIIIIIIIIIIIIIIIIIIIIIIIIIIIIIIIIIIIIIIIIIIII
IIIIIIIIIIIIIIIIIIIIIIIIIIIIIAIIIIIIIIIIIIIIIIIIIIIIIIIIIIIIIIII
IIIIIIIIIIIIIIIIIIIIIIIIIIAIIIIIIIIIIIIIIIIIIIIIIIIIIIIIIIIIIIII
IIIIIIIIIIIIIIIIIIIIIIIIIIIIIIIIIIIIIIIIIIIIIAIIIIIIIIIIIIIIIIII
IIIIIIIIIIIIIIIIIIIIIIIIIIIIIIIIIIIIIIIIIIIIIIIIIIIIIIIIIIIIIIIA
IIIIIIIIIIIIIIIIIIIIIIAIIIIIIIIIIIIIIIIIIIIIIIIIIIIIIIIIIIIIIIII
IIIIIIIIIIIIIIIIIIIIIIIIIIIIIIIIIIIIIIIAIIIIIIIIIIIIIIIIIIIIIIII
IIIIAIIIIIIIIIIIIIIIIIIIIIIIIIIIIIIIIIIIIIIIIIIIIIIIIIIIIIIIIIII
IIIIIIIIIIIIIIIIIIAIIIIIIIIIIIIIIIIIIIIIIIIIIIIIIIIIIIIIIIIIIIII
IIIIIIIIIIIIIIAIIIIIIIIIIIIIIIIIIIIIIIIIIIIIIIIIIIIIIIIIIIIIIIII
IIIIIIIIIIIIIIIIIIIIIIIIIIIIIIIIIIIIIIIIIIIIIIIIIIIIAIIIIIIIIIII
IIIIIIIIIIIIIIIIIIIIIIIIIIIIIIIIIIIIIIIIIIAIIIIIIIIIIIIIIIIIIIII
IIIIIIIIIIIIIIIAIIIIIIIIIIIIIIIIIIIIIIIIIIIIIIIIIIIIIIIIIIIIIIII
IIIIIIIIIIIIIIIIIIIIIIIIIIIIIIIIIIIIIIIIIAIIIIIIIIIIIIIIIIIIIIII
IIIIIIIAIIIIIIIIIIIIIIIIIIIIIIIIIIIIIIIIIIIIIIIIIIIIIIIIIIIIIIII
IIIIIIIIAIIIIIIIIIIIIIIIIIIIIIIIIIIIIIIIIIIIIIIIIIIIIIIIIIIIIIII
IIIIIIIIIIIIIIIIIIIIIIIIIIIIIIIIIIIIIIIIIIIIIIIIIIIIIIIIIAIIIIII
IIIIIIIIIIIIIIIIIIIIIIIIIIIIIIIIIIIIIIIIIIIIIIIIIIAIIIIIIIIIIIII
IIIIIAIIIIIIIIIIIIIIIIIIIIIIIIIIIIIIIIIIIIIIIIIIIIIIIIIIIIIIIIII
IIIIIIIIIIIIIIIIIIIIIIIIIIIIIIIIIIIIIAIIIIIIIIIIIIIIIIIIIIIIIIII
IIIIIAIIIIIIIIIIIIIIIIIIIIIIIIIIIIIIIIIIIIIIIIIIIIIIIIIIIIIIIIII
IIIIIIIIIIIIIIIIIIIIIAIIIIIIIIIIIIIIIIIIIIIIIIIIIIIIIIIIIIIIIIII
IIIIIIIIIIIIIIIIIIIAIIIIIIIIIIIIIIIIIIIIIIIIIIIIIIIIIIIIIIIIIIII
IIIAIIIIIIIIIIIIIIIIIIIIIIIIIIIIIIIIIIIIIIIIIIIIIIIIIIIIIIIIIIII
IIIIIIIIIIIIIIIIIIIIIIIIIIIIIIAIIIIIIIIIIIIIIIIIIIIIIIIIIIIIIIII
IIIIIIIIIIIIIIIIIIIIIIIIIIIIIIIIIIIIIIIIIIIIIIIIIIIIIIIIIIAIIIII
IIIIIIIIIIIAIIIIIIIIIIIIIIIIIIIIIIIIIIIIIIIIIIIIIIIIIIIIIIIIIIII
IIIIIIIIIIIIIIIIIIIIIIAIIIIIIIIIIIIIIIIIIIIIIIIIIIIIIIIIIIIIIIII
IIIIIIIIIA2IIIIIIIIIIIIIIIIIIIIIIIIIIIIIIIIIIIIIIIIIIIIIIIIIIIII
IIIIIIIIIIIIIIIIIIIIIIIIIIIIIIIIIIIIIIIIIIIIIIIIIIIIIIIIIIIAIIII
IA2IIIIIIIIIIIIIIIIIIIIIIIIIIIIIIIIIIIIIIIIIIIIIIIIIIIIIIIIIIIII
[MLOP] Prefetch Degree Mean: 0.14948
[MLOP] Prefetch Degree SD: 0.844736
[MLOP] Max Score Left Mean (%): 7.80286
[MLOP] Max Score Left SD (%): 4.16276
[MLOP] Max Score Right Mean (%): 18.3581
[MLOP] Max Score Right SD (%): 6.2111

DRAM Statistics
 CHANNEL 0
 RQ ROW_BUFFER_HIT:    4679480  ROW_BUFFER_MISS:   59160190
 DBUS_CONGESTED:       1138
 WQ ROW_BUFFER_HIT:    2657128  ROW_BUFFER_MISS:   12350718  FULL:          0

 AVG_CONGESTED_CYCLE: 5
 All warmup complete: 5
Channel 0 Bank busy for read cycles: 0
Channel 0 Bank busy for write cycles: 0
Channel 0
Rank 0
0banks busy for read cycles: 5179137
0banks busy for write cycles: 2556
1banks busy for read cycles: 604313425
1banks busy for write cycles: 4712679
2banks busy for read cycles: 787852007
2banks busy for write cycles: 4777139
3banks busy for read cycles: 633673847
3banks busy for write cycles: 4856087
4banks busy for read cycles: 413369941
4banks busy for write cycles: 5096425
5banks busy for read cycles: 284235102
5banks busy for write cycles: 6123075
6banks busy for read cycles: 191200452
6banks busy for write cycles: 15602836
7banks busy for read cycles: 99121161
7banks busy for write cycles: 98022545
8banks busy for read cycles: 37449307
8banks busy for write cycles: 425293428

CPU 0 Branch Prediction Accuracy: 96.9582% MPKI: 5.63138 Average ROB Occupancy at Mispredict: 136.717
Branch types
NOT_BRANCH: 162973200 81.4866%
BRANCH_DIRECT_JUMP: 66 3.3e-05%
BRANCH_INDIRECT: 4 2e-06%
BRANCH_CONDITIONAL: 37026665 18.5133%
BRANCH_DIRECT_CALL: 28 1.4e-05%
BRANCH_INDIRECT_CALL: 5 2.5e-06%
BRANCH_RETURN: 33 1.65e-05%
BRANCH_OTHER: 0 0%


CPU 1 Branch Prediction Accuracy: 98.1957% MPKI: 3.6711 Average ROB Occupancy at Mispredict: 42.0901
Branch types
NOT_BRANCH: 671966764 79.2058%
BRANCH_DIRECT_JUMP: 9670512 1.13988%
BRANCH_INDIRECT: 2853823 0.336385%
BRANCH_CONDITIONAL: 113418020 13.3688%
BRANCH_DIRECT_CALL: 15091581 1.77887%
BRANCH_INDIRECT_CALL: 10144336 1.19573%
BRANCH_RETURN: 25235920 2.9746%
BRANCH_OTHER: 0 0%


CPU 2 Branch Prediction Accuracy: 99.9923% MPKI: 9.91353e-05 Average ROB Occupancy at Mispredict: 346.98
Branch types
NOT_BRANCH: 3492373039 99.8705%
BRANCH_DIRECT_JUMP: 36962 0.00105699%
BRANCH_INDIRECT: 0 0%
BRANCH_CONDITIONAL: 4492041 0.128458%
BRANCH_DIRECT_CALL: 0 0%
BRANCH_INDIRECT_CALL: 0 0%
BRANCH_RETURN: 0 0%
BRANCH_OTHER: 0 0%


CPU 3 Branch Prediction Accuracy: 98.0713% MPKI: 4.23681 Average ROB Occupancy at Mispredict: 140.355
Branch types
NOT_BRANCH: 647236108 77.1049%
BRANCH_DIRECT_JUMP: 1958102 0.233268%
BRANCH_INDIRECT: 1 1.19129e-07%
BRANCH_CONDITIONAL: 190228710 22.6618%
BRANCH_DIRECT_CALL: 149 1.77503e-05%
BRANCH_INDIRECT_CALL: 6 7.14776e-07%
BRANCH_RETURN: 155 1.84651e-05%
BRANCH_OTHER: 0 0%

DRAM PAGES: 1048576
Allocated PAGES: 202562
