
*** ChampSim Multicore Out-of-Order Simulator ***

Warmup Instructions: 50000000
Simulation Instructions: 200000000
Number of CPUs: 4
LLC sets: 8192
LLC ways: 16
Off-chip DRAM Size: 4096 MB Channels: 1 Width: 64-bit Data Rate: 6400 MT/s
CPU 0 runs ./traces/ligra/ligra_Components-Shortcut.com-lj.ungraph.gcc_6.3.0_O3.drop_22000M.length_250M.champsimtrace.xz
.xz
CPU 1 runs ./traces/ligra/ligra_MIS.com-lj.ungraph.gcc_6.3.0_O3.drop_21250M.length_250M.champsimtrace.xz
.xz
CPU 2 runs ./traces/spec/481.wrf-816B.champsimtrace.xz
.xz
CPU 3 runs ./traces/ligra/ligra_BFS.com-lj.ungraph.gcc_6.3.0_O3.drop_500M.length_250M.champsimtrace.xz
.xz
BTB has LRU replacement policy
ITLB has LRU replacement policy
DTLB has LRU replacement policy
STLB has LRU replacement policy
L1I has LRU replacement policy
L1D has LRU replacement policy
Initialize SRRIP state for L2C
Initialize DRRIP state for LLC
BTB has LRU replacement policy
ITLB has LRU replacement policy
DTLB has LRU replacement policy
STLB has LRU replacement policy
L1I has LRU replacement policy
L1D has LRU replacement policy
Initialize SRRIP state for L2C
Initialize DRRIP state for LLC
BTB has LRU replacement policy
ITLB has LRU replacement policy
DTLB has LRU replacement policy
STLB has LRU replacement policy
L1I has LRU replacement policy
L1D has LRU replacement policy
Initialize SRRIP state for L2C
Initialize DRRIP state for LLC
BTB has LRU replacement policy
ITLB has LRU replacement policy
DTLB has LRU replacement policy
STLB has LRU replacement policy
L1I has LRU replacement policy
L1D has LRU replacement policy
Initialize SRRIP state for L2C
Initialize DRRIP state for LLC
Heartbeat CPU 1 instructions: 10000001 cycles: 2941158 heartbeat IPC: 3.40002 cumulative IPC: 3.40002 (Simulation time: 0 hr 2 min 54 sec) 
Heartbeat CPU 2 instructions: 10000000 cycles: 3195429 heartbeat IPC: 3.12947 cumulative IPC: 3.12947 (Simulation time: 0 hr 3 min 9 sec) 
Heartbeat CPU 3 instructions: 10000002 cycles: 3333348 heartbeat IPC: 2.99999 cumulative IPC: 2.99999 (Simulation time: 0 hr 3 min 16 sec) 
Heartbeat CPU 0 instructions: 10000002 cycles: 3438564 heartbeat IPC: 2.90819 cumulative IPC: 2.90819 (Simulation time: 0 hr 3 min 20 sec) 
Heartbeat CPU 1 instructions: 20000001 cycles: 5882332 heartbeat IPC: 3.4 cumulative IPC: 3.40001 (Simulation time: 0 hr 5 min 41 sec) 
Heartbeat CPU 2 instructions: 20000001 cycles: 6209709 heartbeat IPC: 3.31754 cumulative IPC: 3.22076 (Simulation time: 0 hr 5 min 58 sec) 
Heartbeat CPU 3 instructions: 20000000 cycles: 6666681 heartbeat IPC: 3 cumulative IPC: 2.99999 (Simulation time: 0 hr 6 min 23 sec) 
Heartbeat CPU 0 instructions: 20000002 cycles: 6858135 heartbeat IPC: 2.92434 cumulative IPC: 2.91624 (Simulation time: 0 hr 6 min 32 sec) 
Heartbeat CPU 1 instructions: 30000000 cycles: 8823508 heartbeat IPC: 3.4 cumulative IPC: 3.40001 (Simulation time: 0 hr 8 min 18 sec) 
Heartbeat CPU 2 instructions: 30000002 cycles: 9150145 heartbeat IPC: 3.40086 cumulative IPC: 3.27864 (Simulation time: 0 hr 8 min 37 sec) 
Heartbeat CPU 3 instructions: 30000001 cycles: 10000015 heartbeat IPC: 3 cumulative IPC: 3 (Simulation time: 0 hr 9 min 28 sec) 
Heartbeat CPU 0 instructions: 30000001 cycles: 10266026 heartbeat IPC: 2.93437 cumulative IPC: 2.92226 (Simulation time: 0 hr 9 min 43 sec) 
Heartbeat CPU 1 instructions: 40000003 cycles: 11764685 heartbeat IPC: 3.4 cumulative IPC: 3.40001 (Simulation time: 0 hr 11 min 11 sec) 
Heartbeat CPU 2 instructions: 40000002 cycles: 12070899 heartbeat IPC: 3.42377 cumulative IPC: 3.31376 (Simulation time: 0 hr 11 min 28 sec) 
Heartbeat CPU 3 instructions: 40000001 cycles: 13333347 heartbeat IPC: 3 cumulative IPC: 3 (Simulation time: 0 hr 12 min 19 sec) 
Heartbeat CPU 0 instructions: 40000003 cycles: 13667498 heartbeat IPC: 2.9399 cumulative IPC: 2.92665 (Simulation time: 0 hr 12 min 31 sec) 
Heartbeat CPU 2 instructions: 50000002 cycles: 14989688 heartbeat IPC: 3.42608 cumulative IPC: 3.33563 (Simulation time: 0 hr 13 min 32 sec) 
Heartbeat CPU 1 instructions: 50000001 cycles: 15435978 heartbeat IPC: 2.72384 cumulative IPC: 3.23919 (Simulation time: 0 hr 13 min 50 sec) 
Heartbeat CPU 3 instructions: 50000000 cycles: 16666681 heartbeat IPC: 3 cumulative IPC: 3 (Simulation time: 0 hr 14 min 33 sec) 
Heartbeat CPU 0 instructions: 50000000 cycles: 17080882 heartbeat IPC: 2.92964 cumulative IPC: 2.92725 (Simulation time: 0 hr 14 min 49 sec) 

Warmup complete CPU 0 instructions: 50000004 cycles: 17080883 (Simulation time: 0 hr 14 min 49 sec) 
Warmup complete CPU 1 instructions: 54116532 cycles: 17080882 (Simulation time: 0 hr 14 min 49 sec) 
Warmup complete CPU 2 instructions: 57265449 cycles: 17080882 (Simulation time: 0 hr 14 min 49 sec) 
Warmup complete CPU 3 instructions: 51216241 cycles: 17080882 (Simulation time: 0 hr 14 min 49 sec) 

Heartbeat CPU 2 instructions: 60000003 cycles: 19113195 heartbeat IPC: 2.42512 cumulative IPC: 1.34554 (Simulation time: 0 hr 15 min 26 sec) 
Heartbeat CPU 1 instructions: 60000001 cycles: 22619829 heartbeat IPC: 1.39201 cumulative IPC: 1.0622 (Simulation time: 0 hr 16 min 30 sec) 
Heartbeat CPU 3 instructions: 60000001 cycles: 24616860 heartbeat IPC: 1.25783 cumulative IPC: 1.16558 (Simulation time: 0 hr 17 min 2 sec) 
Heartbeat CPU 2 instructions: 70000000 cycles: 26307341 heartbeat IPC: 1.39002 cumulative IPC: 1.38022 (Simulation time: 0 hr 17 min 33 sec) 
Heartbeat CPU 1 instructions: 70000002 cycles: 32072605 heartbeat IPC: 1.05789 cumulative IPC: 1.05948 (Simulation time: 0 hr 19 min 17 sec) 
Heartbeat CPU 2 instructions: 80000000 cycles: 32638898 heartbeat IPC: 1.57939 cumulative IPC: 1.46128 (Simulation time: 0 hr 19 min 27 sec) 
Heartbeat CPU 3 instructions: 70000001 cycles: 33267851 heartbeat IPC: 1.15594 cumulative IPC: 1.16042 (Simulation time: 0 hr 19 min 39 sec) 
Heartbeat CPU 2 instructions: 90000002 cycles: 38235171 heartbeat IPC: 1.7869 cumulative IPC: 1.54742 (Simulation time: 0 hr 21 min 21 sec) 
Heartbeat CPU 1 instructions: 80000000 cycles: 41506927 heartbeat IPC: 1.05996 cumulative IPC: 1.05967 (Simulation time: 0 hr 22 min 15 sec) 
Heartbeat CPU 3 instructions: 80000002 cycles: 41934413 heartbeat IPC: 1.15386 cumulative IPC: 1.15814 (Simulation time: 0 hr 22 min 21 sec) 
Heartbeat CPU 2 instructions: 100000001 cycles: 47478478 heartbeat IPC: 1.08186 cumulative IPC: 1.40585 (Simulation time: 0 hr 23 min 47 sec) 
Heartbeat CPU 0 instructions: 60000001 cycles: 47869850 heartbeat IPC: 0.324792 cumulative IPC: 0.324792 (Simulation time: 0 hr 23 min 54 sec) 
Heartbeat CPU 3 instructions: 90000002 cycles: 50746654 heartbeat IPC: 1.13479 cumulative IPC: 1.15202 (Simulation time: 0 hr 24 min 51 sec) 
Heartbeat CPU 1 instructions: 90000003 cycles: 51404605 heartbeat IPC: 1.01034 cumulative IPC: 1.04544 (Simulation time: 0 hr 25 min 4 sec) 
Heartbeat CPU 2 instructions: 110000000 cycles: 54877034 heartbeat IPC: 1.35161 cumulative IPC: 1.39524 (Simulation time: 0 hr 26 min 13 sec) 
Heartbeat CPU 3 instructions: 100000000 cycles: 59505343 heartbeat IPC: 1.14172 cumulative IPC: 1.1499 (Simulation time: 0 hr 27 min 46 sec) 
Heartbeat CPU 1 instructions: 100000001 cycles: 61796030 heartbeat IPC: 0.962332 cumulative IPC: 1.02613 (Simulation time: 0 hr 28 min 25 sec) 
Heartbeat CPU 2 instructions: 120000001 cycles: 62999254 heartbeat IPC: 1.23119 cumulative IPC: 1.36622 (Simulation time: 0 hr 28 min 47 sec) 
Heartbeat CPU 3 instructions: 110000000 cycles: 68290590 heartbeat IPC: 1.13827 cumulative IPC: 1.1479 (Simulation time: 0 hr 30 min 29 sec) 
Heartbeat CPU 2 instructions: 130000002 cycles: 70828603 heartbeat IPC: 1.27725 cumulative IPC: 1.35326 (Simulation time: 0 hr 31 min 16 sec) 
Heartbeat CPU 1 instructions: 110000000 cycles: 73102001 heartbeat IPC: 0.884488 cumulative IPC: 0.997543 (Simulation time: 0 hr 31 min 57 sec) 
Heartbeat CPU 3 instructions: 120000001 cycles: 77297480 heartbeat IPC: 1.11026 cumulative IPC: 1.14227 (Simulation time: 0 hr 32 min 55 sec) 
Heartbeat CPU 2 instructions: 140000003 cycles: 79465065 heartbeat IPC: 1.15788 cumulative IPC: 1.32621 (Simulation time: 0 hr 33 min 28 sec) 
Heartbeat CPU 1 instructions: 120000001 cycles: 85458642 heartbeat IPC: 0.809282 cumulative IPC: 0.963522 (Simulation time: 0 hr 35 min 13 sec) 
Heartbeat CPU 3 instructions: 130000000 cycles: 86171189 heartbeat IPC: 1.12692 cumulative IPC: 1.1403 (Simulation time: 0 hr 35 min 25 sec) 
Heartbeat CPU 2 instructions: 150000000 cycles: 86269619 heartbeat IPC: 1.4696 cumulative IPC: 1.34031 (Simulation time: 0 hr 35 min 26 sec) 
Heartbeat CPU 2 instructions: 160000001 cycles: 93911881 heartbeat IPC: 1.30851 cumulative IPC: 1.33715 (Simulation time: 0 hr 37 min 42 sec) 
Heartbeat CPU 3 instructions: 140000003 cycles: 94894691 heartbeat IPC: 1.14633 cumulative IPC: 1.14098 (Simulation time: 0 hr 38 min 0 sec) 
Heartbeat CPU 0 instructions: 70000003 cycles: 95390006 heartbeat IPC: 0.210437 cumulative IPC: 0.255398 (Simulation time: 0 hr 38 min 10 sec) 
Heartbeat CPU 1 instructions: 130000000 cycles: 96574666 heartbeat IPC: 0.899602 cumulative IPC: 0.954584 (Simulation time: 0 hr 38 min 32 sec) 
Heartbeat CPU 2 instructions: 170000001 cycles: 100954698 heartbeat IPC: 1.41989 cumulative IPC: 1.3441 (Simulation time: 0 hr 39 min 54 sec) 
Heartbeat CPU 3 instructions: 150000000 cycles: 103578801 heartbeat IPC: 1.15153 cumulative IPC: 1.14204 (Simulation time: 0 hr 40 min 41 sec) 
Heartbeat CPU 1 instructions: 140000000 cycles: 107786465 heartbeat IPC: 0.891918 cumulative IPC: 0.946838 (Simulation time: 0 hr 41 min 57 sec) 
Heartbeat CPU 2 instructions: 180000000 cycles: 109559794 heartbeat IPC: 1.1621 cumulative IPC: 1.32716 (Simulation time: 0 hr 42 min 32 sec) 
Heartbeat CPU 3 instructions: 160000000 cycles: 112361828 heartbeat IPC: 1.13856 cumulative IPC: 1.14172 (Simulation time: 0 hr 43 min 22 sec) 
Heartbeat CPU 2 instructions: 190000002 cycles: 116751662 heartbeat IPC: 1.39046 cumulative IPC: 1.33173 (Simulation time: 0 hr 44 min 56 sec) 
Heartbeat CPU 1 instructions: 150000000 cycles: 118586613 heartbeat IPC: 0.925913 cumulative IPC: 0.944611 (Simulation time: 0 hr 45 min 30 sec) 
Heartbeat CPU 3 instructions: 170000003 cycles: 121149673 heartbeat IPC: 1.13794 cumulative IPC: 1.1414 (Simulation time: 0 hr 46 min 23 sec) 
Heartbeat CPU 0 instructions: 80000000 cycles: 122738152 heartbeat IPC: 0.365655 cumulative IPC: 0.283937 (Simulation time: 0 hr 46 min 58 sec) 
Heartbeat CPU 2 instructions: 200000002 cycles: 123871815 heartbeat IPC: 1.40446 cumulative IPC: 1.33658 (Simulation time: 0 hr 47 min 24 sec) 
Heartbeat CPU 1 instructions: 160000003 cycles: 129132073 heartbeat IPC: 0.948276 cumulative IPC: 0.944956 (Simulation time: 0 hr 49 min 12 sec) 
Heartbeat CPU 3 instructions: 180000002 cycles: 129737381 heartbeat IPC: 1.16445 cumulative IPC: 1.14315 (Simulation time: 0 hr 49 min 26 sec) 
Heartbeat CPU 2 instructions: 210000001 cycles: 131021651 heartbeat IPC: 1.39863 cumulative IPC: 1.34047 (Simulation time: 0 hr 49 min 55 sec) 
Heartbeat CPU 2 instructions: 220000000 cycles: 138173558 heartbeat IPC: 1.39823 cumulative IPC: 1.34388 (Simulation time: 0 hr 52 min 21 sec) 
Heartbeat CPU 3 instructions: 190000002 cycles: 138304347 heartbeat IPC: 1.16727 cumulative IPC: 1.14486 (Simulation time: 0 hr 52 min 23 sec) 
Heartbeat CPU 1 instructions: 170000000 cycles: 139895958 heartbeat IPC: 0.929032 cumulative IPC: 0.943561 (Simulation time: 0 hr 53 min 0 sec) 
Heartbeat CPU 2 instructions: 230000000 cycles: 145303624 heartbeat IPC: 1.40251 cumulative IPC: 1.34714 (Simulation time: 0 hr 54 min 54 sec) 
Heartbeat CPU 3 instructions: 200000001 cycles: 146847860 heartbeat IPC: 1.17048 cumulative IPC: 1.14655 (Simulation time: 0 hr 55 min 27 sec) 
Heartbeat CPU 0 instructions: 90000002 cycles: 148672883 heartbeat IPC: 0.385583 cumulative IPC: 0.30397 (Simulation time: 0 hr 56 min 8 sec) 
Heartbeat CPU 1 instructions: 180000000 cycles: 150711798 heartbeat IPC: 0.92457 cumulative IPC: 0.942024 (Simulation time: 0 hr 56 min 54 sec) 
Heartbeat CPU 2 instructions: 240000000 cycles: 152416412 heartbeat IPC: 1.40592 cumulative IPC: 1.35023 (Simulation time: 0 hr 57 min 29 sec) 
Heartbeat CPU 3 instructions: 210000001 cycles: 155372807 heartbeat IPC: 1.17303 cumulative IPC: 1.14818 (Simulation time: 0 hr 58 min 35 sec) 
Heartbeat CPU 2 instructions: 250000001 cycles: 159295260 heartbeat IPC: 1.45373 cumulative IPC: 1.35524 (Simulation time: 1 hr 0 min 6 sec) 
Heartbeat CPU 1 instructions: 190000000 cycles: 161518309 heartbeat IPC: 0.925368 cumulative IPC: 0.940777 (Simulation time: 1 hr 0 min 53 sec) 
Heartbeat CPU 3 instructions: 220000000 cycles: 163906700 heartbeat IPC: 1.1718 cumulative IPC: 1.14955 (Simulation time: 1 hr 1 min 39 sec) 
Finished CPU 2 instructions: 200000003 cycles: 147202569 cumulative IPC: 1.35867 (Simulation time: 1 hr 1 min 45 sec) 
Heartbeat CPU 2 instructions: 260000000 cycles: 166163869 heartbeat IPC: 1.4559 cumulative IPC: 1.35988 (Simulation time: 1 hr 2 min 19 sec) 
Heartbeat CPU 1 instructions: 200000000 cycles: 172570776 heartbeat IPC: 0.904775 cumulative IPC: 0.938218 (Simulation time: 1 hr 4 min 28 sec) 
Heartbeat CPU 3 instructions: 230000000 cycles: 172657103 heartbeat IPC: 1.1428 cumulative IPC: 1.14917 (Simulation time: 1 hr 4 min 30 sec) 
Heartbeat CPU 2 instructions: 270000000 cycles: 173022609 heartbeat IPC: 1.45799 cumulative IPC: 1.36419 (Simulation time: 1 hr 4 min 36 sec) 
Heartbeat CPU 2 instructions: 280000002 cycles: 179909734 heartbeat IPC: 1.45199 cumulative IPC: 1.36791 (Simulation time: 1 hr 6 min 44 sec) 
Heartbeat CPU 0 instructions: 100000000 cycles: 180410893 heartbeat IPC: 0.31508 cumulative IPC: 0.306129 (Simulation time: 1 hr 6 min 54 sec) 
Heartbeat CPU 3 instructions: 240000002 cycles: 181373245 heartbeat IPC: 1.1473 cumulative IPC: 1.14907 (Simulation time: 1 hr 7 min 13 sec) 
Heartbeat CPU 1 instructions: 210000000 cycles: 183921736 heartbeat IPC: 0.880983 cumulative IPC: 0.934324 (Simulation time: 1 hr 7 min 53 sec) 
Heartbeat CPU 2 instructions: 290000001 cycles: 188745879 heartbeat IPC: 1.13172 cumulative IPC: 1.35575 (Simulation time: 1 hr 9 min 29 sec) 
*** Reached end of trace for Core: 3 Repeating trace: ./traces/ligra/ligra_BFS.com-lj.ungraph.gcc_6.3.0_O3.drop_500M.length_250M.champsimtrace.xz
Heartbeat CPU 3 instructions: 250000000 cycles: 190006056 heartbeat IPC: 1.15837 cumulative IPC: 1.14954 (Simulation time: 1 hr 9 min 56 sec) 
Finished CPU 3 instructions: 200000001 cycles: 173953215 cumulative IPC: 1.14973 (Simulation time: 1 hr 10 min 18 sec) 
Heartbeat CPU 1 instructions: 220000000 cycles: 195675019 heartbeat IPC: 0.850826 cumulative IPC: 0.928829 (Simulation time: 1 hr 11 min 55 sec) 
Heartbeat CPU 2 instructions: 300000001 cycles: 196760135 heartbeat IPC: 1.24778 cumulative IPC: 1.35093 (Simulation time: 1 hr 12 min 19 sec) 
Heartbeat CPU 3 instructions: 260000002 cycles: 198522503 heartbeat IPC: 1.1742 cumulative IPC: 1.15069 (Simulation time: 1 hr 12 min 56 sec) 
Heartbeat CPU 2 instructions: 310000003 cycles: 204741913 heartbeat IPC: 1.25285 cumulative IPC: 1.34676 (Simulation time: 1 hr 15 min 6 sec) 
Heartbeat CPU 3 instructions: 270000000 cycles: 207061053 heartbeat IPC: 1.17116 cumulative IPC: 1.15161 (Simulation time: 1 hr 15 min 56 sec) 
Heartbeat CPU 1 instructions: 230000002 cycles: 207438413 heartbeat IPC: 0.850095 cumulative IPC: 0.923964 (Simulation time: 1 hr 16 min 4 sec) 
Heartbeat CPU 0 instructions: 110000000 cycles: 210912232 heartbeat IPC: 0.327854 cumulative IPC: 0.309547 (Simulation time: 1 hr 17 min 16 sec) 
Heartbeat CPU 2 instructions: 320000000 cycles: 212753522 heartbeat IPC: 1.24819 cumulative IPC: 1.34273 (Simulation time: 1 hr 17 min 54 sec) 
Heartbeat CPU 3 instructions: 280000000 cycles: 215720141 heartbeat IPC: 1.15486 cumulative IPC: 1.15175 (Simulation time: 1 hr 18 min 42 sec) 
Heartbeat CPU 1 instructions: 240000003 cycles: 219920984 heartbeat IPC: 0.801117 cumulative IPC: 0.916404 (Simulation time: 1 hr 19 min 58 sec) 
Heartbeat CPU 2 instructions: 330000000 cycles: 220437530 heartbeat IPC: 1.3014 cumulative IPC: 1.34116 (Simulation time: 1 hr 20 min 8 sec) 
Heartbeat CPU 3 instructions: 290000000 cycles: 224483396 heartbeat IPC: 1.14113 cumulative IPC: 1.15131 (Simulation time: 1 hr 21 min 25 sec) 
Heartbeat CPU 2 instructions: 340000000 cycles: 226818804 heartbeat IPC: 1.56709 cumulative IPC: 1.34804 (Simulation time: 1 hr 22 min 5 sec) 
*** Reached end of trace for Core: 1 Repeating trace: ./traces/ligra/ligra_MIS.com-lj.ungraph.gcc_6.3.0_O3.drop_21250M.length_250M.champsimtrace.xz
Heartbeat CPU 1 instructions: 250000002 cycles: 231954058 heartbeat IPC: 0.831043 cumulative IPC: 0.911624 (Simulation time: 1 hr 23 min 45 sec) 
Heartbeat CPU 3 instructions: 300000001 cycles: 233135786 heartbeat IPC: 1.15575 cumulative IPC: 1.15148 (Simulation time: 1 hr 24 min 4 sec) 
Heartbeat CPU 2 instructions: 350000002 cycles: 233413776 heartbeat IPC: 1.51631 cumulative IPC: 1.35317 (Simulation time: 1 hr 24 min 7 sec) 
Finished CPU 1 instructions: 200000002 cycles: 228471676 cumulative IPC: 0.875382 (Simulation time: 1 hr 26 min 24 sec) 
Heartbeat CPU 3 instructions: 310000000 cycles: 245838216 heartbeat IPC: 0.787251 cumulative IPC: 1.13126 (Simulation time: 1 hr 26 min 28 sec) 
Heartbeat CPU 2 instructions: 360000003 cycles: 251238194 heartbeat IPC: 0.561028 cumulative IPC: 1.29287 (Simulation time: 1 hr 27 min 29 sec) 
Heartbeat CPU 3 instructions: 320000000 cycles: 257445481 heartbeat IPC: 0.861529 cumulative IPC: 1.11823 (Simulation time: 1 hr 28 min 31 sec) 
Heartbeat CPU 1 instructions: 260000001 cycles: 264021527 heartbeat IPC: 0.311842 cumulative IPC: 0.833737 (Simulation time: 1 hr 29 min 50 sec) 
Heartbeat CPU 2 instructions: 370000002 cycles: 268196335 heartbeat IPC: 0.589687 cumulative IPC: 1.24538 (Simulation time: 1 hr 30 min 49 sec) 
Heartbeat CPU 3 instructions: 330000000 cycles: 268887399 heartbeat IPC: 0.873979 cumulative IPC: 1.10713 (Simulation time: 1 hr 31 min 0 sec) 
Heartbeat CPU 2 instructions: 380000003 cycles: 277905872 heartbeat IPC: 1.02992 cumulative IPC: 1.23736 (Simulation time: 1 hr 33 min 20 sec) 
Heartbeat CPU 3 instructions: 340000002 cycles: 279510454 heartbeat IPC: 0.941349 cumulative IPC: 1.10042 (Simulation time: 1 hr 33 min 46 sec) 
Heartbeat CPU 0 instructions: 120000000 cycles: 283715329 heartbeat IPC: 0.137357 cumulative IPC: 0.262532 (Simulation time: 1 hr 34 min 52 sec) 
Heartbeat CPU 2 instructions: 390000002 cycles: 287510705 heartbeat IPC: 1.04114 cumulative IPC: 1.23039 (Simulation time: 1 hr 35 min 51 sec) 
Heartbeat CPU 3 instructions: 350000001 cycles: 289814287 heartbeat IPC: 0.970513 cumulative IPC: 1.09552 (Simulation time: 1 hr 36 min 23 sec) 
Heartbeat CPU 1 instructions: 270000001 cycles: 290787260 heartbeat IPC: 0.373612 cumulative IPC: 0.788741 (Simulation time: 1 hr 36 min 39 sec) 
Heartbeat CPU 2 instructions: 400000001 cycles: 297242734 heartbeat IPC: 1.02753 cumulative IPC: 1.22334 (Simulation time: 1 hr 38 min 10 sec) 
Heartbeat CPU 3 instructions: 360000000 cycles: 300160883 heartbeat IPC: 0.966501 cumulative IPC: 1.0908 (Simulation time: 1 hr 38 min 53 sec) 
Heartbeat CPU 2 instructions: 410000002 cycles: 306930610 heartbeat IPC: 1.03222 cumulative IPC: 1.21696 (Simulation time: 1 hr 40 min 29 sec) 
Heartbeat CPU 3 instructions: 370000002 cycles: 310571563 heartbeat IPC: 0.960552 cumulative IPC: 1.08618 (Simulation time: 1 hr 41 min 20 sec) 
Heartbeat CPU 2 instructions: 420000001 cycles: 316448792 heartbeat IPC: 1.05062 cumulative IPC: 1.21167 (Simulation time: 1 hr 42 min 43 sec) 
Heartbeat CPU 1 instructions: 280000003 cycles: 316495493 heartbeat IPC: 0.388981 cumulative IPC: 0.754417 (Simulation time: 1 hr 42 min 44 sec) 
Heartbeat CPU 3 instructions: 380000002 cycles: 321276957 heartbeat IPC: 0.934109 cumulative IPC: 1.08083 (Simulation time: 1 hr 43 min 56 sec) 
Heartbeat CPU 2 instructions: 430000002 cycles: 326231446 heartbeat IPC: 1.02222 cumulative IPC: 1.20567 (Simulation time: 1 hr 45 min 14 sec) 
Heartbeat CPU 3 instructions: 390000003 cycles: 331684334 heartbeat IPC: 0.960857 cumulative IPC: 1.07686 (Simulation time: 1 hr 46 min 35 sec) 
Heartbeat CPU 2 instructions: 440000000 cycles: 335903500 heartbeat IPC: 1.03391 cumulative IPC: 1.20046 (Simulation time: 1 hr 47 min 37 sec) 
Heartbeat CPU 3 instructions: 400000002 cycles: 342460380 heartbeat IPC: 0.927984 cumulative IPC: 1.07193 (Simulation time: 1 hr 49 min 3 sec) 
Heartbeat CPU 1 instructions: 290000003 cycles: 342668974 heartbeat IPC: 0.382066 cumulative IPC: 0.724484 (Simulation time: 1 hr 49 min 6 sec) 
Heartbeat CPU 2 instructions: 450000000 cycles: 345525462 heartbeat IPC: 1.03929 cumulative IPC: 1.19574 (Simulation time: 1 hr 49 min 50 sec) 
Heartbeat CPU 3 instructions: 410000002 cycles: 352521421 heartbeat IPC: 0.993933 cumulative IPC: 1.06959 (Simulation time: 1 hr 51 min 31 sec) 
Heartbeat CPU 2 instructions: 460000000 cycles: 355158376 heartbeat IPC: 1.03811 cumulative IPC: 1.19125 (Simulation time: 1 hr 52 min 9 sec) 
Heartbeat CPU 3 instructions: 420000001 cycles: 361889448 heartbeat IPC: 1.06746 cumulative IPC: 1.06953 (Simulation time: 1 hr 53 min 46 sec) 
Heartbeat CPU 2 instructions: 470000000 cycles: 362305867 heartbeat IPC: 1.39909 cumulative IPC: 1.19555 (Simulation time: 1 hr 53 min 53 sec) 
Heartbeat CPU 3 instructions: 430000001 cycles: 370790226 heartbeat IPC: 1.1235 cumulative IPC: 1.07089 (Simulation time: 1 hr 55 min 50 sec) 
Heartbeat CPU 2 instructions: 480000003 cycles: 371645264 heartbeat IPC: 1.07073 cumulative IPC: 1.19226 (Simulation time: 1 hr 56 min 5 sec) 
Heartbeat CPU 0 instructions: 130000002 cycles: 376744487 heartbeat IPC: 0.107493 cumulative IPC: 0.22243 (Simulation time: 1 hr 57 min 33 sec) 
Heartbeat CPU 2 instructions: 490000000 cycles: 379001054 heartbeat IPC: 1.35947 cumulative IPC: 1.19566 (Simulation time: 1 hr 58 min 13 sec) 
Heartbeat CPU 3 instructions: 440000000 cycles: 379517290 heartbeat IPC: 1.14586 cumulative IPC: 1.0727 (Simulation time: 1 hr 58 min 22 sec) 
Heartbeat CPU 1 instructions: 300000000 cycles: 380109704 heartbeat IPC: 0.267089 cumulative IPC: 0.677311 (Simulation time: 1 hr 58 min 32 sec) 
Heartbeat CPU 2 instructions: 500000003 cycles: 386219380 heartbeat IPC: 1.38536 cumulative IPC: 1.19937 (Simulation time: 2 hr 0 min 37 sec) 
Heartbeat CPU 3 instructions: 450000003 cycles: 388057118 heartbeat IPC: 1.17098 cumulative IPC: 1.07496 (Simulation time: 2 hr 1 min 15 sec) 
Heartbeat CPU 1 instructions: 310000003 cycles: 390022035 heartbeat IPC: 1.00884 cumulative IPC: 0.686123 (Simulation time: 2 hr 1 min 56 sec) 
Heartbeat CPU 2 instructions: 510000002 cycles: 393389023 heartbeat IPC: 1.39477 cumulative IPC: 1.2031 (Simulation time: 2 hr 2 min 59 sec) 
Heartbeat CPU 3 instructions: 460000000 cycles: 396570388 heartbeat IPC: 1.17464 cumulative IPC: 1.07719 (Simulation time: 2 hr 4 min 8 sec) 
Heartbeat CPU 1 instructions: 320000000 cycles: 399321367 heartbeat IPC: 1.07535 cumulative IPC: 0.695592 (Simulation time: 2 hr 5 min 7 sec) 
Heartbeat CPU 2 instructions: 520000002 cycles: 400561491 heartbeat IPC: 1.39422 cumulative IPC: 1.20667 (Simulation time: 2 hr 5 min 34 sec) 
Heartbeat CPU 3 instructions: 470000000 cycles: 405087957 heartbeat IPC: 1.17404 cumulative IPC: 1.07932 (Simulation time: 2 hr 7 min 10 sec) 
Heartbeat CPU 2 instructions: 530000002 cycles: 407704261 heartbeat IPC: 1.40002 cumulative IPC: 1.21021 (Simulation time: 2 hr 8 min 10 sec) 
Heartbeat CPU 1 instructions: 330000000 cycles: 408605444 heartbeat IPC: 1.07711 cumulative IPC: 0.704639 (Simulation time: 2 hr 8 min 30 sec) 
Heartbeat CPU 0 instructions: 140000001 cycles: 412130160 heartbeat IPC: 0.2826 cumulative IPC: 0.22782 (Simulation time: 2 hr 9 min 32 sec) 
Heartbeat CPU 3 instructions: 480000002 cycles: 413818933 heartbeat IPC: 1.14535 cumulative IPC: 1.08077 (Simulation time: 2 hr 10 min 1 sec) 
Heartbeat CPU 2 instructions: 540000001 cycles: 414835915 heartbeat IPC: 1.4022 cumulative IPC: 1.21365 (Simulation time: 2 hr 10 min 21 sec) 
Heartbeat CPU 1 instructions: 340000003 cycles: 418057553 heartbeat IPC: 1.05797 cumulative IPC: 0.712968 (Simulation time: 2 hr 11 min 29 sec) 
Heartbeat CPU 2 instructions: 550000000 cycles: 421746916 heartbeat IPC: 1.44697 cumulative IPC: 1.21763 (Simulation time: 2 hr 12 min 44 sec) 
Heartbeat CPU 3 instructions: 490000001 cycles: 422539799 heartbeat IPC: 1.14667 cumulative IPC: 1.08219 (Simulation time: 2 hr 13 min 2 sec) 
Heartbeat CPU 1 instructions: 350000001 cycles: 427914251 heartbeat IPC: 1.01454 cumulative IPC: 0.720203 (Simulation time: 2 hr 14 min 51 sec) 
Heartbeat CPU 2 instructions: 560000003 cycles: 428684204 heartbeat IPC: 1.44149 cumulative IPC: 1.22141 (Simulation time: 2 hr 15 min 7 sec) 
*** Reached end of trace for Core: 3 Repeating trace: ./traces/ligra/ligra_BFS.com-lj.ungraph.gcc_6.3.0_O3.drop_500M.length_250M.champsimtrace.xz
Heartbeat CPU 3 instructions: 500000000 cycles: 431168044 heartbeat IPC: 1.15898 cumulative IPC: 1.08379 (Simulation time: 2 hr 15 min 59 sec) 
Heartbeat CPU 2 instructions: 570000003 cycles: 435621618 heartbeat IPC: 1.44146 cumulative IPC: 1.22505 (Simulation time: 2 hr 17 min 26 sec) 
Heartbeat CPU 1 instructions: 360000002 cycles: 438201526 heartbeat IPC: 0.972075 cumulative IPC: 0.726356 (Simulation time: 2 hr 18 min 15 sec) 
Heartbeat CPU 3 instructions: 510000000 cycles: 439737111 heartbeat IPC: 1.16699 cumulative IPC: 1.08548 (Simulation time: 2 hr 18 min 43 sec) 
Heartbeat CPU 2 instructions: 580000002 cycles: 442610592 heartbeat IPC: 1.43082 cumulative IPC: 1.22843 (Simulation time: 2 hr 19 min 41 sec) 
Heartbeat CPU 3 instructions: 520000001 cycles: 448356133 heartbeat IPC: 1.16022 cumulative IPC: 1.08697 (Simulation time: 2 hr 21 min 24 sec) 
Heartbeat CPU 1 instructions: 370000001 cycles: 449657787 heartbeat IPC: 0.872885 cumulative IPC: 0.730237 (Simulation time: 2 hr 21 min 48 sec) 
Heartbeat CPU 0 instructions: 150000000 cycles: 451244302 heartbeat IPC: 0.255662 cumulative IPC: 0.230328 (Simulation time: 2 hr 22 min 20 sec) 
Heartbeat CPU 2 instructions: 590000000 cycles: 451646487 heartbeat IPC: 1.1067 cumulative IPC: 1.2259 (Simulation time: 2 hr 22 min 28 sec) 
Heartbeat CPU 3 instructions: 530000002 cycles: 456914247 heartbeat IPC: 1.16848 cumulative IPC: 1.08856 (Simulation time: 2 hr 24 min 18 sec) 
Heartbeat CPU 2 instructions: 600000001 cycles: 459706505 heartbeat IPC: 1.24069 cumulative IPC: 1.22617 (Simulation time: 2 hr 25 min 15 sec) 
Heartbeat CPU 1 instructions: 380000000 cycles: 460313735 heartbeat IPC: 0.938443 cumulative IPC: 0.735242 (Simulation time: 2 hr 25 min 27 sec) 
Heartbeat CPU 3 instructions: 540000002 cycles: 465432807 heartbeat IPC: 1.17391 cumulative IPC: 1.09018 (Simulation time: 2 hr 27 min 8 sec) 
Heartbeat CPU 2 instructions: 610000002 cycles: 467751821 heartbeat IPC: 1.24296 cumulative IPC: 1.22647 (Simulation time: 2 hr 27 min 56 sec) 
Heartbeat CPU 1 instructions: 390000000 cycles: 471344791 heartbeat IPC: 0.906532 cumulative IPC: 0.739402 (Simulation time: 2 hr 29 min 9 sec) 
Heartbeat CPU 3 instructions: 550000000 cycles: 474012258 heartbeat IPC: 1.16558 cumulative IPC: 1.09159 (Simulation time: 2 hr 30 min 2 sec) 
Heartbeat CPU 2 instructions: 620000001 cycles: 475846030 heartbeat IPC: 1.23545 cumulative IPC: 1.22663 (Simulation time: 2 hr 30 min 35 sec) 
Heartbeat CPU 3 instructions: 560000002 cycles: 482864582 heartbeat IPC: 1.12965 cumulative IPC: 1.09232 (Simulation time: 2 hr 32 min 30 sec) 
Heartbeat CPU 1 instructions: 400000000 cycles: 483267883 heartbeat IPC: 0.838709 cumulative IPC: 0.741941 (Simulation time: 2 hr 32 min 38 sec) 
Heartbeat CPU 2 instructions: 630000002 cycles: 483633417 heartbeat IPC: 1.28413 cumulative IPC: 1.22759 (Simulation time: 2 hr 32 min 45 sec) 
Heartbeat CPU 2 instructions: 640000003 cycles: 489994190 heartbeat IPC: 1.57214 cumulative IPC: 1.23222 (Simulation time: 2 hr 34 min 47 sec) 
Heartbeat CPU 3 instructions: 570000002 cycles: 491586830 heartbeat IPC: 1.14649 cumulative IPC: 1.09331 (Simulation time: 2 hr 35 min 19 sec) 
Heartbeat CPU 0 instructions: 160000000 cycles: 494000887 heartbeat IPC: 0.233882 cumulative IPC: 0.230647 (Simulation time: 2 hr 36 min 7 sec) 
Heartbeat CPU 1 instructions: 410000003 cycles: 494370732 heartbeat IPC: 0.90067 cumulative IPC: 0.745634 (Simulation time: 2 hr 36 min 14 sec) 
Heartbeat CPU 2 instructions: 650000003 cycles: 496352245 heartbeat IPC: 1.57281 cumulative IPC: 1.23674 (Simulation time: 2 hr 36 min 55 sec) 
Heartbeat CPU 3 instructions: 580000001 cycles: 500333758 heartbeat IPC: 1.14326 cumulative IPC: 1.09422 (Simulation time: 2 hr 38 min 0 sec) 
Heartbeat CPU 1 instructions: 420000000 cycles: 506320504 heartbeat IPC: 0.836836 cumulative IPC: 0.747862 (Simulation time: 2 hr 39 min 34 sec) 
Heartbeat CPU 2 instructions: 660000000 cycles: 508260701 heartbeat IPC: 0.839739 cumulative IPC: 1.22712 (Simulation time: 2 hr 40 min 4 sec) 
Heartbeat CPU 3 instructions: 590000001 cycles: 509272671 heartbeat IPC: 1.1187 cumulative IPC: 1.09466 (Simulation time: 2 hr 40 min 19 sec) 
Heartbeat CPU 2 instructions: 670000002 cycles: 516472788 heartbeat IPC: 1.21772 cumulative IPC: 1.22696 (Simulation time: 2 hr 42 min 43 sec) 
Heartbeat CPU 3 instructions: 600000000 cycles: 518038266 heartbeat IPC: 1.14082 cumulative IPC: 1.09547 (Simulation time: 2 hr 43 min 15 sec) 
Heartbeat CPU 1 instructions: 430000000 cycles: 518400421 heartbeat IPC: 0.82782 cumulative IPC: 0.749788 (Simulation time: 2 hr 43 min 23 sec) 
Heartbeat CPU 2 instructions: 680000001 cycles: 523710709 heartbeat IPC: 1.38161 cumulative IPC: 1.22917 (Simulation time: 2 hr 45 min 13 sec) 
Heartbeat CPU 3 instructions: 610000000 cycles: 526661666 heartbeat IPC: 1.15964 cumulative IPC: 1.09656 (Simulation time: 2 hr 46 min 12 sec) 
Heartbeat CPU 1 instructions: 440000000 cycles: 529528425 heartbeat IPC: 0.898634 cumulative IPC: 0.75302 (Simulation time: 2 hr 47 min 11 sec) 
Heartbeat CPU 2 instructions: 690000002 cycles: 530971759 heartbeat IPC: 1.37721 cumulative IPC: 1.23126 (Simulation time: 2 hr 47 min 42 sec) 
Heartbeat CPU 3 instructions: 620000000 cycles: 535248248 heartbeat IPC: 1.16461 cumulative IPC: 1.09768 (Simulation time: 2 hr 49 min 12 sec) 
Heartbeat CPU 2 instructions: 700000002 cycles: 538238824 heartbeat IPC: 1.37607 cumulative IPC: 1.23328 (Simulation time: 2 hr 50 min 13 sec) 
Heartbeat CPU 0 instructions: 170000000 cycles: 540326479 heartbeat IPC: 0.215863 cumulative IPC: 0.229338 (Simulation time: 2 hr 50 min 57 sec) 
Heartbeat CPU 1 instructions: 450000000 cycles: 540952373 heartbeat IPC: 0.875354 cumulative IPC: 0.755688 (Simulation time: 2 hr 51 min 9 sec) 
Heartbeat CPU 3 instructions: 630000001 cycles: 543902566 heartbeat IPC: 1.15549 cumulative IPC: 1.09863 (Simulation time: 2 hr 52 min 10 sec) 
Heartbeat CPU 2 instructions: 710000002 cycles: 545477009 heartbeat IPC: 1.38156 cumulative IPC: 1.23531 (Simulation time: 2 hr 52 min 42 sec) 
Heartbeat CPU 1 instructions: 460000000 cycles: 552463641 heartbeat IPC: 0.868714 cumulative IPC: 0.758118 (Simulation time: 2 hr 55 min 2 sec) 
Heartbeat CPU 3 instructions: 640000001 cycles: 552629248 heartbeat IPC: 1.14591 cumulative IPC: 1.0994 (Simulation time: 2 hr 55 min 6 sec) 
Heartbeat CPU 2 instructions: 720000003 cycles: 552754607 heartbeat IPC: 1.37408 cumulative IPC: 1.2372 (Simulation time: 2 hr 55 min 8 sec) 
Heartbeat CPU 2 instructions: 730000000 cycles: 559983700 heartbeat IPC: 1.3833 cumulative IPC: 1.23914 (Simulation time: 2 hr 57 min 40 sec) 
Heartbeat CPU 3 instructions: 650000000 cycles: 561307649 heartbeat IPC: 1.15229 cumulative IPC: 1.10025 (Simulation time: 2 hr 58 min 8 sec) 
Heartbeat CPU 1 instructions: 470000002 cycles: 564528201 heartbeat IPC: 0.828874 cumulative IPC: 0.759678 (Simulation time: 2 hr 59 min 6 sec) 
Heartbeat CPU 2 instructions: 740000000 cycles: 567261987 heartbeat IPC: 1.37395 cumulative IPC: 1.24093 (Simulation time: 2 hr 59 min 59 sec) 
Heartbeat CPU 3 instructions: 660000000 cycles: 570046474 heartbeat IPC: 1.14432 cumulative IPC: 1.10094 (Simulation time: 3 hr 0 min 57 sec) 
Heartbeat CPU 2 instructions: 750000000 cycles: 574506742 heartbeat IPC: 1.38031 cumulative IPC: 1.24274 (Simulation time: 3 hr 2 min 13 sec) 
Heartbeat CPU 1 instructions: 480000002 cycles: 577117347 heartbeat IPC: 0.794335 cumulative IPC: 0.760457 (Simulation time: 3 hr 2 min 51 sec) 
Heartbeat CPU 3 instructions: 670000003 cycles: 579136977 heartbeat IPC: 1.10005 cumulative IPC: 1.10093 (Simulation time: 3 hr 3 min 22 sec) 
Heartbeat CPU 2 instructions: 760000001 cycles: 583112828 heartbeat IPC: 1.16197 cumulative IPC: 1.24151 (Simulation time: 3 hr 4 min 25 sec) 
Heartbeat CPU 0 instructions: 180000003 cycles: 586407856 heartbeat IPC: 0.217007 cumulative IPC: 0.22834 (Simulation time: 3 hr 5 min 14 sec) 
Heartbeat CPU 3 instructions: 680000000 cycles: 588424732 heartbeat IPC: 1.07669 cumulative IPC: 1.10053 (Simulation time: 3 hr 5 min 48 sec) 
Heartbeat CPU 2 instructions: 770000000 cycles: 591069528 heartbeat IPC: 1.2568 cumulative IPC: 1.24172 (Simulation time: 3 hr 6 min 31 sec) 
Heartbeat CPU 1 instructions: 490000003 cycles: 591435656 heartbeat IPC: 0.698407 cumulative IPC: 0.75891 (Simulation time: 3 hr 6 min 36 sec) 
Heartbeat CPU 3 instructions: 690000002 cycles: 597665888 heartbeat IPC: 1.08212 cumulative IPC: 1.10024 (Simulation time: 3 hr 8 min 21 sec) 
Heartbeat CPU 2 instructions: 780000001 cycles: 600349033 heartbeat IPC: 1.07764 cumulative IPC: 1.23911 (Simulation time: 3 hr 9 min 11 sec) 
*** Reached end of trace for Core: 1 Repeating trace: ./traces/ligra/ligra_MIS.com-lj.ungraph.gcc_6.3.0_O3.drop_21250M.length_250M.champsimtrace.xz
Heartbeat CPU 1 instructions: 500000002 cycles: 604204851 heartbeat IPC: 0.783135 cumulative IPC: 0.759437 (Simulation time: 3 hr 10 min 29 sec) 
Heartbeat CPU 3 instructions: 700000001 cycles: 606469342 heartbeat IPC: 1.13592 cumulative IPC: 1.10077 (Simulation time: 3 hr 11 min 11 sec) 
Heartbeat CPU 2 instructions: 790000003 cycles: 607875178 heartbeat IPC: 1.3287 cumulative IPC: 1.24025 (Simulation time: 3 hr 11 min 36 sec) 
Heartbeat CPU 2 instructions: 800000001 cycles: 616288323 heartbeat IPC: 1.18862 cumulative IPC: 1.23953 (Simulation time: 3 hr 13 min 51 sec) 
Heartbeat CPU 3 instructions: 710000002 cycles: 616533272 heartbeat IPC: 0.993648 cumulative IPC: 1.09898 (Simulation time: 3 hr 13 min 55 sec) 
Heartbeat CPU 2 instructions: 810000002 cycles: 624770355 heartbeat IPC: 1.17896 cumulative IPC: 1.23868 (Simulation time: 3 hr 16 min 7 sec) 
Heartbeat CPU 3 instructions: 720000000 cycles: 626804268 heartbeat IPC: 0.973615 cumulative IPC: 1.09686 (Simulation time: 3 hr 16 min 42 sec) 
Heartbeat CPU 1 instructions: 510000001 cycles: 629396177 heartbeat IPC: 0.396962 cumulative IPC: 0.744524 (Simulation time: 3 hr 17 min 23 sec) 
Heartbeat CPU 2 instructions: 820000002 cycles: 633348088 heartbeat IPC: 1.16581 cumulative IPC: 1.23767 (Simulation time: 3 hr 18 min 20 sec) 
Heartbeat CPU 3 instructions: 730000000 cycles: 637556346 heartbeat IPC: 0.930053 cumulative IPC: 1.09397 (Simulation time: 3 hr 19 min 30 sec) 
Heartbeat CPU 2 instructions: 830000000 cycles: 641795444 heartbeat IPC: 1.1838 cumulative IPC: 1.23694 (Simulation time: 3 hr 20 min 43 sec) 
Heartbeat CPU 3 instructions: 740000003 cycles: 648219577 heartbeat IPC: 0.937802 cumulative IPC: 1.09134 (Simulation time: 3 hr 22 min 24 sec) 
Heartbeat CPU 2 instructions: 840000001 cycles: 650873032 heartbeat IPC: 1.10161 cumulative IPC: 1.235 (Simulation time: 3 hr 23 min 5 sec) 
Heartbeat CPU 1 instructions: 520000002 cycles: 656495462 heartbeat IPC: 0.369013 cumulative IPC: 0.728609 (Simulation time: 3 hr 24 min 35 sec) 
*** Reached end of trace for Core: 3 Repeating trace: ./traces/ligra/ligra_BFS.com-lj.ungraph.gcc_6.3.0_O3.drop_500M.length_250M.champsimtrace.xz
Heartbeat CPU 3 instructions: 750000002 cycles: 658964410 heartbeat IPC: 0.93068 cumulative IPC: 1.08865 (Simulation time: 3 hr 25 min 12 sec) 
Heartbeat CPU 2 instructions: 850000000 cycles: 659981881 heartbeat IPC: 1.09783 cumulative IPC: 1.23306 (Simulation time: 3 hr 25 min 28 sec) 
Heartbeat CPU 2 instructions: 860000000 cycles: 669077106 heartbeat IPC: 1.09948 cumulative IPC: 1.2312 (Simulation time: 3 hr 27 min 48 sec) 
Heartbeat CPU 3 instructions: 760000001 cycles: 670042410 heartbeat IPC: 0.90269 cumulative IPC: 1.08549 (Simulation time: 3 hr 28 min 3 sec) 
Heartbeat CPU 0 instructions: 190000002 cycles: 672577864 heartbeat IPC: 0.11605 cumulative IPC: 0.213578 (Simulation time: 3 hr 28 min 39 sec) 
Heartbeat CPU 2 instructions: 870000003 cycles: 678070825 heartbeat IPC: 1.11189 cumulative IPC: 1.22957 (Simulation time: 3 hr 30 min 3 sec) 
Heartbeat CPU 3 instructions: 770000000 cycles: 680867242 heartbeat IPC: 0.923802 cumulative IPC: 1.08285 (Simulation time: 3 hr 30 min 48 sec) 
Heartbeat CPU 1 instructions: 530000000 cycles: 684288563 heartbeat IPC: 0.359801 cumulative IPC: 0.713246 (Simulation time: 3 hr 31 min 40 sec) 
Heartbeat CPU 2 instructions: 880000000 cycles: 689923924 heartbeat IPC: 0.843661 cumulative IPC: 1.22277 (Simulation time: 3 hr 32 min 54 sec) 
Heartbeat CPU 3 instructions: 780000001 cycles: 691929874 heartbeat IPC: 0.903944 cumulative IPC: 1.07992 (Simulation time: 3 hr 33 min 25 sec) 
Heartbeat CPU 2 instructions: 890000001 cycles: 699354450 heartbeat IPC: 1.06039 cumulative IPC: 1.22053 (Simulation time: 3 hr 35 min 22 sec) 
Heartbeat CPU 3 instructions: 790000001 cycles: 702787841 heartbeat IPC: 0.920983 cumulative IPC: 1.0774 (Simulation time: 3 hr 36 min 14 sec) 
Heartbeat CPU 2 instructions: 900000002 cycles: 708801402 heartbeat IPC: 1.05854 cumulative IPC: 1.21832 (Simulation time: 3 hr 37 min 47 sec) 
Heartbeat CPU 1 instructions: 540000003 cycles: 712318751 heartbeat IPC: 0.356758 cumulative IPC: 0.698874 (Simulation time: 3 hr 38 min 43 sec) 
Heartbeat CPU 3 instructions: 800000000 cycles: 713689394 heartbeat IPC: 0.9173 cumulative IPC: 1.0749 (Simulation time: 3 hr 39 min 4 sec) 
Heartbeat CPU 2 instructions: 910000002 cycles: 718186333 heartbeat IPC: 1.06554 cumulative IPC: 1.21627 (Simulation time: 3 hr 40 min 16 sec) 
Heartbeat CPU 3 instructions: 810000001 cycles: 723351829 heartbeat IPC: 1.03494 cumulative IPC: 1.07435 (Simulation time: 3 hr 41 min 37 sec) 
Heartbeat CPU 2 instructions: 920000002 cycles: 727460550 heartbeat IPC: 1.07826 cumulative IPC: 1.21447 (Simulation time: 3 hr 42 min 34 sec) 
Heartbeat CPU 3 instructions: 820000001 cycles: 732546994 heartbeat IPC: 1.08753 cumulative IPC: 1.07452 (Simulation time: 3 hr 43 min 57 sec) 
Heartbeat CPU 2 instructions: 930000002 cycles: 734105342 heartbeat IPC: 1.50494 cumulative IPC: 1.21716 (Simulation time: 3 hr 44 min 25 sec) 
Heartbeat CPU 2 instructions: 940000000 cycles: 740500348 heartbeat IPC: 1.56372 cumulative IPC: 1.22023 (Simulation time: 3 hr 46 min 12 sec) 
Heartbeat CPU 3 instructions: 830000002 cycles: 741350039 heartbeat IPC: 1.13597 cumulative IPC: 1.07527 (Simulation time: 3 hr 46 min 25 sec) 
Heartbeat CPU 1 instructions: 550000000 cycles: 748242999 heartbeat IPC: 0.278363 cumulative IPC: 0.678213 (Simulation time: 3 hr 48 min 9 sec) 
Heartbeat CPU 2 instructions: 950000001 cycles: 749673500 heartbeat IPC: 1.09014 cumulative IPC: 1.2186 (Simulation time: 3 hr 48 min 31 sec) 
Heartbeat CPU 3 instructions: 840000001 cycles: 750318666 heartbeat IPC: 1.115 cumulative IPC: 1.07575 (Simulation time: 3 hr 48 min 40 sec) 
Heartbeat CPU 0 instructions: 200000001 cycles: 757703705 heartbeat IPC: 0.117473 cumulative IPC: 0.202532 (Simulation time: 3 hr 50 min 36 sec) 
Heartbeat CPU 1 instructions: 560000003 cycles: 759091774 heartbeat IPC: 0.921763 cumulative IPC: 0.681774 (Simulation time: 3 hr 50 min 58 sec) 
Heartbeat CPU 3 instructions: 850000002 cycles: 759470080 heartbeat IPC: 1.09273 cumulative IPC: 1.07596 (Simulation time: 3 hr 51 min 4 sec) 
Heartbeat CPU 2 instructions: 960000002 cycles: 760599423 heartbeat IPC: 0.915255 cumulative IPC: 1.21414 (Simulation time: 3 hr 51 min 25 sec) 
Heartbeat CPU 2 instructions: 970000001 cycles: 768099972 heartbeat IPC: 1.33324 cumulative IPC: 1.21533 (Simulation time: 3 hr 54 min 4 sec) 
Heartbeat CPU 3 instructions: 860000002 cycles: 768196155 heartbeat IPC: 1.14599 cumulative IPC: 1.07678 (Simulation time: 3 hr 54 min 6 sec) 
Heartbeat CPU 1 instructions: 570000000 cycles: 768973610 heartbeat IPC: 1.01196 cumulative IPC: 0.686113 (Simulation time: 3 hr 54 min 23 sec) 
Heartbeat CPU 2 instructions: 980000001 cycles: 775389727 heartbeat IPC: 1.37179 cumulative IPC: 1.21683 (Simulation time: 3 hr 56 min 40 sec) 
Heartbeat CPU 3 instructions: 870000001 cycles: 776805656 heartbeat IPC: 1.16151 cumulative IPC: 1.07774 (Simulation time: 3 hr 57 min 10 sec) 
Heartbeat CPU 1 instructions: 580000000 cycles: 778628296 heartbeat IPC: 1.03577 cumulative IPC: 0.690546 (Simulation time: 3 hr 57 min 50 sec) 
Heartbeat CPU 2 instructions: 990000000 cycles: 782631939 heartbeat IPC: 1.38079 cumulative IPC: 1.21838 (Simulation time: 3 hr 59 min 17 sec) 
Heartbeat CPU 3 instructions: 880000000 cycles: 785475576 heartbeat IPC: 1.15341 cumulative IPC: 1.07859 (Simulation time: 4 hr 0 min 18 sec) 
Heartbeat CPU 1 instructions: 590000003 cycles: 788432626 heartbeat IPC: 1.01996 cumulative IPC: 0.694733 (Simulation time: 4 hr 1 min 20 sec) 
Heartbeat CPU 2 instructions: 1000000003 cycles: 789967851 heartbeat IPC: 1.36316 cumulative IPC: 1.21976 (Simulation time: 4 hr 1 min 49 sec) 
Heartbeat CPU 3 instructions: 890000000 cycles: 794223854 heartbeat IPC: 1.14308 cumulative IPC: 1.07932 (Simulation time: 4 hr 3 min 16 sec) 
Heartbeat CPU 2 instructions: 1010000001 cycles: 797259420 heartbeat IPC: 1.37145 cumulative IPC: 1.22118 (Simulation time: 4 hr 4 min 18 sec) 
Heartbeat CPU 1 instructions: 600000001 cycles: 798546009 heartbeat IPC: 0.988789 cumulative IPC: 0.698538 (Simulation time: 4 hr 4 min 46 sec) 
Heartbeat CPU 3 instructions: 900000002 cycles: 802976052 heartbeat IPC: 1.14257 cumulative IPC: 1.08002 (Simulation time: 4 hr 6 min 17 sec) 
Heartbeat CPU 0 instructions: 210000001 cycles: 803957456 heartbeat IPC: 0.216199 cumulative IPC: 0.203336 (Simulation time: 4 hr 6 min 38 sec) 
Heartbeat CPU 2 instructions: 1020000002 cycles: 804565890 heartbeat IPC: 1.36865 cumulative IPC: 1.22254 (Simulation time: 4 hr 6 min 54 sec) 
Heartbeat CPU 1 instructions: 610000002 cycles: 809095475 heartbeat IPC: 0.947915 cumulative IPC: 0.70186 (Simulation time: 4 hr 8 min 31 sec) 
Heartbeat CPU 3 instructions: 910000000 cycles: 811721206 heartbeat IPC: 1.14349 cumulative IPC: 1.08072 (Simulation time: 4 hr 9 min 24 sec) 
Heartbeat CPU 2 instructions: 1030000000 cycles: 811840217 heartbeat IPC: 1.3747 cumulative IPC: 1.22394 (Simulation time: 4 hr 9 min 26 sec) 
Heartbeat CPU 2 instructions: 1040000000 cycles: 819223285 heartbeat IPC: 1.35445 cumulative IPC: 1.22514 (Simulation time: 4 hr 11 min 38 sec) 
Heartbeat CPU 3 instructions: 920000000 cycles: 820658106 heartbeat IPC: 1.11896 cumulative IPC: 1.08115 (Simulation time: 4 hr 12 min 7 sec) 
Heartbeat CPU 1 instructions: 620000001 cycles: 820686182 heartbeat IPC: 0.86276 cumulative IPC: 0.704181 (Simulation time: 4 hr 12 min 8 sec) 
Heartbeat CPU 2 instructions: 1050000002 cycles: 828059431 heartbeat IPC: 1.13172 cumulative IPC: 1.22412 (Simulation time: 4 hr 14 min 19 sec) 
Heartbeat CPU 3 instructions: 930000002 cycles: 829669076 heartbeat IPC: 1.10976 cumulative IPC: 1.08146 (Simulation time: 4 hr 14 min 48 sec) 
Heartbeat CPU 1 instructions: 630000000 cycles: 832854908 heartbeat IPC: 0.821779 cumulative IPC: 0.705935 (Simulation time: 4 hr 15 min 41 sec) 
Heartbeat CPU 2 instructions: 1060000003 cycles: 835526832 heartbeat IPC: 1.33915 cumulative IPC: 1.22517 (Simulation time: 4 hr 16 min 23 sec) 
Heartbeat CPU 3 instructions: 940000000 cycles: 839032165 heartbeat IPC: 1.06802 cumulative IPC: 1.08131 (Simulation time: 4 hr 17 min 24 sec) 
Heartbeat CPU 2 instructions: 1070000003 cycles: 845337771 heartbeat IPC: 1.01927 cumulative IPC: 1.22273 (Simulation time: 4 hr 19 min 5 sec) 
Heartbeat CPU 1 instructions: 640000000 cycles: 845772642 heartbeat IPC: 0.77413 cumulative IPC: 0.706998 (Simulation time: 4 hr 19 min 14 sec) 
Heartbeat CPU 3 instructions: 950000003 cycles: 848347978 heartbeat IPC: 1.07344 cumulative IPC: 1.08122 (Simulation time: 4 hr 20 min 6 sec) 
Heartbeat CPU 2 instructions: 1080000001 cycles: 852768756 heartbeat IPC: 1.34572 cumulative IPC: 1.22382 (Simulation time: 4 hr 21 min 40 sec) 
Heartbeat CPU 3 instructions: 960000001 cycles: 856976218 heartbeat IPC: 1.15898 cumulative IPC: 1.08202 (Simulation time: 4 hr 23 min 9 sec) 
Heartbeat CPU 1 instructions: 650000000 cycles: 857255603 heartbeat IPC: 0.870856 cumulative IPC: 0.709238 (Simulation time: 4 hr 23 min 16 sec) 
Heartbeat CPU 0 instructions: 220000000 cycles: 857873165 heartbeat IPC: 0.185475 cumulative IPC: 0.20219 (Simulation time: 4 hr 23 min 30 sec) 
Heartbeat CPU 2 instructions: 1090000003 cycles: 860028471 heartbeat IPC: 1.37746 cumulative IPC: 1.22515 (Simulation time: 4 hr 24 min 16 sec) 
Heartbeat CPU 3 instructions: 970000000 cycles: 865523921 heartbeat IPC: 1.1699 cumulative IPC: 1.08291 (Simulation time: 4 hr 26 min 3 sec) 
Heartbeat CPU 2 instructions: 1100000000 cycles: 867320225 heartbeat IPC: 1.37141 cumulative IPC: 1.2264 (Simulation time: 4 hr 26 min 34 sec) 
Heartbeat CPU 1 instructions: 660000000 cycles: 868423051 heartbeat IPC: 0.89546 cumulative IPC: 0.71168 (Simulation time: 4 hr 26 min 54 sec) 
Heartbeat CPU 3 instructions: 980000000 cycles: 874310138 heartbeat IPC: 1.13815 cumulative IPC: 1.08347 (Simulation time: 4 hr 28 min 55 sec) 
Heartbeat CPU 2 instructions: 1110000000 cycles: 874579110 heartbeat IPC: 1.37762 cumulative IPC: 1.22768 (Simulation time: 4 hr 29 min 0 sec) 
Heartbeat CPU 1 instructions: 670000000 cycles: 879706959 heartbeat IPC: 0.886218 cumulative IPC: 0.713963 (Simulation time: 4 hr 30 min 49 sec) 
Heartbeat CPU 2 instructions: 1120000001 cycles: 881856576 heartbeat IPC: 1.3741 cumulative IPC: 1.22891 (Simulation time: 4 hr 31 min 34 sec) 
Heartbeat CPU 3 instructions: 990000000 cycles: 883091779 heartbeat IPC: 1.13874 cumulative IPC: 1.08403 (Simulation time: 4 hr 32 min 0 sec) 
Heartbeat CPU 2 instructions: 1130000003 cycles: 889136274 heartbeat IPC: 1.37368 cumulative IPC: 1.23012 (Simulation time: 4 hr 33 min 57 sec) 
Heartbeat CPU 1 instructions: 680000000 cycles: 891244060 heartbeat IPC: 0.866769 cumulative IPC: 0.71598 (Simulation time: 4 hr 34 min 38 sec) 
*** Reached end of trace for Core: 3 Repeating trace: ./traces/ligra/ligra_BFS.com-lj.ungraph.gcc_6.3.0_O3.drop_500M.length_250M.champsimtrace.xz
Heartbeat CPU 3 instructions: 1000000001 cycles: 891790433 heartbeat IPC: 1.1496 cumulative IPC: 1.08468 (Simulation time: 4 hr 34 min 47 sec) 
Heartbeat CPU 2 instructions: 1140000003 cycles: 896226892 heartbeat IPC: 1.41031 cumulative IPC: 1.23158 (Simulation time: 4 hr 36 min 19 sec) 
Heartbeat CPU 3 instructions: 1010000000 cycles: 900358103 heartbeat IPC: 1.16718 cumulative IPC: 1.08548 (Simulation time: 4 hr 37 min 39 sec) 
Heartbeat CPU 1 instructions: 690000001 cycles: 902798248 heartbeat IPC: 0.865487 cumulative IPC: 0.71793 (Simulation time: 4 hr 38 min 24 sec) 
Heartbeat CPU 2 instructions: 1150000000 cycles: 903256881 heartbeat IPC: 1.42248 cumulative IPC: 1.23309 (Simulation time: 4 hr 38 min 32 sec) 
Heartbeat CPU 3 instructions: 1020000000 cycles: 909005006 heartbeat IPC: 1.15648 cumulative IPC: 1.08617 (Simulation time: 4 hr 40 min 28 sec) 
Heartbeat CPU 2 instructions: 1160000001 cycles: 910307032 heartbeat IPC: 1.41841 cumulative IPC: 1.23455 (Simulation time: 4 hr 40 min 52 sec) 
Heartbeat CPU 0 instructions: 230000003 cycles: 910852985 heartbeat IPC: 0.188751 cumulative IPC: 0.201394 (Simulation time: 4 hr 41 min 2 sec) 
Heartbeat CPU 1 instructions: 700000000 cycles: 914568819 heartbeat IPC: 0.849576 cumulative IPC: 0.719657 (Simulation time: 4 hr 42 min 12 sec) 
Heartbeat CPU 2 instructions: 1170000003 cycles: 917415659 heartbeat IPC: 1.40674 cumulative IPC: 1.23591 (Simulation time: 4 hr 43 min 14 sec) 
Heartbeat CPU 3 instructions: 1030000000 cycles: 917721476 heartbeat IPC: 1.14725 cumulative IPC: 1.08676 (Simulation time: 4 hr 43 min 21 sec) 
Heartbeat CPU 1 instructions: 710000000 cycles: 926525348 heartbeat IPC: 0.836363 cumulative IPC: 0.721191 (Simulation time: 4 hr 46 min 5 sec) 
Heartbeat CPU 3 instructions: 1040000000 cycles: 926543290 heartbeat IPC: 1.13355 cumulative IPC: 1.08722 (Simulation time: 4 hr 46 min 6 sec) 
Heartbeat CPU 2 instructions: 1180000000 cycles: 926577876 heartbeat IPC: 1.09144 cumulative IPC: 1.23446 (Simulation time: 4 hr 46 min 6 sec) 
Heartbeat CPU 2 instructions: 1190000003 cycles: 934717717 heartbeat IPC: 1.22853 cumulative IPC: 1.2344 (Simulation time: 4 hr 48 min 57 sec) 
Heartbeat CPU 3 instructions: 1050000002 cycles: 935234423 heartbeat IPC: 1.1506 cumulative IPC: 1.08782 (Simulation time: 4 hr 49 min 6 sec) 
Heartbeat CPU 1 instructions: 720000002 cycles: 938725584 heartbeat IPC: 0.819656 cumulative IPC: 0.722495 (Simulation time: 4 hr 50 min 11 sec) 
Heartbeat CPU 2 instructions: 1200000002 cycles: 942886419 heartbeat IPC: 1.22418 cumulative IPC: 1.23431 (Simulation time: 4 hr 51 min 35 sec) 
Heartbeat CPU 3 instructions: 1060000000 cycles: 943947068 heartbeat IPC: 1.14776 cumulative IPC: 1.08838 (Simulation time: 4 hr 51 min 55 sec) 
Heartbeat CPU 1 instructions: 730000002 cycles: 951053558 heartbeat IPC: 0.811163 cumulative IPC: 0.723665 (Simulation time: 4 hr 53 min 55 sec) 
Heartbeat CPU 2 instructions: 1210000000 cycles: 951055976 heartbeat IPC: 1.22406 cumulative IPC: 1.23422 (Simulation time: 4 hr 53 min 55 sec) 
Heartbeat CPU 3 instructions: 1070000003 cycles: 952740973 heartbeat IPC: 1.13715 cumulative IPC: 1.08884 (Simulation time: 4 hr 54 min 18 sec) 
Heartbeat CPU 0 instructions: 240000000 cycles: 957164483 heartbeat IPC: 0.215929 cumulative IPC: 0.20211 (Simulation time: 4 hr 55 min 25 sec) 
Heartbeat CPU 2 instructions: 1220000003 cycles: 959619962 heartbeat IPC: 1.16768 cumulative IPC: 1.23362 (Simulation time: 4 hr 56 min 2 sec) 
Heartbeat CPU 3 instructions: 1080000000 cycles: 962010102 heartbeat IPC: 1.07885 cumulative IPC: 1.08874 (Simulation time: 4 hr 56 min 46 sec) 
Heartbeat CPU 1 instructions: 740000003 cycles: 964655127 heartbeat IPC: 0.735209 cumulative IPC: 0.723831 (Simulation time: 4 hr 57 min 37 sec) 
Heartbeat CPU 2 instructions: 1230000002 cycles: 966126300 heartbeat IPC: 1.53696 cumulative IPC: 1.2357 (Simulation time: 4 hr 58 min 5 sec) 
Heartbeat CPU 3 instructions: 1090000003 cycles: 970879139 heartbeat IPC: 1.12752 cumulative IPC: 1.0891 (Simulation time: 4 hr 59 min 34 sec) 
Heartbeat CPU 2 instructions: 1240000000 cycles: 972561739 heartbeat IPC: 1.5539 cumulative IPC: 1.23784 (Simulation time: 5 hr 0 min 7 sec) 
*** Reached end of trace for Core: 1 Repeating trace: ./traces/ligra/ligra_MIS.com-lj.ungraph.gcc_6.3.0_O3.drop_21250M.length_250M.champsimtrace.xz
Heartbeat CPU 1 instructions: 750000002 cycles: 977409519 heartbeat IPC: 0.784044 cumulative IPC: 0.724631 (Simulation time: 5 hr 1 min 19 sec) 
Heartbeat CPU 3 instructions: 1100000000 cycles: 980243169 heartbeat IPC: 1.06792 cumulative IPC: 1.0889 (Simulation time: 5 hr 1 min 56 sec) 
Heartbeat CPU 2 instructions: 1250000003 cycles: 989133470 heartbeat IPC: 0.603437 cumulative IPC: 1.22703 (Simulation time: 5 hr 3 min 39 sec) 
Heartbeat CPU 3 instructions: 1110000001 cycles: 991874690 heartbeat IPC: 0.859733 cumulative IPC: 1.08616 (Simulation time: 5 hr 4 min 12 sec) 
Heartbeat CPU 3 instructions: 1120000002 cycles: 1003535327 heartbeat IPC: 0.857586 cumulative IPC: 1.08346 (Simulation time: 5 hr 6 min 38 sec) 
Heartbeat CPU 2 instructions: 1260000000 cycles: 1006572382 heartbeat IPC: 0.57343 cumulative IPC: 1.21551 (Simulation time: 5 hr 7 min 15 sec) 
Heartbeat CPU 1 instructions: 760000001 cycles: 1008870977 heartbeat IPC: 0.317849 cumulative IPC: 0.711727 (Simulation time: 5 hr 7 min 44 sec) 
Heartbeat CPU 3 instructions: 1130000001 cycles: 1014736068 heartbeat IPC: 0.892798 cumulative IPC: 1.08132 (Simulation time: 5 hr 8 min 55 sec) 
Heartbeat CPU 2 instructions: 1270000000 cycles: 1024333430 heartbeat IPC: 0.56303 cumulative IPC: 1.204 (Simulation time: 5 hr 10 min 44 sec) 
Heartbeat CPU 3 instructions: 1140000001 cycles: 1026456064 heartbeat IPC: 0.853243 cumulative IPC: 1.07867 (Simulation time: 5 hr 11 min 16 sec) 
Heartbeat CPU 2 instructions: 1280000002 cycles: 1034452056 heartbeat IPC: 0.988277 cumulative IPC: 1.20186 (Simulation time: 5 hr 13 min 9 sec) 
Heartbeat CPU 3 instructions: 1150000000 cycles: 1037981340 heartbeat IPC: 0.867658 cumulative IPC: 1.07629 (Simulation time: 5 hr 13 min 56 sec) 
Heartbeat CPU 1 instructions: 770000000 cycles: 1039378200 heartbeat IPC: 0.327791 cumulative IPC: 0.700269 (Simulation time: 5 hr 14 min 16 sec) 
Heartbeat CPU 2 instructions: 1290000002 cycles: 1044254631 heartbeat IPC: 1.02014 cumulative IPC: 1.20012 (Simulation time: 5 hr 15 min 29 sec) 
Heartbeat CPU 3 instructions: 1160000002 cycles: 1049217044 heartbeat IPC: 0.89002 cumulative IPC: 1.07426 (Simulation time: 5 hr 16 min 36 sec) 
Heartbeat CPU 2 instructions: 1300000000 cycles: 1054364529 heartbeat IPC: 0.989129 cumulative IPC: 1.19807 (Simulation time: 5 hr 17 min 58 sec) 
Heartbeat CPU 3 instructions: 1170000000 cycles: 1060548326 heartbeat IPC: 0.882513 cumulative IPC: 1.07218 (Simulation time: 5 hr 19 min 37 sec) 
Heartbeat CPU 2 instructions: 1310000001 cycles: 1064363357 heartbeat IPC: 1.00012 cumulative IPC: 1.19618 (Simulation time: 5 hr 20 min 26 sec) 
Heartbeat CPU 1 instructions: 780000003 cycles: 1067532058 heartbeat IPC: 0.355191 cumulative IPC: 0.691021 (Simulation time: 5 hr 21 min 14 sec) 
Heartbeat CPU 3 instructions: 1180000000 cycles: 1071442153 heartbeat IPC: 0.917951 cumulative IPC: 1.07059 (Simulation time: 5 hr 22 min 11 sec) 
Heartbeat CPU 2 instructions: 1320000000 cycles: 1074521240 heartbeat IPC: 0.984457 cumulative IPC: 1.19414 (Simulation time: 5 hr 23 min 0 sec) 
*** Reached end of trace for Core: 0 Repeating trace: ./traces/ligra/ligra_Components-Shortcut.com-lj.ungraph.gcc_6.3.0_O3.drop_22000M.length_250M.champsimtrace.xz
Heartbeat CPU 0 instructions: 250000003 cycles: 1081673620 heartbeat IPC: 0.0803154 cumulative IPC: 0.187865 (Simulation time: 5 hr 24 min 52 sec) 
Finished CPU 0 instructions: 200000000 cycles: 1064594155 cumulative IPC: 0.187865 (Simulation time: 5 hr 24 min 52 sec) 

ChampSim completed all CPUs

Total Simulation Statistics (not including warmup)

CPU 0 cumulative IPC: 0.187865 instructions: 200000000 cycles: 1064594155
ITLB TOTAL     ACCESS:   43123857  HIT:   43123857  MISS:          0  HIT %:        100  MISS %:          0   MPKI: 0
ITLB LOAD      ACCESS:          0  HIT:          0  MISS:          0  HIT %:       -nan  MISS %:       -nan   MPKI: 0
ITLB RFO       ACCESS:          0  HIT:          0  MISS:          0  HIT %:       -nan  MISS %:       -nan   MPKI: 0
ITLB PREFETCH  ACCESS:          0  HIT:          0  MISS:          0  HIT %:       -nan  MISS %:       -nan   MPKI: 0
ITLB WRITEBACK ACCESS:          0  HIT:          0  MISS:          0  HIT %:       -nan  MISS %:       -nan   MPKI: 0
DTLB TOTAL     ACCESS:   55935524  HIT:   42731387  MISS:   13204137  HIT %:     76.394  MISS %:     23.606   MPKI: 66.0207
DTLB LOAD      ACCESS:          0  HIT:          0  MISS:          0  HIT %:       -nan  MISS %:       -nan   MPKI: 0
DTLB RFO       ACCESS:          0  HIT:          0  MISS:          0  HIT %:       -nan  MISS %:       -nan   MPKI: 0
DTLB PREFETCH  ACCESS:          0  HIT:          0  MISS:          0  HIT %:       -nan  MISS %:       -nan   MPKI: 0
DTLB WRITEBACK ACCESS:          0  HIT:          0  MISS:          0  HIT %:       -nan  MISS %:       -nan   MPKI: 0
STLB TOTAL     ACCESS:   19673867  HIT:   18498488  MISS:    1175379  HIT %:    94.0257  MISS %:    5.97432   MPKI: 5.8769
STLB LOAD      ACCESS:          0  HIT:          0  MISS:          0  HIT %:       -nan  MISS %:       -nan   MPKI: 0
STLB RFO       ACCESS:          0  HIT:          0  MISS:          0  HIT %:       -nan  MISS %:       -nan   MPKI: 0
STLB PREFETCH  ACCESS:          0  HIT:          0  MISS:          0  HIT %:       -nan  MISS %:       -nan   MPKI: 0
STLB WRITEBACK ACCESS:          0  HIT:          0  MISS:          0  HIT %:       -nan  MISS %:       -nan   MPKI: 0
L1D TOTAL     ACCESS:   60914561  HIT:   43701308  MISS:   17213253  HIT %:     71.742  MISS %:     28.258   MPKI: 86.0663
L1D LOAD      ACCESS:   56461493  HIT:   41853747  MISS:   14607746  HIT %:    74.1279  MISS %:    25.8721   MPKI: 73.0387
L1D RFO       ACCESS:    1827222  HIT:    1827222  MISS:          0  HIT %:        100  MISS %:          0   MPKI: 0
L1D PREFETCH  ACCESS:    2625846  HIT:      20339  MISS:    2605507  HIT %:   0.774569  MISS %:    99.2254   MPKI: 13.0275
L1D WRITEBACK ACCESS:          0  HIT:          0  MISS:          0  HIT %:       -nan  MISS %:       -nan   MPKI: 0
L1I TOTAL     ACCESS:   45653358  HIT:   45653358  MISS:          0  HIT %:        100  MISS %:          0   MPKI: 0
L1I LOAD      ACCESS:   45653358  HIT:   45653358  MISS:          0  HIT %:        100  MISS %:          0   MPKI: 0
L1I RFO       ACCESS:          0  HIT:          0  MISS:          0  HIT %:       -nan  MISS %:       -nan   MPKI: 0
L1I PREFETCH  ACCESS:          0  HIT:          0  MISS:          0  HIT %:       -nan  MISS %:       -nan   MPKI: 0
L1I WRITEBACK ACCESS:          0  HIT:          0  MISS:          0  HIT %:       -nan  MISS %:       -nan   MPKI: 0
L2C TOTAL     ACCESS:   28087937  HIT:    6031842  MISS:   22056095  HIT %:    21.4748  MISS %:    78.5252   MPKI: 110.28
L2C LOAD      ACCESS:   14595865  HIT:    3355680  MISS:   11240185  HIT %:    22.9906  MISS %:    77.0094   MPKI: 56.2009
L2C RFO       ACCESS:          0  HIT:          0  MISS:          0  HIT %:       -nan  MISS %:       -nan   MPKI: 0
L2C PREFETCH  ACCESS:   12202462  HIT:    1623621  MISS:   10578841  HIT %:    13.3057  MISS %:    86.6943   MPKI: 52.8942
L2C WRITEBACK ACCESS:     114218  HIT:     109033  MISS:       5185  HIT %:    95.4604  MISS %:    4.53956   MPKI: 0.025925
PSCL5 TOTAL     ACCESS:    1175379  HIT:    1175379  MISS:          0  HIT %:        100  MISS %:          0   MPKI: 0
PSCL5 LOAD      ACCESS:          0  HIT:          0  MISS:          0  HIT %:       -nan  MISS %:       -nan   MPKI: 0
PSCL5 RFO       ACCESS:          0  HIT:          0  MISS:          0  HIT %:       -nan  MISS %:       -nan   MPKI: 0
PSCL5 PREFETCH  ACCESS:          0  HIT:          0  MISS:          0  HIT %:       -nan  MISS %:       -nan   MPKI: 0
PSCL5 WRITEBACK ACCESS:          0  HIT:          0  MISS:          0  HIT %:       -nan  MISS %:       -nan   MPKI: 0
PSCL4 TOTAL     ACCESS:    1175379  HIT:    1175379  MISS:          0  HIT %:        100  MISS %:          0   MPKI: 0
PSCL4 LOAD      ACCESS:          0  HIT:          0  MISS:          0  HIT %:       -nan  MISS %:       -nan   MPKI: 0
PSCL4 RFO       ACCESS:          0  HIT:          0  MISS:          0  HIT %:       -nan  MISS %:       -nan   MPKI: 0
PSCL4 PREFETCH  ACCESS:          0  HIT:          0  MISS:          0  HIT %:       -nan  MISS %:       -nan   MPKI: 0
PSCL4 WRITEBACK ACCESS:          0  HIT:          0  MISS:          0  HIT %:       -nan  MISS %:       -nan   MPKI: 0
PSCL3 TOTAL     ACCESS:    1175379  HIT:    1175379  MISS:          0  HIT %:        100  MISS %:          0   MPKI: 0
PSCL3 LOAD      ACCESS:          0  HIT:          0  MISS:          0  HIT %:       -nan  MISS %:       -nan   MPKI: 0
PSCL3 RFO       ACCESS:          0  HIT:          0  MISS:          0  HIT %:       -nan  MISS %:       -nan   MPKI: 0
PSCL3 PREFETCH  ACCESS:          0  HIT:          0  MISS:          0  HIT %:       -nan  MISS %:       -nan   MPKI: 0
PSCL3 WRITEBACK ACCESS:          0  HIT:          0  MISS:          0  HIT %:       -nan  MISS %:       -nan   MPKI: 0
PSCL2 TOTAL     ACCESS:    1175379  HIT:    1175310  MISS:         69  HIT %:    99.9941  MISS %: 0.00587045   MPKI: 0.000345
PSCL2 LOAD      ACCESS:          0  HIT:          0  MISS:          0  HIT %:       -nan  MISS %:       -nan   MPKI: 0
PSCL2 RFO       ACCESS:          0  HIT:          0  MISS:          0  HIT %:       -nan  MISS %:       -nan   MPKI: 0
PSCL2 PREFETCH  ACCESS:          0  HIT:          0  MISS:          0  HIT %:       -nan  MISS %:       -nan   MPKI: 0
PSCL2 WRITEBACK ACCESS:          0  HIT:          0  MISS:          0  HIT %:       -nan  MISS %:       -nan   MPKI: 0
=== CPU 0 L1D Prefetcher Statistics ===
[MLOP] History of tracked zone:
IIIIIIIIIIIIIIIIIIIIIIIIIIIIIIIIIIIIIIIIIIIIIIIIIIIIIIIIIIIIIIII
IIIIIIIIIIIIIIIIIIIIIIIIIIIIIIIAIIIIIIIIIIIIIIIIIIIIIIIIIIIIIIII
IIIIIIIIIIIIIIIIIIIIIIIIIIIAIIIAIIIIIIIIIIIIIIIIIIIIIIIIIIIIIIII
IIIIIIIIIIIIIIIIIIAIIIIIIIIAIIIAIIIIIIIIIIIIIIIIIIIIIIIIIIIIIIII
IIIIIIIIIIIIIIIIIIIIIIIIIAIIIIIIIIIIIIIIIIIIIIIIIIIIIIIIIIIIIIII
IIIIIIIIIIIIIIIIIIA2IIIIIAIIIIIIIIIIIIIIIIIIIIIIIIIIIIIIIIIIIIII
IIIIIIIIIIIIIIIIIIA2IIIIAAIIIIIIIIIIIIIIIIIIIIIIIIIIIIIIIIIIIIII
IIIIIIIIIIIIIIIIIIIIIIIIIIIIIIIA2IIIIIIIIIIIIIIIIIIIIIIIIIIIIIII
IIIIIIIIIIIIIIIIIIA2IIIIIIIIIIIA2IIIIIIIIIIIIIIIIIIIIIIIIIIIIIII
IIIIIIIIIIIIIIIIIIA2IIIIIIIIIIIA2IIIIIA22II2IIIIIIIIIIIIIIIIIIII
IIIIIIIIIIIIIIIIIIA2IIIIIIIIIIIA2IIIIIAA2II2IIIIIIIIIIIIIIIIIIII
IIIIIIIIIIIIIIIIIIIA2IIIIIIIIIIIIIIIIIIIIIIIIIIIIIIIIIIIIIIIIIII
IIIIIIIIIIIIIIIIIIAA2IIIIIIIIIIIIIIIIIIIIIIIIIIIIIIIIIIIIIIIIIII
IIIIIIIIIIIIIIIIIIAA2IIIIIIIIIIIIIIIIIIIIIIIIIIIIIIIIA2IIIIIIIII
IIIIIIIIIIIIIIIIIIAA2IIIIIIIIIIIIIIIIIIIIIIIIIIIIIIIIA2IIIIIA2II
IIIIIIIIIIIIIIIIIIAA2IIIIIIIIIIIIIIIIIIIIIIIIA2IIIIIIA2IIIIIA2II
IIIIIIIIIIIIIIIIIIAA2IIIIIIIIIIIIIIIIIIIIIIIIA2IIIIIIA2IIIA2A2II
IIIIIIIIIIIIIIIIIIIIIIIIIIIIIIIIIIIIIIIIIIIIIIIIIIIA2I2IIIIIIIII
IIIIIIIIIIIIIIIIIIIIIIIIIIIIIIIA22IIIIIIIIIIIIIIIIIIIIIIIIIIIIII
IIIIIIIIIIIIIIIIIA22IIIIIIIIIIIA22IIIIIIIIIIIIIIIIIIIIIIIIIIIIII
IIIIIIIIIIIIIIIIIA22IIIIIIIA2IIA22IIIIIIIIIIIIIIIIIIIIIIIIIIIIII
IIIIIIIIIIIIIIIIIA22IIIIIIIA2IIA22IIIIIIIIIIIA2IIIIIIIIIIIIIIIII
IIIIIIIIIIIIIIIIIA22IIIIIIIA2IIA22IIIIIIIIIIIA2IIIIIIIIIIIA2IIII
IIIIIIIIIIIIIIIIIA22IIIIIIIA2A2A22IIIIIIIIIIIA2IIIIIIIIIIIA2IIII
IIIIIIIIIIIIIIIIIA22IIIIIIIA2A2A22IIIIIIIAIIIA2IIIIIIIIIIIA2IIII
IIIIIIIIIIIIIIIIIA22IIIIIIIA2A2A2A2IIIIIIAIIIA2IIIIIIIIIIIA2IIII
IIIIIIIIIIIIIIIIIA22IIIIIIIA2A2A2A2IIIIIIAIIIA2IIIIIIIIIIAA2IIII
IIIIIIIIIIIIIIIIIA22IIIIIIIA2A2A2A2IIIIIIAIIIA2IIIIIIIIIIAA2IA2I
IIIIIIIIIIIIIIIIIIIIIIIIIIIIA122I2IIIIIIIIIIIIIIIIIIIIIIIIIIIIII
IIIIIIIIIIIIIIIIIIIIIIIIIIIIIIIIIIIIIIIIIIIIIIIIIIIIIIIIIIIIIA22
IIIIIIIIIIIIIIIIIIIIIIIIA222IIIIIIIIIIIIIIIIIIIIIIIIIIIIIIIIIA22
IIIIIIIIIIIIIIIIIIA222IIA222IIIIIIIIIIIIIIIIIIIIIIIIIIIIIIIIIA22
IIIIIIIIIIIIIIIIIIA222IIA222IIIIIIIIIIIA222IIIIIIIIIIIIIIIIIIA22
IIIIIIIIIIIIIIIIIIA2IIIIIIIIIIIIIIIIIIIIIIIIIIIIIIIIIIIIIIIIIIII
IIIIIIIIIIIIIIIIIIA2IIIIIIIIIIIIIIIIIIIIIIIIIIIIIIIIIIIIIIA1222I
IIIIIIIIIIIIIIIIIIA2IIIIIIIIIIIIIIIIIIIIIIIIIIIIIIIIIIIIIIA1A122
IIIIIIIIIIIIIIIIIA1I2IIIIIIIIIIIIIIIIIIIIIIIIIIIIIIIIIIIIIIIIIII
IIIIIIIIIIIIIIIIIA1I2IIIIIIIIIIIIIIIIIIA1I2IIIIIIIIIIIIIIIIIIIII
IIIIIIIIIIIIIIIIIA1I2IIIIIIIIIIIIIIIIIIA1I2IIIIIIIIIIIIIIA1I2III
IIIIIIIIIIIIIIIIIA1I2IIIIIIIA1I2IIIIIIIA1I2IIIIIIIIIIIIIIA1I2III
IIIIIIIIIIIIIIIIIAA122IIIIIIA1I2IIIIIIIA1I2IIIIIIIIIIIIIIA1I2III
IIIIIIIIIIIIIIIIIAAA122IIIIIA1I2IIIIIIIA1I2IIIIIIIIIIIIIIA1I2III
IIIIIIIIIIIIIIIIIAAA122IIIIIA1I2IA1I2IIA1I2IIIIIIIIIIIIIIA1I2III
IIIIIIIIIIIIIIIIIAAA122IIIIIA1I2IA1I2IAA1I2IIIIIIIIIIIIIIA1I2III
IIIIIIIIIIIIIIIIIAAAA22IIIIIA1I2IA1I2IAA1I2IIIIIIIIIIIIIIA1I2III
IIIIIIIIIIIIIIIIIAAAAA2IIIIIA1I2IA1I2IAA1I2IIIIIIIIIIIIIIA1I2III
IIIIIIIIIIIIIIIIIAAAAA2IIIIIA1I2IA122IAA1I2IIIIIIIIIIIIIIA1I2III
IIIIIIIIIIIIIIIIIAAAAAA1I2I2A1I2IA122IAA1I2IIIIIIIIIIIIIIA1I2III
IIIIIIIIIIIIIIIIIAAAAAA1I2I2A1I2IA122IAA1I2IIIIIIIIIIIIIIA1I2IA1
IIIIIIIIIIIIIIIIIAAAAAA1I2I2A1I2IA122IAA1I2I2I2IIIIIIIIIIA1I2IA1
IIIIIIIIIIIIIIIIIAAAAAA1I2I2A1I2IA122IAA1I2I2I2IIIIIIA1I2A1I2IA1
IIIIIIIIIIIIIIIIIAAAAAA1I2A2A1I2IA122IAA1I2I2I2IIIIIIA1I2A1I2IA1
IIIIIIIIIIIIIIIIIAAAAAA1I2A2A1A2IA122IAA1I2I2I2IIIIIIA1I2A1I2IA1
IIIIIIIIIIIIIIIIIAAAAAA1I2A2A1A2IA122IAA1A2I2I2IIIIIIA1I2A1I2IA1
IIIIIIIIIIIIIIIIIAAAAAA1I2A2A1A2IA122IAA1A2I2I2IIIIIIA1IAA1I2IA1
IIIIIIIIIIIIIIIIIIIIIIIIA2IIIIIIIIIIIIIIIIIIIIIIIIIIIIIIIIIIIIII
IIIIIIIIIIIIIIIIIIIIIIIIIIIIIIIA122IIIIIIIIIIIIIIIIIIIIIIIIIIIII
IIIIIIIIIIIIIIIIIIIIIIIIIIIIIIIA122IIIIIIIA122IIIIIIIIIIIIIIIIII
IIIIIIIIIIIIIIIIIIIIIIIIAIIIIIIA122IIIIIIIA122IIIIIIIIIIIIIIIIII
IIIIIIIIIIIIIIIIIIIIIIIIAIIIIIIA122IIIAIIIA122IIIIIIIIIIIIIIIIII
IIIIIIIIIIA2IIIIIIIIIIIIIIIIIIIIIIIIIIIIIIIIIIIIIIIIIIIIIIIIIIII
IIIIIIIIIIA2IIIIIIIIIIIIIIIIA2IIIIIIIIIIIIIIIIIIIIIIIIIIIIIIIIII
IIIIIIIIIIA2IIIIIIIIIIIIIIIIA2IIIIIIIIIIIIIIIIIIIIIIIIIIIA2IIIII
IIIIIIIIIIA2IIIIIIA2IIIIIIIIA2IIIIIIIIIIIIIIIIIIIIIIIIIIIA2IIIII
IIIIIIIIIIA2IIIIIIA2IIIIA2IIA2IIIIIIIIIIIIIIIIIIIIIIIIIIIA2IIIII
IIIIIIIIIIA2IIIIIIA2IIIIA2IIA2IIIIIIA2IIIIIIIIIIIIIIIIIIIA2IIIII
IIIIIIIIIIA2IIIIIIA2IIIIA2IIA2IIIIIIA2IIIIIIIIIIIIIIIIIIIA2IIA2I
IIIIIIIIIIIIIIIIIIIIIIIIIAIIIIIIIIIIIIIIIIIIIIIIIIIIIIIIIIIIIIII
A2III2IIIIIIIIIIIIIIIIIIIIIIIIIIIIIIIIIIIIIIIIIIIIIIIIIIIIIIIIII
IIIIIIIIIIIIIIIIIIIIIIIIA2IIIIIIIIIIIIIIIIIIIIIIIIIIIIIIIIIIIIII
IIIIIIIIIIIIIIIIIIIIIIIIA2IIIIIIIIIIIIIIIIIIIIIIIIIIIIIIIIIIIA2I
IIIIIIIIIIIIIIIIIIIIIIIIA2IIIIIIIIIIIIIIIIIIIIIIIIIIIIIIIIIIIA2A
IIIIIIIIIIIIIIIIIIIIIIIIA2IIIIIA12IIIIIIIIIIIIIIIIIIIIIIIIIIIA2A
IIIIIIIIIIIIIIIIIIIIIIAIIIIIIIIIIIIIIIIIIIIIIIIIIIIIIIIIIIIIIIII
IIIIIIIIIIIIIIIIIIIIIIAIIIIIIIIIIIIIIIIIIIIIAIIIIIIIIIIIIIIIIIII
IIIIIIIIIIIIIIIIIIA122IIIIIIIIIIIIIIIIIIIIIIIIIIIIIIIIIIIIIIIIII
IIIIIIIIIIIIIIIIIIA122IIIIIIIIIIIIIIIIIIIIIIIIIIA12IIIIIIIIIIIII
IIIIIIIIIIIIIIIIIIIIIIIIA2IIIIIIIIIIIIIIIIIIIIIIIIIIIIIIIIIIIIII
IIIIIIIIIIIIIIIIIIA2IIIIA2IIIIIIIIIIIIIIIIIIIIIIIIIIIIIIIIIIIIII
IIIIIIIIIIIIIIIIIIIIIIIIIIIIIIIIIIIIIIIIIIIIIIIIIIIIIIIIIA2IIIII
IIIIIIIIIIIIIIIIIIIIIIIIIIIIIIIIIIIIIIIA12IIIIIIIIIIIIIIIA2IIIII
IIIIIIIIIIIIIIIIIIA12IIIIIIIIIIIIIIIIIIA12IIIIIIIIIIIIIIIA2IIIII
IIIIIIIIIIIIIIIIIIA12IIIIIA12IIIIIIIIIIA12IIIIIIIIIIIIIIIA2IIIII
IIIIIIIIIIIIIIIIIIIIIIIIIIIIIIIIIIIIIIIIA2IIIIIIIIIIIIIIIIIIIIII
IIIIIIIIIIIIIIIIIIIIIIIIIIIIIIIIIIIIIIIIA2A2IIIIIIIIIIIIIIIIIIII
IIIIIIIIIIIIIIIIIIIIIIIIIIIIIIIA2IIIIIIIA2A2IIIIIIIIIIIIIIIIIIII
IIIIIIIIIIIIIIIIIIAIIIIIIIIIIIIIIIIIIIIIIIIIIIIIIIIIIIIIIIIIIIII
IIIIIIIIIIIIIIIIIIAIIIIIIIIIIIIIIIIIAIIIIIIIIIIIIIIIIIIIIIIIIIII
IIIIIIIIIIIIIIIIIIAIIIIIIIIIIIA2IIIIAIIIIIIIIIIIIIIIIIIIIIIIIIII
IIIIIIIIIIIIIA2IIIAIIIIIIIIIIIA2IIIIAIIIIIIIIIIIIIIIIIIIIIIIIIII
IIIIIIIIIIIIIA2IIIA2IIIIIIIIIIA2IIIIAIIIIIIIIIIIIIIIIIIIIIIIIIII
IIIIIIIIIIIIIIIIIIIIIIIIIIIIIIIIIIIIIIIIIIIIIIIIIIIIIIIIIIIIIA2I
IIIIIIIIIIIIIIIIIIIIIIIIIIIIIIIIIIIIIIIIIIIIIIIIIIIIIIIIIIA2IA2I
IIIIIIIIIIIIIIIIIIIIIIIIIIIIIIIIIIIIIIIIIIIIIIIIIIIIIIIIIIA2IA2A
IIIIIIIIIIIIIIIIIIAIIIIIIIIIIIIIIIIIIIIIIIIIIIIIIIIIIIIIIIA2IA2A
IIIIIIIIIIIIIIIIIIAIIIIIIIIIAIIIIIIIIIIIIIIIIIIIIIIIIIIIIIA2IA2A
IIIIIIIIIIIIIIIIIIIIAIIIIIIIIIIIIIIIIIIIIIIIIIIIIIIIIIIIIIIIIIII
IIIIIIIIIIIIIIIIIIIIAIIIIIAIIIIIIIIIIIIIIIIIIIIIIIIIIIIIIIIIIIII
IIIIIIIIIIIIIIIIIIIIAIIIIIAIIIIIIIIIIIIIIIIIIIIIIIIIIIIIIIIIIA2I
IIIIIIIIIIIIIIIIIIIIA2IIIIAIIIIIIIIIIIIIIIIIIIIIIIIIIIIIIIIIIA2I
IIIIIIIIIIIIIIIIIIIIIIIIIIIIIIIIIIIIIIIIIIIIIIIIIIIIIIIIIIIIIIA2
IIIIIIIIIIIIIIIIIIIIIIIIIIIIIIIIIIIIIIIIIIIIIIIIIIIIIIIIIIIIA2A2
IIIIIIIIIIIIIIIIIIIIIIIIIIIIIIIIIIIIIIIIIA2IIIIIIIIIIIIIIIIIIIII
IIIIIIIIIIIIIIIIIIIIIIIIIIIIA2IIIIIIIIIIIA2IIIIIIIIIIIIIIIIIIIII
IIIIIIIIIIA2IIIIIIIIIIIIIIIIIIIIIIIIIIIIIIIIIIIIIIIIIIIIIIIIIIII
IIIIIIIIIIA2IIIIIIAI2IIIIIIIIIIIIIIIIIIIIIIIIIIIIIIIIIIIIIIIIIII
IIIIIIIIIIIIIIIIIIIIIIIIIIA2IIIIIIIIIIIIIIIIIIIIIIIIIIIIIIIIIIII
IIIIIIIIIIIIIIIIIIIIIIA2IIA2IIIIIIIIIIIIIIIIIIIIIIIIIIIIIIIIIIII
IIIIIIIIIIIIIIIIIIIAI2IIIIIIIIIIIIIIIIIIIIIIIIIIIIIIIIIIIIIIIIII
IIIIIIIIIIIIIIIIIIIA22IIIIIIIIIIIIIIIIIIIIIIIIIIIIIIIIIIIIIIIIII
IIIIIIIIIIIIIIIIIIIA22IIIIIIIIIIIIIIIIIIIIIIIIIIIIIIIIIIIIIIA22I
IIIIIIIIIIIIIIIIIIIA22IIIIIIIIIIIIIIIIIIIIIIIIIIIIA22IIIIIIIA22I
IIIIIIIIIIIIIIIIIIA2IIIIIIIIIIIIIIIIIIIIIIIIIIIIIIIIIIIIIIIIIIII
IIIIIIIIIIIIIIIIIIIIIIIIIIIIIIIIIIIIIIIIIIIIIIIIIIIIIIIIIA22IIII
IIIIIIIIIIIIIIIIIIIIIIIIIIIIIIIIIIIIIIAIIIIIIIIIIIIIIIIIIIIIIIII
IIIIIIIIIIIIIIIIIIIIIIIIIIIIIIIIIIIIIIIIIIIIIIIIIIIIIIIIIAIIIIII
IIIIIIIIIIIIIIIIIIIIIIIIIIIIIIIIIIIIIIIIIIIIIAIIIIIIIIIIIAIIIIII
IIIIIIIIIIIIIIIIIIIIIIIIIIIIIIIAIIIIIIIIIIIIIAIIIIIIIIIIIAIIIIII
IIIIIIIIIIIIIIIIIIAIIIIIIIIIIIIAIIIIIIIIIIIIIAIIIIIIIIIIIAIIIIII
IIIIIIIIIIIIIIIIIIIIIIIIIIIAIIIIIIIIIIIIIIIIIIIIIIIIIIIIIIIIIIII
IIIIIIIIIIIIIIIIIIIIIIIIIIIAIIIIIIIIIIIIIIIIIIIIIIIIIIIIIIAIIIII
IIIIIIIIIIIIIIIIIIIIIIIIIIIAIIIIIIIIIIIIIAIIIIIIIIIIIIIIIIAIIIII
IIIIIIIIIIIIIIIIIIIIIIIIIIIAIIA2IIIIIIIIIAIIIIIIIIIIIIIIIIAIIIII
IIIIIIIIIIIIIIIIIIIIIIIIIIIIIIIIIIIIIIIIIIIIIA2IIIIIIIIIIIIIIIII
IIIIIIIIIIIIIIIIIIA12I2IIIIIIIIIIIIIIIIIIIIIIA2IIIIIIIIIIIIIIIII
IIIIIIIIIIIIIIIIIIA12I2IIIA12I2IIIIIIIIIIIIIIA2IIIIIIIIIIIIIIIII
IIIIIIIIIIIIIIIIIIIIIIIIIIIIIIIIIIIIIIAIIIIIIIIIIIIIIIIIIIIIIIII
IIIIIIIIIIIIIIIIIIIIIIIIIIIIIIIIA2IIIIIIIIIIIIIIIIIIIIIIIIIIIIII
IIIIIIIIIIIIIIIIIIIIIIIIIIIIIIIAA2IIIIIIIIIIIIIIIIIIIIIIIIIIIIII
IIIIIIIIIIIIIIIIIIIIIIIIIIIIIIIAA2IIIIA2IIIIIIIIIIIIIIIIIIIIIIII
IIIIIIIIIIIIIIIIIIIIIIIIIIIIIIIAA2IIIIA2IIIIA222IIIIIIIIIIIIIIII
IIIIIIIIIIIIIIIIIIIIIIIIA222IIIAA2IIIIA2IIIIA222IIIIIIIIIIIIIIII
IIIIIIIIIIIIIIIIIIIIIIIIA222IIIAA2IIIIA222IIA222IIIIIIIIIIIIIIII
IIIIIIIIIIIIIIIIIIIIIIIIA222IIIAA22IIIA222IIA222IIIIIIIIIIIIIIII
IIIIIIIIIIIIIIIIIIIIIIIIA222IIIAA22A22A222IIA222IIIIIIIIIIIIIIII
IIIIIIIIIIIIIIIIIIIIIIA2A222IIIAA22A22A222IIA222IIIIIIIIIIIIIIII
IIIIIIIIIIIIIIIIIIIIIIA2A222IIIAA22A22A222IIA222IIIIIIIIIIIIA2II
IIIIIIIIIIIIIIIIIIIIIIA2A222IIIAA22A22A222IIA222IIIIIIIIIIIIAA2I
IIIIIIIIIIIIIIIIIIIIIIIIIIIIA2IIIIIIIIIIIIIIIIIIIIIIIIIIIIIIIIII
IIIIIIIIIIIIIIIIIIIIIIIIIIA2A2IIIIIIIIIIIIIIIIIIIIIIIIIIIIIIIIII
IIIIIIIIIIIIIIIIIA2IIIIIIIIIIIIIIIIIIIIIIIIIIIIIIIIIIIIIIIIIIIII
IIIIIIIIIIIIIIIIIA2IIIIIIIIIIIIIIIIIIIIIIIIIIIIA2IIIIIIIIIIIIIII
IIIIIIIIIA2IIIIIIA2IIIIIIIIIIIIIIIIIIIIIIIIIIIIA2IIIIIIIIIIIIIII
IIIIIIIIIA2IIIIIIA2IIIIIIIIIIIA2IIIIIIIIIIIIIIIA2IIIIIIIIIIIIIII
IIIIIIIIAA2IIIIIIA2IIIIIIIIIIIA2IIIIIIIIIIIIIIIA2IIIIIIIIIIIIIII
IIIIIIIIAA2IIIIIIA2IIIIA2IIIIIA2IIIIIIIIIIIIIIIA2IIIIIIIIIIIIIII
IIIIIIIIIIIIIIIIIIIIIIIIIIIIIA2II2IIIIIIIIIIIIIIIIIIIIIIIIIIIIII
IIIIIIIIIIIIIIIIIIA2IIIIIIIIIIIIIIIIIIIIIIIIIIIIIIIIIIIIIIIIIIII
IIIIIIIIIIIIIIIIIAA2IIIIIIIIIIIIIIIIIIIIIIIIIIIIIIIIIIIIIIIIIIII
IIIIIIIIIIIIIIIIIIIIIIIIIIIIIIIAIIIIIIIIIIIIIIIIIIIIIIIIIIIIIIII
IIIIIIIIIIIIIIIIIIIIIIIIIIIIIIIIIIIIIIIIIIIIIIA2IIIIIIIIIIIIIIII
IIIIIIIIIIIIIIIIIIA2III2IIIIIIIIIIIIIIIIIIIIIIIIIIIIIIIIIIIIIIII
IIIIIIIIIIIIIIIIIIA2III2IA12I2IIIIIIIIIIIIIIIIIIIIIIIIIIIIIIIIII
IIIIIIIIIIIIIIIIIIA2III2IA12I2IIIIIIIIIIIIIIIIIIIIIIIIIIIA12I2II
IIIIIIIIIIIIIIIIIIA12I22IA12I2IIIIIIIIIIIIIIIIIIIIIIIIIIIA12I2II
IIIIIIIIIIIIIIIIIIA12I22IA12I2IIIIIIIIAIIIIIIIIIIIIIIIIIIA12I2II
IIIIIIIIIIIIIIIIIIA12A22IA12I2IIIIIIIIAIIIIIIIIIIIIIIIIIIA12I2II
IIIIIIIIIIIIIIIIIIIIIIIIA2IIIIIIIIIIIIIIIIIIIIIIIIIIIIIIIIIIIIII
IIIIIIIIIIIIIIIIIIIIIIIIA2IIA2IIIIIIIIIIIIIIIIIIIIIIIIIIIIIIIIII
IIIIIIIIIIIIIIIIIIA2IIIIA2IIA2IIIIIIIIIIIIIIIIIIIIIIIIIIIIIIIIII
IIIIIIIIIIIIIIIIIIIAIIIIIIIIIIIIIIIIIIIIIIIIIIIIIIIIIIIIIIIIIIII
IIIIIIIIIIIIIIIIIIIAIIIIIIIIIIIIAIIIIIIIIIIIIIIIIIIIIIIIIIIIIIII
IIIIIIIIIIIIIIIIIIIAIIIIIIIIIIAIAIIIIIIIIIIIIIIIIIIIIIIIIIIIIIII
IIIIIIIIIIIIIIIIIIIAIIIIAIIIIIAIAIIIIIIIIIIIIIIIIIIIIIIIIIIIIIII
IIIIIIIIIIIIIIIIIAIIIIIIIIIIIIIIIIIIIIIIIIIIIIIIIIIIIIIIIIIIIIII
IIIIIIIIIIIIIIIIIAIIAIIIIIIIIIIIIIIIIIIIIIIIIIIIIIIIIIIIIIIIIIII
IIIIIIIIIIIIIIIIIAIIAIIIIIIIIA2IIIIIIIIIIIIIIIIIIIIIIIIIIIIIIIII
IIIIIIIIIIIIIIIIIAIIAIIIIIIIIA2IA2IIIIIIIIIIIIIIIIIIIIIIIIIIIIII
IIIIIIIIIIIIIIIIIAIIAIIIIIIIIA2IA2IIA2IIIIIIIIIIIIIIIIIIIIIIIIII
IIIIIIIIIIIIIIIIIIIIIIIIIIIA22IIIIIIIIIIIIIIIIIIIIIIIIIIIIIIIIII
IIIIIIIIIIIIIIIIIIIAIIIIIIIIIIIIIIIIIIIIIIIIIIIIIIIIIIIIIIIIIIII
IIIIIIIIIIIIIIIIIAIAIIIIIIIIIIIIIIIIIIIIIIIIIIIIIIIIIIIIIIIIIIII
IIIIIIIIIIIIIIIIIIIIIIIIIIIIIIIIIIIIAIIIIIIIIIIIIIIIIIIIIIIIIIII
IIIIIIIIIIIIAIIIIIIIIIIIIIIIIIIIIIIIIIIIIIIIIIIIIIIIIIIIIIIIIIII
IIIIIIIIIIIIIIIIIIAIIIIIIIIIIIIIIIIIIIIIIIIIIIIIIIIIIIIIIIIIIIII
IIIIIIIIIIIIIIIIIIAIIIIIIIIIIIIIIIIIIIAIIIIIIIIIIIIIIIIIIIIIIIII
AIIIIIIIIIIIIIIIIIAIIIIIIIIIIIIIIIIIIIAIIIIIIIIIIIIIIIIIIIIIIIII
AIIIIIIIIIIIIIIIIIAIIIIIIIIIIIIIIIIIIIAIIIIIIIIIIIIIIIIIIIIIAIII
AIIIIIIIIIIIIIIIIIAIIIIIIIIIIIIIIIIIIIAIIIIIIIIIIAIIIIIIIIIIAIII
AIIIIIIIIIIIIIIIIIAAIIIIIIIIIIIIIIIIIIAIIIIIIIIIIAIIIIIIIIIIAIII
IIIIIIIIIIIIIIIIIIIIAIIIIIIIIIIIIIIIIIIIIIIIIIIIIIIIIIIIIIIIIIII
IIIIIIIIIIIIIIIIIIIIAIAIIIIIIIIIIIIIIIIIIIIIIIIIIIIIIIIIIIIIIIII
IIIIIIIIIIIIIIIIIIIIAIAIIIIIAIIIIIIIIIIIIIIIIIIIIIIIIIIIIIIIIIII
IIIIIIIIIIIIIIIIIIIIAIAIIIIIAAIIIIIIIIIIIIIIIIIIIIIIIIIIIIIIIIII
IIIIIIIIIIIIIIIIIIIIAIAIIIIIAAIAIIIIIIIIIIIIIIIIIIIIIIIIIIIIIIII
IIIIIIIIIIIIIIIIIIAIIIIIIIIIIIIIIIIIIIIIIIIIIIIIIIIIIIIIIIIIIIII
IIIIIIIIIIIIIIIIIIAIIIIIA2IIIIIIIIIIIIIIIIIIIIIIIIIIIIIIIIIIIIII
IIIIIIIIIIIIIIIIIIAA2IIIA2IIIIIIIIIIIIIIIIIIIIIIIIIIIIIIIIIIIIII
IIIIIIIIIIIIIIIIIAIIIIIIIIIIIIIIIIIIIIIIIIIIIIIIIIIIIIIIIIIIIIII
IIIIIIIIIIIIIIIIIAAIIIIIIIIIIIIIIIIIIIIIIIIIIIIIIIIIIIIIIIIIIIII
IIIIIIIIIIIIIIIIIAAIIIIAIIIIIIIIIIIIIIIIIIIIIIIIIIIIIIIIIIIIIIII
IIIIIIIIIIIIIIIIIAAIIIIAAIIIIIIIIIIIIIIIIIIIIIIIIIIIIIIIIIIIIIII
IIIIIIIIIIIIIIIIIAAIIIIAAIIIIAIIIIIIIIIIIIIIIIIIIIIIIIIIIIIIIIII
IIIIIIIIIIIIIIIIIIIIIIAIIIIIIIIIIIIIIIIIIIIIIIIIIIIIIIIIIIIIIIII
IIIIIIIIIIIIIIIIIIIIIIAIIIIIIIIIIIIIIIIIIIIIIIIIIIIIIIIIIIIAIIII
IIIIIIIIIIIIIIIIIIIIIAAIIIIIIIIIIIIIIIIIIIIIIIIIIIIIIIIIIIIAIIII
IIIIIIIIIIIAIIIIIIIIIAAIIIIIIIIIIIIIIIIIIIIIIIIIIIIIIIIIIIIAIIII
IIIIIIIIIAIIIIIIIIIIIIIIIIIIIIIIIIIIIIIIIIIIIIIIIIIIIIIIIIIIIIII
IIIIIIIIIAIIIIIIIIIIIIIIIIIIIIIIAIIIIIIIIIIIIIIIIIIIIIIIIIIIIIII
IIIIIIIIIAIIIIIIIIIIIIIIIIIIIIIIAIIIIIIAIIIIIIIIIIIIIIIIIIIIIIII
IIIIIIIIIAIIIIIIIIIIIIIIIIIIIIIIAIIIIIIAIIIIIIIIIIIIIIIIIIIIIAII
IIIIIIIIIAIIIIIIIIIIIIIIIIIIIIIIAIAIIIIAIIIIIIIIIIIIIIIIIIIIIAII
IIIIIIIIIAIIIIIIIIIIIIIIIIIIIIIIAIAIIIIAIIIIIIIIIAIIIIIIIIIIIAII
IIIIIIIIIAIIIIIIIIIIIIIIAIIIIIIIAIAIIIIAIIIIIIIIIAIIIIIIIIIIIAII
IIIIIIIIIAIIIIIIIIIIIIIIAIIIIIIIAIAIAIIAIIIIIIIIIAIIIIIIIIIIIAII
IIIIIIIIIAIIIIIIIIIIIIIIAIIIIIIAAIAIAIIAIIIIIIIIIAIIIIIIIIIIIAII
IIIIIIIIIAIIIIIIIIIIIIIIAIIIIIIAAIAIAIIAIIIIIIIIIAIIIIAIIIIIIAII
IIIIIIIIIAIIIIIIIIAIIIIIAIIIIIIAAIAIAIIAIIIIIIIIIAIIIIAIIIIIIAII
IIIIIIIIIIIIIIIIIA2IIIIIIIIIIIIIIIIIIIIIIIIIIIIIIIIIIIIIIIIIIIII
IIIIIIIIIIIIIIIIIA2IIIIIIIIIIIIIIIIIIAIIIIIIIIIIIIIIIIIIIIIIIIII
IIIIIIIIIIIIIIIIIA2IIIIIIIIIIIIIIIIIIAIIIIIAIIIIIIIIIIIIIIIIIIII
IIIIIIIIIIIIIIIIIA2IIIIIIIIIIIIIIIIIIAIIIIIAIIIIIIIAIIIIIIIIIIII
IIIIIIIIIIIIIIIIIA2IIIIIIIIIIIIIIIIIIAIIIIIAIIIIIIIAIIAIIIIIIIII
IIIIIIIIIIIIIIIIIA2IIIIIAIIIIIIIIIIIIAIIIIIAIIIIIIIAIIAIIIIIIIII
IIIIIIIIIIIIIIIIIA2IIIIIAIIIIIIIIIIIIAIAIIIAIIIIIIIAIIAIIIIIIIII
IIIIIIIIIIIIIIIIIA2IIIIIAIIIIIIIIIIIIAIAIIIAAIIIIIIAIIAIIIIIIIII
IIIIIIIIIIIIIIIIIA2IIIIIAIIIIIIIIIIIIAIAIIIAAIIIIIAAIIAIIIIIIIII
IIIIIIIIIIIIIIIIIA2IIAIIAIIIIIIIIIIIIAIAIIIAAIIIIIAAIIAIIIIIIIII
IIIIIIIIIIIIIIIIIA2IIAIIAIIIIIIIIIIIIAIAIIIAAIIIIIAAIIAIIIIIIAII
IIIIIIIIIIIIIIIIIA2IIAIIAA2IIIIIIIIIIAIAIIIAAIIIIIAAIIAIIIIIIAII
IIIIIIIIIIIIIIIIIA2IIIIIIIIIIIIIIIIIIIIIIIIIIIIIIIIIIIIIIIIIIIII
IIIIIIIIIIIIIIIIIAAIIIIIIIIIIIIIIIIIIIIIIIIIIIIIIIIIIIIIIIIIIIII
IIIIIIIIIIIIIIIIIAA22IIIIIIIIIIIIIIIIIIIIIIIIIIIIIIIIIIIIIIIIIII
IIIIIIIIIIIIIIIIIAAA22IIIIIIIIIIIIIIIIIIIIIIIIIIIIIIIIIIIIIIIIII
IIIIIIIIIIIIIIIIIAAA2A22IIIIIIIIIIIIIIIIIIIIIIIIIIIIIIIIIIIIIIII
IIIIIIIIIIIIIIIIIAAA2A22A22IIIIIIIIIIIIIIIIIIIIIIIIIIIIIIIIIIIII
IIIIIIIIIIIIIIIIIAAA2A22A22IIIIIIIA22IIIIIIIIIIIIIIIIIIIIIIIIIII
IIIIIIIIIIIIIIIIIAAA2A22A22IIIIIIIA2A22IIIIIIIIIIIIIIIIIIIIIIIII
IIIIIIIIIIIIIIIIIAAA2A22A22IIIIIIIA2AA22IIIIIIIIIIIIIIIIIIIIIIII
IIIIIIIIIIIIIIIIIAAA2AA2A22IIIIIIIA2AA22IIIIIIIIIIIIIIIIIIIIIIII
IIIIIIIIIIIIIIIIIAAA2AAAA22IIIIIIIA2AA22IIIIIIIIIIIIIIIIIIIIIIII
IIIIIIIIIIIIIIIIIAAA2AAAA22IIA2IIIA2AA22IIIIIIIIIIIIIIIIIIIIIIII
IIIIIIIIIIIIIIIIIIIIIIIIIIIIIAIIIIIIIIIIIIIIIIIIIIIIIIIIIIIIIIII
IIIIIIIIIIIIIIIIIIIIIIIIIIIIIAIIIAIIIIIIIIIIIIIIIIIIIIIIIIIIIIII
IIIIIIIIAIIIIIIIIIIIIIIIIIIIIAIIIAIIIIIIIIIIIIIIIIIIIIIIIIIIIIII
IIIIIIIIAIIIIIIIIIIIIA2IIIIIIAIIIAIIIIIIIIIIIIIIIIIIIIIIIIIIIIII
IIIIIIIIAIIIIIIIIA2IIA2IIIIIIAIIIAIIIIIIIIIIIIIIIIIIIIIIIIIIIIII
IIIIIIIIAIIIIIIIIA2A2A2IIIIIIAIIIAIIIIIIIIIIIIIIIIIIIIIIIIIIIIII
IIIIIIIIAIIIIIIIIA2A2A2IA2IIIAIIIAIIIIIIIIIIIIIIIIIIIIIIIIIIIIII
IIIIIIIIAIIIIIIIIA2A2A2IA2IIIAIA2AIIIIIIIIIIIIIIIIIIIIIIIIIIIIII
IIIIIIIIAIIIIIIIIA2A2A2IA2IIIAAA2AIIIIIIIIIIIIIIIIIIIIIIIIIIIIII
IIIIIIIIAIIIIIIIIA2A2A2AA2IIIAAA2AIIIIIIIIIIIIIIIIIIIIIIIIIIIIII
IIIIIIIIAIIIIIIIIA2A2AAAA2IIIAAA2AIIIIIIIIIIIIIIIIIIIIIIIIIIIIII
IIIIIIIIA2IIIIIIIIIIIIIIIIIIIIIIIIIIIIIIIIIIIIIIIIIIIIIIIIIIIIII
IIIIIIIIA2IIIIIIIIIIIIIIIIIIIIIIIIIIIIIIIIIIIIIIIIIIIIIIIA22IIII
IIIIIIIIA2IIIIIIIIIIIIIIIIIIIIIIIIIIIIIIIIIIIIIIIA22IIIIIA22IIII
IIIIIIIIA2IA22IIIIIIIIIIIIIIIIIIIIIIIIIIIIIIIIIIIA22IIIIIA22IIII
IIIIIIIIA2IAA2222IIIIIIIIIIIIIIIIIIIIIIIIIIIIIIIIA22IIIIIA22IIII
IIIIIIIIA2IAA2222IIIIIIIIIIIIIIIIIIIIIIIIIIIIIIIIA22IIIIIA22IA22
IIIIIIIIA2IAA2222IIIIIIIIIIIIIIA2222IIIIIIIIIIIIIA22IIIIIA22IA22
IIIIIIIIA2IAA2222IIIIIIIIIIIIA2A2222IIIIIIIIIIIIIA22IIIIIA22IA22
IIIIIIIIIIIIIIIIIIIIIIIIIIIIIIIIIIIIIIIIIIIIIIIIIIIIIIIIIA22III2
IIIIIIIIIIIIIIIIIIIIIIIIIIIIIIIIIIIIIIIIIIIIIIIIIIIIIIIIIAA22II2
IIIIIIIIIIIIIIIIIIIIIIIIIIIIIIIIIIIIIIIIIIIIIIIIIIIIIIIIIAAA22I2
IIIIIIIIIIIIIIIIIIIIIIIIIIIIIIIIIIIIIIIIIIIIIIIIIIIIIIIIIAAA22IA
IIIIIIIIIIIIA22III2IIIIIIIIIIIIIIIIIIIIIIIIIIIIIIIIIIIIIIAAA22IA
IIIIIIIIIIIIA22III2IIIIIIIIIIIIIIIIIIIIIIIIIIIIIIIA22III2AAA22IA
IIIIIIIIIIIIA22IIA1I22IIIIIIIIIIIIIIIIIIIIIIIIIIIIA22III2AAA22IA
IIIIIIIIIIIIA2I2IIIIIIIIIIIIIIIIIIIIIIIIIIIIIIIIIIIIIIIIIIIIIIII
IIIIIIIIIIIIA2I2IIIIIIIIIIIIIIIIIIIIIIIIIIIIIIIIIIIIIIIIIA222III
IIIIIIIIIIIIA2I2IIIIIIIIIIIIIIIIIIIIIIIIIIIIIIIIIIIIIIIIIA2A11I1
IIIIIIIIIAIIA2I2IIIIIIIIIIIIIIIIIIIIIIIIIIIIIIIIIIIIIIIIIA2A11I1
IIIIIIIIIAIIA2I2IIIIIIIIIIIIIIIIIIIIIIIIIIIIIIIIIIIIIIIIIA2A1121
IIIIIIIIIAIIA2I2IIIIIIIIIIIIIIIIIIIIIIIIIIIIIIIIIIIIIIIIIA1A1121
IIIIIIIIIAIIA2I2IAIIIIIIIIIIIIIIIIIIIIIIIIIIIIIIIIIIIIIIIA1A1121
IIIIIIIIIAIIA2I2IAIIIIIIIIIIIIIIIIIIIIA2IIIIIIIIIIIIIIIIIA1A1121
IIIIIIIIIAIIA2I2IAAIIIIIIIIIIIIIIIIIIIA2IIIIIIIIIIIIIIIIIA1A1121
IIIIIIIIIIIIIIIIIIIIIIIIIIIIIA2IIIIIIIIIIIIIIIIIIIIIIIIIIIIIIIII
IIIIIIIIIIIIIIIIIIIIIIIIIIIIA2IIIIIIIIIIIIIIIIIIIIIIIIIIIIIIIIII
IIIIIIIIIA2IIIIIIIIIIIIIIIIIA2IIIIIIIIIIIIIIIIIIIIIIIIIIIIIIIIII
IIIIIIIIIA2IIIIIIIIA2IIIIIIIA2IIIIIIIIIIIIIIIIIIIIIIIIIIIIIIIIII
IIIIIIIIIA2IIIIIIIIA2IIIIIIIAA2IIIIIIIIIIIIIIIIIIIIIIIIIIIIIIIII
IIIIIIIIIA2IIIIIIIAA2IIIIIIIAA2IIIIIIIIIIIIIIIIIIIIIIIIIIIIIIIII
IIIIIIIIIA2IIIIIIIAA2IIIIIIIAA22IIIIIIIIIIIIIIIIIIIIIIIIIIIIIIII
IIIIIIIIIIIIIIIIIIIIIIIIIIIIIIIIIIIIIIA2IIIIIIIIIIIIIIIIIIIIIIII
IIIIIIIIIIIIIIIIIA2IIIIIIIIIIIIIIIIIIIA2IIIIIIIIIIIIIIIIIIIIIIII
IIIIIIIIIIIIIIIIIAA2IIIIIIIIIIIIIIIIIIA2IIIIIIIIIIIIIIIIIIIIIIII
IIIIIIIIIIIIIIIIIAA2IIA2IIIIIIIIIIIIIIA2IIIIIIIIIIIIIIIIIIIIIIII
IIIIIIIIIIIIIIIIIAA2IIA2IIIA2IIIIIIIIIA2IIIIIIIIIIIIIIIIIIIIIIII
IIIIIIIIIIIIIIIIIIIIIIIIIIIIIIIIIIIIIIIA222IIIIIIIIIIIIIIIIIIIII
IIIIIIIIIIIIIIIIIIIIIIIIIIIIIIIIIIIIIIIA222IA2I2IIIIIIIIIIIIIIII
IIIIIIIIIIIIIIIIIIIIIIIIIIIIIIIIIIIIIIIA222IA2IA2I2IIIIIIIIIIIII
IIIIIIIIIIIIIIIIIA1I2IIIIIIIIIIIIIIIIIIA222IA2IA2I2IIIIIIIIIIIII
IIIIIIIIIIIIIIIIIA1I2IIIIIIAIIIIIIIIIIIA222IA2IA2I2IIIIIIIIIIIII
IIIIIIIIIIIIIIIIIIIIIIIIIIIIIIIIIIIIIIIIIIIIIIIA2IIIIIIIIIIIIIII
IIIIIIIIIA1122IIIIIIIIIIIIIIIIIIIIIIIIIIIIIIIIIIIIIIIIIIIIIIIIII
IIIIIIIIIA1122IIIIIIIIIIIIIIIIIIIIIIIAIIIIIIIIIIIIIIIIIIIIIIIIII
IIIIIIIIIA1122IIIA2II222IIIIIIIIIIIIIAIIIIIIIIIIIIIIIIIIIIIIIIII
IIIIIIIIIIIIIIIIIA11I1IIIIIIIIIIIIIIIIIIIIIIIIIIIIIIIIIIIIIIIIII
IIIIIIIIIIIIIIIIIA11I1IIIIIIIIIIIIIIIIIIIIIIAIIIIIIIIIIIIIIIIIII
IIIIIIIIIIIIIIIIIA11I1IIIIIIIIIIIIIIIIIIIIIIAIIIIIIIIIIIIIIIIAII
IIIIIIIIIIIIIIIIIA11I1IIIIIIIIIIIIIIIIIIIIIIAIIIIIIIIIIIIIIIIAIA
IIIIIIIIIIIIIIIIIA112122IIIIIIIIIIIIIIIIIIIIAIIIIIIIIIIIIIIIIAIA
IIIIIIIIIIIIIIIIIA112122IIIIIIIIIIIIIIIIIIIIAIIIIIA122IIIIIIIAIA
IIIIIIIIIIIIIIIIIIIIIIIIIAIIIIIIIIIIIIIIIIIIIIIIIIIIIIIIIIIIIIII
IIIIIIIIIIIIIIIIIIIIIIIIIAIIIIIIIIIIIIIIIIAIIIIIIIIIIIIIIIIIIIII
IIIIIIIIIIIIIIIIIIIIIIIIIAIIIIIIIIIIIIIIIIAIIIIIIIIIIIIIIIIAIIII
[...]
AAAAAAAAAAAAAAAAAAAAAAAAAAAAAAAAAAAAAAAAAAAAAAAAAAAAAAA11IIIIIII
AAAAAAAAAAAAAAAAAAAAAAAAAAAAAAAAAAAAAAAAAAAAAAAAAAAAAAAA11IIIIII
AAAAAAAAAAAAAAAAAAAAAAAAAAAAAAAAAAAAAAAAAAAAAAAAAAAAAAAAA11IIIII
AAAAAAAAAAAAAAAAAAAAAAAAAAAAAAAAAAAAAAAAAAAAAAAAAAAAAAAAAA11IIII
AAAAAAAAAAAAAAAAAAAAAAAAAAAAAAAAAAAAAAAAAAAAAAAAAAAAAAAAAAA11III
AAAAAAAAAAAAAAAAAAAAAAAAAAAAAAAAAAAAAAAAAAAAAAAAAAAAAAAAAAAA11II
AAAAAAAAAAAAAAAAAAAAAAAAAAAAAAAAAAAAAAAAAAAAAAAAAAAAAAAAAAAAA11I
AAAAAAAAAAAAAAAAAAAAAAAAAAAAAAAAAAAAAAAAAAAAAAAAAAAAAAAAAAAAAA11
AAAAAAAAAAAAAAAAAAAAAAAAAAAAAAAAAAAAAAAAAAAAAAAAAAAAAAAAAAAAAAA1
AAAAAAAAAAAAAAAAAAAAAAAAAAAAAAAAAAAAAAAAAAAAAAAAAAAAAAAAAAAAAAAA
A11IIIIIIIIIIIIIIIIIIIIIIIIIIIIIIIIIIIIIIIIIIIIIIIIIIIIIIIIIIIII
AA11IIIIIIIIIIIIIIIIIIIIIIIIIIIIIIIIIIIIIIIIIIIIIIIIIIIIIIIIIIII
AAA11IIIIIIIIIIIIIIIIIIIIIIIIIIIIIIIIIIIIIIIIIIIIIIIIIIIIIIIIIII
AAAA11IIIIIIIIIIIIIIIIIIIIIIIIIIIIIIIIIIIIIIIIIIIIIIIIIIIIIIIIII
AAAAA11IIIIIIIIIIIIIIIIIIIIIIIIIIIIIIIIIIIIIIIIIIIIIIIIIIIIIIIII
AAAAAA11IIIIIIIIIIIIIIIIIIIIIIIIIIIIIIIIIIIIIIIIIIIIIIIIIIIIIIII
AAAAAAA11IIIIIIIIIIIIIIIIIIIIIIIIIIIIIIIIIIIIIIIIIIIIIIIIIIIIIII
AAAAAAAA11IIIIIIIIIIIIIIIIIIIIIIIIIIIIIIIIIIIIIIIIIIIIIIIIIIIIII
AAAAAAAAA11IIIIIIIIIIIIIIIIIIIIIIIIIIIIIIIIIIIIIIIIIIIIIIIIIIIII
AAAAAAAAAA11IIIIIIIIIIIIIIIIIIIIIIIIIIIIIIIIIIIIIIIIIIIIIIIIIIII
AAAAAAAAAAA11IIIIIIIIIIIIIIIIIIIIIIIIIIIIIIIIIIIIIIIIIIIIIIIIIII
AAAAAAAAAAAA11IIIIIIIIIIIIIIIIIIIIIIIIIIIIIIIIIIIIIIIIIIIIIIIIII
AAAAAAAAAAAAA11IIIIIIIIIIIIIIIIIIIIIIIIIIIIIIIIIIIIIIIIIIIIIIIII
AAAAAAAAAAAAAA11IIIIIIIIIIIIIIIIIIIIIIIIIIIIIIIIIIIIIIIIIIIIIIII
AAAAAAAAAAAAAAA11IIIIIIIIIIIIIIIIIIIIIIIIIIIIIIIIIIIIIIIIIIIIIII
AAAAAAAAAAAAAAAA11IIIIIIIIIIIIIIIIIIIIIIIIIIIIIIIIIIIIIIIIIIIIII
AAAAAAAAAAAAAAAAA11IIIIIIIIIIIIIIIIIIIIIIIIIIIIIIIIIIIIIIIIIIIII
AAAAAAAAAAAAAAAAAA11IIIIIIIIIIIIIIIIIIIIIIIIIIIIIIIIIIIIIIIIIIII
AAAAAAAAAAAAAAAAAAA11IIIIIIIIIIIIIIIIIIIIIIIIIIIIIIIIIIIIIIIIIII
AAAAAAAAAAAAAAAAAAAA11IIIIIIIIIIIIIIIIIIIIIIIIIIIIIIIIIIIIIIIIII
AAAAAAAAAAAAAAAAAAAAA11IIIIIIIIIIIIIIIIIIIIIIIIIIIIIIIIIIIIIIIII
AAAAAAAAAAAAAAAAAAAAAA11IIIIIIIIIIIIIIIIIIIIIIIIIIIIIIIIIIIIIIII
AAAAAAAAAAAAAAAAAAAAAAA11IIIIIIIIIIIIIIIIIIIIIIIIIIIIIIIIIIIIIII
AAAAAAAAAAAAAAAAAAAAAAAA11IIIIIIIIIIIIIIIIIIIIIIIIIIIIIIIIIIIIII
AAAAAAAAAAAAAAAAAAAAAAAAA11IIIIIIIIIIIIIIIIIIIIIIIIIIIIIIIIIIIII
AAAAAAAAAAAAAAAAAAAAAAAAAA11IIIIIIIIIIIIIIIIIIIIIIIIIIIIIIIIIIII
AAAAAAAAAAAAAAAAAAAAAAAAAAA11IIIIIIIIIIIIIIIIIIIIIIIIIIIIIIIIIII
AAAAAAAAAAAAAAAAAAAAAAAAAAAA11IIIIIIIIIIIIIIIIIIIIIIIIIIIIIIIIII
AAAAAAAAAAAAAAAAAAAAAAAAAAAAA11IIIIIIIIIIIIIIIIIIIIIIIIIIIIIIIII
AAAAAAAAAAAAAAAAAAAAAAAAAAAAAA11IIIIIIIIIIIIIIIIIIIIIIIIIIIIIIII
AAAAAAAAAAAAAAAAAAAAAAAAAAAAAAA11IIIIIIIIIIIIIIIIIIIIIIIIIIIIIII
AAAAAAAAAAAAAAAAAAAAAAAAAAAAAAAA11IIIIIIIIIIIIIIIIIIIIIIIIIIIIII
AAAAAAAAAAAAAAAAAAAAAAAAAAAAAAAAA11IIIIIIIIIIIIIIIIIIIIIIIIIIIII
AAAAAAAAAAAAAAAAAAAAAAAAAAAAAAAAAA11IIIIIIIIIIIIIIIIIIIIIIIIIIII
AAAAAAAAAAAAAAAAAAAAAAAAAAAAAAAAAAA11IIIIIIIIIIIIIIIIIIIIIIIIIII
AAAAAAAAAAAAAAAAAAAAAAAAAAAAAAAAAAAA11IIIIIIIIIIIIIIIIIIIIIIIIII
AAAAAAAAAAAAAAAAAAAAAAAAAAAAAAAAAAAAA11IIIIIIIIIIIIIIIIIIIIIIIII
AAAAAAAAAAAAAAAAAAAAAAAAAAAAAAAAAAAAAA11IIIIIIIIIIIIIIIIIIIIIIII
AAAAAAAAAAAAAAAAAAAAAAAAAAAAAAAAAAAAAAA11IIIIIIIIIIIIIIIIIIIIIII
AAAAAAAAAAAAAAAAAAAAAAAAAAAAAAAAAAAAAAAA11IIIIIIIIIIIIIIIIIIIIII
AAAAAAAAAAAAAAAAAAAAAAAAAAAAAAAAAAAAAAAAA11IIIIIIIIIIIIIIIIIIIII
AAAAAAAAAAAAAAAAAAAAAAAAAAAAAAAAAAAAAAAAAA11IIIIIIIIIIIIIIIIIIII
AAAAAAAAAAAAAAAAAAAAAAAAAAAAAAAAAAAAAAAAAAA11IIIIIIIIIIIIIIIIIII
AAAAAAAAAAAAAAAAAAAAAAAAAAAAAAAAAAAAAAAAAAAA11IIIIIIIIIIIIIIIIII
AAAAAAAAAAAAAAAAAAAAAAAAAAAAAAAAAAAAAAAAAAAAA11IIIIIIIIIIIIIIIII
AAAAAAAAAAAAAAAAAAAAAAAAAAAAAAAAAAAAAAAAAAAAAA11IIIIIIIIIIIIIIII
AAAAAAAAAAAAAAAAAAAAAAAAAAAAAAAAAAAAAAAAAAAAAAA11IIIIIIIIIIIIIII
AAAAAAAAAAAAAAAAAAAAAAAAAAAAAAAAAAAAAAAAAAAAAAAA11IIIIIIIIIIIIII
AAAAAAAAAAAAAAAAAAAAAAAAAAAAAAAAAAAAAAAAAAAAAAAAA11IIIIIIIIIIIII
AAAAAAAAAAAAAAAAAAAAAAAAAAAAAAAAAAAAAAAAAAAAAAAAAA11IIIIIIIIIIII
AAAAAAAAAAAAAAAAAAAAAAAAAAAAAAAAAAAAAAAAAAAAAAAAAAA11IIIIIIIIIII
AAAAAAAAAAAAAAAAAAAAAAAAAAAAAAAAAAAAAAAAAAAAAAAAAAAA11IIIIIIIIII
AAAAAAAAAAAAAAAAAAAAAAAAAAAAAAAAAAAAAAAAAAAAAAAAAAAAA11IIIIIIIII
AAAAAAAAAAAAAAAAAAAAAAAAAAAAAAAAAAAAAAAAAAAAAAAAAAAAAA11IIIIIIII
AAAAAAAAAAAAAAAAAAAAAAAAAAAAAAAAAAAAAAAAAAAAAAAAAAAAAAA11IIIIIII
AAAAAAAAAAAAAAAAAAAAAAAAAAAAAAAAAAAAAAAAAAAAAAAAAAAAAAAA11IIIIII
AAAAAAAAAAAAAAAAAAAAAAAAAAAAAAAAAAAAAAAAAAAAAAAAAAAAAAAAA11IIIII
AAAAAAAAAAAAAAAAAAAAAAAAAAAAAAAAAAAAAAAAAAAAAAAAAAAAAAAAAA11IIII
AAAAAAAAAAAAAAAAAAAAAAAAAAAAAAAAAAAAAAAAAAAAAAAAAAAAAAAAAAA11III
AAAAAAAAAAAAAAAAAAAAAAAAAAAAAAAAAAAAAAAAAAAAAAAAAAAAAAAAAAAA11II
AAAAAAAAAAAAAAAAAAAAAAAAAAAAAAAAAAAAAAAAAAAAAAAAAAAAAAAAAAAAA11I
AAAAAAAAAAAAAAAAAAAAAAAAAAAAAAAAAAAAAAAAAAAAAAAAAAAAAAAAAAAAAA11
AAAAAAAAAAAAAAAAAAAAAAAAAAAAAAAAAAAAAAAAAAAAAAAAAAAAAAAAAAAAAAA1
AAAAAAAAAAAAAAAAAAAAAAAAAAAAAAAAAAAAAAAAAAAAAAAAAAAAAAAAAAAAAAAA
A11IIIIIIIIIIIIIIIIIIIIIIIIIIIIIIIIIIIIIIIIIIIIIIIIIIIIIIIIIIIII
AA11IIIIIIIIIIIIIIIIIIIIIIIIIIIIIIIIIIIIIIIIIIIIIIIIIIIIIIIIIIII
AAA11IIIIIIIIIIIIIIIIIIIIIIIIIIIIIIIIIIIIIIIIIIIIIIIIIIIIIIIIIII
AAAA11IIIIIIIIIIIIIIIIIIIIIIIIIIIIIIIIIIIIIIIIIIIIIIIIIIIIIIIIII
AAAAA11IIIIIIIIIIIIIIIIIIIIIIIIIIIIIIIIIIIIIIIIIIIIIIIIIIIIIIIII
AAAAAA11IIIIIIIIIIIIIIIIIIIIIIIIIIIIIIIIIIIIIIIIIIIIIIIIIIIIIIII
AAAAAAA11IIIIIIIIIIIIIIIIIIIIIIIIIIIIIIIIIIIIIIIIIIIIIIIIIIIIIII
AAAAAAAA11IIIIIIIIIIIIIIIIIIIIIIIIIIIIIIIIIIIIIIIIIIIIIIIIIIIIII
AAAAAAAAA11IIIIIIIIIIIIIIIIIIIIIIIIIIIIIIIIIIIIIIIIIIIIIIIIIIIII
AAAAAAAAAA11IIIIIIIIIIIIIIIIIIIIIIIIIIIIIIIIIIIIIIIIIIIIIIIIIIII
AAAAAAAAAAA11IIIIIIIIIIIIIIIIIIIIIIIIIIIIIIIIIIIIIIIIIIIIIIIIIII
AAAAAAAAAAAA11IIIIIIIIIIIIIIIIIIIIIIIIIIIIIIIIIIIIIIIIIIIIIIIIII
AAAAAAAAAAAAA11IIIIIIIIIIIIIIIIIIIIIIIIIIIIIIIIIIIIIIIIIIIIIIIII
AAAAAAAAAAAAAA11IIIIIIIIIIIIIIIIIIIIIIIIIIIIIIIIIIIIIIIIIIIIIIII
AAAAAAAAAAAAAAA11IIIIIIIIIIIIIIIIIIIIIIIIIIIIIIIIIIIIIIIIIIIIIII
AAAAAAAAAAAAAAAA11IIIIIIIIIIIIIIIIIIIIIIIIIIIIIIIIIIIIIIIIIIIIII
AAAAAAAAAAAAAAAAA11IIIIIIIIIIIIIIIIIIIIIIIIIIIIIIIIIIIIIIIIIIIII
AAAAAAAAAAAAAAAAAA11IIIIIIIIIIIIIIIIIIIIIIIIIIIIIIIIIIIIIIIIIIII
AAAAAAAAAAAAAAAAAAA11IIIIIIIIIIIIIIIIIIIIIIIIIIIIIIIIIIIIIIIIIII
AAAAAAAAAAAAAAAAAAAA11IIIIIIIIIIIIIIIIIIIIIIIIIIIIIIIIIIIIIIIIII
AAAAAAAAAAAAAAAAAAAAA11IIIIIIIIIIIIIIIIIIIIIIIIIIIIIIIIIIIIIIIII
AAAAAAAAAAAAAAAAAAAAAA11IIIIIIIIIIIIIIIIIIIIIIIIIIIIIIIIIIIIIIII
AAAAAAAAAAAAAAAAAAAAAAA11IIIIIIIIIIIIIIIIIIIIIIIIIIIIIIIIIIIIIII
AAAAAAAAAAAAAAAAAAAAAAAA11IIIIIIIIIIIIIIIIIIIIIIIIIIIIIIIIIIIIII
AAAAAAAAAAAAAAAAAAAAAAAAA11IIIIIIIIIIIIIIIIIIIIIIIIIIIIIIIIIIIII
AAAAAAAAAAAAAAAAAAAAAAAAAA11IIIIIIIIIIIIIIIIIIIIIIIIIIIIIIIIIIII
AAAAAAAAAAAAAAAAAAAAAAAAAAA11IIIIIIIIIIIIIIIIIIIIIIIIIIIIIIIIIII
AAAAAAAAAAAAAAAAAAAAAAAAAAAA11IIIIIIIIIIIIIIIIIIIIIIIIIIIIIIIIII
AAAAAAAAAAAAAAAAAAAAAAAAAAAAA11IIIIIIIIIIIIIIIIIIIIIIIIIIIIIIIII
AAAAAAAAAAAAAAAAAAAAAAAAAAAAAA11IIIIIIIIIIIIIIIIIIIIIIIIIIIIIIII
AAAAAAAAAAAAAAAAAAAAAAAAAAAAAAA11IIIIIIIIIIIIIIIIIIIIIIIIIIIIIII
AAAAAAAAAAAAAAAAAAAAAAAAAAAAAAAA11IIIIIIIIIIIIIIIIIIIIIIIIIIIIII
AAAAAAAAAAAAAAAAAAAAAAAAAAAAAAAAA11IIIIIIIIIIIIIIIIIIIIIIIIIIIII
AAAAAAAAAAAAAAAAAAAAAAAAAAAAAAAAAA11IIIIIIIIIIIIIIIIIIIIIIIIIIII
AAAAAAAAAAAAAAAAAAAAAAAAAAAAAAAAAAA11IIIIIIIIIIIIIIIIIIIIIIIIIII
AAAAAAAAAAAAAAAAAAAAAAAAAAAAAAAAAAAA11IIIIIIIIIIIIIIIIIIIIIIIIII
AAAAAAAAAAAAAAAAAAAAAAAAAAAAAAAAAAAAA11IIIIIIIIIIIIIIIIIIIIIIIII
AAAAAAAAAAAAAAAAAAAAAAAAAAAAAAAAAAAAAA11IIIIIIIIIIIIIIIIIIIIIIII
AAAAAAAAAAAAAAAAAAAAAAAAAAAAAAAAAAAAAAA11IIIIIIIIIIIIIIIIIIIIIII
AAAAAAAAAAAAAAAAAAAAAAAAAAAAAAAAAAAAAAAA11IIIIIIIIIIIIIIIIIIIIII
AAAAAAAAAAAAAAAAAAAAAAAAAAAAAAAAAAAAAAAAA11IIIIIIIIIIIIIIIIIIIII
AAAAAAAAAAAAAAAAAAAAAAAAAAAAAAAAAAAAAAAAAA11IIIIIIIIIIIIIIIIIIII
AAAAAAAAAAAAAAAAAAAAAAAAAAAAAAAAAAAAAAAAAAA11IIIIIIIIIIIIIIIIIII
AAAAAAAAAAAAAAAAAAAAAAAAAAAAAAAAAAAAAAAAAAAA11IIIIIIIIIIIIIIIIII
AAAAAAAAAAAAAAAAAAAAAAAAAAAAAAAAAAAAAAAAAAAAA11IIIIIIIIIIIIIIIII
AAAAAAAAAAAAAAAAAAAAAAAAAAAAAAAAAAAAAAAAAAAAAA11IIIIIIIIIIIIIIII
AAAAAAAAAAAAAAAAAAAAAAAAAAAAAAAAAAAAAAAAAAAAAAA11IIIIIIIIIIIIIII
AAAAAAAAAAAAAAAAAAAAAAAAAAAAAAAAAAAAAAAAAAAAAAAA11IIIIIIIIIIIIII
AAAAAAAAAAAAAAAAAAAAAAAAAAAAAAAAAAAAAAAAAAAAAAAAA11IIIIIIIIIIIII
AAAAAAAAAAAAAAAAAAAAAAAAAAAAAAAAAAAAAAAAAAAAAAAAAA11IIIIIIIIIIII
AAAAAAAAAAAAAAAAAAAAAAAAAAAAAAAAAAAAAAAAAAAAAAAAAAA11IIIIIIIIIII
AAAAAAAAAAAAAAAAAAAAAAAAAAAAAAAAAAAAAAAAAAAAAAAAAAAA11IIIIIIIIII
AAAAAAAAAAAAAAAAAAAAAAAAAAAAAAAAAAAAAAAAAAAAAAAAAAAAA11IIIIIIIII
AAAAAAAAAAAAAAAAAAAAAAAAAAAAAAAAAAAAAAAAAAAAAAAAAAAAAA11IIIIIIII
AAAAAAAAAAAAAAAAAAAAAAAAAAAAAAAAAAAAAAAAAAAAAAAAAAAAAAA11IIIIIII
AAAAAAAAAAAAAAAAAAAAAAAAAAAAAAAAAAAAAAAAAAAAAAAAAAAAAAAA11IIIIII
AAAAAAAAAAAAAAAAAAAAAAAAAAAAAAAAAAAAAAAAAAAAAAAAAAAAAAAAA11IIIII
AAAAAAAAAAAAAAAAAAAAAAAAAAAAAAAAAAAAAAAAAAAAAAAAAAAAAAAAAA11IIII
AAAAAAAAAAAAAAAAAAAAAAAAAAAAAAAAAAAAAAAAAAAAAAAAAAAAAAAAAAA11III
AAAAAAAAAAAAAAAAAAAAAAAAAAAAAAAAAAAAAAAAAAAAAAAAAAAAAAAAAAAA11II
AAAAAAAAAAAAAAAAAAAAAAAAAAAAAAAAAAAAAAAAAAAAAAAAAAAAAAAAAAAAA11I
AAAAAAAAAAAAAAAAAAAAAAAAAAAAAAAAAAAAAAAAAAAAAAAAAAAAAAAAAAAAAA11
AAAAAAAAAAAAAAAAAAAAAAAAAAAAAAAAAAAAAAAAAAAAAAAAAAAAAAAAAAAAAAA1
AAAAAAAAAAAAAAAAAAAAAAAAAAAAAAAAAAAAAAAAAAAAAAAAAAAAAAAAAAAAAAAA
A11IIIIIIIIIIIIIIIIIIIIIIIIIIIIIIIIIIIIIIIIIIIIIIIIIIIIIIIIIIIII
AA11IIIIIIIIIIIIIIIIIIIIIIIIIIIIIIIIIIIIIIIIIIIIIIIIIIIIIIIIIIII
AAA11IIIIIIIIIIIIIIIIIIIIIIIIIIIIIIIIIIIIIIIIIIIIIIIIIIIIIIIIIII
AAAA11IIIIIIIIIIIIIIIIIIIIIIIIIIIIIIIIIIIIIIIIIIIIIIIIIIIIIIIIII
AAAAA11IIIIIIIIIIIIIIIIIIIIIIIIIIIIIIIIIIIIIIIIIIIIIIIIIIIIIIIII
AAAAAA11IIIIIIIIIIIIIIIIIIIIIIIIIIIIIIIIIIIIIIIIIIIIIIIIIIIIIIII
AAAAAAA11IIIIIIIIIIIIIIIIIIIIIIIIIIIIIIIIIIIIIIIIIIIIIIIIIIIIIII
AAAAAAAA11IIIIIIIIIIIIIIIIIIIIIIIIIIIIIIIIIIIIIIIIIIIIIIIIIIIIII
AAAAAAAAA11IIIIIIIIIIIIIIIIIIIIIIIIIIIIIIIIIIIIIIIIIIIIIIIIIIIII
AAAAAAAAAA11IIIIIIIIIIIIIIIIIIIIIIIIIIIIIIIIIIIIIIIIIIIIIIIIIIII
AAAAAAAAAAA11IIIIIIIIIIIIIIIIIIIIIIIIIIIIIIIIIIIIIIIIIIIIIIIIIII
AAAAAAAAAAAA11IIIIIIIIIIIIIIIIIIIIIIIIIIIIIIIIIIIIIIIIIIIIIIIIII
AAAAAAAAAAAAA11IIIIIIIIIIIIIIIIIIIIIIIIIIIIIIIIIIIIIIIIIIIIIIIII
AAAAAAAAAAAAAA11IIIIIIIIIIIIIIIIIIIIIIIIIIIIIIIIIIIIIIIIIIIIIIII
AAAAAAAAAAAAAAA11IIIIIIIIIIIIIIIIIIIIIIIIIIIIIIIIIIIIIIIIIIIIIII
AAAAAAAAAAAAAAAA11IIIIIIIIIIIIIIIIIIIIIIIIIIIIIIIIIIIIIIIIIIIIII
AAAAAAAAAAAAAAAAA11IIIIIIIIIIIIIIIIIIIIIIIIIIIIIIIIIIIIIIIIIIIII
AAAAAAAAAAAAAAAAAA11IIIIIIIIIIIIIIIIIIIIIIIIIIIIIIIIIIIIIIIIIIII
AAAAAAAAAAAAAAAAAAA11IIIIIIIIIIIIIIIIIIIIIIIIIIIIIIIIIIIIIIIIIII
AAAAAAAAAAAAAAAAAAAA11IIIIIIIIIIIIIIIIIIIIIIIIIIIIIIIIIIIIIIIIII
AAAAAAAAAAAAAAAAAAAAA11IIIIIIIIIIIIIIIIIIIIIIIIIIIIIIIIIIIIIIIII
AAAAAAAAAAAAAAAAAAAAAA11IIIIIIIIIIIIIIIIIIIIIIIIIIIIIIIIIIIIIIII
AAAAAAAAAAAAAAAAAAAAAAA11IIIIIIIIIIIIIIIIIIIIIIIIIIIIIIIIIIIIIII
AAAAAAAAAAAAAAAAAAAAAAAA11IIIIIIIIIIIIIIIIIIIIIIIIIIIIIIIIIIIIII
AAAAAAAAAAAAAAAAAAAAAAAAA11IIIIIIIIIIIIIIIIIIIIIIIIIIIIIIIIIIIII
AAAAAAAAAAAAAAAAAAAAAAAAAA11IIIIIIIIIIIIIIIIIIIIIIIIIIIIIIIIIIII
AAAAAAAAAAAAAAAAAAAAAAAAAAA11IIIIIIIIIIIIIIIIIIIIIIIIIIIIIIIIIII
AAAAAAAAAAAAAAAAAAAAAAAAAAAA11IIIIIIIIIIIIIIIIIIIIIIIIIIIIIIIIII
AAAAAAAAAAAAAAAAAAAAAAAAAAAAA11IIIIIIIIIIIIIIIIIIIIIIIIIIIIIIIII
AAAAAAAAAAAAAAAAAAAAAAAAAAAAAA11IIIIIIIIIIIIIIIIIIIIIIIIIIIIIIII
AAAAAAAAAAAAAAAAAAAAAAAAAAAAAAA11IIIIIIIIIIIIIIIIIIIIIIIIIIIIIII
AAAAAAAAAAAAAAAAAAAAAAAAAAAAAAAA11IIIIIIIIIIIIIIIIIIIIIIIIIIIIII
AAAAAAAAAAAAAAAAAAAAAAAAAAAAAAAAA11IIIIIIIIIIIIIIIIIIIIIIIIIIIII
AAAAAAAAAAAAAAAAAAAAAAAAAAAAAAAAAA11IIIIIIIIIIIIIIIIIIIIIIIIIIII
AAAAAAAAAAAAAAAAAAAAAAAAAAAAAAAAAAA11IIIIIIIIIIIIIIIIIIIIIIIIIII
AAAAAAAAAAAAAAAAAAAAAAAAAAAAAAAAAAAA11IIIIIIIIIIIIIIIIIIIIIIIIII
AAAAAAAAAAAAAAAAAAAAAAAAAAAAAAAAAAAAA11IIIIIIIIIIIIIIIIIIIIIIIII
AAAAAAAAAAAAAAAAAAAAAAAAAAAAAAAAAAAAAA11IIIIIIIIIIIIIIIIIIIIIIII
AAAAAAAAAAAAAAAAAAAAAAAAAAAAAAAAAAAAAAA11IIIIIIIIIIIIIIIIIIIIIII
AAAAAAAAAAAAAAAAAAAAAAAAAAAAAAAAAAAAAAAA11IIIIIIIIIIIIIIIIIIIIII
AAAAAAAAAAAAAAAAAAAAAAAAAAAAAAAAAAAAAAAAA11IIIIIIIIIIIIIIIIIIIII
AAAAAAAAAAAAAAAAAAAAAAAAAAAAAAAAAAAAAAAAAA11IIIIIIIIIIIIIIIIIIII
AAAAAAAAAAAAAAAAAAAAAAAAAAAAAAAAAAAAAAAAAAA11IIIIIIIIIIIIIIIIIII
AAAAAAAAAAAAAAAAAAAAAAAAAAAAAAAAAAAAAAAAAAAA11IIIIIIIIIIIIIIIIII
AAAAAAAAAAAAAAAAAAAAAAAAAAAAAAAAAAAAAAAAAAAAA11IIIIIIIIIIIIIIIII
AAAAAAAAAAAAAAAAAAAAAAAAAAAAAAAAAAAAAAAAAAAAAA11IIIIIIIIIIIIIIII
AAAAAAAAAAAAAAAAAAAAAAAAAAAAAAAAAAAAAAAAAAAAAAA11IIIIIIIIIIIIIII
AAAAAAAAAAAAAAAAAAAAAAAAAAAAAAAAAAAAAAAAAAAAAAAA11IIIIIIIIIIIIII
AAAAAAAAAAAAAAAAAAAAAAAAAAAAAAAAAAAAAAAAAAAAAAAAA11IIIIIIIIIIIII
AAAAAAAAAAAAAAAAAAAAAAAAAAAAAAAAAAAAAAAAAAAAAAAAAA11IIIIIIIIIIII
AAAAAAAAAAAAAAAAAAAAAAAAAAAAAAAAAAAAAAAAAAAAAAAAAAA11IIIIIIIIIII
AAAAAAAAAAAAAAAAAAAAAAAAAAAAAAAAAAAAAAAAAAAAAAAAAAAA11IIIIIIIIII
AAAAAAAAAAAAAAAAAAAAAAAAAAAAAAAAAAAAAAAAAAAAAAAAAAAAA11IIIIIIIII
AAAAAAAAAAAAAAAAAAAAAAAAAAAAAAAAAAAAAAAAAAAAAAAAAAAAAA11IIIIIIII
AAAAAAAAAAAAAAAAAAAAAAAAAAAAAAAAAAAAAAAAAAAAAAAAAAAAAAA11IIIIIII
AAAAAAAAAAAAAAAAAAAAAAAAAAAAAAAAAAAAAAAAAAAAAAAAAAAAAAAA11IIIIII
AAAAAAAAAAAAAAAAAAAAAAAAAAAAAAAAAAAAAAAAAAAAAAAAAAAAAAAAA11IIIII
AAAAAAAAAAAAAAAAAAAAAAAAAAAAAAAAAAAAAAAAAAAAAAAAAAAAAAAAAA11IIII
AAAAAAAAAAAAAAAAAAAAAAAAAAAAAAAAAAAAAAAAAAAAAAAAAAAAAAAAAAA11III
AAAAAAAAAAAAAAAAAAAAAAAAAAAAAAAAAAAAAAAAAAAAAAAAAAAAAAAAAAAA11II
AAAAAAAAAAAAAAAAAAAAAAAAAAAAAAAAAAAAAAAAAAAAAAAAAAAAAAAAAAAAA11I
AAAAAAAAAAAAAAAAAAAAAAAAAAAAAAAAAAAAAAAAAAAAAAAAAAAAAAAAAAAAAA11
AAAAAAAAAAAAAAAAAAAAAAAAAAAAAAAAAAAAAAAAAAAAAAAAAAAAAAAAAAAAAAA1
AAAAAAAAAAAAAAAAAAAAAAAAAAAAAAAAAAAAAAAAAAAAAAAAAAAAAAAAAAAAAAAA
A111IIIIIIIIIIIIIIIIIIIIIIIIIIIIIIIIIIIIIIIIIIIIIIIIIIIIIIIIIIII
AA111IIIIIIIIIIIIIIIIIIIIIIIIIIIIIIIIIIIIIIIIIIIIIIIIIIIIIIIIIII
AAA111IIIIIIIIIIIIIIIIIIIIIIIIIIIIIIIIIIIIIIIIIIIIIIIIIIIIIIIIII
AAAA111IIIIIIIIIIIIIIIIIIIIIIIIIIIIIIIIIIIIIIIIIIIIIIIIIIIIIIIII
AAAAA111IIIIIIIIIIIIIIIIIIIIIIIIIIIIIIIIIIIIIIIIIIIIIIIIIIIIIIII
AAAAAA111IIIIIIIIIIIIIIIIIIIIIIIIIIIIIIIIIIIIIIIIIIIIIIIIIIIIIII
AAAAAAA111IIIIIIIIIIIIIIIIIIIIIIIIIIIIIIIIIIIIIIIIIIIIIIIIIIIIII
AAAAAAAA111IIIIIIIIIIIIIIIIIIIIIIIIIIIIIIIIIIIIIIIIIIIIIIIIIIIII
AAAAAAAAA111IIIIIIIIIIIIIIIIIIIIIIIIIIIIIIIIIIIIIIIIIIIIIIIIIIII
AAAAAAAAAA111IIIIIIIIIIIIIIIIIIIIIIIIIIIIIIIIIIIIIIIIIIIIIIIIIII
AAAAAAAAAAA111IIIIIIIIIIIIIIIIIIIIIIIIIIIIIIIIIIIIIIIIIIIIIIIIII
AAAAAAAAAAAA111IIIIIIIIIIIIIIIIIIIIIIIIIIIIIIIIIIIIIIIIIIIIIIIII
AAAAAAAAAAAAA111IIIIIIIIIIIIIIIIIIIIIIIIIIIIIIIIIIIIIIIIIIIIIIII
AAAAAAAAAAAAAA111IIIIIIIIIIIIIIIIIIIIIIIIIIIIIIIIIIIIIIIIIIIIIII
AAAAAAAAAAAAAAA111IIIIIIIIIIIIIIIIIIIIIIIIIIIIIIIIIIIIIIIIIIIIII
AAAAAAAAAAAAAAAA111IIIIIIIIIIIIIIIIIIIIIIIIIIIIIIIIIIIIIIIIIIIII
AAAAAAAAAAAAAAAAA111IIIIIIIIIIIIIIIIIIIIIIIIIIIIIIIIIIIIIIIIIIII
AAAAAAAAAAAAAAAAAA111IIIIIIIIIIIIIIIIIIIIIIIIIIIIIIIIIIIIIIIIIII
AAAAAAAAAAAAAAAAAAA111IIIIIIIIIIIIIIIIIIIIIIIIIIIIIIIIIIIIIIIIII
AAAAAAAAAAAAAAAAAAAA111IIIIIIIIIIIIIIIIIIIIIIIIIIIIIIIIIIIIIIIII
AAAAAAAAAAAAAAAAAAAAA111IIIIIIIIIIIIIIIIIIIIIIIIIIIIIIIIIIIIIIII
AAAAAAAAAAAAAAAAAAAAAA111IIIIIIIIIIIIIIIIIIIIIIIIIIIIIIIIIIIIIII
AAAAAAAAAAAAAAAAAAAAAAA111IIIIIIIIIIIIIIIIIIIIIIIIIIIIIIIIIIIIII
AAAAAAAAAAAAAAAAAAAAAAAA111IIIIIIIIIIIIIIIIIIIIIIIIIIIIIIIIIIIII
AAAAAAAAAAAAAAAAAAAAAAAAA111IIIIIIIIIIIIIIIIIIIIIIIIIIIIIIIIIIII
AAAAAAAAAAAAAAAAAAAAAAAAAA111IIIIIIIIIIIIIIIIIIIIIIIIIIIIIIIIIII
AAAAAAAAAAAAAAAAAAAAAAAAAAA111IIIIIIIIIIIIIIIIIIIIIIIIIIIIIIIIII
AAAAAAAAAAAAAAAAAAAAAAAAAAAA111IIIIIIIIIIIIIIIIIIIIIIIIIIIIIIIII
AAAAAAAAAAAAAAAAAAAAAAAAAAAAA111IIIIIIIIIIIIIIIIIIIIIIIIIIIIIIII
AAAAAAAAAAAAAAAAAAAAAAAAAAAAAA111IIIIIIIIIIIIIIIIIIIIIIIIIIIIIII
AAAAAAAAAAAAAAAAAAAAAAAAAAAAAAA111IIIIIIIIIIIIIIIIIIIIIIIIIIIIII
AAAAAAAAAAAAAAAAAAAAAAAAAAAAAAAA111IIIIIIIIIIIIIIIIIIIIIIIIIIIII
AAAAAAAAAAAAAAAAAAAAAAAAAAAAAAAAA111IIIIIIIIIIIIIIIIIIIIIIIIIIII
AAAAAAAAAAAAAAAAAAAAAAAAAAAAAAAAAA111IIIIIIIIIIIIIIIIIIIIIIIIIII
AAAAAAAAAAAAAAAAAAAAAAAAAAAAAAAAAAA111IIIIIIIIIIIIIIIIIIIIIIIIII
AAAAAAAAAAAAAAAAAAAAAAAAAAAAAAAAAAAA111IIIIIIIIIIIIIIIIIIIIIIIII
AAAAAAAAAAAAAAAAAAAAAAAAAAAAAAAAAAAAA111IIIIIIIIIIIIIIIIIIIIIIII
AAAAAAAAAAAAAAAAAAAAAAAAAAAAAAAAAAAAAA111IIIIIIIIIIIIIIIIIIIIIII
AAAAAAAAAAAAAAAAAAAAAAAAAAAAAAAAAAAAAAA111IIIIIIIIIIIIIIIIIIIIII
AAAAAAAAAAAAAAAAAAAAAAAAAAAAAAAAAAAAAAAA111IIIIIIIIIIIIIIIIIIIII
AAAAAAAAAAAAAAAAAAAAAAAAAAAAAAAAAAAAAAAAA111IIIIIIIIIIIIIIIIIIII
AAAAAAAAAAAAAAAAAAAAAAAAAAAAAAAAAAAAAAAAAA111IIIIIIIIIIIIIIIIIII
AAAAAAAAAAAAAAAAAAAAAAAAAAAAAAAAAAAAAAAAAAA111IIIIIIIIIIIIIIIIII
AAAAAAAAAAAAAAAAAAAAAAAAAAAAAAAAAAAAAAAAAAAA111IIIIIIIIIIIIIIIII
AAAAAAAAAAAAAAAAAAAAAAAAAAAAAAAAAAAAAAAAAAAAA111IIIIIIIIIIIIIIII
AAAAAAAAAAAAAAAAAAAAAAAAAAAAAAAAAAAAAAAAAAAAAA111IIIIIIIIIIIIIII
AAAAAAAAAAAAAAAAAAAAAAAAAAAAAAAAAAAAAAAAAAAAAAA111IIIIIIIIIIIIII
AAAAAAAAAAAAAAAAAAAAAAAAAAAAAAAAAAAAAAAAAAAAAAAA111IIIIIIIIIIIII
AAAAAAAAAAAAAAAAAAAAAAAAAAAAAAAAAAAAAAAAAAAAAAAAA111IIIIIIIIIIII
AAAAAAAAAAAAAAAAAAAAAAAAAAAAAAAAAAAAAAAAAAAAAAAAAA111IIIIIIIIIII
AAAAAAAAAAAAAAAAAAAAAAAAAAAAAAAAAAAAAAAAAAAAAAAAAAA111IIIIIIIIII
AAAAAAAAAAAAAAAAAAAAAAAAAAAAAAAAAAAAAAAAAAAAAAAAAAAA111IIIIIIIII
AAAAAAAAAAAAAAAAAAAAAAAAAAAAAAAAAAAAAAAAAAAAAAAAAAAAA111IIIIIIII
AAAAAAAAAAAAAAAAAAAAAAAAAAAAAAAAAAAAAAAAAAAAAAAAAAAAAA111IIIIIII
AAAAAAAAAAAAAAAAAAAAAAAAAAAAAAAAAAAAAAAAAAAAAAAAAAAAAAA111IIIIII
AAAAAAAAAAAAAAAAAAAAAAAAAAAAAAAAAAAAAAAAAAAAAAAAAAAAAAAA111IIIII
AAAAAAAAAAAAAAAAAAAAAAAAAAAAAAAAAAAAAAAAAAAAAAAAAAAAAAAAA111IIII
AAAAAAAAAAAAAAAAAAAAAAAAAAAAAAAAAAAAAAAAAAAAAAAAAAAAAAAAAA111III
AAAAAAAAAAAAAAAAAAAAAAAAAAAAAAAAAAAAAAAAAAAAAAAAAAAAAAAAAAA111II
AAAAAAAAAAAAAAAAAAAAAAAAAAAAAAAAAAAAAAAAAAAAAAAAAAAAAAAAAAAA111I
AAAAAAAAAAAAAAAAAAAAAAAAAAAAAAAAAAAAAAAAAAAAAAAAAAAAAAAAAAAAA111
AAAAAAAAAAAAAAAAAAAAAAAAAAAAAAAAAAAAAAAAAAAAAAAAAAAAAAAAAAAAAA11
AAAAAAAAAAAAAAAAAAAAAAAAAAAAAAAAAAAAAAAAAAAAAAAAAAAAAAAAAAAAAAA1
AAAAAAAAAAAAAAAAAAAAAAAAAAAAAAAAAAAAAAAAAAAAAAAAAAAAAAAAAAAAAAAA
[MLOP] Prefetch Degree Mean: 2.09442
[MLOP] Prefetch Degree SD: 0.292413
[MLOP] Max Score Left Mean (%): 97.7033
[MLOP] Max Score Left SD (%): 2.28875
[MLOP] Max Score Right Mean (%): 100
[MLOP] Max Score Right SD (%): 0

DRAM Statistics
 CHANNEL 0
 RQ ROW_BUFFER_HIT:    4730609  ROW_BUFFER_MISS:   26897435
 DBUS_CONGESTED:        342
 WQ ROW_BUFFER_HIT:     695838  ROW_BUFFER_MISS:    7809648  FULL:          0

 AVG_CONGESTED_CYCLE: 5
 All warmup complete: 5
Channel 0 Bank busy for read cycles: 0
Channel 0 Bank busy for write cycles: 0
Channel 0
Rank 0
0banks busy for read cycles: 192371
0banks busy for write cycles: 0
1banks busy for read cycles: 23147642
1banks busy for write cycles: 971214
2banks busy for read cycles: 62400737
2banks busy for write cycles: 970790
3banks busy for read cycles: 93265720
3banks busy for write cycles: 970490
4banks busy for read cycles: 103449306
4banks busy for write cycles: 970268
5banks busy for read cycles: 105724324
5banks busy for write cycles: 997253
6banks busy for read cycles: 112993678
6banks busy for write cycles: 2346829
7banks busy for read cycles: 133111641
7banks busy for write cycles: 29129884
8banks busy for read cycles: 197664738
8banks busy for write cycles: 196287271

CPU 0 Branch Prediction Accuracy: 96.4959% MPKI: 9.1201 Average ROB Occupancy at Mispredict: 68.2332
Branch types
NOT_BRANCH: 147945840 73.9729%
BRANCH_DIRECT_JUMP: 0 0%
BRANCH_INDIRECT: 0 0%
BRANCH_CONDITIONAL: 52053978 26.027%
BRANCH_DIRECT_CALL: 0 0%
BRANCH_INDIRECT_CALL: 0 0%
BRANCH_RETURN: 0 0%
BRANCH_OTHER: 0 0%


CPU 1 Branch Prediction Accuracy: 98.6521% MPKI: 3.79526 Average ROB Occupancy at Mispredict: 46.5849
Branch types
NOT_BRANCH: 523881568 71.6841%
BRANCH_DIRECT_JUMP: 2785876 0.381199%
BRANCH_INDIRECT: 0 0%
BRANCH_CONDITIONAL: 204152368 27.9347%
BRANCH_DIRECT_CALL: 26 3.55765e-06%
BRANCH_INDIRECT_CALL: 0 0%
BRANCH_RETURN: 24 3.28398e-06%
BRANCH_OTHER: 0 0%


CPU 2 Branch Prediction Accuracy: 99.9449% MPKI: 0.0252268 Average ROB Occupancy at Mispredict: 171.363
Branch types
NOT_BRANCH: 1211264885 95.3941%
BRANCH_DIRECT_JUMP: 276994 0.0218149%
BRANCH_INDIRECT: 0 0%
BRANCH_CONDITIONAL: 58205677 4.58403%
BRANCH_DIRECT_CALL: 240 1.89014e-05%
BRANCH_INDIRECT_CALL: 0 0%
BRANCH_RETURN: 240 1.89014e-05%
BRANCH_OTHER: 0 0%


CPU 3 Branch Prediction Accuracy: 99.6832% MPKI: 1.01051 Average ROB Occupancy at Mispredict: 39.3831
Branch types
NOT_BRANCH: 774658912 68.0711%
BRANCH_DIRECT_JUMP: 0 0%
BRANCH_INDIRECT: 0 0%
BRANCH_CONDITIONAL: 363355033 31.9289%
BRANCH_DIRECT_CALL: 0 0%
BRANCH_INDIRECT_CALL: 0 0%
BRANCH_RETURN: 0 0%
BRANCH_OTHER: 0 0%

DRAM PAGES: 1048576
Allocated PAGES: 125973
