
*** ChampSim Multicore Out-of-Order Simulator ***

Warmup Instructions: 50000000
Simulation Instructions: 200000000
Number of CPUs: 4
LLC sets: 8192
LLC ways: 16
Off-chip DRAM Size: 4096 MB Channels: 1 Width: 64-bit Data Rate: 6400 MT/s
CPU 0 runs ./traces/spec/623.xalancbmk_s-202B.champsimtrace.xz
.xz
CPU 1 runs ./traces/spec/437.leslie3d-273B.champsimtrace.xz
.xz
CPU 2 runs ./traces/gap/bfs-14.trace.gz
.gz
CPU 3 runs ./traces/ligra/ligra_Components.com-lj.ungraph.gcc_6.3.0_O3.drop_3500M.length_250M.champsimtrace.xz
.xz
BTB has LRU replacement policy
ITLB has LRU replacement policy
DTLB has LRU replacement policy
STLB has LRU replacement policy
L1I has LRU replacement policy
L1D has LRU replacement policy
Initialize SRRIP state for L2C
Initialize DRRIP state for LLC
BTB has LRU replacement policy
ITLB has LRU replacement policy
DTLB has LRU replacement policy
STLB has LRU replacement policy
L1I has LRU replacement policy
L1D has LRU replacement policy
Initialize SRRIP state for L2C
Initialize DRRIP state for LLC
BTB has LRU replacement policy
ITLB has LRU replacement policy
DTLB has LRU replacement policy
STLB has LRU replacement policy
L1I has LRU replacement policy
L1D has LRU replacement policy
Initialize SRRIP state for L2C
Initialize DRRIP state for LLC
BTB has LRU replacement policy
ITLB has LRU replacement policy
DTLB has LRU replacement policy
STLB has LRU replacement policy
L1I has LRU replacement policy
L1D has LRU replacement policy
Initialize SRRIP state for L2C
Initialize DRRIP state for LLC
Heartbeat CPU 0 instructions: 10000001 cycles: 2830042 heartbeat IPC: 3.53352 cumulative IPC: 3.53352 (Simulation time: 0 hr 2 min 11 sec) 
Heartbeat CPU 2 instructions: 10000003 cycles: 2972663 heartbeat IPC: 3.36399 cumulative IPC: 3.36399 (Simulation time: 0 hr 2 min 18 sec) 
Heartbeat CPU 1 instructions: 10000003 cycles: 3205689 heartbeat IPC: 3.11946 cumulative IPC: 3.11946 (Simulation time: 0 hr 2 min 30 sec) 
Heartbeat CPU 3 instructions: 10000003 cycles: 3333348 heartbeat IPC: 2.99999 cumulative IPC: 2.99999 (Simulation time: 0 hr 2 min 37 sec) 
Heartbeat CPU 0 instructions: 20000002 cycles: 5665998 heartbeat IPC: 3.52615 cumulative IPC: 3.52983 (Simulation time: 0 hr 4 min 50 sec) 
Heartbeat CPU 2 instructions: 20000001 cycles: 5899726 heartbeat IPC: 3.41639 cumulative IPC: 3.38999 (Simulation time: 0 hr 5 min 4 sec) 
Heartbeat CPU 1 instructions: 20000000 cycles: 6411791 heartbeat IPC: 3.11905 cumulative IPC: 3.11925 (Simulation time: 0 hr 5 min 35 sec) 
Heartbeat CPU 3 instructions: 20000002 cycles: 6666681 heartbeat IPC: 3 cumulative IPC: 2.99999 (Simulation time: 0 hr 5 min 50 sec) 
Heartbeat CPU 0 instructions: 30000001 cycles: 8502183 heartbeat IPC: 3.52586 cumulative IPC: 3.52851 (Simulation time: 0 hr 7 min 36 sec) 
Heartbeat CPU 2 instructions: 30000003 cycles: 8808674 heartbeat IPC: 3.43767 cumulative IPC: 3.40573 (Simulation time: 0 hr 7 min 55 sec) 
Heartbeat CPU 1 instructions: 30000000 cycles: 9488451 heartbeat IPC: 3.25028 cumulative IPC: 3.16174 (Simulation time: 0 hr 8 min 40 sec) 
Heartbeat CPU 3 instructions: 30000001 cycles: 10000014 heartbeat IPC: 3 cumulative IPC: 3 (Simulation time: 0 hr 9 min 12 sec) 
Heartbeat CPU 0 instructions: 40000001 cycles: 11331662 heartbeat IPC: 3.53422 cumulative IPC: 3.52993 (Simulation time: 0 hr 10 min 31 sec) 
Heartbeat CPU 2 instructions: 40000001 cycles: 11760077 heartbeat IPC: 3.38822 cumulative IPC: 3.40134 (Simulation time: 0 hr 10 min 52 sec) 
Heartbeat CPU 1 instructions: 40000003 cycles: 12565444 heartbeat IPC: 3.24993 cumulative IPC: 3.18333 (Simulation time: 0 hr 11 min 33 sec) 
Heartbeat CPU 3 instructions: 40000001 cycles: 13333348 heartbeat IPC: 3 cumulative IPC: 3 (Simulation time: 0 hr 12 min 16 sec) 
Heartbeat CPU 0 instructions: 50000000 cycles: 14170296 heartbeat IPC: 3.52282 cumulative IPC: 3.52851 (Simulation time: 0 hr 13 min 0 sec) 
Heartbeat CPU 2 instructions: 50000002 cycles: 14878371 heartbeat IPC: 3.20688 cumulative IPC: 3.36058 (Simulation time: 0 hr 13 min 31 sec) 
Heartbeat CPU 1 instructions: 50000003 cycles: 15642457 heartbeat IPC: 3.24991 cumulative IPC: 3.19643 (Simulation time: 0 hr 14 min 6 sec) 
Heartbeat CPU 3 instructions: 50000001 cycles: 16666681 heartbeat IPC: 3 cumulative IPC: 3 (Simulation time: 0 hr 14 min 53 sec) 

Warmup complete CPU 0 instructions: 58825842 cycles: 16666681 (Simulation time: 0 hr 14 min 53 sec) 
Warmup complete CPU 1 instructions: 53329174 cycles: 16666681 (Simulation time: 0 hr 14 min 53 sec) 
Warmup complete CPU 2 instructions: 52889636 cycles: 16666681 (Simulation time: 0 hr 14 min 53 sec) 
Warmup complete CPU 3 instructions: 50000001 cycles: 16666681 (Simulation time: 0 hr 14 min 53 sec) 

Heartbeat CPU 0 instructions: 60000000 cycles: 17727891 heartbeat IPC: 2.81089 cumulative IPC: 1.10643 (Simulation time: 0 hr 15 min 22 sec) 
Heartbeat CPU 1 instructions: 60000003 cycles: 21134014 heartbeat IPC: 1.82098 cumulative IPC: 1.49325 (Simulation time: 0 hr 16 min 38 sec) 
Heartbeat CPU 3 instructions: 60000001 cycles: 25412481 heartbeat IPC: 1.14341 cumulative IPC: 1.14341 (Simulation time: 0 hr 18 min 25 sec) 
Heartbeat CPU 0 instructions: 70000000 cycles: 27539896 heartbeat IPC: 1.01916 cumulative IPC: 1.02768 (Simulation time: 0 hr 19 min 11 sec) 
Heartbeat CPU 1 instructions: 70000002 cycles: 27832255 heartbeat IPC: 1.49293 cumulative IPC: 1.49306 (Simulation time: 0 hr 19 min 17 sec) 
Heartbeat CPU 2 instructions: 60000000 cycles: 31887463 heartbeat IPC: 0.587921 cumulative IPC: 0.467148 (Simulation time: 0 hr 21 min 3 sec) 
Heartbeat CPU 3 instructions: 70000000 cycles: 34189263 heartbeat IPC: 1.13937 cumulative IPC: 1.14138 (Simulation time: 0 hr 22 min 7 sec) 
Heartbeat CPU 1 instructions: 80000000 cycles: 34497588 heartbeat IPC: 1.5003 cumulative IPC: 1.49576 (Simulation time: 0 hr 22 min 16 sec) 
Heartbeat CPU 0 instructions: 80000000 cycles: 36406979 heartbeat IPC: 1.12777 cumulative IPC: 1.07264 (Simulation time: 0 hr 23 min 10 sec) 
Heartbeat CPU 2 instructions: 70000002 cycles: 39368993 heartbeat IPC: 1.33663 cumulative IPC: 0.753684 (Simulation time: 0 hr 24 min 34 sec) 
Heartbeat CPU 1 instructions: 90000003 cycles: 40548920 heartbeat IPC: 1.65253 cumulative IPC: 1.53549 (Simulation time: 0 hr 25 min 5 sec) 
Heartbeat CPU 3 instructions: 80000000 cycles: 42955872 heartbeat IPC: 1.14069 cumulative IPC: 1.14115 (Simulation time: 0 hr 26 min 15 sec) 
Heartbeat CPU 0 instructions: 90000001 cycles: 45105551 heartbeat IPC: 1.14961 cumulative IPC: 1.09618 (Simulation time: 0 hr 27 min 15 sec) 
Heartbeat CPU 1 instructions: 100000003 cycles: 46819607 heartbeat IPC: 1.59472 cumulative IPC: 1.5478 (Simulation time: 0 hr 27 min 56 sec) 
Heartbeat CPU 3 instructions: 90000003 cycles: 51874214 heartbeat IPC: 1.12128 cumulative IPC: 1.13612 (Simulation time: 0 hr 29 min 44 sec) 
Heartbeat CPU 1 instructions: 110000000 cycles: 53457495 heartbeat IPC: 1.5065 cumulative IPC: 1.54035 (Simulation time: 0 hr 30 min 24 sec) 
Heartbeat CPU 0 instructions: 100000000 cycles: 55433121 heartbeat IPC: 0.968282 cumulative IPC: 1.06211 (Simulation time: 0 hr 31 min 10 sec) 
Heartbeat CPU 2 instructions: 80000000 cycles: 55960545 heartbeat IPC: 0.602716 cumulative IPC: 0.689939 (Simulation time: 0 hr 31 min 24 sec) 
Heartbeat CPU 1 instructions: 120000003 cycles: 60455070 heartbeat IPC: 1.42907 cumulative IPC: 1.52257 (Simulation time: 0 hr 33 min 17 sec) 
Heartbeat CPU 3 instructions: 100000002 cycles: 60772048 heartbeat IPC: 1.12387 cumulative IPC: 1.13365 (Simulation time: 0 hr 33 min 25 sec) 
Heartbeat CPU 0 instructions: 110000000 cycles: 64597393 heartbeat IPC: 1.09119 cumulative IPC: 1.06767 (Simulation time: 0 hr 34 min 56 sec) 
Heartbeat CPU 1 instructions: 130000000 cycles: 67436856 heartbeat IPC: 1.4323 cumulative IPC: 1.51015 (Simulation time: 0 hr 36 min 9 sec) 
Heartbeat CPU 3 instructions: 110000000 cycles: 69705748 heartbeat IPC: 1.11936 cumulative IPC: 1.13124 (Simulation time: 0 hr 37 min 0 sec) 
Heartbeat CPU 0 instructions: 120000002 cycles: 74182344 heartbeat IPC: 1.0433 cumulative IPC: 1.06361 (Simulation time: 0 hr 38 min 51 sec) 
Heartbeat CPU 1 instructions: 140000000 cycles: 74482091 heartbeat IPC: 1.4194 cumulative IPC: 1.4991 (Simulation time: 0 hr 38 min 59 sec) 
Heartbeat CPU 3 instructions: 120000002 cycles: 78746598 heartbeat IPC: 1.10609 cumulative IPC: 1.12758 (Simulation time: 0 hr 40 min 33 sec) 
Heartbeat CPU 1 instructions: 150000002 cycles: 81493036 heartbeat IPC: 1.42634 cumulative IPC: 1.49123 (Simulation time: 0 hr 41 min 32 sec) 
Heartbeat CPU 0 instructions: 130000002 cycles: 83827777 heartbeat IPC: 1.03676 cumulative IPC: 1.05975 (Simulation time: 0 hr 42 min 31 sec) 
Heartbeat CPU 3 instructions: 130000001 cycles: 87604392 heartbeat IPC: 1.12895 cumulative IPC: 1.12775 (Simulation time: 0 hr 43 min 58 sec) 
Heartbeat CPU 2 instructions: 90000000 cycles: 88041590 heartbeat IPC: 0.311711 cumulative IPC: 0.519936 (Simulation time: 0 hr 44 min 9 sec) 
Heartbeat CPU 1 instructions: 160000000 cycles: 88315487 heartbeat IPC: 1.46575 cumulative IPC: 1.4888 (Simulation time: 0 hr 44 min 17 sec) 
Heartbeat CPU 0 instructions: 140000001 cycles: 92846937 heartbeat IPC: 1.10875 cumulative IPC: 1.06555 (Simulation time: 0 hr 46 min 10 sec) 
Heartbeat CPU 1 instructions: 170000002 cycles: 95057989 heartbeat IPC: 1.48313 cumulative IPC: 1.48831 (Simulation time: 0 hr 47 min 9 sec) 
Heartbeat CPU 3 instructions: 140000000 cycles: 96473255 heartbeat IPC: 1.12754 cumulative IPC: 1.12773 (Simulation time: 0 hr 47 min 44 sec) 
Heartbeat CPU 1 instructions: 180000000 cycles: 101845477 heartbeat IPC: 1.4733 cumulative IPC: 1.48712 (Simulation time: 0 hr 49 min 55 sec) 
Heartbeat CPU 0 instructions: 150000001 cycles: 102093971 heartbeat IPC: 1.08143 cumulative IPC: 1.06727 (Simulation time: 0 hr 50 min 1 sec) 
Heartbeat CPU 3 instructions: 150000002 cycles: 105299623 heartbeat IPC: 1.13297 cumulative IPC: 1.12825 (Simulation time: 0 hr 51 min 22 sec) 
Heartbeat CPU 1 instructions: 190000000 cycles: 108500738 heartbeat IPC: 1.50257 cumulative IPC: 1.48824 (Simulation time: 0 hr 52 min 43 sec) 
Heartbeat CPU 0 instructions: 160000000 cycles: 111147872 heartbeat IPC: 1.1045 cumulative IPC: 1.07084 (Simulation time: 0 hr 53 min 49 sec) 
Heartbeat CPU 3 instructions: 160000000 cycles: 114144621 heartbeat IPC: 1.13058 cumulative IPC: 1.12846 (Simulation time: 0 hr 54 min 54 sec) 
Heartbeat CPU 1 instructions: 200000001 cycles: 115202369 heartbeat IPC: 1.49217 cumulative IPC: 1.4885 (Simulation time: 0 hr 55 min 20 sec) 
Heartbeat CPU 0 instructions: 170000002 cycles: 120416910 heartbeat IPC: 1.07886 cumulative IPC: 1.07156 (Simulation time: 0 hr 57 min 18 sec) 
Heartbeat CPU 1 instructions: 210000000 cycles: 121876986 heartbeat IPC: 1.49821 cumulative IPC: 1.48912 (Simulation time: 0 hr 57 min 50 sec) 
Heartbeat CPU 3 instructions: 170000001 cycles: 122882118 heartbeat IPC: 1.14449 cumulative IPC: 1.12978 (Simulation time: 0 hr 58 min 13 sec) 
Heartbeat CPU 1 instructions: 220000000 cycles: 128697914 heartbeat IPC: 1.46608 cumulative IPC: 1.48772 (Simulation time: 1 hr 0 min 33 sec) 
Heartbeat CPU 0 instructions: 180000001 cycles: 130170201 heartbeat IPC: 1.02529 cumulative IPC: 1.06758 (Simulation time: 1 hr 1 min 7 sec) 
Heartbeat CPU 2 instructions: 100000002 cycles: 131005588 heartbeat IPC: 0.232753 cumulative IPC: 0.412024 (Simulation time: 1 hr 1 min 26 sec) 
Heartbeat CPU 3 instructions: 180000000 cycles: 131756776 heartbeat IPC: 1.1268 cumulative IPC: 1.12955 (Simulation time: 1 hr 1 min 43 sec) 
Heartbeat CPU 1 instructions: 230000003 cycles: 135396133 heartbeat IPC: 1.49293 cumulative IPC: 1.48801 (Simulation time: 1 hr 3 min 6 sec) 
Heartbeat CPU 0 instructions: 190000002 cycles: 139968650 heartbeat IPC: 1.02057 cumulative IPC: 1.06384 (Simulation time: 1 hr 4 min 45 sec) 
Heartbeat CPU 3 instructions: 190000000 cycles: 140644269 heartbeat IPC: 1.12518 cumulative IPC: 1.12924 (Simulation time: 1 hr 4 min 59 sec) 
Heartbeat CPU 1 instructions: 240000002 cycles: 142089674 heartbeat IPC: 1.49398 cumulative IPC: 1.48833 (Simulation time: 1 hr 5 min 31 sec) 
Heartbeat CPU 1 instructions: 250000000 cycles: 148680196 heartbeat IPC: 1.51733 cumulative IPC: 1.48978 (Simulation time: 1 hr 8 min 6 sec) 
Heartbeat CPU 0 instructions: 200000002 cycles: 148767773 heartbeat IPC: 1.13648 cumulative IPC: 1.06868 (Simulation time: 1 hr 8 min 8 sec) 
Heartbeat CPU 3 instructions: 200000002 cycles: 149522449 heartbeat IPC: 1.12636 cumulative IPC: 1.12904 (Simulation time: 1 hr 8 min 25 sec) 
Finished CPU 1 instructions: 200000000 cycles: 134232181 cumulative IPC: 1.48996 (Simulation time: 1 hr 8 min 56 sec) 
Heartbeat CPU 1 instructions: 260000002 cycles: 155305358 heartbeat IPC: 1.5094 cumulative IPC: 1.49072 (Simulation time: 1 hr 10 min 35 sec) 
Heartbeat CPU 3 instructions: 210000000 cycles: 158382297 heartbeat IPC: 1.12869 cumulative IPC: 1.12902 (Simulation time: 1 hr 11 min 46 sec) 
Heartbeat CPU 0 instructions: 210000003 cycles: 158410491 heartbeat IPC: 1.03705 cumulative IPC: 1.06653 (Simulation time: 1 hr 11 min 47 sec) 
Heartbeat CPU 1 instructions: 270000000 cycles: 161882165 heartbeat IPC: 1.52049 cumulative IPC: 1.49206 (Simulation time: 1 hr 13 min 3 sec) 
Heartbeat CPU 3 instructions: 220000000 cycles: 167333035 heartbeat IPC: 1.11723 cumulative IPC: 1.12832 (Simulation time: 1 hr 15 min 8 sec) 
Heartbeat CPU 0 instructions: 220000000 cycles: 167763070 heartbeat IPC: 1.06922 cumulative IPC: 1.0667 (Simulation time: 1 hr 15 min 17 sec) 
Heartbeat CPU 1 instructions: 280000001 cycles: 168395231 heartbeat IPC: 1.53538 cumulative IPC: 1.49392 (Simulation time: 1 hr 15 min 29 sec) 
Heartbeat CPU 2 instructions: 110000000 cycles: 173846416 heartbeat IPC: 0.233422 cumulative IPC: 0.363344 (Simulation time: 1 hr 17 min 36 sec) 
Heartbeat CPU 1 instructions: 290000002 cycles: 174892218 heartbeat IPC: 1.53918 cumulative IPC: 1.49578 (Simulation time: 1 hr 18 min 2 sec) 
Heartbeat CPU 3 instructions: 230000002 cycles: 176178918 heartbeat IPC: 1.13047 cumulative IPC: 1.12844 (Simulation time: 1 hr 18 min 32 sec) 
Heartbeat CPU 0 instructions: 230000001 cycles: 176907949 heartbeat IPC: 1.09351 cumulative IPC: 1.06823 (Simulation time: 1 hr 18 min 49 sec) 
Heartbeat CPU 1 instructions: 300000002 cycles: 182384843 heartbeat IPC: 1.33465 cumulative IPC: 1.4885 (Simulation time: 1 hr 20 min 52 sec) 
Heartbeat CPU 3 instructions: 240000000 cycles: 185003203 heartbeat IPC: 1.13324 cumulative IPC: 1.12869 (Simulation time: 1 hr 21 min 50 sec) 
Heartbeat CPU 0 instructions: 240000003 cycles: 186615898 heartbeat IPC: 1.03008 cumulative IPC: 1.06605 (Simulation time: 1 hr 22 min 22 sec) 
Heartbeat CPU 1 instructions: 310000001 cycles: 190238736 heartbeat IPC: 1.27325 cumulative IPC: 1.47876 (Simulation time: 1 hr 23 min 32 sec) 
*** Reached end of trace for Core: 3 Repeating trace: ./traces/ligra/ligra_Components.com-lj.ungraph.gcc_6.3.0_O3.drop_3500M.length_250M.champsimtrace.xz
Heartbeat CPU 3 instructions: 250000001 cycles: 193817988 heartbeat IPC: 1.13446 cumulative IPC: 1.12898 (Simulation time: 1 hr 24 min 50 sec) 
Finished CPU 3 instructions: 200000000 cycles: 177151307 cumulative IPC: 1.12898 (Simulation time: 1 hr 24 min 50 sec) 
Heartbeat CPU 0 instructions: 250000001 cycles: 196826768 heartbeat IPC: 0.979348 cumulative IPC: 1.06113 (Simulation time: 1 hr 25 min 51 sec) 
Heartbeat CPU 1 instructions: 320000003 cycles: 198072395 heartbeat IPC: 1.27654 cumulative IPC: 1.47002 (Simulation time: 1 hr 26 min 14 sec) 
Heartbeat CPU 3 instructions: 260000000 cycles: 202548995 heartbeat IPC: 1.14534 cumulative IPC: 1.12975 (Simulation time: 1 hr 27 min 44 sec) 
Heartbeat CPU 1 instructions: 330000000 cycles: 206032894 heartbeat IPC: 1.2562 cumulative IPC: 1.46104 (Simulation time: 1 hr 28 min 58 sec) 
Finished CPU 0 instructions: 200000000 cycles: 189410614 cumulative IPC: 1.05591 (Simulation time: 1 hr 28 min 59 sec) 
Heartbeat CPU 0 instructions: 260000003 cycles: 207364312 heartbeat IPC: 0.948988 cumulative IPC: 1.05494 (Simulation time: 1 hr 29 min 28 sec) 
Heartbeat CPU 3 instructions: 270000001 cycles: 211331215 heartbeat IPC: 1.13866 cumulative IPC: 1.13015 (Simulation time: 1 hr 30 min 54 sec) 
Heartbeat CPU 1 instructions: 340000003 cycles: 213902472 heartbeat IPC: 1.27072 cumulative IPC: 1.45344 (Simulation time: 1 hr 31 min 47 sec) 
Heartbeat CPU 0 instructions: 270000000 cycles: 217483473 heartbeat IPC: 0.988224 cumulative IPC: 1.05158 (Simulation time: 1 hr 33 min 0 sec) 
Heartbeat CPU 3 instructions: 280000003 cycles: 220125009 heartbeat IPC: 1.13717 cumulative IPC: 1.13045 (Simulation time: 1 hr 33 min 54 sec) 
Heartbeat CPU 2 instructions: 120000000 cycles: 220985369 heartbeat IPC: 0.212139 cumulative IPC: 0.328459 (Simulation time: 1 hr 34 min 15 sec) 
Heartbeat CPU 1 instructions: 350000000 cycles: 221279982 heartbeat IPC: 1.35547 cumulative IPC: 1.44991 (Simulation time: 1 hr 34 min 23 sec) 
Heartbeat CPU 0 instructions: 280000002 cycles: 227736811 heartbeat IPC: 0.975292 cumulative IPC: 1.04787 (Simulation time: 1 hr 36 min 43 sec) 
Heartbeat CPU 1 instructions: 360000002 cycles: 228282628 heartbeat IPC: 1.42803 cumulative IPC: 1.44919 (Simulation time: 1 hr 36 min 55 sec) 
Heartbeat CPU 3 instructions: 290000000 cycles: 228951736 heartbeat IPC: 1.13292 cumulative IPC: 1.13056 (Simulation time: 1 hr 37 min 10 sec) 
Heartbeat CPU 1 instructions: 370000002 cycles: 234852491 heartbeat IPC: 1.5221 cumulative IPC: 1.45138 (Simulation time: 1 hr 39 min 21 sec) 
Heartbeat CPU 3 instructions: 300000001 cycles: 237813459 heartbeat IPC: 1.12845 cumulative IPC: 1.13047 (Simulation time: 1 hr 40 min 27 sec) 
Heartbeat CPU 0 instructions: 290000003 cycles: 238985651 heartbeat IPC: 0.888981 cumulative IPC: 1.03983 (Simulation time: 1 hr 40 min 54 sec) 
Heartbeat CPU 1 instructions: 380000003 cycles: 241741379 heartbeat IPC: 1.45161 cumulative IPC: 1.45139 (Simulation time: 1 hr 41 min 58 sec) 
Heartbeat CPU 3 instructions: 310000001 cycles: 246607515 heartbeat IPC: 1.13713 cumulative IPC: 1.13073 (Simulation time: 1 hr 43 min 54 sec) 
Heartbeat CPU 1 instructions: 390000000 cycles: 248600388 heartbeat IPC: 1.45794 cumulative IPC: 1.45158 (Simulation time: 1 hr 44 min 37 sec) 
Heartbeat CPU 0 instructions: 300000000 cycles: 249962414 heartbeat IPC: 0.911015 cumulative IPC: 1.03377 (Simulation time: 1 hr 45 min 10 sec) 
Heartbeat CPU 3 instructions: 320000003 cycles: 255450694 heartbeat IPC: 1.13082 cumulative IPC: 1.13073 (Simulation time: 1 hr 47 min 19 sec) 
Heartbeat CPU 1 instructions: 400000000 cycles: 255533355 heartbeat IPC: 1.44238 cumulative IPC: 1.45132 (Simulation time: 1 hr 47 min 21 sec) 
Heartbeat CPU 2 instructions: 130000001 cycles: 256436738 heartbeat IPC: 0.282077 cumulative IPC: 0.321601 (Simulation time: 1 hr 47 min 40 sec) 
Heartbeat CPU 0 instructions: 310000000 cycles: 259621664 heartbeat IPC: 1.03528 cumulative IPC: 1.03383 (Simulation time: 1 hr 48 min 56 sec) 
Heartbeat CPU 1 instructions: 410000001 cycles: 262302394 heartbeat IPC: 1.47731 cumulative IPC: 1.45203 (Simulation time: 1 hr 49 min 59 sec) 
Heartbeat CPU 3 instructions: 330000000 cycles: 264125060 heartbeat IPC: 1.15282 cumulative IPC: 1.1315 (Simulation time: 1 hr 50 min 42 sec) 
Heartbeat CPU 0 instructions: 320000003 cycles: 268458363 heartbeat IPC: 1.13164 cumulative IPC: 1.03726 (Simulation time: 1 hr 52 min 38 sec) 
Heartbeat CPU 2 instructions: 140000002 cycles: 268659707 heartbeat IPC: 0.818132 cumulative IPC: 0.345686 (Simulation time: 1 hr 52 min 44 sec) 
Heartbeat CPU 1 instructions: 420000002 cycles: 268981063 heartbeat IPC: 1.4973 cumulative IPC: 1.45323 (Simulation time: 1 hr 52 min 52 sec) 
Heartbeat CPU 3 instructions: 340000001 cycles: 272830530 heartbeat IPC: 1.1487 cumulative IPC: 1.13209 (Simulation time: 1 hr 54 min 40 sec) 
Heartbeat CPU 1 instructions: 430000002 cycles: 275729256 heartbeat IPC: 1.48188 cumulative IPC: 1.45398 (Simulation time: 1 hr 56 min 4 sec) 
Heartbeat CPU 0 instructions: 330000000 cycles: 277503971 heartbeat IPC: 1.10551 cumulative IPC: 1.03963 (Simulation time: 1 hr 56 min 46 sec) 
Heartbeat CPU 2 instructions: 150000000 cycles: 277677961 heartbeat IPC: 1.10886 cumulative IPC: 0.372054 (Simulation time: 1 hr 56 min 50 sec) 
Heartbeat CPU 3 instructions: 350000002 cycles: 281527527 heartbeat IPC: 1.14982 cumulative IPC: 1.13267 (Simulation time: 1 hr 58 min 26 sec) 
Heartbeat CPU 1 instructions: 440000000 cycles: 282565844 heartbeat IPC: 1.46272 cumulative IPC: 1.4542 (Simulation time: 1 hr 58 min 53 sec) 
Heartbeat CPU 0 instructions: 340000003 cycles: 286575621 heartbeat IPC: 1.10234 cumulative IPC: 1.04174 (Simulation time: 2 hr 0 min 29 sec) 
Heartbeat CPU 1 instructions: 450000002 cycles: 289344963 heartbeat IPC: 1.47512 cumulative IPC: 1.45472 (Simulation time: 2 hr 1 min 39 sec) 
Heartbeat CPU 3 instructions: 360000000 cycles: 290250527 heartbeat IPC: 1.14639 cumulative IPC: 1.13311 (Simulation time: 2 hr 2 min 0 sec) 
Heartbeat CPU 0 instructions: 350000002 cycles: 295577416 heartbeat IPC: 1.11089 cumulative IPC: 1.04397 (Simulation time: 2 hr 4 min 8 sec) 
Heartbeat CPU 1 instructions: 460000000 cycles: 296102000 heartbeat IPC: 1.47994 cumulative IPC: 1.45533 (Simulation time: 2 hr 4 min 22 sec) 
Heartbeat CPU 2 instructions: 160000000 cycles: 296367126 heartbeat IPC: 0.535069 cumulative IPC: 0.382947 (Simulation time: 2 hr 4 min 27 sec) 
Heartbeat CPU 3 instructions: 370000001 cycles: 299032230 heartbeat IPC: 1.13873 cumulative IPC: 1.13328 (Simulation time: 2 hr 5 min 30 sec) 
Heartbeat CPU 1 instructions: 470000001 cycles: 303260815 heartbeat IPC: 1.39688 cumulative IPC: 1.45387 (Simulation time: 2 hr 7 min 0 sec) 
Heartbeat CPU 0 instructions: 360000003 cycles: 304553414 heartbeat IPC: 1.11408 cumulative IPC: 1.04616 (Simulation time: 2 hr 7 min 27 sec) 
Heartbeat CPU 3 instructions: 380000003 cycles: 307854812 heartbeat IPC: 1.13346 cumulative IPC: 1.13329 (Simulation time: 2 hr 8 min 41 sec) 
Heartbeat CPU 1 instructions: 480000003 cycles: 310035762 heartbeat IPC: 1.47603 cumulative IPC: 1.45438 (Simulation time: 2 hr 9 min 26 sec) 
Heartbeat CPU 0 instructions: 370000002 cycles: 313407145 heartbeat IPC: 1.12947 cumulative IPC: 1.04864 (Simulation time: 2 hr 10 min 43 sec) 
Heartbeat CPU 3 instructions: 390000001 cycles: 316595958 heartbeat IPC: 1.14401 cumulative IPC: 1.1336 (Simulation time: 2 hr 11 min 55 sec) 
Heartbeat CPU 1 instructions: 490000000 cycles: 316865115 heartbeat IPC: 1.46427 cumulative IPC: 1.45461 (Simulation time: 2 hr 12 min 1 sec) 
Heartbeat CPU 0 instructions: 380000000 cycles: 322099267 heartbeat IPC: 1.15047 cumulative IPC: 1.05154 (Simulation time: 2 hr 14 min 0 sec) 
Heartbeat CPU 1 instructions: 500000001 cycles: 323709638 heartbeat IPC: 1.46102 cumulative IPC: 1.45475 (Simulation time: 2 hr 14 min 40 sec) 
Heartbeat CPU 3 instructions: 400000002 cycles: 325326534 heartbeat IPC: 1.1454 cumulative IPC: 1.13393 (Simulation time: 2 hr 15 min 16 sec) 
Heartbeat CPU 1 instructions: 510000002 cycles: 330472231 heartbeat IPC: 1.47872 cumulative IPC: 1.45527 (Simulation time: 2 hr 17 min 7 sec) 
Heartbeat CPU 0 instructions: 390000000 cycles: 331253637 heartbeat IPC: 1.09237 cumulative IPC: 1.05273 (Simulation time: 2 hr 17 min 25 sec) 
Heartbeat CPU 3 instructions: 410000000 cycles: 334064427 heartbeat IPC: 1.14444 cumulative IPC: 1.13422 (Simulation time: 2 hr 18 min 25 sec) 
Heartbeat CPU 1 instructions: 520000001 cycles: 337304308 heartbeat IPC: 1.46368 cumulative IPC: 1.45545 (Simulation time: 2 hr 19 min 33 sec) 
Heartbeat CPU 2 instructions: 170000000 cycles: 337327234 heartbeat IPC: 0.24414 cumulative IPC: 0.365216 (Simulation time: 2 hr 19 min 34 sec) 
Heartbeat CPU 0 instructions: 400000000 cycles: 341044787 heartbeat IPC: 1.02133 cumulative IPC: 1.05178 (Simulation time: 2 hr 20 min 53 sec) 
Heartbeat CPU 3 instructions: 420000000 cycles: 342701302 heartbeat IPC: 1.15783 cumulative IPC: 1.13485 (Simulation time: 2 hr 21 min 27 sec) 
Heartbeat CPU 1 instructions: 530000002 cycles: 344011230 heartbeat IPC: 1.491 cumulative IPC: 1.45617 (Simulation time: 2 hr 21 min 52 sec) 
Heartbeat CPU 0 instructions: 410000003 cycles: 350217984 heartbeat IPC: 1.09013 cumulative IPC: 1.05283 (Simulation time: 2 hr 24 min 15 sec) 
Heartbeat CPU 1 instructions: 540000003 cycles: 350810253 heartbeat IPC: 1.4708 cumulative IPC: 1.45647 (Simulation time: 2 hr 24 min 28 sec) 
Heartbeat CPU 3 instructions: 430000000 cycles: 351434108 heartbeat IPC: 1.14511 cumulative IPC: 1.13512 (Simulation time: 2 hr 24 min 42 sec) 
Heartbeat CPU 1 instructions: 550000000 cycles: 357646738 heartbeat IPC: 1.46274 cumulative IPC: 1.4566 (Simulation time: 2 hr 27 min 4 sec) 
Heartbeat CPU 0 instructions: 420000000 cycles: 359838959 heartbeat IPC: 1.0394 cumulative IPC: 1.05246 (Simulation time: 2 hr 27 min 50 sec) 
Heartbeat CPU 3 instructions: 440000000 cycles: 360214549 heartbeat IPC: 1.13889 cumulative IPC: 1.13521 (Simulation time: 2 hr 27 min 57 sec) 
Heartbeat CPU 1 instructions: 560000001 cycles: 367374154 heartbeat IPC: 1.02802 cumulative IPC: 1.44471 (Simulation time: 2 hr 30 min 13 sec) 
Heartbeat CPU 3 instructions: 450000001 cycles: 369062750 heartbeat IPC: 1.13017 cumulative IPC: 1.13509 (Simulation time: 2 hr 30 min 42 sec) 
Heartbeat CPU 0 instructions: 430000002 cycles: 370344166 heartbeat IPC: 0.951909 cumulative IPC: 1.04947 (Simulation time: 2 hr 31 min 6 sec) 
Heartbeat CPU 3 instructions: 460000000 cycles: 377895176 heartbeat IPC: 1.13219 cumulative IPC: 1.13502 (Simulation time: 2 hr 33 min 30 sec) 
Heartbeat CPU 1 instructions: 570000003 cycles: 378158141 heartbeat IPC: 0.927301 cumulative IPC: 1.42928 (Simulation time: 2 hr 33 min 35 sec) 
Heartbeat CPU 0 instructions: 440000000 cycles: 380819153 heartbeat IPC: 0.954655 cumulative IPC: 1.04674 (Simulation time: 2 hr 34 min 26 sec) 
Heartbeat CPU 2 instructions: 180000000 cycles: 381626603 heartbeat IPC: 0.225737 cumulative IPC: 0.348286 (Simulation time: 2 hr 34 min 42 sec) 
Heartbeat CPU 3 instructions: 470000000 cycles: 386796527 heartbeat IPC: 1.12343 cumulative IPC: 1.13474 (Simulation time: 2 hr 36 min 16 sec) 
Heartbeat CPU 1 instructions: 580000000 cycles: 388995892 heartbeat IPC: 0.9227 cumulative IPC: 1.41453 (Simulation time: 2 hr 36 min 56 sec) 
Heartbeat CPU 0 instructions: 450000003 cycles: 391399963 heartbeat IPC: 0.945108 cumulative IPC: 1.04387 (Simulation time: 2 hr 37 min 36 sec) 
Heartbeat CPU 3 instructions: 480000000 cycles: 395607423 heartbeat IPC: 1.13496 cumulative IPC: 1.13474 (Simulation time: 2 hr 38 min 52 sec) 
Heartbeat CPU 1 instructions: 590000001 cycles: 399892710 heartbeat IPC: 0.917699 cumulative IPC: 1.4004 (Simulation time: 2 hr 40 min 15 sec) 
Heartbeat CPU 0 instructions: 460000002 cycles: 402078729 heartbeat IPC: 0.936438 cumulative IPC: 1.0409 (Simulation time: 2 hr 40 min 53 sec) 
Heartbeat CPU 3 instructions: 490000000 cycles: 404395356 heartbeat IPC: 1.13792 cumulative IPC: 1.13481 (Simulation time: 2 hr 41 min 32 sec) 
Heartbeat CPU 1 instructions: 600000003 cycles: 412842795 heartbeat IPC: 0.772196 cumulative IPC: 1.37987 (Simulation time: 2 hr 44 min 2 sec) 
*** Reached end of trace for Core: 3 Repeating trace: ./traces/ligra/ligra_Components.com-lj.ungraph.gcc_6.3.0_O3.drop_3500M.length_250M.champsimtrace.xz
Heartbeat CPU 3 instructions: 500000001 cycles: 413166597 heartbeat IPC: 1.14009 cumulative IPC: 1.13493 (Simulation time: 2 hr 44 min 9 sec) 
Heartbeat CPU 0 instructions: 470000002 cycles: 413181703 heartbeat IPC: 0.90066 cumulative IPC: 1.03697 (Simulation time: 2 hr 44 min 9 sec) 
Heartbeat CPU 1 instructions: 610000003 cycles: 419579171 heartbeat IPC: 1.48448 cumulative IPC: 1.38162 (Simulation time: 2 hr 46 min 16 sec) 
Heartbeat CPU 3 instructions: 510000000 cycles: 422299671 heartbeat IPC: 1.09492 cumulative IPC: 1.13403 (Simulation time: 2 hr 47 min 11 sec) 
Heartbeat CPU 0 instructions: 480000002 cycles: 424481883 heartbeat IPC: 0.884942 cumulative IPC: 1.03276 (Simulation time: 2 hr 47 min 59 sec) 
Heartbeat CPU 1 instructions: 620000000 cycles: 425720877 heartbeat IPC: 1.62821 cumulative IPC: 1.38532 (Simulation time: 2 hr 48 min 27 sec) 
Heartbeat CPU 3 instructions: 520000001 cycles: 431055760 heartbeat IPC: 1.14206 cumulative IPC: 1.1342 (Simulation time: 2 hr 50 min 23 sec) 
Heartbeat CPU 1 instructions: 630000002 cycles: 431458410 heartbeat IPC: 1.74291 cumulative IPC: 1.39027 (Simulation time: 2 hr 50 min 31 sec) 
Heartbeat CPU 2 instructions: 190000003 cycles: 432005909 heartbeat IPC: 0.198494 cumulative IPC: 0.330117 (Simulation time: 2 hr 50 min 43 sec) 
Heartbeat CPU 0 instructions: 490000003 cycles: 435966608 heartbeat IPC: 0.870722 cumulative IPC: 1.02832 (Simulation time: 2 hr 52 min 0 sec) 
Heartbeat CPU 1 instructions: 640000003 cycles: 437196618 heartbeat IPC: 1.7427 cumulative IPC: 1.39508 (Simulation time: 2 hr 52 min 28 sec) 
Heartbeat CPU 3 instructions: 530000003 cycles: 439770355 heartbeat IPC: 1.1475 cumulative IPC: 1.13447 (Simulation time: 2 hr 53 min 24 sec) 
Heartbeat CPU 1 instructions: 650000001 cycles: 442920385 heartbeat IPC: 1.7471 cumulative IPC: 1.3998 (Simulation time: 2 hr 54 min 32 sec) 
Heartbeat CPU 0 instructions: 500000002 cycles: 447384370 heartbeat IPC: 0.875828 cumulative IPC: 1.02428 (Simulation time: 2 hr 56 min 8 sec) 
Heartbeat CPU 3 instructions: 540000000 cycles: 448485386 heartbeat IPC: 1.14744 cumulative IPC: 1.13474 (Simulation time: 2 hr 56 min 32 sec) 
Heartbeat CPU 1 instructions: 660000000 cycles: 448641386 heartbeat IPC: 1.74795 cumulative IPC: 1.40441 (Simulation time: 2 hr 56 min 36 sec) 
Heartbeat CPU 1 instructions: 670000003 cycles: 454361659 heartbeat IPC: 1.74817 cumulative IPC: 1.40891 (Simulation time: 2 hr 58 min 37 sec) 
Heartbeat CPU 3 instructions: 550000000 cycles: 457197209 heartbeat IPC: 1.14787 cumulative IPC: 1.135 (Simulation time: 2 hr 59 min 38 sec) 
Heartbeat CPU 0 instructions: 510000001 cycles: 458891722 heartbeat IPC: 0.86901 cumulative IPC: 1.02024 (Simulation time: 3 hr 0 min 16 sec) 
Heartbeat CPU 1 instructions: 680000000 cycles: 460081820 heartbeat IPC: 1.7482 cumulative IPC: 1.41328 (Simulation time: 3 hr 0 min 41 sec) 
Heartbeat CPU 3 instructions: 560000003 cycles: 465936226 heartbeat IPC: 1.14429 cumulative IPC: 1.13518 (Simulation time: 3 hr 2 min 42 sec) 
Heartbeat CPU 1 instructions: 690000001 cycles: 466580435 heartbeat IPC: 1.53879 cumulative IPC: 1.4151 (Simulation time: 3 hr 2 min 55 sec) 
Heartbeat CPU 0 instructions: 520000000 cycles: 470630509 heartbeat IPC: 0.851877 cumulative IPC: 1.01588 (Simulation time: 3 hr 4 min 13 sec) 
Heartbeat CPU 1 instructions: 700000001 cycles: 472883952 heartbeat IPC: 1.58642 cumulative IPC: 1.41746 (Simulation time: 3 hr 4 min 58 sec) 
Heartbeat CPU 2 instructions: 200000002 cycles: 474198800 heartbeat IPC: 0.237007 cumulative IPC: 0.32153 (Simulation time: 3 hr 5 min 28 sec) 
Heartbeat CPU 3 instructions: 570000000 cycles: 474723220 heartbeat IPC: 1.13805 cumulative IPC: 1.13523 (Simulation time: 3 hr 5 min 39 sec) 
Heartbeat CPU 1 instructions: 710000003 cycles: 478811469 heartbeat IPC: 1.68705 cumulative IPC: 1.42092 (Simulation time: 3 hr 7 min 5 sec) 
Heartbeat CPU 0 instructions: 530000002 cycles: 482759211 heartbeat IPC: 0.824491 cumulative IPC: 1.0109 (Simulation time: 3 hr 8 min 32 sec) 
Heartbeat CPU 3 instructions: 580000000 cycles: 483548197 heartbeat IPC: 1.13315 cumulative IPC: 1.13519 (Simulation time: 3 hr 8 min 50 sec) 
Heartbeat CPU 1 instructions: 720000003 cycles: 485564511 heartbeat IPC: 1.48081 cumulative IPC: 1.42178 (Simulation time: 3 hr 9 min 33 sec) 
Heartbeat CPU 1 instructions: 730000000 cycles: 492280660 heartbeat IPC: 1.48895 cumulative IPC: 1.42273 (Simulation time: 3 hr 12 min 2 sec) 
Heartbeat CPU 3 instructions: 590000003 cycles: 492401693 heartbeat IPC: 1.1295 cumulative IPC: 1.13509 (Simulation time: 3 hr 12 min 4 sec) 
Heartbeat CPU 2 instructions: 210000001 cycles: 494752837 heartbeat IPC: 0.486522 cumulative IPC: 0.328624 (Simulation time: 3 hr 13 min 8 sec) 
Heartbeat CPU 0 instructions: 540000000 cycles: 494914582 heartbeat IPC: 0.822681 cumulative IPC: 1.00612 (Simulation time: 3 hr 13 min 12 sec) 
Heartbeat CPU 1 instructions: 740000002 cycles: 498892017 heartbeat IPC: 1.51255 cumulative IPC: 1.42396 (Simulation time: 3 hr 14 min 55 sec) 
Heartbeat CPU 3 instructions: 600000002 cycles: 501123964 heartbeat IPC: 1.14649 cumulative IPC: 1.13529 (Simulation time: 3 hr 15 min 52 sec) 
Heartbeat CPU 2 instructions: 220000000 cycles: 503362660 heartbeat IPC: 1.16146 cumulative IPC: 0.343357 (Simulation time: 3 hr 16 min 49 sec) 
Heartbeat CPU 1 instructions: 750000001 cycles: 505581443 heartbeat IPC: 1.4949 cumulative IPC: 1.42493 (Simulation time: 3 hr 17 min 47 sec) 
Heartbeat CPU 0 instructions: 550000000 cycles: 507104895 heartbeat IPC: 0.820323 cumulative IPC: 1.0015 (Simulation time: 3 hr 18 min 28 sec) 
Heartbeat CPU 3 instructions: 610000003 cycles: 509896817 heartbeat IPC: 1.13988 cumulative IPC: 1.13537 (Simulation time: 3 hr 19 min 34 sec) 
Heartbeat CPU 1 instructions: 760000003 cycles: 512138144 heartbeat IPC: 1.52516 cumulative IPC: 1.42626 (Simulation time: 3 hr 20 min 22 sec) 
Heartbeat CPU 3 instructions: 620000001 cycles: 518684505 heartbeat IPC: 1.13796 cumulative IPC: 1.13542 (Simulation time: 3 hr 22 min 41 sec) 
Heartbeat CPU 1 instructions: 770000000 cycles: 518708752 heartbeat IPC: 1.52193 cumulative IPC: 1.42751 (Simulation time: 3 hr 22 min 42 sec) 
Heartbeat CPU 2 instructions: 230000001 cycles: 519211631 heartbeat IPC: 0.630956 cumulative IPC: 0.352427 (Simulation time: 3 hr 22 min 54 sec) 
Heartbeat CPU 0 instructions: 560000000 cycles: 519458102 heartbeat IPC: 0.809506 cumulative IPC: 0.996783 (Simulation time: 3 hr 23 min 0 sec) 
Heartbeat CPU 1 instructions: 780000002 cycles: 525274184 heartbeat IPC: 1.52313 cumulative IPC: 1.42875 (Simulation time: 3 hr 25 min 9 sec) 
Heartbeat CPU 3 instructions: 630000003 cycles: 527502175 heartbeat IPC: 1.13409 cumulative IPC: 1.13539 (Simulation time: 3 hr 25 min 57 sec) 
Heartbeat CPU 1 instructions: 790000003 cycles: 531817650 heartbeat IPC: 1.52824 cumulative IPC: 1.43001 (Simulation time: 3 hr 27 min 28 sec) 
Heartbeat CPU 0 instructions: 570000002 cycles: 531881551 heartbeat IPC: 0.80493 cumulative IPC: 0.992157 (Simulation time: 3 hr 27 min 29 sec) 
Heartbeat CPU 3 instructions: 640000001 cycles: 536317100 heartbeat IPC: 1.13444 cumulative IPC: 1.13538 (Simulation time: 3 hr 29 min 3 sec) 
Heartbeat CPU 1 instructions: 800000002 cycles: 538287719 heartbeat IPC: 1.54558 cumulative IPC: 1.43144 (Simulation time: 3 hr 29 min 47 sec) 
Heartbeat CPU 0 instructions: 580000000 cycles: 544391720 heartbeat IPC: 0.79935 cumulative IPC: 0.987587 (Simulation time: 3 hr 31 min 57 sec) 
Heartbeat CPU 1 instructions: 810000000 cycles: 544778017 heartbeat IPC: 1.54076 cumulative IPC: 1.43279 (Simulation time: 3 hr 32 min 4 sec) 
Heartbeat CPU 3 instructions: 650000000 cycles: 545129911 heartbeat IPC: 1.13471 cumulative IPC: 1.13537 (Simulation time: 3 hr 32 min 12 sec) 
Heartbeat CPU 1 instructions: 820000002 cycles: 551209987 heartbeat IPC: 1.55473 cumulative IPC: 1.43425 (Simulation time: 3 hr 34 min 23 sec) 
Heartbeat CPU 2 instructions: 240000000 cycles: 552840125 heartbeat IPC: 0.297367 cumulative IPC: 0.348974 (Simulation time: 3 hr 35 min 0 sec) 
Heartbeat CPU 3 instructions: 660000000 cycles: 553897286 heartbeat IPC: 1.14059 cumulative IPC: 1.13545 (Simulation time: 3 hr 35 min 26 sec) 
Heartbeat CPU 0 instructions: 590000003 cycles: 556977216 heartbeat IPC: 0.794566 cumulative IPC: 0.983091 (Simulation time: 3 hr 36 min 36 sec) 
Heartbeat CPU 1 instructions: 830000000 cycles: 557626446 heartbeat IPC: 1.55849 cumulative IPC: 1.43573 (Simulation time: 3 hr 36 min 50 sec) 
Heartbeat CPU 3 instructions: 670000000 cycles: 562552148 heartbeat IPC: 1.15542 cumulative IPC: 1.13577 (Simulation time: 3 hr 38 min 47 sec) 
Heartbeat CPU 1 instructions: 840000003 cycles: 564024558 heartbeat IPC: 1.56296 cumulative IPC: 1.43721 (Simulation time: 3 hr 39 min 20 sec) 
Heartbeat CPU 0 instructions: 600000003 cycles: 569754551 heartbeat IPC: 0.782636 cumulative IPC: 0.97846 (Simulation time: 3 hr 41 min 27 sec) 
Heartbeat CPU 1 instructions: 850000001 cycles: 570417804 heartbeat IPC: 1.56415 cumulative IPC: 1.43868 (Simulation time: 3 hr 41 min 42 sec) 
Heartbeat CPU 3 instructions: 680000000 cycles: 571283776 heartbeat IPC: 1.14526 cumulative IPC: 1.13592 (Simulation time: 3 hr 42 min 2 sec) 
Heartbeat CPU 1 instructions: 860000001 cycles: 576806075 heartbeat IPC: 1.56537 cumulative IPC: 1.44013 (Simulation time: 3 hr 44 min 5 sec) 
Heartbeat CPU 3 instructions: 690000000 cycles: 580066821 heartbeat IPC: 1.13856 cumulative IPC: 1.13596 (Simulation time: 3 hr 45 min 22 sec) 
Heartbeat CPU 0 instructions: 610000000 cycles: 582598390 heartbeat IPC: 0.778583 cumulative IPC: 0.973923 (Simulation time: 3 hr 46 min 22 sec) 
Heartbeat CPU 1 instructions: 870000003 cycles: 583193283 heartbeat IPC: 1.56563 cumulative IPC: 1.44154 (Simulation time: 3 hr 46 min 36 sec) 
Heartbeat CPU 3 instructions: 700000002 cycles: 588867374 heartbeat IPC: 1.13629 cumulative IPC: 1.13597 (Simulation time: 3 hr 48 min 49 sec) 
Heartbeat CPU 1 instructions: 880000000 cycles: 589580438 heartbeat IPC: 1.56564 cumulative IPC: 1.44292 (Simulation time: 3 hr 49 min 7 sec) 
Heartbeat CPU 2 instructions: 250000001 cycles: 592345805 heartbeat IPC: 0.253128 cumulative IPC: 0.342396 (Simulation time: 3 hr 50 min 8 sec) 
Heartbeat CPU 0 instructions: 620000001 cycles: 595554778 heartbeat IPC: 0.77182 cumulative IPC: 0.9694 (Simulation time: 3 hr 51 min 22 sec) 
Heartbeat CPU 1 instructions: 890000002 cycles: 595963074 heartbeat IPC: 1.56675 cumulative IPC: 1.44429 (Simulation time: 3 hr 51 min 32 sec) 
Heartbeat CPU 3 instructions: 710000000 cycles: 597649688 heartbeat IPC: 1.13865 cumulative IPC: 1.13601 (Simulation time: 3 hr 52 min 13 sec) 
Heartbeat CPU 1 instructions: 900000000 cycles: 602631140 heartbeat IPC: 1.49968 cumulative IPC: 1.44492 (Simulation time: 3 hr 53 min 58 sec) 
Finished CPU 2 instructions: 200000001 cycles: 587381617 cumulative IPC: 0.340494 (Simulation time: 3 hr 54 min 30 sec) 

ChampSim completed all CPUs

Total Simulation Statistics (not including warmup)

CPU 0 cumulative IPC: 0.966286 instructions: 567578862 cycles: 587381617
ITLB TOTAL     ACCESS:   93225244  HIT:   93225241  MISS:          3  HIT %:        100  MISS %: 3.21801e-06   MPKI: 5.28561e-06
ITLB LOAD      ACCESS:          0  HIT:          0  MISS:          0  HIT %:       -nan  MISS %:       -nan   MPKI: 0
ITLB RFO       ACCESS:          0  HIT:          0  MISS:          0  HIT %:       -nan  MISS %:       -nan   MPKI: 0
ITLB PREFETCH  ACCESS:          0  HIT:          0  MISS:          0  HIT %:       -nan  MISS %:       -nan   MPKI: 0
ITLB WRITEBACK ACCESS:          0  HIT:          0  MISS:          0  HIT %:       -nan  MISS %:       -nan   MPKI: 0
DTLB TOTAL     ACCESS:   83300375  HIT:   83040285  MISS:     260090  HIT %:    99.6878  MISS %:   0.312231   MPKI: 0.458245
DTLB LOAD      ACCESS:          0  HIT:          0  MISS:          0  HIT %:       -nan  MISS %:       -nan   MPKI: 0
DTLB RFO       ACCESS:          0  HIT:          0  MISS:          0  HIT %:       -nan  MISS %:       -nan   MPKI: 0
DTLB PREFETCH  ACCESS:          0  HIT:          0  MISS:          0  HIT %:       -nan  MISS %:       -nan   MPKI: 0
DTLB WRITEBACK ACCESS:          0  HIT:          0  MISS:          0  HIT %:       -nan  MISS %:       -nan   MPKI: 0
STLB TOTAL     ACCESS:    4140727  HIT:    4138867  MISS:       1860  HIT %:    99.9551  MISS %:  0.0449196   MPKI: 0.00327708
STLB LOAD      ACCESS:          0  HIT:          0  MISS:          0  HIT %:       -nan  MISS %:       -nan   MPKI: 0
STLB RFO       ACCESS:          0  HIT:          0  MISS:          0  HIT %:       -nan  MISS %:       -nan   MPKI: 0
STLB PREFETCH  ACCESS:          0  HIT:          0  MISS:          0  HIT %:       -nan  MISS %:       -nan   MPKI: 0
STLB WRITEBACK ACCESS:          0  HIT:          0  MISS:          0  HIT %:       -nan  MISS %:       -nan   MPKI: 0
L1D TOTAL     ACCESS:  104275228  HIT:   88698707  MISS:   15576521  HIT %:    85.0621  MISS %:    14.9379   MPKI: 27.4438
L1D LOAD      ACCESS:   85850242  HIT:   78069820  MISS:    7780422  HIT %:    90.9372  MISS %:    9.06278   MPKI: 13.7081
L1D RFO       ACCESS:   10628872  HIT:   10628872  MISS:          0  HIT %:        100  MISS %:          0   MPKI: 0
L1D PREFETCH  ACCESS:    7796114  HIT:         15  MISS:    7796099  HIT %: 0.000192404  MISS %:    99.9998   MPKI: 13.7357
L1D WRITEBACK ACCESS:          0  HIT:          0  MISS:          0  HIT %:       -nan  MISS %:       -nan   MPKI: 0
L1I TOTAL     ACCESS:  113103756  HIT:  113103745  MISS:         11  HIT %:        100  MISS %: 9.72558e-06   MPKI: 1.93806e-05
L1I LOAD      ACCESS:  113103756  HIT:  113103745  MISS:         11  HIT %:        100  MISS %: 9.72558e-06   MPKI: 1.93806e-05
L1I RFO       ACCESS:          0  HIT:          0  MISS:          0  HIT %:       -nan  MISS %:       -nan   MPKI: 0
L1I PREFETCH  ACCESS:          0  HIT:          0  MISS:          0  HIT %:       -nan  MISS %:       -nan   MPKI: 0
L1I WRITEBACK ACCESS:          0  HIT:          0  MISS:          0  HIT %:       -nan  MISS %:       -nan   MPKI: 0
L2C TOTAL     ACCESS:   16011151  HIT:    5149880  MISS:   10861271  HIT %:    32.1643  MISS %:    67.8357   MPKI: 19.1361
L2C LOAD      ACCESS:    7574551  HIT:    4751354  MISS:    2823197  HIT %:    62.7279  MISS %:    37.2721   MPKI: 4.97411
L2C RFO       ACCESS:          0  HIT:          0  MISS:          0  HIT %:       -nan  MISS %:       -nan   MPKI: 0
L2C PREFETCH  ACCESS:    8433518  HIT:     396231  MISS:    8037287  HIT %:    4.69829  MISS %:    95.3017   MPKI: 14.1607
L2C WRITEBACK ACCESS:       1222  HIT:       1221  MISS:          1  HIT %:    99.9182  MISS %:  0.0818331   MPKI: 1.76187e-06
PSCL5 TOTAL     ACCESS:       1860  HIT:       1860  MISS:          0  HIT %:        100  MISS %:          0   MPKI: 0
PSCL5 LOAD      ACCESS:          0  HIT:          0  MISS:          0  HIT %:       -nan  MISS %:       -nan   MPKI: 0
PSCL5 RFO       ACCESS:          0  HIT:          0  MISS:          0  HIT %:       -nan  MISS %:       -nan   MPKI: 0
PSCL5 PREFETCH  ACCESS:          0  HIT:          0  MISS:          0  HIT %:       -nan  MISS %:       -nan   MPKI: 0
PSCL5 WRITEBACK ACCESS:          0  HIT:          0  MISS:          0  HIT %:       -nan  MISS %:       -nan   MPKI: 0
PSCL4 TOTAL     ACCESS:       1860  HIT:       1860  MISS:          0  HIT %:        100  MISS %:          0   MPKI: 0
PSCL4 LOAD      ACCESS:          0  HIT:          0  MISS:          0  HIT %:       -nan  MISS %:       -nan   MPKI: 0
PSCL4 RFO       ACCESS:          0  HIT:          0  MISS:          0  HIT %:       -nan  MISS %:       -nan   MPKI: 0
PSCL4 PREFETCH  ACCESS:          0  HIT:          0  MISS:          0  HIT %:       -nan  MISS %:       -nan   MPKI: 0
PSCL4 WRITEBACK ACCESS:          0  HIT:          0  MISS:          0  HIT %:       -nan  MISS %:       -nan   MPKI: 0
PSCL3 TOTAL     ACCESS:       1860  HIT:       1860  MISS:          0  HIT %:        100  MISS %:          0   MPKI: 0
PSCL3 LOAD      ACCESS:          0  HIT:          0  MISS:          0  HIT %:       -nan  MISS %:       -nan   MPKI: 0
PSCL3 RFO       ACCESS:          0  HIT:          0  MISS:          0  HIT %:       -nan  MISS %:       -nan   MPKI: 0
PSCL3 PREFETCH  ACCESS:          0  HIT:          0  MISS:          0  HIT %:       -nan  MISS %:       -nan   MPKI: 0
PSCL3 WRITEBACK ACCESS:          0  HIT:          0  MISS:          0  HIT %:       -nan  MISS %:       -nan   MPKI: 0
PSCL2 TOTAL     ACCESS:       1860  HIT:       1854  MISS:          6  HIT %:    99.6774  MISS %:   0.322581   MPKI: 1.05712e-05
PSCL2 LOAD      ACCESS:          0  HIT:          0  MISS:          0  HIT %:       -nan  MISS %:       -nan   MPKI: 0
PSCL2 RFO       ACCESS:          0  HIT:          0  MISS:          0  HIT %:       -nan  MISS %:       -nan   MPKI: 0
PSCL2 PREFETCH  ACCESS:          0  HIT:          0  MISS:          0  HIT %:       -nan  MISS %:       -nan   MPKI: 0
PSCL2 WRITEBACK ACCESS:          0  HIT:          0  MISS:          0  HIT %:       -nan  MISS %:       -nan   MPKI: 0
=== CPU 0 L1D Prefetcher Statistics ===
[MLOP] History of tracked zone:
IIIIIIIIIIIIIIIIIIIIIIIIIIIIIIIIIIIIIIIIIIIIIIIIIIIIIIIIIIIIIIII
IIIAIIIII1IIIII1IIIIIIIIIIIIIIIIIIIIIIIIIIIIIIIIIIIIIIIIIIIIIIII
AIIAII1II1II1II1IIIIIIIIIIIIIIIIIIIIIIIIIIIIIIIIIIIIIIIIIIIIIIII
AAIAII11I1II11I1IIIIIIIIIIIIIIIIIIIIIIIIIIIIIIIIIIIIIIIIIIIIIIII
AAAAII1111II1111IIIIIIIIIIIIIIIIIIIIIIIIIIIIIIIIIIIIIIIIIIIIIIII
AAAAAI11111I11111IIIIIIIIIIIIIIIIIIIIIIIIIIIIIIIIIIIIIIIIIIIIIII
AAAAAA111111111111IIIIIIIIIIIIIIIIIIIIIIIIIIIIIIIIIIIIIIIIIIIIII
AAAAAAA111111111111IIIIIIIIIIIIIIIIIIIIIIIIIIIIIIIIIIIIIIIIIIIII
AAAAAAAA111111111111IIIIIIIIIIIIIIIIIIIIIIIIIIIIIIIIIIIIIIIIIIII
AAAAAAAAA111111111111IIIIIIIIIIIIIIIIIIIIIIIIIIIIIIIIIIIIIIIIIII
AAAAAAAAAA111111111111IIIIIIIIIIIIIIIIIIIIIIIIIIIIIIIIIIIIIIIIII
AAAAAAAAAAA111111111111IIIIIIIIIIIIIIIIIIIIIIIIIIIIIIIIIIIIIIIII
AAAAAAAAAAAA111111111111IIIIIIIIIIIIIIIIIIIIIIIIIIIIIIIIIIIIIIII
AAAAAAAAAAAAA111111111111IIIIIIIIIIIIIIIIIIIIIIIIIIIIIIIIIIIIIII
AAAAAAAAAAAAAA111111111111IIIIIIIIIIIIIIIIIIIIIIIIIIIIIIIIIIIIII
AAAAAAAAAAAAAAA111111111111IIIIIIIIIIIIIIIIIIIIIIIIIIIIIIIIIIIII
AAAAAAAAAAAAAAAA111111111111IIIIIIIIIIIIIIIIIIIIIIIIIIIIIIIIIIII
AAAAAAAAAAAAAAAAA111111111111IIIIIIIIIIIIIIIIIIIIIIIIIIIIIIIIIII
AAAAAAAAAAAAAAAAAA111111111111IIIIIIIIIIIIIIIIIIIIIIIIIIIIIIIIII
AAAAAAAAAAAAAAAAAAA111111111111IIIIIIIIIIIIIIIIIIIIIIIIIIIIIIIII
AAAAAAAAAAAAAAAAAAAA111111111111IIIIIIIIIIIIIIIIIIIIIIIIIIIIIIII
AAAAAAAAAAAAAAAAAAAAA111111111111IIIIIIIIIIIIIIIIIIIIIIIIIIIIIII
AAAAAAAAAAAAAAAAAAAAAA111111111111IIIIIIIIIIIIIIIIIIIIIIIIIIIIII
AAAAAAAAAAAAAAAAAAAAAAA111111111111IIIIIIIIIIIIIIIIIIIIIIIIIIIII
AAAAAAAAAAAAAAAAAAAAAAAA111111111111IIIIIIIIIIIIIIIIIIIIIIIIIIII
AAAAAAAAAAAAAAAAAAAAAAAAA111111111111IIIIIIIIIIIIIIIIIIIIIIIIIII
AAAAAAAAAAAAAAAAAAAAAAAAAA111111111111IIIIIIIIIIIIIIIIIIIIIIIIII
AAAAAAAAAAAAAAAAAAAAAAAAAAA111111111111IIIIIIIIIIIIIIIIIIIIIIIII
AAAAAAAAAAAAAAAAAAAAAAAAAAAA111111111111IIIIIIIIIIIIIIIIIIIIIIII
AAAAAAAAAAAAAAAAAAAAAAAAAAAAA111111111111IIIIIIIIIIIIIIIIIIIIIII
AAAAAAAAAAAAAAAAAAAAAAAAAAAAAA111111111111IIIIIIIIIIIIIIIIIIIIII
AAAAAAAAAAAAAAAAAAAAAAAAAAAAAAA111111111111IIIIIIIIIIIIIIIIIIIII
AAAAAAAAAAAAAAAAAAAAAAAAAAAAAAAA111111111111IIIIIIIIIIIIIIIIIIII
AAAAAAAAAAAAAAAAAAAAAAAAAAAAAAAAA111111111111IIIIIIIIIIIIIIIIIII
AAAAAAAAAAAAAAAAAAAAAAAAAAAAAAAAAA111111111111IIIIIIIIIIIIIIIIII
AAAAAAAAAAAAAAAAAAAAAAAAAAAAAAAAAAA111111111111IIIIIIIIIIIIIIIII
AAAAAAAAAAAAAAAAAAAAAAAAAAAAAAAAAAAA111111111111IIIIIIIIIIIIIIII
AAAAAAAAAAAAAAAAAAAAAAAAAAAAAAAAAAAAA111111111111IIIIIIIIIIIIIII
AAAAAAAAAAAAAAAAAAAAAAAAAAAAAAAAAAAAAA111111111111IIIIIIIIIIIIII
AAAAAAAAAAAAAAAAAAAAAAAAAAAAAAAAAAAAAAA111111111111IIIIIIIIIIIII
AAAAAAAAAAAAAAAAAAAAAAAAAAAAAAAAAAAAAAAA111111111111IIIIIIIIIIII
AAAAAAAAAAAAAAAAAAAAAAAAAAAAAAAAAAAAAAAAA111111111111IIIIIIIIIII
AAAAAAAAAAAAAAAAAAAAAAAAAAAAAAAAAAAAAAAAAA111111111111IIIIIIIIII
AAAAAAAAAAAAAAAAAAAAAAAAAAAAAAAAAAAAAAAAAAA111111111111IIIIIIIII
AAAAAAAAAAAAAAAAAAAAAAAAAAAAAAAAAAAAAAAAAAAA111111111111IIIIIIII
AAAAAAAAAAAAAAAAAAAAAAAAAAAAAAAAAAAAAAAAAAAAA111111111111IIIIIII
AAAAAAAAAAAAAAAAAAAAAAAAAAAAAAAAAAAAAAAAAAAAAA111111111111IIIIII
AAAAAAAAAAAAAAAAAAAAAAAAAAAAAAAAAAAAAAAAAAAAAAA111111111111IIIII
AAAAAAAAAAAAAAAAAAAAAAAAAAAAAAAAAAAAAAAAAAAAAAAA111111111111IIII
AAAAAAAAAAAAAAAAAAAAAAAAAAAAAAAAAAAAAAAAAAAAAAAAA111111111111III
AAAAAAAAAAAAAAAAAAAAAAAAAAAAAAAAAAAAAAAAAAAAAAAAAA111111111111II
AAAAAAAAAAAAAAAAAAAAAAAAAAAAAAAAAAAAAAAAAAAAAAAAAAA111111111111I
AAAAAAAAAAAAAAAAAAAAAAAAAAAAAAAAAAAAAAAAAAAAAAAAAAAA111111111111
AAAAAAAAAAAAAAAAAAAAAAAAAAAAAAAAAAAAAAAAAAAAAAAAAAAAA11111111111
AAAAAAAAAAAAAAAAAAAAAAAAAAAAAAAAAAAAAAAAAAAAAAAAAAAAAA1111111111
AAAAAAAAAAAAAAAAAAAAAAAAAAAAAAAAAAAAAAAAAAAAAAAAAAAAAAA111111111
AAAAAAAAAAAAAAAAAAAAAAAAAAAAAAAAAAAAAAAAAAAAAAAAAAAAAAAA11111111
AAAAAAAAAAAAAAAAAAAAAAAAAAAAAAAAAAAAAAAAAAAAAAAAAAAAAAAAA1111111
AAAAAAAAAAAAAAAAAAAAAAAAAAAAAAAAAAAAAAAAAAAAAAAAAAAAAAAAAA111111
AAAAAAAAAAAAAAAAAAAAAAAAAAAAAAAAAAAAAAAAAAAAAAAAAAAAAAAAAAA11111
AAAAAAAAAAAAAAAAAAAAAAAAAAAAAAAAAAAAAAAAAAAAAAAAAAAAAAAAAAAA1111
AAAAAAAAAAAAAAAAAAAAAAAAAAAAAAAAAAAAAAAAAAAAAAAAAAAAAAAAAAAAA111
AAAAAAAAAAAAAAAAAAAAAAAAAAAAAAAAAAAAAAAAAAAAAAAAAAAAAAAAAAAAAA11
AAAAAAAAAAAAAAAAAAAAAAAAAAAAAAAAAAAAAAAAAAAAAAAAAAAAAAAAAAAAAAA1
AAAAAAAAAAAAAAAAAAAAAAAAAAAAAAAAAAAAAAAAAAAAAAAAAAAAAAAAAAAAAAAA
AIIIII1IIIII1IIIIIIIIIIIIIIIIIIIIIIIIIIIIIIIIIIIIIIIIIIIIIIIIIII
AAIIII11IIII11IIIIIIIIIIIIIIIIIIIIIIIIIIIIIIIIIIIIIIIIIIIIIIIIII
AAAIII111III111IIIIIIIIIIIIIIIIIIIIIIIIIIIIIIIIIIIIIIIIIIIIIIIII
AAAAII1111II1111IIIIIIIIIIIIIIIIIIIIIIIIIIIIIIIIIIIIIIIIIIIIIIII
AAAAAI11111I11111IIIIIIIIIIIIIIIIIIIIIIIIIIIIIIIIIIIIIIIIIIIIIII
AAAAAA111111111111IIIIIIIIIIIIIIIIIIIIIIIIIIIIIIIIIIIIIIIIIIIIII
AAAAAAA111111111111IIIIIIIIIIIIIIIIIIIIIIIIIIIIIIIIIIIIIIIIIIIII
AAAAAAAA111111111111IIIIIIIIIIIIIIIIIIIIIIIIIIIIIIIIIIIIIIIIIIII
AAAAAAAAA111111111111IIIIIIIIIIIIIIIIIIIIIIIIIIIIIIIIIIIIIIIIIII
AAAAAAAAAA111111111111IIIIIIIIIIIIIIIIIIIIIIIIIIIIIIIIIIIIIIIIII
AAAAAAAAAAA111111111111IIIIIIIIIIIIIIIIIIIIIIIIIIIIIIIIIIIIIIIII
AAAAAAAAAAAA111111111111IIIIIIIIIIIIIIIIIIIIIIIIIIIIIIIIIIIIIIII
AAAAAAAAAAAAA111111111111IIIIIIIIIIIIIIIIIIIIIIIIIIIIIIIIIIIIIII
AAAAAAAAAAAAAA111111111111IIIIIIIIIIIIIIIIIIIIIIIIIIIIIIIIIIIIII
AAAAAAAAAAAAAAA111111111111IIIIIIIIIIIIIIIIIIIIIIIIIIIIIIIIIIIII
AAAAAAAAAAAAAAAA111111111111IIIIIIIIIIIIIIIIIIIIIIIIIIIIIIIIIIII
AAAAAAAAAAAAAAAAA111111111111IIIIIIIIIIIIIIIIIIIIIIIIIIIIIIIIIII
AAAAAAAAAAAAAAAAAA111111111111IIIIIIIIIIIIIIIIIIIIIIIIIIIIIIIIII
AAAAAAAAAAAAAAAAAAA111111111111IIIIIIIIIIIIIIIIIIIIIIIIIIIIIIIII
AAAAAAAAAAAAAAAAAAAA111111111111IIIIIIIIIIIIIIIIIIIIIIIIIIIIIIII
AAAAAAAAAAAAAAAAAAAAA111111111111IIIIIIIIIIIIIIIIIIIIIIIIIIIIIII
AAAAAAAAAAAAAAAAAAAAAA111111111111IIIIIIIIIIIIIIIIIIIIIIIIIIIIII
AAAAAAAAAAAAAAAAAAAAAAA111111111111IIIIIIIIIIIIIIIIIIIIIIIIIIIII
AAAAAAAAAAAAAAAAAAAAAAAA111111111111IIIIIIIIIIIIIIIIIIIIIIIIIIII
AAAAAAAAAAAAAAAAAAAAAAAAA111111111111IIIIIIIIIIIIIIIIIIIIIIIIIII
AAAAAAAAAAAAAAAAAAAAAAAAAA111111111111IIIIIIIIIIIIIIIIIIIIIIIIII
AAAAAAAAAAAAAAAAAAAAAAAAAAA111111111111IIIIIIIIIIIIIIIIIIIIIIIII
AAAAAAAAAAAAAAAAAAAAAAAAAAAA111111111111IIIIIIIIIIIIIIIIIIIIIIII
AAAAAAAAAAAAAAAAAAAAAAAAAAAAA111111111111IIIIIIIIIIIIIIIIIIIIIII
AAAAAAAAAAAAAAAAAAAAAAAAAAAAAA111111111111IIIIIIIIIIIIIIIIIIIIII
AAAAAAAAAAAAAAAAAAAAAAAAAAAAAAA111111111111IIIIIIIIIIIIIIIIIIIII
AAAAAAAAAAAAAAAAAAAAAAAAAAAAAAAA111111111111IIIIIIIIIIIIIIIIIIII
AAAAAAAAAAAAAAAAAAAAAAAAAAAAAAAAA111111111111IIIIIIIIIIIIIIIIIII
AAAAAAAAAAAAAAAAAAAAAAAAAAAAAAAAAA111111111111IIIIIIIIIIIIIIIIII
AAAAAAAAAAAAAAAAAAAAAAAAAAAAAAAAAAA111111111111IIIIIIIIIIIIIIIII
AAAAAAAAAAAAAAAAAAAAAAAAAAAAAAAAAAAA111111111111IIIIIIIIIIIIIIII
AAAAAAAAAAAAAAAAAAAAAAAAAAAAAAAAAAAAA111111111111IIIIIIIIIIIIIII
AAAAAAAAAAAAAAAAAAAAAAAAAAAAAAAAAAAAAA111111111111IIIIIIIIIIIIII
AAAAAAAAAAAAAAAAAAAAAAAAAAAAAAAAAAAAAAA111111111111IIIIIIIIIIIII
AAAAAAAAAAAAAAAAAAAAAAAAAAAAAAAAAAAAAAAA111111111111IIIIIIIIIIII
AAAAAAAAAAAAAAAAAAAAAAAAAAAAAAAAAAAAAAAAA111111111111IIIIIIIIIII
AAAAAAAAAAAAAAAAAAAAAAAAAAAAAAAAAAAAAAAAAA111111111111IIIIIIIIII
AAAAAAAAAAAAAAAAAAAAAAAAAAAAAAAAAAAAAAAAAAA111111111111IIIIIIIII
AAAAAAAAAAAAAAAAAAAAAAAAAAAAAAAAAAAAAAAAAAAA111111111111IIIIIIII
AAAAAAAAAAAAAAAAAAAAAAAAAAAAAAAAAAAAAAAAAAAAA111111111111IIIIIII
AAAAAAAAAAAAAAAAAAAAAAAAAAAAAAAAAAAAAAAAAAAAAA111111111111IIIIII
AAAAAAAAAAAAAAAAAAAAAAAAAAAAAAAAAAAAAAAAAAAAAAA111111111111IIIII
AAAAAAAAAAAAAAAAAAAAAAAAAAAAAAAAAAAAAAAAAAAAAAAA111111111111IIII
AAAAAAAAAAAAAAAAAAAAAAAAAAAAAAAAAAAAAAAAAAAAAAAAA111111111111III
AAAAAAAAAAAAAAAAAAAAAAAAAAAAAAAAAAAAAAAAAAAAAAAAAA111111111111II
AAAAAAAAAAAAAAAAAAAAAAAAAAAAAAAAAAAAAAAAAAAAAAAAAAA111111111111I
AAAAAAAAAAAAAAAAAAAAAAAAAAAAAAAAAAAAAAAAAAAAAAAAAAAA111111111111
AAAAAAAAAAAAAAAAAAAAAAAAAAAAAAAAAAAAAAAAAAAAAAAAAAAAA11111111111
AAAAAAAAAAAAAAAAAAAAAAAAAAAAAAAAAAAAAAAAAAAAAAAAAAAAAA1111111111
AAAAAAAAAAAAAAAAAAAAAAAAAAAAAAAAAAAAAAAAAAAAAAAAAAAAAAA111111111
AAAAAAAAAAAAAAAAAAAAAAAAAAAAAAAAAAAAAAAAAAAAAAAAAAAAAAAA11111111
AAAAAAAAAAAAAAAAAAAAAAAAAAAAAAAAAAAAAAAAAAAAAAAAAAAAAAAAA1111111
AAAAAAAAAAAAAAAAAAAAAAAAAAAAAAAAAAAAAAAAAAAAAAAAAAAAAAAAAA111111
AAAAAAAAAAAAAAAAAAAAAAAAAAAAAAAAAAAAAAAAAAAAAAAAAAAAAAAAAAA11111
AAAAAAAAAAAAAAAAAAAAAAAAAAAAAAAAAAAAAAAAAAAAAAAAAAAAAAAAAAAA1111
AAAAAAAAAAAAAAAAAAAAAAAAAAAAAAAAAAAAAAAAAAAAAAAAAAAAAAAAAAAAA111
AAAAAAAAAAAAAAAAAAAAAAAAAAAAAAAAAAAAAAAAAAAAAAAAAAAAAAAAAAAAAA11
AAAAAAAAAAAAAAAAAAAAAAAAAAAAAAAAAAAAAAAAAAAAAAAAAAAAAAAAAAAAAAA1
AAAAAAAAAAAAAAAAAAAAAAAAAAAAAAAAAAAAAAAAAAAAAAAAAAAAAAAAAAAAAAAA
AIII111III11IIIIIIIIIIIIIIIIIIIIIIIIIIIIIIIIIIIIIIIIIIIIIIIIIIII
AAII1111II111IIIIIIIIIIIIIIIIIIIIIIIIIIIIIIIIIIIIIIIIIIIIIIIIIII
AAAI11111I1111IIIIIIIIIIIIIIIIIIIIIIIIIIIIIIIIIIIIIIIIIIIIIIIIII
AAAA11111111111IIIIIIIIIIIIIIIIIIIIIIIIIIIIIIIIIIIIIIIIIIIIIIIII
AAAAA11111111111IIIIIIIIIIIIIIIIIIIIIIIIIIIIIIIIIIIIIIIIIIIIIIII
AAAAAA11111111111IIIIIIIIIIIIIIIIIIIIIIIIIIIIIIIIIIIIIIIIIIIIIII
AAAAAAA11111111111IIIIIIIIIIIIIIIIIIIIIIIIIIIIIIIIIIIIIIIIIIIIII
AAAAAAAA11111111111IIIIIIIIIIIIIIIIIIIIIIIIIIIIIIIIIIIIIIIIIIIII
AAAAAAAAA11111111111IIIIIIIIIIIIIIIIIIIIIIIIIIIIIIIIIIIIIIIIIIII
AAAAAAAAAA11111111111IIIIIIIIIIIIIIIIIIIIIIIIIIIIIIIIIIIIIIIIIII
AAAAAAAAAAA11111111111IIIIIIIIIIIIIIIIIIIIIIIIIIIIIIIIIIIIIIIIII
AAAAAAAAAAAA11111111111IIIIIIIIIIIIIIIIIIIIIIIIIIIIIIIIIIIIIIIII
AAAAAAAAAAAAA11111111111IIIIIIIIIIIIIIIIIIIIIIIIIIIIIIIIIIIIIIII
AAAAAAAAAAAAAA11111111111IIIIIIIIIIIIIIIIIIIIIIIIIIIIIIIIIIIIIII
AAAAAAAAAAAAAAA11111111111IIIIIIIIIIIIIIIIIIIIIIIIIIIIIIIIIIIIII
AAAAAAAAAAAAAAAA11111111111IIIIIIIIIIIIIIIIIIIIIIIIIIIIIIIIIIIII
AAAAAAAAAAAAAAAAA11111111111IIIIIIIIIIIIIIIIIIIIIIIIIIIIIIIIIIII
AAAAAAAAAAAAAAAAAA11111111111IIIIIIIIIIIIIIIIIIIIIIIIIIIIIIIIIII
AAAAAAAAAAAAAAAAAAA11111111111IIIIIIIIIIIIIIIIIIIIIIIIIIIIIIIIII
AAAAAAAAAAAAAAAAAAAA11111111111IIIIIIIIIIIIIIIIIIIIIIIIIIIIIIIII
AAAAAAAAAAAAAAAAAAAAA11111111111IIIIIIIIIIIIIIIIIIIIIIIIIIIIIIII
AAAAAAAAAAAAAAAAAAAAAA11111111111IIIIIIIIIIIIIIIIIIIIIIIIIIIIIII
AAAAAAAAAAAAAAAAAAAAAAA11111111111IIIIIIIIIIIIIIIIIIIIIIIIIIIIII
AAAAAAAAAAAAAAAAAAAAAAAA11111111111IIIIIIIIIIIIIIIIIIIIIIIIIIIII
AAAAAAAAAAAAAAAAAAAAAAAAA11111111111IIIIIIIIIIIIIIIIIIIIIIIIIIII
AAAAAAAAAAAAAAAAAAAAAAAAAA11111111111IIIIIIIIIIIIIIIIIIIIIIIIIII
AAAAAAAAAAAAAAAAAAAAAAAAAAA11111111111IIIIIIIIIIIIIIIIIIIIIIIIII
AAAAAAAAAAAAAAAAAAAAAAAAAAAA11111111111IIIIIIIIIIIIIIIIIIIIIIIII
AAAAAAAAAAAAAAAAAAAAAAAAAAAAA11111111111IIIIIIIIIIIIIIIIIIIIIIII
AAAAAAAAAAAAAAAAAAAAAAAAAAAAAA11111111111IIIIIIIIIIIIIIIIIIIIIII
AAAAAAAAAAAAAAAAAAAAAAAAAAAAAAA11111111111IIIIIIIIIIIIIIIIIIIIII
AAAAAAAAAAAAAAAAAAAAAAAAAAAAAAAA11111111111IIIIIIIIIIIIIIIIIIIII
AAAAAAAAAAAAAAAAAAAAAAAAAAAAAAAAA11111111111IIIIIIIIIIIIIIIIIIII
AAAAAAAAAAAAAAAAAAAAAAAAAAAAAAAAAA11111111111IIIIIIIIIIIIIIIIIII
AAAAAAAAAAAAAAAAAAAAAAAAAAAAAAAAAAA11111111111IIIIIIIIIIIIIIIIII
AAAAAAAAAAAAAAAAAAAAAAAAAAAAAAAAAAAA11111111111IIIIIIIIIIIIIIIII
AAAAAAAAAAAAAAAAAAAAAAAAAAAAAAAAAAAAA11111111111IIIIIIIIIIIIIIII
AAAAAAAAAAAAAAAAAAAAAAAAAAAAAAAAAAAAAA11111111111IIIIIIIIIIIIIII
AAAAAAAAAAAAAAAAAAAAAAAAAAAAAAAAAAAAAAA11111111111IIIIIIIIIIIIII
AAAAAAAAAAAAAAAAAAAAAAAAAAAAAAAAAAAAAAAA11111111111IIIIIIIIIIIII
AAAAAAAAAAAAAAAAAAAAAAAAAAAAAAAAAAAAAAAAA11111111111IIIIIIIIIIII
AAAAAAAAAAAAAAAAAAAAAAAAAAAAAAAAAAAAAAAAAA11111111111IIIIIIIIIII
AAAAAAAAAAAAAAAAAAAAAAAAAAAAAAAAAAAAAAAAAAA11111111111IIIIIIIIII
AAAAAAAAAAAAAAAAAAAAAAAAAAAAAAAAAAAAAAAAAAAA11111111111IIIIIIIII
AAAAAAAAAAAAAAAAAAAAAAAAAAAAAAAAAAAAAAAAAAAAA11111111111IIIIIIII
AAAAAAAAAAAAAAAAAAAAAAAAAAAAAAAAAAAAAAAAAAAAAA11111111111IIIIIII
AAAAAAAAAAAAAAAAAAAAAAAAAAAAAAAAAAAAAAAAAAAAAAA11111111111IIIIII
AAAAAAAAAAAAAAAAAAAAAAAAAAAAAAAAAAAAAAAAAAAAAAAA11111111111IIIII
AAAAAAAAAAAAAAAAAAAAAAAAAAAAAAAAAAAAAAAAAAAAAAAAA11111111111IIII
AAAAAAAAAAAAAAAAAAAAAAAAAAAAAAAAAAAAAAAAAAAAAAAAAA11111111111III
AAAAAAAAAAAAAAAAAAAAAAAAAAAAAAAAAAAAAAAAAAAAAAAAAAA11111111111II
AAAAAAAAAAAAAAAAAAAAAAAAAAAAAAAAAAAAAAAAAAAAAAAAAAAA11111111111I
AAAAAAAAAAAAAAAAAAAAAAAAAAAAAAAAAAAAAAAAAAAAAAAAAAAAA11111111111
AAAAAAAAAAAAAAAAAAAAAAAAAAAAAAAAAAAAAAAAAAAAAAAAAAAAAA1111111111
AAAAAAAAAAAAAAAAAAAAAAAAAAAAAAAAAAAAAAAAAAAAAAAAAAAAAAA111111111
AAAAAAAAAAAAAAAAAAAAAAAAAAAAAAAAAAAAAAAAAAAAAAAAAAAAAAAA11111111
AAAAAAAAAAAAAAAAAAAAAAAAAAAAAAAAAAAAAAAAAAAAAAAAAAAAAAAAA1111111
AAAAAAAAAAAAAAAAAAAAAAAAAAAAAAAAAAAAAAAAAAAAAAAAAAAAAAAAAA111111
AAAAAAAAAAAAAAAAAAAAAAAAAAAAAAAAAAAAAAAAAAAAAAAAAAAAAAAAAAA11111
AAAAAAAAAAAAAAAAAAAAAAAAAAAAAAAAAAAAAAAAAAAAAAAAAAAAAAAAAAAA1111
AAAAAAAAAAAAAAAAAAAAAAAAAAAAAAAAAAAAAAAAAAAAAAAAAAAAAAAAAAAAA111
AAAAAAAAAAAAAAAAAAAAAAAAAAAAAAAAAAAAAAAAAAAAAAAAAAAAAAAAAAAAAA11
AAAAAAAAAAAAAAAAAAAAAAAAAAAAAAAAAAAAAAAAAAAAAAAAAAAAAAAAAAAAAAA1
AAAAAAAAAAAAAAAAAAAAAAAAAAAAAAAAAAAAAAAAAAAAAAAAAAAAAAAAAAAAAAAA
AIII111III11IIIIIIIIIIIIIIIIIIIIIIIIIIIIIIIIIIIIIIIIIIIIIIIIIIII
AAII1111II111IIIIIIIIIIIIIIIIIIIIIIIIIIIIIIIIIIIIIIIIIIIIIIIIIII
AAAI11111I1111IIIIIIIIIIIIIIIIIIIIIIIIIIIIIIIIIIIIIIIIIIIIIIIIII
AAAA11111111111IIIIIIIIIIIIIIIIIIIIIIIIIIIIIIIIIIIIIIIIIIIIIIIII
AAAAA11111111111IIIIIIIIIIIIIIIIIIIIIIIIIIIIIIIIIIIIIIIIIIIIIIII
AAAAAA11111111111IIIIIIIIIIIIIIIIIIIIIIIIIIIIIIIIIIIIIIIIIIIIIII
AAAAAAA11111111111IIIIIIIIIIIIIIIIIIIIIIIIIIIIIIIIIIIIIIIIIIIIII
AAAAAAAA11111111111IIIIIIIIIIIIIIIIIIIIIIIIIIIIIIIIIIIIIIIIIIIII
AAAAAAAAA11111111111IIIIIIIIIIIIIIIIIIIIIIIIIIIIIIIIIIIIIIIIIIII
AAAAAAAAAA11111111111IIIIIIIIIIIIIIIIIIIIIIIIIIIIIIIIIIIIIIIIIII
AAAAAAAAAAA11111111111IIIIIIIIIIIIIIIIIIIIIIIIIIIIIIIIIIIIIIIIII
AAAAAAAAAAAA11111111111IIIIIIIIIIIIIIIIIIIIIIIIIIIIIIIIIIIIIIIII
AAAAAAAAAAAAA11111111111IIIIIIIIIIIIIIIIIIIIIIIIIIIIIIIIIIIIIIII
AAAAAAAAAAAAAA11111111111IIIIIIIIIIIIIIIIIIIIIIIIIIIIIIIIIIIIIII
AAAAAAAAAAAAAAA11111111111IIIIIIIIIIIIIIIIIIIIIIIIIIIIIIIIIIIIII
AAAAAAAAAAAAAAAA11111111111IIIIIIIIIIIIIIIIIIIIIIIIIIIIIIIIIIIII
AAAAAAAAAAAAAAAAA11111111111IIIIIIIIIIIIIIIIIIIIIIIIIIIIIIIIIIII
AAAAAAAAAAAAAAAAAA11111111111IIIIIIIIIIIIIIIIIIIIIIIIIIIIIIIIIII
AAAAAAAAAAAAAAAAAAA11111111111IIIIIIIIIIIIIIIIIIIIIIIIIIIIIIIIII
AAAAAAAAAAAAAAAAAAAA11111111111IIIIIIIIIIIIIIIIIIIIIIIIIIIIIIIII
AAAAAAAAAAAAAAAAAAAAA11111111111IIIIIIIIIIIIIIIIIIIIIIIIIIIIIIII
AAAAAAAAAAAAAAAAAAAAAA11111111111IIIIIIIIIIIIIIIIIIIIIIIIIIIIIII
AAAAAAAAAAAAAAAAAAAAAAA11111111111IIIIIIIIIIIIIIIIIIIIIIIIIIIIII
AAAAAAAAAAAAAAAAAAAAAAAA11111111111IIIIIIIIIIIIIIIIIIIIIIIIIIIII
AAAAAAAAAAAAAAAAAAAAAAAAA11111111111IIIIIIIIIIIIIIIIIIIIIIIIIIII
AAAAAAAAAAAAAAAAAAAAAAAAAA11111111111IIIIIIIIIIIIIIIIIIIIIIIIIII
AAAAAAAAAAAAAAAAAAAAAAAAAAA11111111111IIIIIIIIIIIIIIIIIIIIIIIIII
AAAAAAAAAAAAAAAAAAAAAAAAAAAA11111111111IIIIIIIIIIIIIIIIIIIIIIIII
AAAAAAAAAAAAAAAAAAAAAAAAAAAAA11111111111IIIIIIIIIIIIIIIIIIIIIIII
AAAAAAAAAAAAAAAAAAAAAAAAAAAAAA11111111111IIIIIIIIIIIIIIIIIIIIIII
AAAAAAAAAAAAAAAAAAAAAAAAAAAAAAA11111111111IIIIIIIIIIIIIIIIIIIIII
AAAAAAAAAAAAAAAAAAAAAAAAAAAAAAAA11111111111IIIIIIIIIIIIIIIIIIIII
AAAAAAAAAAAAAAAAAAAAAAAAAAAAAAAAA11111111111IIIIIIIIIIIIIIIIIIII
AAAAAAAAAAAAAAAAAAAAAAAAAAAAAAAAAA11111111111IIIIIIIIIIIIIIIIIII
AAAAAAAAAAAAAAAAAAAAAAAAAAAAAAAAAAA11111111111IIIIIIIIIIIIIIIIII
AAAAAAAAAAAAAAAAAAAAAAAAAAAAAAAAAAAA11111111111IIIIIIIIIIIIIIIII
AAAAAAAAAAAAAAAAAAAAAAAAAAAAAAAAAAAAA11111111111IIIIIIIIIIIIIIII
AAAAAAAAAAAAAAAAAAAAAAAAAAAAAAAAAAAAAA11111111111IIIIIIIIIIIIIII
AAAAAAAAAAAAAAAAAAAAAAAAAAAAAAAAAAAAAAA11111111111IIIIIIIIIIIIII
AAAAAAAAAAAAAAAAAAAAAAAAAAAAAAAAAAAAAAAA11111111111IIIIIIIIIIIII
AAAAAAAAAAAAAAAAAAAAAAAAAAAAAAAAAAAAAAAAA11111111111IIIIIIIIIIII
AAAAAAAAAAAAAAAAAAAAAAAAAAAAAAAAAAAAAAAAAA11111111111IIIIIIIIIII
AAAAAAAAAAAAAAAAAAAAAAAAAAAAAAAAAAAAAAAAAAA11111111111IIIIIIIIII
AAAAAAAAAAAAAAAAAAAAAAAAAAAAAAAAAAAAAAAAAAAA11111111111IIIIIIIII
AAAAAAAAAAAAAAAAAAAAAAAAAAAAAAAAAAAAAAAAAAAAA11111111111IIIIIIII
AAAAAAAAAAAAAAAAAAAAAAAAAAAAAAAAAAAAAAAAAAAAAA11111111111IIIIIII
AAAAAAAAAAAAAAAAAAAAAAAAAAAAAAAAAAAAAAAAAAAAAAA11111111111IIIIII
AAAAAAAAAAAAAAAAAAAAAAAAAAAAAAAAAAAAAAAAAAAAAAAA11111111111IIIII
AAAAAAAAAAAAAAAAAAAAAAAAAAAAAAAAAAAAAAAAAAAAAAAAA11111111111IIII
AAAAAAAAAAAAAAAAAAAAAAAAAAAAAAAAAAAAAAAAAAAAAAAAAA11111111111III
AAAAAAAAAAAAAAAAAAAAAAAAAAAAAAAAAAAAAAAAAAAAAAAAAAA11111111111II
AAAAAAAAAAAAAAAAAAAAAAAAAAAAAAAAAAAAAAAAAAAAAAAAAAAA11111111111I
AAAAAAAAAAAAAAAAAAAAAAAAAAAAAAAAAAAAAAAAAAAAAAAAAAAAA11111111111
AAAAAAAAAAAAAAAAAAAAAAAAAAAAAAAAAAAAAAAAAAAAAAAAAAAAAA1111111111
AAAAAAAAAAAAAAAAAAAAAAAAAAAAAAAAAAAAAAAAAAAAAAAAAAAAAAA111111111
AAAAAAAAAAAAAAAAAAAAAAAAAAAAAAAAAAAAAAAAAAAAAAAAAAAAAAAA11111111
AAAAAAAAAAAAAAAAAAAAAAAAAAAAAAAAAAAAAAAAAAAAAAAAAAAAAAAAA1111111
AAAAAAAAAAAAAAAAAAAAAAAAAAAAAAAAAAAAAAAAAAAAAAAAAAAAAAAAAA111111
AAAAAAAAAAAAAAAAAAAAAAAAAAAAAAAAAAAAAAAAAAAAAAAAAAAAAAAAAAA11111
AAAAAAAAAAAAAAAAAAAAAAAAAAAAAAAAAAAAAAAAAAAAAAAAAAAAAAAAAAAA1111
AAAAAAAAAAAAAAAAAAAAAAAAAAAAAAAAAAAAAAAAAAAAAAAAAAAAAAAAAAAAA111
AAAAAAAAAAAAAAAAAAAAAAAAAAAAAAAAAAAAAAAAAAAAAAAAAAAAAAAAAAAAAA11
AAAAAAAAAAAAAAAAAAAAAAAAAAAAAAAAAAAAAAAAAAAAAAAAAAAAAAAAAAAAAAA1
AAAAAAAAAAAAAAAAAAAAAAAAAAAAAAAAAAAAAAAAAAAAAAAAAAAAAAAAAAAAAAAA
AIII111III11IIIIIIIIIIIIIIIIIIIIIIIIIIIIIIIIIIIIIIIIIIIIIIIIIIII
AAII1111II111IIIIIIIIIIIIIIIIIIIIIIIIIIIIIIIIIIIIIIIIIIIIIIIIIII
AAAI11111I1111IIIIIIIIIIIIIIIIIIIIIIIIIIIIIIIIIIIIIIIIIIIIIIIIII
AAAA11111111111IIIIIIIIIIIIIIIIIIIIIIIIIIIIIIIIIIIIIIIIIIIIIIIII
AAAAA11111111111IIIIIIIIIIIIIIIIIIIIIIIIIIIIIIIIIIIIIIIIIIIIIIII
AAAAAA11111111111IIIIIIIIIIIIIIIIIIIIIIIIIIIIIIIIIIIIIIIIIIIIIII
AAAAAAA11111111111IIIIIIIIIIIIIIIIIIIIIIIIIIIIIIIIIIIIIIIIIIIIII
AAAAAAAA11111111111IIIIIIIIIIIIIIIIIIIIIIIIIIIIIIIIIIIIIIIIIIIII
AAAAAAAAA11111111111IIIIIIIIIIIIIIIIIIIIIIIIIIIIIIIIIIIIIIIIIIII
AAAAAAAAAA11111111111IIIIIIIIIIIIIIIIIIIIIIIIIIIIIIIIIIIIIIIIIII
AAAAAAAAAAA11111111111IIIIIIIIIIIIIIIIIIIIIIIIIIIIIIIIIIIIIIIIII
AAAAAAAAAAAA11111111111IIIIIIIIIIIIIIIIIIIIIIIIIIIIIIIIIIIIIIIII
AAAAAAAAAAAAA11111111111IIIIIIIIIIIIIIIIIIIIIIIIIIIIIIIIIIIIIIII
AAAAAAAAAAAAAA11111111111IIIIIIIIIIIIIIIIIIIIIIIIIIIIIIIIIIIIIII
AAAAAAAAAAAAAAA11111111111IIIIIIIIIIIIIIIIIIIIIIIIIIIIIIIIIIIIII
AAAAAAAAAAAAAAAA11111111111IIIIIIIIIIIIIIIIIIIIIIIIIIIIIIIIIIIII
AAAAAAAAAAAAAAAAA11111111111IIIIIIIIIIIIIIIIIIIIIIIIIIIIIIIIIIII
AAAAAAAAAAAAAAAAAA11111111111IIIIIIIIIIIIIIIIIIIIIIIIIIIIIIIIIII
AAAAAAAAAAAAAAAAAAA11111111111IIIIIIIIIIIIIIIIIIIIIIIIIIIIIIIIII
AAAAAAAAAAAAAAAAAAAA11111111111IIIIIIIIIIIIIIIIIIIIIIIIIIIIIIIII
AAAAAAAAAAAAAAAAAAAAA11111111111IIIIIIIIIIIIIIIIIIIIIIIIIIIIIIII
AAAAAAAAAAAAAAAAAAAAAA11111111111IIIIIIIIIIIIIIIIIIIIIIIIIIIIIII
AAAAAAAAAAAAAAAAAAAAAAA11111111111IIIIIIIIIIIIIIIIIIIIIIIIIIIIII
AAAAAAAAAAAAAAAAAAAAAAAA11111111111IIIIIIIIIIIIIIIIIIIIIIIIIIIII
AAAAAAAAAAAAAAAAAAAAAAAAA11111111111IIIIIIIIIIIIIIIIIIIIIIIIIIII
AAAAAAAAAAAAAAAAAAAAAAAAAA11111111111IIIIIIIIIIIIIIIIIIIIIIIIIII
AAAAAAAAAAAAAAAAAAAAAAAAAAA11111111111IIIIIIIIIIIIIIIIIIIIIIIIII
AAAAAAAAAAAAAAAAAAAAAAAAAAAA11111111111IIIIIIIIIIIIIIIIIIIIIIIII
AAAAAAAAAAAAAAAAAAAAAAAAAAAAA11111111111IIIIIIIIIIIIIIIIIIIIIIII
AAAAAAAAAAAAAAAAAAAAAAAAAAAAAA11111111111IIIIIIIIIIIIIIIIIIIIIII
AAAAAAAAAAAAAAAAAAAAAAAAAAAAAAA11111111111IIIIIIIIIIIIIIIIIIIIII
AAAAAAAAAAAAAAAAAAAAAAAAAAAAAAAA11111111111IIIIIIIIIIIIIIIIIIIII
AAAAAAAAAAAAAAAAAAAAAAAAAAAAAAAAA11111111111IIIIIIIIIIIIIIIIIIII
AAAAAAAAAAAAAAAAAAAAAAAAAAAAAAAAAA11111111111IIIIIIIIIIIIIIIIIII
AAAAAAAAAAAAAAAAAAAAAAAAAAAAAAAAAAA11111111111IIIIIIIIIIIIIIIIII
AAAAAAAAAAAAAAAAAAAAAAAAAAAAAAAAAAAA11111111111IIIIIIIIIIIIIIIII
AAAAAAAAAAAAAAAAAAAAAAAAAAAAAAAAAAAAA11111111111IIIIIIIIIIIIIIII
AAAAAAAAAAAAAAAAAAAAAAAAAAAAAAAAAAAAAA11111111111IIIIIIIIIIIIIII
AAAAAAAAAAAAAAAAAAAAAAAAAAAAAAAAAAAAAAA11111111111IIIIIIIIIIIIII
AAAAAAAAAAAAAAAAAAAAAAAAAAAAAAAAAAAAAAAA11111111111IIIIIIIIIIIII
AAAAAAAAAAAAAAAAAAAAAAAAAAAAAAAAAAAAAAAAA11111111111IIIIIIIIIIII
AAAAAAAAAAAAAAAAAAAAAAAAAAAAAAAAAAAAAAAAAA11111111111IIIIIIIIIII
AAAAAAAAAAAAAAAAAAAAAAAAAAAAAAAAAAAAAAAAAAA11111111111IIIIIIIIII
AAAAAAAAAAAAAAAAAAAAAAAAAAAAAAAAAAAAAAAAAAAA11111111111IIIIIIIII
AAAAAAAAAAAAAAAAAAAAAAAAAAAAAAAAAAAAAAAAAAAAA11111111111IIIIIIII
AAAAAAAAAAAAAAAAAAAAAAAAAAAAAAAAAAAAAAAAAAAAAA11111111111IIIIIII
AAAAAAAAAAAAAAAAAAAAAAAAAAAAAAAAAAAAAAAAAAAAAAA11111111111IIIIII
AAAAAAAAAAAAAAAAAAAAAAAAAAAAAAAAAAAAAAAAAAAAAAAA11111111111IIIII
AAAAAAAAAAAAAAAAAAAAAAAAAAAAAAAAAAAAAAAAAAAAAAAAA11111111111IIII
AAAAAAAAAAAAAAAAAAAAAAAAAAAAAAAAAAAAAAAAAAAAAAAAAA11111111111III
AAAAAAAAAAAAAAAAAAAAAAAAAAAAAAAAAAAAAAAAAAAAAAAAAAA11111111111II
AAAAAAAAAAAAAAAAAAAAAAAAAAAAAAAAAAAAAAAAAAAAAAAAAAAA11111111111I
AAAAAAAAAAAAAAAAAAAAAAAAAAAAAAAAAAAAAAAAAAAAAAAAAAAAA11111111111
AAAAAAAAAAAAAAAAAAAAAAAAAAAAAAAAAAAAAAAAAAAAAAAAAAAAAA1111111111
AAAAAAAAAAAAAAAAAAAAAAAAAAAAAAAAAAAAAAAAAAAAAAAAAAAAAAA111111111
AAAAAAAAAAAAAAAAAAAAAAAAAAAAAAAAAAAAAAAAAAAAAAAAAAAAAAAA11111111
AAAAAAAAAAAAAAAAAAAAAAAAAAAAAAAAAAAAAAAAAAAAAAAAAAAAAAAAA1111111
AAAAAAAAAAAAAAAAAAAAAAAAAAAAAAAAAAAAAAAAAAAAAAAAAAAAAAAAAA111111
AAAAAAAAAAAAAAAAAAAAAAAAAAAAAAAAAAAAAAAAAAAAAAAAAAAAAAAAAAA11111
AAAAAAAAAAAAAAAAAAAAAAAAAAAAAAAAAAAAAAAAAAAAAAAAAAAAAAAAAAAA1111
AAAAAAAAAAAAAAAAAAAAAAAAAAAAAAAAAAAAAAAAAAAAAAAAAAAAAAAAAAAAA111
AAAAAAAAAAAAAAAAAAAAAAAAAAAAAAAAAAAAAAAAAAAAAAAAAAAAAAAAAAAAAA11
AAAAAAAAAAAAAAAAAAAAAAAAAAAAAAAAAAAAAAAAAAAAAAAAAAAAAAAAAAAAAAA1
AAAAAAAAAAAAAAAAAAAAAAAAAAAAAAAAAAAAAAAAAAAAAAAAAAAAAAAAAAAAAAAA
A1IIIIIIIIIIIIIIIIIIIIIIIIIIIIIIIIIIIIIIIIIIIIIIIIIIIIIIIIIIIIII
AA1IIIIIIIIIIIIIIIIIIIIIIIIIIIIIIIIIIIIIIIIIIIIIIIIIIIIIIIIIIIII
AAA1IIIIIIIIIIIIIIIIIIIIIIIIIIIIIIIIIIIIIIIIIIIIIIIIIIIIIIIIIIII
AAAA1IIIIIIIIIIIIIIIIIIIIIIIIIIIIIIIIIIIIIIIIIIIIIIIIIIIIIIIIIII
AAAAA1IIIIIIIIIIIIIIIIIIIIIIIIIIIIIIIIIIIIIIIIIIIIIIIIIIIIIIIIII
AAAAAA1IIIIIIIIIIIIIIIIIIIIIIIIIIIIIIIIIIIIIIIIIIIIIIIIIIIIIIIII
AAAAAAA1IIIIIIIIIIIIIIIIIIIIIIIIIIIIIIIIIIIIIIIIIIIIIIIIIIIIIIII
AAAAAAAA1IIIIIIIIIIIIIIIIIIIIIIIIIIIIIIIIIIIIIIIIIIIIIIIIIIIIIII
AAAAAAAAA1IIIIIIIIIIIIIIIIIIIIIIIIIIIIIIIIIIIIIIIIIIIIIIIIIIIIII
AAAAAAAAAA1IIIIIIIIIIIIIIIIIIIIIIIIIIIIIIIIIIIIIIIIIIIIIIIIIIIII
AAAAAAAAAAA1IIIIIIIIIIIIIIIIIIIIIIIIIIIIIIIIIIIIIIIIIIIIIIIIIIII
AAAAAAAAAAAA1IIIIIIIIIIIIIIIIIIIIIIIIIIIIIIIIIIIIIIIIIIIIIIIIIII
AAAAAAAAAAAAA1IIIIIIIIIIIIIIIIIIIIIIIIIIIIIIIIIIIIIIIIIIIIIIIIII
AAAAAAAAAAAAAA1IIIIIIIIIIIIIIIIIIIIIIIIIIIIIIIIIIIIIIIIIIIIIIIII
AAAAAAAAAAAAAAA1IIIIIIIIIIIIIIIIIIIIIIIIIIIIIIIIIIIIIIIIIIIIIIII
AAAAAAAAAAAAAAAA1IIIIIIIIIIIIIIIIIIIIIIIIIIIIIIIIIIIIIIIIIIIIIII
AAAAAAAAAAAAAAAAA1IIIIIIIIIIIIIIIIIIIIIIIIIIIIIIIIIIIIIIIIIIIIII
AAAAAAAAAAAAAAAAAA1IIIIIIIIIIIIIIIIIIIIIIIIIIIIIIIIIIIIIIIIIIIII
AAAAAAAAAAAAAAAAAAA1IIIIIIIIIIIIIIIIIIIIIIIIIIIIIIIIIIIIIIIIIIII
AAAAAAAAAAAAAAAAAAAA1IIIIIIIIIIIIIIIIIIIIIIIIIIIIIIIIIIIIIIIIIII
AAAAAAAAAAAAAAAAAAAAA1IIIIIIIIIIIIIIIIIIIIIIIIIIIIIIIIIIIIIIIIII
AAAAAAAAAAAAAAAAAAAAAA1IIIIIIIIIIIIIIIIIIIIIIIIIIIIIIIIIIIIIIIII
AAAAAAAAAAAAAAAAAAAAAAA1IIIIIIIIIIIIIIIIIIIIIIIIIIIIIIIIIIIIIIII
AAAAAAAAAAAAAAAAAAAAAAAA1IIIIIIIIIIIIIIIIIIIIIIIIIIIIIIIIIIIIIII
AAAAAAAAAAAAAAAAAAAAAAAAA1IIIIIIIIIIIIIIIIIIIIIIIIIIIIIIIIIIIIII
AAAAAAAAAAAAAAAAAAAAAAAAAA1IIIIIIIIIIIIIIIIIIIIIIIIIIIIIIIIIIIII
AAAAAAAAAAAAAAAAAAAAAAAAAAA1IIIIIIIIIIIIIIIIIIIIIIIIIIIIIIIIIIII
AAAAAAAAAAAAAAAAAAAAAAAAAAAA1IIIIIIIIIIIIIIIIIIIIIIIIIIIIIIIIIII
AAAAAAAAAAAAAAAAAAAAAAAAAAAAA1IIIIIIIIIIIIIIIIIIIIIIIIIIIIIIIIII
AAAAAAAAAAAAAAAAAAAAAAAAAAAAAA1IIIIIIIIIIIIIIIIIIIIIIIIIIIIIIIII
AAAAAAAAAAAAAAAAAAAAAAAAAAAAAAA1IIIIIIIIIIIIIIIIIIIIIIIIIIIIIIII
AAAAAAAAAAAAAAAAAAAAAAAAAAAAAAAA1IIIIIIIIIIIIIIIIIIIIIIIIIIIIIII
AAAAAAAAAAAAAAAAAAAAAAAAAAAAAAAAA1IIIIIIIIIIIIIIIIIIIIIIIIIIIIII
AAAAAAAAAAAAAAAAAAAAAAAAAAAAAAAAAA1IIIIIIIIIIIIIIIIIIIIIIIIIIIII
AAAAAAAAAAAAAAAAAAAAAAAAAAAAAAAAAAA1IIIIIIIIIIIIIIIIIIIIIIIIIIII
AAAAAAAAAAAAAAAAAAAAAAAAAAAAAAAAAAAA1IIIIIIIIIIIIIIIIIIIIIIIIIII
AAAAAAAAAAAAAAAAAAAAAAAAAAAAAAAAAAAAA1IIIIIIIIIIIIIIIIIIIIIIIIII
AAAAAAAAAAAAAAAAAAAAAAAAAAAAAAAAAAAAAA1IIIIIIIIIIIIIIIIIIIIIIIII
AAAAAAAAAAAAAAAAAAAAAAAAAAAAAAAAAAAAAAA1IIIIIIIIIIIIIIIIIIIIIIII
AAAAAAAAAAAAAAAAAAAAAAAAAAAAAAAAAAAAAAAA1IIIIIIIIIIIIIIIIIIIIIII
AAAAAAAAAAAAAAAAAAAAAAAAAAAAAAAAAAAAAAAAA1IIIIIIIIIIIIIIIIIIIIII
AAAAAAAAAAAAAAAAAAAAAAAAAAAAAAAAAAAAAAAAAA1IIIIIIIIIIIIIIIIIIIII
AAAAAAAAAAAAAAAAAAAAAAAAAAAAAAAAAAAAAAAAAAA1IIIIIIIIIIIIIIIIIIII
AAAAAAAAAAAAAAAAAAAAAAAAAAAAAAAAAAAAAAAAAAAA1IIIIIIIIIIIIIIIIIII
AAAAAAAAAAAAAAAAAAAAAAAAAAAAAAAAAAAAAAAAAAAAA1IIIIIIIIIIIIIIIIII
AAAAAAAAAAAAAAAAAAAAAAAAAAAAAAAAAAAAAAAAAAAAAA1IIIIIIIIIIIIIIIII
AAAAAAAAAAAAAAAAAAAAAAAAAAAAAAAAAAAAAAAAAAAAAAA1IIIIIIIIIIIIIIII
AAAAAAAAAAAAAAAAAAAAAAAAAAAAAAAAAAAAAAAAAAAAAAAA1IIIIIIIIIIIIIII
AAAAAAAAAAAAAAAAAAAAAAAAAAAAAAAAAAAAAAAAAAAAAAAAA1IIIIIIIIIIIIII
AAAAAAAAAAAAAAAAAAAAAAAAAAAAAAAAAAAAAAAAAAAAAAAAAA1IIIIIIIIIIIII
AAAAAAAAAAAAAAAAAAAAAAAAAAAAAAAAAAAAAAAAAAAAAAAAAAA1IIIIIIIIIIII
AAAAAAAAAAAAAAAAAAAAAAAAAAAAAAAAAAAAAAAAAAAAAAAAAAAA1IIIIIIIIIII
AAAAAAAAAAAAAAAAAAAAAAAAAAAAAAAAAAAAAAAAAAAAAAAAAAAAA1IIIIIIIIII
AAAAAAAAAAAAAAAAAAAAAAAAAAAAAAAAAAAAAAAAAAAAAAAAAAAAAA1IIIIIIIII
AAAAAAAAAAAAAAAAAAAAAAAAAAAAAAAAAAAAAAAAAAAAAAAAAAAAAAA1IIIIIIII
AAAAAAAAAAAAAAAAAAAAAAAAAAAAAAAAAAAAAAAAAAAAAAAAAAAAAAAA1IIIIIII
AAAAAAAAAAAAAAAAAAAAAAAAAAAAAAAAAAAAAAAAAAAAAAAAAAAAAAAAA1IIIIII
AAAAAAAAAAAAAAAAAAAAAAAAAAAAAAAAAAAAAAAAAAAAAAAAAAAAAAAAAA1IIIII
AAAAAAAAAAAAAAAAAAAAAAAAAAAAAAAAAAAAAAAAAAAAAAAAAAAAAAAAAAA1IIII
AAAAAAAAAAAAAAAAAAAAAAAAAAAAAAAAAAAAAAAAAAAAAAAAAAAAAAAAAAAA1III
AAAAAAAAAAAAAAAAAAAAAAAAAAAAAAAAAAAAAAAAAAAAAAAAAAAAAAAAAAAAA1II
AAAAAAAAAAAAAAAAAAAAAAAAAAAAAAAAAAAAAAAAAAAAAAAAAAAAAAAAAAAAAA1I
AAAAAAAAAAAAAAAAAAAAAAAAAAAAAAAAAAAAAAAAAAAAAAAAAAAAAAAAAAAAAAA1
AAAAAAAAAAAAAAAAAAAAAAAAAAAAAAAAAAAAAAAAAAAAAAAAAAAAAAAAAAAAAAAA
AIII111III11IIIIIIIIIIIIIIIIIIIIIIIIIIIIIIIIIIIIIIIIIIIIIIIIIIII
AAII1111II111IIIIIIIIIIIIIIIIIIIIIIIIIIIIIIIIIIIIIIIIIIIIIIIIIII
AAAI11111I1111IIIIIIIIIIIIIIIIIIIIIIIIIIIIIIIIIIIIIIIIIIIIIIIIII
AAAA11111111111IIIIIIIIIIIIIIIIIIIIIIIIIIIIIIIIIIIIIIIIIIIIIIIII
AAAAA11111111111IIIIIIIIIIIIIIIIIIIIIIIIIIIIIIIIIIIIIIIIIIIIIIII
AAAAAA11111111111IIIIIIIIIIIIIIIIIIIIIIIIIIIIIIIIIIIIIIIIIIIIIII
AAAAAAA11111111111IIIIIIIIIIIIIIIIIIIIIIIIIIIIIIIIIIIIIIIIIIIIII
AAAAAAAA11111111111IIIIIIIIIIIIIIIIIIIIIIIIIIIIIIIIIIIIIIIIIIIII
AAAAAAAAA11111111111IIIIIIIIIIIIIIIIIIIIIIIIIIIIIIIIIIIIIIIIIIII
AAAAAAAAAA11111111111IIIIIIIIIIIIIIIIIIIIIIIIIIIIIIIIIIIIIIIIIII
AAAAAAAAAAA11111111111IIIIIIIIIIIIIIIIIIIIIIIIIIIIIIIIIIIIIIIIII
AAAAAAAAAAAA11111111111IIIIIIIIIIIIIIIIIIIIIIIIIIIIIIIIIIIIIIIII
AAAAAAAAAAAAA11111111111IIIIIIIIIIIIIIIIIIIIIIIIIIIIIIIIIIIIIIII
AAAAAAAAAAAAAA11111111111IIIIIIIIIIIIIIIIIIIIIIIIIIIIIIIIIIIIIII
AAAAAAAAAAAAAAA11111111111IIIIIIIIIIIIIIIIIIIIIIIIIIIIIIIIIIIIII
AAAAAAAAAAAAAAAA11111111111IIIIIIIIIIIIIIIIIIIIIIIIIIIIIIIIIIIII
AAAAAAAAAAAAAAAAA11111111111IIIIIIIIIIIIIIIIIIIIIIIIIIIIIIIIIIII
AAAAAAAAAAAAAAAAAA11111111111IIIIIIIIIIIIIIIIIIIIIIIIIIIIIIIIIII
AAAAAAAAAAAAAAAAAAA11111111111IIIIIIIIIIIIIIIIIIIIIIIIIIIIIIIIII
AAAAAAAAAAAAAAAAAAAA11111111111IIIIIIIIIIIIIIIIIIIIIIIIIIIIIIIII
AAAAAAAAAAAAAAAAAAAAA11111111111IIIIIIIIIIIIIIIIIIIIIIIIIIIIIIII
AAAAAAAAAAAAAAAAAAAAAA11111111111IIIIIIIIIIIIIIIIIIIIIIIIIIIIIII
AAAAAAAAAAAAAAAAAAAAAAA11111111111IIIIIIIIIIIIIIIIIIIIIIIIIIIIII
AAAAAAAAAAAAAAAAAAAAAAAA11111111111IIIIIIIIIIIIIIIIIIIIIIIIIIIII
AAAAAAAAAAAAAAAAAAAAAAAAA11111111111IIIIIIIIIIIIIIIIIIIIIIIIIIII
AAAAAAAAAAAAAAAAAAAAAAAAAA11111111111IIIIIIIIIIIIIIIIIIIIIIIIIII
AAAAAAAAAAAAAAAAAAAAAAAAAAA11111111111IIIIIIIIIIIIIIIIIIIIIIIIII
AAAAAAAAAAAAAAAAAAAAAAAAAAAA11111111111IIIIIIIIIIIIIIIIIIIIIIIII
AAAAAAAAAAAAAAAAAAAAAAAAAAAAA11111111111IIIIIIIIIIIIIIIIIIIIIIII
AAAAAAAAAAAAAAAAAAAAAAAAAAAAAA11111111111IIIIIIIIIIIIIIIIIIIIIII
AAAAAAAAAAAAAAAAAAAAAAAAAAAAAAA11111111111IIIIIIIIIIIIIIIIIIIIII
AAAAAAAAAAAAAAAAAAAAAAAAAAAAAAAA11111111111IIIIIIIIIIIIIIIIIIIII
AAAAAAAAAAAAAAAAAAAAAAAAAAAAAAAAA11111111111IIIIIIIIIIIIIIIIIIII
AAAAAAAAAAAAAAAAAAAAAAAAAAAAAAAAAA11111111111IIIIIIIIIIIIIIIIIII
AAAAAAAAAAAAAAAAAAAAAAAAAAAAAAAAAAA11111111111IIIIIIIIIIIIIIIIII
AAAAAAAAAAAAAAAAAAAAAAAAAAAAAAAAAAAA11111111111IIIIIIIIIIIIIIIII
AAAAAAAAAAAAAAAAAAAAAAAAAAAAAAAAAAAAA11111111111IIIIIIIIIIIIIIII
AAAAAAAAAAAAAAAAAAAAAAAAAAAAAAAAAAAAAA11111111111IIIIIIIIIIIIIII
AAAAAAAAAAAAAAAAAAAAAAAAAAAAAAAAAAAAAAA11111111111IIIIIIIIIIIIII
AAAAAAAAAAAAAAAAAAAAAAAAAAAAAAAAAAAAAAAA11111111111IIIIIIIIIIIII
AAAAAAAAAAAAAAAAAAAAAAAAAAAAAAAAAAAAAAAAA11111111111IIIIIIIIIIII
AAAAAAAAAAAAAAAAAAAAAAAAAAAAAAAAAAAAAAAAAA11111111111IIIIIIIIIII
AAAAAAAAAAAAAAAAAAAAAAAAAAAAAAAAAAAAAAAAAAA11111111111IIIIIIIIII
AAAAAAAAAAAAAAAAAAAAAAAAAAAAAAAAAAAAAAAAAAAA11111111111IIIIIIIII
AAAAAAAAAAAAAAAAAAAAAAAAAAAAAAAAAAAAAAAAAAAAA11111111111IIIIIIII
AAAAAAAAAAAAAAAAAAAAAAAAAAAAAAAAAAAAAAAAAAAAAA11111111111IIIIIII
AAAAAAAAAAAAAAAAAAAAAAAAAAAAAAAAAAAAAAAAAAAAAAA11111111111IIIIII
AAAAAAAAAAAAAAAAAAAAAAAAAAAAAAAAAAAAAAAAAAAAAAAA11111111111IIIII
AAAAAAAAAAAAAAAAAAAAAAAAAAAAAAAAAAAAAAAAAAAAAAAAA11111111111IIII
AAAAAAAAAAAAAAAAAAAAAAAAAAAAAAAAAAAAAAAAAAAAAAAAAA11111111111III
AAAAAAAAAAAAAAAAAAAAAAAAAAAAAAAAAAAAAAAAAAAAAAAAAAA11111111111II
AAAAAAAAAAAAAAAAAAAAAAAAAAAAAAAAAAAAAAAAAAAAAAAAAAAA11111111111I
AAAAAAAAAAAAAAAAAAAAAAAAAAAAAAAAAAAAAAAAAAAAAAAAAAAAA11111111111
AAAAAAAAAAAAAAAAAAAAAAAAAAAAAAAAAAAAAAAAAAAAAAAAAAAAAA1111111111
AAAAAAAAAAAAAAAAAAAAAAAAAAAAAAAAAAAAAAAAAAAAAAAAAAAAAAA111111111
AAAAAAAAAAAAAAAAAAAAAAAAAAAAAAAAAAAAAAAAAAAAAAAAAAAAAAAA11111111
AAAAAAAAAAAAAAAAAAAAAAAAAAAAAAAAAAAAAAAAAAAAAAAAAAAAAAAAA1111111
AAAAAAAAAAAAAAAAAAAAAAAAAAAAAAAAAAAAAAAAAAAAAAAAAAAAAAAAAA111111
AAAAAAAAAAAAAAAAAAAAAAAAAAAAAAAAAAAAAAAAAAAAAAAAAAAAAAAAAAA11111
AAAAAAAAAAAAAAAAAAAAAAAAAAAAAAAAAAAAAAAAAAAAAAAAAAAAAAAAAAAA1111
AAAAAAAAAAAAAAAAAAAAAAAAAAAAAAAAAAAAAAAAAAAAAAAAAAAAAAAAAAAAA111
AAAAAAAAAAAAAAAAAAAAAAAAAAAAAAAAAAAAAAAAAAAAAAAAAAAAAAAAAAAAAA11
AAAAAAAAAAAAAAAAAAAAAAAAAAAAAAAAAAAAAAAAAAAAAAAAAAAAAAAAAAAAAAA1
AAAAAAAAAAAAAAAAAAAAAAAAAAAAAAAAAAAAAAAAAAAAAAAAAAAAAAAAAAAAAAAA
AI11111111IIIIIIIIIIIIIIIIIIIIIIIIIIIIIIIIIIIIIIIIIIIIIIIIIIIIII
AA111111111IIIIIIIIIIIIIIIIIIIIIIIIIIIIIIIIIIIIIIIIIIIIIIIIIIIII
AAA111111111IIIIIIIIIIIIIIIIIIIIIIIIIIIIIIIIIIIIIIIIIIIIIIIIIIII
AAAA111111111IIIIIIIIIIIIIIIIIIIIIIIIIIIIIIIIIIIIIIIIIIIIIIIIIII
AAAAA111111111IIIIIIIIIIIIIIIIIIIIIIIIIIIIIIIIIIIIIIIIIIIIIIIIII
AAAAAA111111111IIIIIIIIIIIIIIIIIIIIIIIIIIIIIIIIIIIIIIIIIIIIIIIII
AAAAAAA111111111IIIIIIIIIIIIIIIIIIIIIIIIIIIIIIIIIIIIIIIIIIIIIIII
AAAAAAAA111111111IIIIIIIIIIIIIIIIIIIIIIIIIIIIIIIIIIIIIIIIIIIIIII
AAAAAAAAA111111111IIIIIIIIIIIIIIIIIIIIIIIIIIIIIIIIIIIIIIIIIIIIII
AAAAAAAAAA111111111IIIIIIIIIIIIIIIIIIIIIIIIIIIIIIIIIIIIIIIIIIIII
AAAAAAAAAAA111111111IIIIIIIIIIIIIIIIIIIIIIIIIIIIIIIIIIIIIIIIIIII
AAAAAAAAAAAA111111111IIIIIIIIIIIIIIIIIIIIIIIIIIIIIIIIIIIIIIIIIII
AAAAAAAAAAAAA111111111IIIIIIIIIIIIIIIIIIIIIIIIIIIIIIIIIIIIIIIIII
AAAAAAAAAAAAAA111111111IIIIIIIIIIIIIIIIIIIIIIIIIIIIIIIIIIIIIIIII
AAAAAAAAAAAAAAA111111111IIIIIIIIIIIIIIIIIIIIIIIIIIIIIIIIIIIIIIII
AAAAAAAAAAAAAAAA111111111IIIIIIIIIIIIIIIIIIIIIIIIIIIIIIIIIIIIIII
AAAAAAAAAAAAAAAAA111111111IIIIIIIIIIIIIIIIIIIIIIIIIIIIIIIIIIIIII
AAAAAAAAAAAAAAAAAA111111111IIIIIIIIIIIIIIIIIIIIIIIIIIIIIIIIIIIII
AAAAAAAAAAAAAAAAAAA111111111IIIIIIIIIIIIIIIIIIIIIIIIIIIIIIIIIIII
AAAAAAAAAAAAAAAAAAAA111111111IIIIIIIIIIIIIIIIIIIIIIIIIIIIIIIIIII
AAAAAAAAAAAAAAAAAAAAA111111111IIIIIIIIIIIIIIIIIIIIIIIIIIIIIIIIII
AAAAAAAAAAAAAAAAAAAAAA111111111IIIIIIIIIIIIIIIIIIIIIIIIIIIIIIIII
AAAAAAAAAAAAAAAAAAAAAAA111111111IIIIIIIIIIIIIIIIIIIIIIIIIIIIIIII
AAAAAAAAAAAAAAAAAAAAAAAA111111111IIIIIIIIIIIIIIIIIIIIIIIIIIIIIII
AAAAAAAAAAAAAAAAAAAAAAAAA111111111IIIIIIIIIIIIIIIIIIIIIIIIIIIIII
AAAAAAAAAAAAAAAAAAAAAAAAAA111111111IIIIIIIIIIIIIIIIIIIIIIIIIIIII
AAAAAAAAAAAAAAAAAAAAAAAAAAA111111111IIIIIIIIIIIIIIIIIIIIIIIIIIII
AAAAAAAAAAAAAAAAAAAAAAAAAAAA111111111IIIIIIIIIIIIIIIIIIIIIIIIIII
AAAAAAAAAAAAAAAAAAAAAAAAAAAAA111111111IIIIIIIIIIIIIIIIIIIIIIIIII
AAAAAAAAAAAAAAAAAAAAAAAAAAAAAA111111111IIIIIIIIIIIIIIIIIIIIIIIII
AAAAAAAAAAAAAAAAAAAAAAAAAAAAAAA111111111IIIIIIIIIIIIIIIIIIIIIIII
AAAAAAAAAAAAAAAAAAAAAAAAAAAAAAAA111111111IIIIIIIIIIIIIIIIIIIIIII
AAAAAAAAAAAAAAAAAAAAAAAAAAAAAAAAA111111111IIIIIIIIIIIIIIIIIIIIII
AAAAAAAAAAAAAAAAAAAAAAAAAAAAAAAAAA111111111IIIIIIIIIIIIIIIIIIIII
AAAAAAAAAAAAAAAAAAAAAAAAAAAAAAAAAAA111111111IIIIIIIIIIIIIIIIIIII
AAAAAAAAAAAAAAAAAAAAAAAAAAAAAAAAAAAA111111111IIIIIIIIIIIIIIIIIII
AAAAAAAAAAAAAAAAAAAAAAAAAAAAAAAAAAAAA111111111IIIIIIIIIIIIIIIIII
AAAAAAAAAAAAAAAAAAAAAAAAAAAAAAAAAAAAAA111111111IIIIIIIIIIIIIIIII
AAAAAAAAAAAAAAAAAAAAAAAAAAAAAAAAAAAAAAA111111111IIIIIIIIIIIIIIII
AAAAAAAAAAAAAAAAAAAAAAAAAAAAAAAAAAAAAAAA111111111IIIIIIIIIIIIIII
AAAAAAAAAAAAAAAAAAAAAAAAAAAAAAAAAAAAAAAAA111111111IIIIIIIIIIIIII
AAAAAAAAAAAAAAAAAAAAAAAAAAAAAAAAAAAAAAAAAA111111111IIIIIIIIIIIII
AAAAAAAAAAAAAAAAAAAAAAAAAAAAAAAAAAAAAAAAAAA111111111IIIIIIIIIIII
AAAAAAAAAAAAAAAAAAAAAAAAAAAAAAAAAAAAAAAAAAAA111111111IIIIIIIIIII
AAAAAAAAAAAAAAAAAAAAAAAAAAAAAAAAAAAAAAAAAAAAA111111111IIIIIIIIII
AAAAAAAAAAAAAAAAAAAAAAAAAAAAAAAAAAAAAAAAAAAAAA111111111IIIIIIIII
AAAAAAAAAAAAAAAAAAAAAAAAAAAAAAAAAAAAAAAAAAAAAAA111111111IIIIIIII
AAAAAAAAAAAAAAAAAAAAAAAAAAAAAAAAAAAAAAAAAAAAAAAA111111111IIIIIII
AAAAAAAAAAAAAAAAAAAAAAAAAAAAAAAAAAAAAAAAAAAAAAAAA111111111IIIIII
AAAAAAAAAAAAAAAAAAAAAAAAAAAAAAAAAAAAAAAAAAAAAAAAAA111111111IIIII
AAAAAAAAAAAAAAAAAAAAAAAAAAAAAAAAAAAAAAAAAAAAAAAAAAA111111111IIII
AAAAAAAAAAAAAAAAAAAAAAAAAAAAAAAAAAAAAAAAAAAAAAAAAAAA111111111III
AAAAAAAAAAAAAAAAAAAAAAAAAAAAAAAAAAAAAAAAAAAAAAAAAAAAA111111111II
AAAAAAAAAAAAAAAAAAAAAAAAAAAAAAAAAAAAAAAAAAAAAAAAAAAAAA111111111I
AAAAAAAAAAAAAAAAAAAAAAAAAAAAAAAAAAAAAAAAAAAAAAAAAAAAAAA111111111
AAAAAAAAAAAAAAAAAAAAAAAAAAAAAAAAAAAAAAAAAAAAAAAAAAAAAAAA11111111
AAAAAAAAAAAAAAAAAAAAAAAAAAAAAAAAAAAAAAAAAAAAAAAAAAAAAAAAA1111111
AAAAAAAAAAAAAAAAAAAAAAAAAAAAAAAAAAAAAAAAAAAAAAAAAAAAAAAAAA111111
AAAAAAAAAAAAAAAAAAAAAAAAAAAAAAAAAAAAAAAAAAAAAAAAAAAAAAAAAAA11111
AAAAAAAAAAAAAAAAAAAAAAAAAAAAAAAAAAAAAAAAAAAAAAAAAAAAAAAAAAAA1111
AAAAAAAAAAAAAAAAAAAAAAAAAAAAAAAAAAAAAAAAAAAAAAAAAAAAAAAAAAAAA111
AAAAAAAAAAAAAAAAAAAAAAAAAAAAAAAAAAAAAAAAAAAAAAAAAAAAAAAAAAAAAA11
AAAAAAAAAAAAAAAAAAAAAAAAAAAAAAAAAAAAAAAAAAAAAAAAAAAAAAAAAAAAAAA1
AAAAAAAAAAAAAAAAAAAAAAAAAAAAAAAAAAAAAAAAAAAAAAAAAAAAAAAAAAAAAAAA
AIII111III11IIIIIIIIIIIIIIIIIIIIIIIIIIIIIIIIIIIIIIIIIIIIIIIIIIII
AAII1111II111IIIIIIIIIIIIIIIIIIIIIIIIIIIIIIIIIIIIIIIIIIIIIIIIIII
AAAI11111I1111IIIIIIIIIIIIIIIIIIIIIIIIIIIIIIIIIIIIIIIIIIIIIIIIII
AAAA11111111111IIIIIIIIIIIIIIIIIIIIIIIIIIIIIIIIIIIIIIIIIIIIIIIII
AAAAA11111111111IIIIIIIIIIIIIIIIIIIIIIIIIIIIIIIIIIIIIIIIIIIIIIII
AAAAAA11111111111IIIIIIIIIIIIIIIIIIIIIIIIIIIIIIIIIIIIIIIIIIIIIII
AAAAAAA11111111111IIIIIIIIIIIIIIIIIIIIIIIIIIIIIIIIIIIIIIIIIIIIII
AAAAAAAA11111111111IIIIIIIIIIIIIIIIIIIIIIIIIIIIIIIIIIIIIIIIIIIII
AAAAAAAAA11111111111IIIIIIIIIIIIIIIIIIIIIIIIIIIIIIIIIIIIIIIIIIII
AAAAAAAAAA11111111111IIIIIIIIIIIIIIIIIIIIIIIIIIIIIIIIIIIIIIIIIII
AAAAAAAAAAA11111111111IIIIIIIIIIIIIIIIIIIIIIIIIIIIIIIIIIIIIIIIII
AAAAAAAAAAAA11111111111IIIIIIIIIIIIIIIIIIIIIIIIIIIIIIIIIIIIIIIII
AAAAAAAAAAAAA11111111111IIIIIIIIIIIIIIIIIIIIIIIIIIIIIIIIIIIIIIII
AAAAAAAAAAAAAA11111111111IIIIIIIIIIIIIIIIIIIIIIIIIIIIIIIIIIIIIII
AAAAAAAAAAAAAAA11111111111IIIIIIIIIIIIIIIIIIIIIIIIIIIIIIIIIIIIII
AAAAAAAAAAAAAAAA11111111111IIIIIIIIIIIIIIIIIIIIIIIIIIIIIIIIIIIII
AAAAAAAAAAAAAAAAA11111111111IIIIIIIIIIIIIIIIIIIIIIIIIIIIIIIIIIII
AAAAAAAAAAAAAAAAAA11111111111IIIIIIIIIIIIIIIIIIIIIIIIIIIIIIIIIII
AAAAAAAAAAAAAAAAAAA11111111111IIIIIIIIIIIIIIIIIIIIIIIIIIIIIIIIII
AAAAAAAAAAAAAAAAAAAA11111111111IIIIIIIIIIIIIIIIIIIIIIIIIIIIIIIII
AAAAAAAAAAAAAAAAAAAAA11111111111IIIIIIIIIIIIIIIIIIIIIIIIIIIIIIII
AAAAAAAAAAAAAAAAAAAAAA11111111111IIIIIIIIIIIIIIIIIIIIIIIIIIIIIII
AAAAAAAAAAAAAAAAAAAAAAA11111111111IIIIIIIIIIIIIIIIIIIIIIIIIIIIII
AAAAAAAAAAAAAAAAAAAAAAAA11111111111IIIIIIIIIIIIIIIIIIIIIIIIIIIII
AAAAAAAAAAAAAAAAAAAAAAAAA11111111111IIIIIIIIIIIIIIIIIIIIIIIIIIII
AAAAAAAAAAAAAAAAAAAAAAAAAA11111111111IIIIIIIIIIIIIIIIIIIIIIIIIII
AAAAAAAAAAAAAAAAAAAAAAAAAAA11111111111IIIIIIIIIIIIIIIIIIIIIIIIII
AAAAAAAAAAAAAAAAAAAAAAAAAAAA11111111111IIIIIIIIIIIIIIIIIIIIIIIII
AAAAAAAAAAAAAAAAAAAAAAAAAAAAA11111111111IIIIIIIIIIIIIIIIIIIIIIII
AAAAAAAAAAAAAAAAAAAAAAAAAAAAAA11111111111IIIIIIIIIIIIIIIIIIIIIII
AAAAAAAAAAAAAAAAAAAAAAAAAAAAAAA11111111111IIIIIIIIIIIIIIIIIIIIII
AAAAAAAAAAAAAAAAAAAAAAAAAAAAAAAA11111111111IIIIIIIIIIIIIIIIIIIII
AAAAAAAAAAAAAAAAAAAAAAAAAAAAAAAAA11111111111IIIIIIIIIIIIIIIIIIII
[...]
AAAAAAAAAAAAAAAAAAAAAAAAAAAAAAAAAAAAAAAAAAAAAAAAAAAAAAAAAAAAA111
AAAAAAAAAAAAAAAAAAAAAAAAAAAAAAAAAAAAAAAAAAAAAAAAAAAAAAAAAAAAAA11
AAAAAAAAAAAAAAAAAAAAAAAAAAAAAAAAAAAAAAAAAAAAAAAAAAAAAAAAAAAAAAA1
AAAAAAAAAAAAAAAAAAAAAAAAAAAAAAAAAAAAAAAAAAAAAAAAAAAAAAAAAAAAAAAA
A1III2IIIIIIIIIIIIIIIIIIIIIIIIIIIIIIIIIIIIIIIIIIIIIIIIIIIIIIIIII
AA1II22IIIIIIIIIIIIIIIIIIIIIIIIIIIIIIIIIIIIIIIIIIIIIIIIIIIIIIIII
AAA1I222IIIIIIIIIIIIIIIIIIIIIIIIIIIIIIIIIIIIIIIIIIIIIIIIIIIIIIII
AAAA12222IIIIIIIIIIIIIIIIIIIIIIIIIIIIIIIIIIIIIIIIIIIIIIIIIIIIIII
AAAAA12222IIIIIIIIIIIIIIIIIIIIIIIIIIIIIIIIIIIIIIIIIIIIIIIIIIIIII
AAAAAA12222IIIIIIIIIIIIIIIIIIIIIIIIIIIIIIIIIIIIIIIIIIIIIIIIIIIII
AAAAAAA12222IIIIIIIIIIIIIIIIIIIIIIIIIIIIIIIIIIIIIIIIIIIIIIIIIIII
AAAAAAAA12222IIIIIIIIIIIIIIIIIIIIIIIIIIIIIIIIIIIIIIIIIIIIIIIIIII
AAAAAAAAA12222IIIIIIIIIIIIIIIIIIIIIIIIIIIIIIIIIIIIIIIIIIIIIIIIII
AAAAAAAAAA12222IIIIIIIIIIIIIIIIIIIIIIIIIIIIIIIIIIIIIIIIIIIIIIIII
AAAAAAAAAAA12222IIIIIIIIIIIIIIIIIIIIIIIIIIIIIIIIIIIIIIIIIIIIIIII
AAAAAAAAAAAA12222IIIIIIIIIIIIIIIIIIIIIIIIIIIIIIIIIIIIIIIIIIIIIII
AAAAAAAAAAAAA12222IIIIIIIIIIIIIIIIIIIIIIIIIIIIIIIIIIIIIIIIIIIIII
AAAAAAAAAAAAAA12222IIIIIIIIIIIIIIIIIIIIIIIIIIIIIIIIIIIIIIIIIIIII
AAAAAAAAAAAAAAA12222IIIIIIIIIIIIIIIIIIIIIIIIIIIIIIIIIIIIIIIIIIII
AAAAAAAAAAAAAAAA12222IIIIIIIIIIIIIIIIIIIIIIIIIIIIIIIIIIIIIIIIIII
AAAAAAAAAAAAAAAAA12222IIIIIIIIIIIIIIIIIIIIIIIIIIIIIIIIIIIIIIIIII
AAAAAAAAAAAAAAAAAA12222IIIIIIIIIIIIIIIIIIIIIIIIIIIIIIIIIIIIIIIII
AAAAAAAAAAAAAAAAAAA12222IIIIIIIIIIIIIIIIIIIIIIIIIIIIIIIIIIIIIIII
AAAAAAAAAAAAAAAAAAAA12222IIIIIIIIIIIIIIIIIIIIIIIIIIIIIIIIIIIIIII
AAAAAAAAAAAAAAAAAAAAA12222IIIIIIIIIIIIIIIIIIIIIIIIIIIIIIIIIIIIII
AAAAAAAAAAAAAAAAAAAAAA12222IIIIIIIIIIIIIIIIIIIIIIIIIIIIIIIIIIIII
AAAAAAAAAAAAAAAAAAAAAAA12222IIIIIIIIIIIIIIIIIIIIIIIIIIIIIIIIIIII
AAAAAAAAAAAAAAAAAAAAAAAA12222IIIIIIIIIIIIIIIIIIIIIIIIIIIIIIIIIII
AAAAAAAAAAAAAAAAAAAAAAAAA12222IIIIIIIIIIIIIIIIIIIIIIIIIIIIIIIIII
AAAAAAAAAAAAAAAAAAAAAAAAAA12222IIIIIIIIIIIIIIIIIIIIIIIIIIIIIIIII
AAAAAAAAAAAAAAAAAAAAAAAAAAA12222IIIIIIIIIIIIIIIIIIIIIIIIIIIIIIII
AAAAAAAAAAAAAAAAAAAAAAAAAAAA12222IIIIIIIIIIIIIIIIIIIIIIIIIIIIIII
AAAAAAAAAAAAAAAAAAAAAAAAAAAAA12222IIIIIIIIIIIIIIIIIIIIIIIIIIIIII
AAAAAAAAAAAAAAAAAAAAAAAAAAAAAA12222IIIIIIIIIIIIIIIIIIIIIIIIIIIII
AAAAAAAAAAAAAAAAAAAAAAAAAAAAAAA12222IIIIIIIIIIIIIIIIIIIIIIIIIIII
AAAAAAAAAAAAAAAAAAAAAAAAAAAAAAAA12222IIIIIIIIIIIIIIIIIIIIIIIIIII
AAAAAAAAAAAAAAAAAAAAAAAAAAAAAAAAA12222IIIIIIIIIIIIIIIIIIIIIIIIII
AAAAAAAAAAAAAAAAAAAAAAAAAAAAAAAAAA12222IIIIIIIIIIIIIIIIIIIIIIIII
AAAAAAAAAAAAAAAAAAAAAAAAAAAAAAAAAAA12222IIIIIIIIIIIIIIIIIIIIIIII
AAAAAAAAAAAAAAAAAAAAAAAAAAAAAAAAAAAA12222IIIIIIIIIIIIIIIIIIIIIII
AAAAAAAAAAAAAAAAAAAAAAAAAAAAAAAAAAAAA12222IIIIIIIIIIIIIIIIIIIIII
AAAAAAAAAAAAAAAAAAAAAAAAAAAAAAAAAAAAAA12222IIIIIIIIIIIIIIIIIIIII
AAAAAAAAAAAAAAAAAAAAAAAAAAAAAAAAAAAAAAA12222IIIIIIIIIIIIIIIIIIII
AAAAAAAAAAAAAAAAAAAAAAAAAAAAAAAAAAAAAAAA12222IIIIIIIIIIIIIIIIIII
AAAAAAAAAAAAAAAAAAAAAAAAAAAAAAAAAAAAAAAAA12222IIIIIIIIIIIIIIIIII
AAAAAAAAAAAAAAAAAAAAAAAAAAAAAAAAAAAAAAAAAA12222IIIIIIIIIIIIIIIII
AAAAAAAAAAAAAAAAAAAAAAAAAAAAAAAAAAAAAAAAAAA12222IIIIIIIIIIIIIIII
AAAAAAAAAAAAAAAAAAAAAAAAAAAAAAAAAAAAAAAAAAAA12222IIIIIIIIIIIIIII
AAAAAAAAAAAAAAAAAAAAAAAAAAAAAAAAAAAAAAAAAAAAA12222IIIIIIIIIIIIII
AAAAAAAAAAAAAAAAAAAAAAAAAAAAAAAAAAAAAAAAAAAAAA12222IIIIIIIIIIIII
AAAAAAAAAAAAAAAAAAAAAAAAAAAAAAAAAAAAAAAAAAAAAAA12222IIIIIIIIIIII
AAAAAAAAAAAAAAAAAAAAAAAAAAAAAAAAAAAAAAAAAAAAAAAA12222IIIIIIIIIII
AAAAAAAAAAAAAAAAAAAAAAAAAAAAAAAAAAAAAAAAAAAAAAAAA12222IIIIIIIIII
AAAAAAAAAAAAAAAAAAAAAAAAAAAAAAAAAAAAAAAAAAAAAAAAAA12222IIIIIIIII
AAAAAAAAAAAAAAAAAAAAAAAAAAAAAAAAAAAAAAAAAAAAAAAAAAA12222IIIIIIII
AAAAAAAAAAAAAAAAAAAAAAAAAAAAAAAAAAAAAAAAAAAAAAAAAAAA12222IIIIIII
AAAAAAAAAAAAAAAAAAAAAAAAAAAAAAAAAAAAAAAAAAAAAAAAAAAAA12222IIIIII
AAAAAAAAAAAAAAAAAAAAAAAAAAAAAAAAAAAAAAAAAAAAAAAAAAAAAA12222IIIII
AAAAAAAAAAAAAAAAAAAAAAAAAAAAAAAAAAAAAAAAAAAAAAAAAAAAAAA12222IIII
AAAAAAAAAAAAAAAAAAAAAAAAAAAAAAAAAAAAAAAAAAAAAAAAAAAAAAAA12222III
AAAAAAAAAAAAAAAAAAAAAAAAAAAAAAAAAAAAAAAAAAAAAAAAAAAAAAAAA12222II
AAAAAAAAAAAAAAAAAAAAAAAAAAAAAAAAAAAAAAAAAAAAAAAAAAAAAAAAAA12222I
AAAAAAAAAAAAAAAAAAAAAAAAAAAAAAAAAAAAAAAAAAAAAAAAAAAAAAAAAAA12222
AAAAAAAAAAAAAAAAAAAAAAAAAAAAAAAAAAAAAAAAAAAAAAAAAAAAAAAAAAAA1222
AAAAAAAAAAAAAAAAAAAAAAAAAAAAAAAAAAAAAAAAAAAAAAAAAAAAAAAAAAAAA122
AAAAAAAAAAAAAAAAAAAAAAAAAAAAAAAAAAAAAAAAAAAAAAAAAAAAAAAAAAAAAA12
AAAAAAAAAAAAAAAAAAAAAAAAAAAAAAAAAAAAAAAAAAAAAAAAAAAAAAAAAAAAAAA1
AAAAAAAAAAAAAAAAAAAAAAAAAAAAAAAAAAAAAAAAAAAAAAAAAAAAAAAAAAAAAAAA
[MLOP] Prefetch Degree Mean: 2.16999
[MLOP] Prefetch Degree SD: 2.24836
[MLOP] Max Score Left Mean (%): 22.6603
[MLOP] Max Score Left SD (%): 25.0856
[MLOP] Max Score Right Mean (%): 54.2915
[MLOP] Max Score Right SD (%): 21.725
=== CPU 3 L1D Prefetcher Statistics ===
[MLOP] History of tracked zone:
IIIIIIIIIIIIIIIIIIIIIIIIIIIIIIIIIIIIIIIIIIIIIIIIIIIIIIIIIIIIIIII
A11IIIIIIIIIIIIIIIIIIIIIIIIIIIIIIIIIIIIIIIIIIIIIIIIIIIIIIIIIIIII
AA11IIIIIIIIIIIIIIIIIIIIIIIIIIIIIIIIIIIIIIIIIIIIIIIIIIIIIIIIIIII
AAA11IIIIIIIIIIIIIIIIIIIIIIIIIIIIIIIIIIIIIIIIIIIIIIIIIIIIIIIIIII
AAAA11IIIIIIIIIIIIIIIIIIIIIIIIIIIIIIIIIIIIIIIIIIIIIIIIIIIIIIIIII
AAAAA11IIIIIIIIIIIIIIIIIIIIIIIIIIIIIIIIIIIIIIIIIIIIIIIIIIIIIIIII
AAAAAA11IIIIIIIIIIIIIIIIIIIIIIIIIIIIIIIIIIIIIIIIIIIIIIIIIIIIIIII
AAAAAAA11IIIIIIIIIIIIIIIIIIIIIIIIIIIIIIIIIIIIIIIIIIIIIIIIIIIIIII
AAAAAAAA11IIIIIIIIIIIIIIIIIIIIIIIIIIIIIIIIIIIIIIIIIIIIIIIIIIIIII
AAAAAAAAA11IIIIIIIIIIIIIIIIIIIIIIIIIIIIIIIIIIIIIIIIIIIIIIIIIIIII
AAAAAAAAAA11IIIIIIIIIIIIIIIIIIIIIIIIIIIIIIIIIIIIIIIIIIIIIIIIIIII
AAAAAAAAAAA11IIIIIIIIIIIIIIIIIIIIIIIIIIIIIIIIIIIIIIIIIIIIIIIIIII
AAAAAAAAAAAA11IIIIIIIIIIIIIIIIIIIIIIIIIIIIIIIIIIIIIIIIIIIIIIIIII
AAAAAAAAAAAAA11IIIIIIIIIIIIIIIIIIIIIIIIIIIIIIIIIIIIIIIIIIIIIIIII
AAAAAAAAAAAAAA11IIIIIIIIIIIIIIIIIIIIIIIIIIIIIIIIIIIIIIIIIIIIIIII
AAAAAAAAAAAAAAA11IIIIIIIIIIIIIIIIIIIIIIIIIIIIIIIIIIIIIIIIIIIIIII
AAAAAAAAAAAAAAAA11IIIIIIIIIIIIIIIIIIIIIIIIIIIIIIIIIIIIIIIIIIIIII
AAAAAAAAAAAAAAAAA11IIIIIIIIIIIIIIIIIIIIIIIIIIIIIIIIIIIIIIIIIIIII
AAAAAAAAAAAAAAAAAA11IIIIIIIIIIIIIIIIIIIIIIIIIIIIIIIIIIIIIIIIIIII
AAAAAAAAAAAAAAAAAAA11IIIIIIIIIIIIIIIIIIIIIIIIIIIIIIIIIIIIIIIIIII
AAAAAAAAAAAAAAAAAAAA11IIIIIIIIIIIIIIIIIIIIIIIIIIIIIIIIIIIIIIIIII
AAAAAAAAAAAAAAAAAAAAA11IIIIIIIIIIIIIIIIIIIIIIIIIIIIIIIIIIIIIIIII
AAAAAAAAAAAAAAAAAAAAAA11IIIIIIIIIIIIIIIIIIIIIIIIIIIIIIIIIIIIIIII
AAAAAAAAAAAAAAAAAAAAAAA11IIIIIIIIIIIIIIIIIIIIIIIIIIIIIIIIIIIIIII
AAAAAAAAAAAAAAAAAAAAAAAA11IIIIIIIIIIIIIIIIIIIIIIIIIIIIIIIIIIIIII
AAAAAAAAAAAAAAAAAAAAAAAAA11IIIIIIIIIIIIIIIIIIIIIIIIIIIIIIIIIIIII
AAAAAAAAAAAAAAAAAAAAAAAAAA11IIIIIIIIIIIIIIIIIIIIIIIIIIIIIIIIIIII
AAAAAAAAAAAAAAAAAAAAAAAAAAA11IIIIIIIIIIIIIIIIIIIIIIIIIIIIIIIIIII
AAAAAAAAAAAAAAAAAAAAAAAAAAAA11IIIIIIIIIIIIIIIIIIIIIIIIIIIIIIIIII
AAAAAAAAAAAAAAAAAAAAAAAAAAAAA11IIIIIIIIIIIIIIIIIIIIIIIIIIIIIIIII
AAAAAAAAAAAAAAAAAAAAAAAAAAAAAA11IIIIIIIIIIIIIIIIIIIIIIIIIIIIIIII
AAAAAAAAAAAAAAAAAAAAAAAAAAAAAAA11IIIIIIIIIIIIIIIIIIIIIIIIIIIIIII
AAAAAAAAAAAAAAAAAAAAAAAAAAAAAAAA11IIIIIIIIIIIIIIIIIIIIIIIIIIIIII
AAAAAAAAAAAAAAAAAAAAAAAAAAAAAAAAA11IIIIIIIIIIIIIIIIIIIIIIIIIIIII
AAAAAAAAAAAAAAAAAAAAAAAAAAAAAAAAAA11IIIIIIIIIIIIIIIIIIIIIIIIIIII
AAAAAAAAAAAAAAAAAAAAAAAAAAAAAAAAAAA11IIIIIIIIIIIIIIIIIIIIIIIIIII
AAAAAAAAAAAAAAAAAAAAAAAAAAAAAAAAAAAA11IIIIIIIIIIIIIIIIIIIIIIIIII
AAAAAAAAAAAAAAAAAAAAAAAAAAAAAAAAAAAAA11IIIIIIIIIIIIIIIIIIIIIIIII
AAAAAAAAAAAAAAAAAAAAAAAAAAAAAAAAAAAAAA11IIIIIIIIIIIIIIIIIIIIIIII
AAAAAAAAAAAAAAAAAAAAAAAAAAAAAAAAAAAAAAA11IIIIIIIIIIIIIIIIIIIIIII
AAAAAAAAAAAAAAAAAAAAAAAAAAAAAAAAAAAAAAAA11IIIIIIIIIIIIIIIIIIIIII
AAAAAAAAAAAAAAAAAAAAAAAAAAAAAAAAAAAAAAAAA11IIIIIIIIIIIIIIIIIIIII
AAAAAAAAAAAAAAAAAAAAAAAAAAAAAAAAAAAAAAAAAA11IIIIIIIIIIIIIIIIIIII
AAAAAAAAAAAAAAAAAAAAAAAAAAAAAAAAAAAAAAAAAAA11IIIIIIIIIIIIIIIIIII
AAAAAAAAAAAAAAAAAAAAAAAAAAAAAAAAAAAAAAAAAAAA11IIIIIIIIIIIIIIIIII
AAAAAAAAAAAAAAAAAAAAAAAAAAAAAAAAAAAAAAAAAAAAA11IIIIIIIIIIIIIIIII
AAAAAAAAAAAAAAAAAAAAAAAAAAAAAAAAAAAAAAAAAAAAAA11IIIIIIIIIIIIIIII
AAAAAAAAAAAAAAAAAAAAAAAAAAAAAAAAAAAAAAAAAAAAAAA11IIIIIIIIIIIIIII
AAAAAAAAAAAAAAAAAAAAAAAAAAAAAAAAAAAAAAAAAAAAAAAA11IIIIIIIIIIIIII
AAAAAAAAAAAAAAAAAAAAAAAAAAAAAAAAAAAAAAAAAAAAAAAAA11IIIIIIIIIIIII
AAAAAAAAAAAAAAAAAAAAAAAAAAAAAAAAAAAAAAAAAAAAAAAAAA11IIIIIIIIIIII
AAAAAAAAAAAAAAAAAAAAAAAAAAAAAAAAAAAAAAAAAAAAAAAAAAA11IIIIIIIIIII
AAAAAAAAAAAAAAAAAAAAAAAAAAAAAAAAAAAAAAAAAAAAAAAAAAAA11IIIIIIIIII
AAAAAAAAAAAAAAAAAAAAAAAAAAAAAAAAAAAAAAAAAAAAAAAAAAAAA11IIIIIIIII
AAAAAAAAAAAAAAAAAAAAAAAAAAAAAAAAAAAAAAAAAAAAAAAAAAAAAA11IIIIIIII
AAAAAAAAAAAAAAAAAAAAAAAAAAAAAAAAAAAAAAAAAAAAAAAAAAAAAAA11IIIIIII
AAAAAAAAAAAAAAAAAAAAAAAAAAAAAAAAAAAAAAAAAAAAAAAAAAAAAAAA11IIIIII
AAAAAAAAAAAAAAAAAAAAAAAAAAAAAAAAAAAAAAAAAAAAAAAAAAAAAAAAA11IIIII
AAAAAAAAAAAAAAAAAAAAAAAAAAAAAAAAAAAAAAAAAAAAAAAAAAAAAAAAAA11IIII
AAAAAAAAAAAAAAAAAAAAAAAAAAAAAAAAAAAAAAAAAAAAAAAAAAAAAAAAAAA11III
AAAAAAAAAAAAAAAAAAAAAAAAAAAAAAAAAAAAAAAAAAAAAAAAAAAAAAAAAAAA11II
AAAAAAAAAAAAAAAAAAAAAAAAAAAAAAAAAAAAAAAAAAAAAAAAAAAAAAAAAAAAA11I
AAAAAAAAAAAAAAAAAAAAAAAAAAAAAAAAAAAAAAAAAAAAAAAAAAAAAAAAAAAAAA11
AAAAAAAAAAAAAAAAAAAAAAAAAAAAAAAAAAAAAAAAAAAAAAAAAAAAAAAAAAAAAAA1
AAAAAAAAAAAAAAAAAAAAAAAAAAAAAAAAAAAAAAAAAAAAAAAAAAAAAAAAAAAAAAAA
A11IIIIIIIIIIIIIIIIIIIIIIIIIIIIIIIIIIIIIIIIIIIIIIIIIIIIIIIIIIIII
AA11IIIIIIIIIIIIIIIIIIIIIIIIIIIIIIIIIIIIIIIIIIIIIIIIIIIIIIIIIIII
AAA11IIIIIIIIIIIIIIIIIIIIIIIIIIIIIIIIIIIIIIIIIIIIIIIIIIIIIIIIIII
AAAA11IIIIIIIIIIIIIIIIIIIIIIIIIIIIIIIIIIIIIIIIIIIIIIIIIIIIIIIIII
AAAAA11IIIIIIIIIIIIIIIIIIIIIIIIIIIIIIIIIIIIIIIIIIIIIIIIIIIIIIIII
AAAAAA11IIIIIIIIIIIIIIIIIIIIIIIIIIIIIIIIIIIIIIIIIIIIIIIIIIIIIIII
AAAAAAA11IIIIIIIIIIIIIIIIIIIIIIIIIIIIIIIIIIIIIIIIIIIIIIIIIIIIIII
AAAAAAAA11IIIIIIIIIIIIIIIIIIIIIIIIIIIIIIIIIIIIIIIIIIIIIIIIIIIIII
AAAAAAAAA11IIIIIIIIIIIIIIIIIIIIIIIIIIIIIIIIIIIIIIIIIIIIIIIIIIIII
AAAAAAAAAA11IIIIIIIIIIIIIIIIIIIIIIIIIIIIIIIIIIIIIIIIIIIIIIIIIIII
AAAAAAAAAAA11IIIIIIIIIIIIIIIIIIIIIIIIIIIIIIIIIIIIIIIIIIIIIIIIIII
AAAAAAAAAAAA11IIIIIIIIIIIIIIIIIIIIIIIIIIIIIIIIIIIIIIIIIIIIIIIIII
AAAAAAAAAAAAA11IIIIIIIIIIIIIIIIIIIIIIIIIIIIIIIIIIIIIIIIIIIIIIIII
AAAAAAAAAAAAAA11IIIIIIIIIIIIIIIIIIIIIIIIIIIIIIIIIIIIIIIIIIIIIIII
AAAAAAAAAAAAAAA11IIIIIIIIIIIIIIIIIIIIIIIIIIIIIIIIIIIIIIIIIIIIIII
AAAAAAAAAAAAAAAA11IIIIIIIIIIIIIIIIIIIIIIIIIIIIIIIIIIIIIIIIIIIIII
AAAAAAAAAAAAAAAAA11IIIIIIIIIIIIIIIIIIIIIIIIIIIIIIIIIIIIIIIIIIIII
AAAAAAAAAAAAAAAAAA11IIIIIIIIIIIIIIIIIIIIIIIIIIIIIIIIIIIIIIIIIIII
AAAAAAAAAAAAAAAAAAA11IIIIIIIIIIIIIIIIIIIIIIIIIIIIIIIIIIIIIIIIIII
AAAAAAAAAAAAAAAAAAAA11IIIIIIIIIIIIIIIIIIIIIIIIIIIIIIIIIIIIIIIIII
AAAAAAAAAAAAAAAAAAAAA11IIIIIIIIIIIIIIIIIIIIIIIIIIIIIIIIIIIIIIIII
AAAAAAAAAAAAAAAAAAAAAA11IIIIIIIIIIIIIIIIIIIIIIIIIIIIIIIIIIIIIIII
AAAAAAAAAAAAAAAAAAAAAAA11IIIIIIIIIIIIIIIIIIIIIIIIIIIIIIIIIIIIIII
AAAAAAAAAAAAAAAAAAAAAAAA11IIIIIIIIIIIIIIIIIIIIIIIIIIIIIIIIIIIIII
AAAAAAAAAAAAAAAAAAAAAAAAA11IIIIIIIIIIIIIIIIIIIIIIIIIIIIIIIIIIIII
AAAAAAAAAAAAAAAAAAAAAAAAAA11IIIIIIIIIIIIIIIIIIIIIIIIIIIIIIIIIIII
AAAAAAAAAAAAAAAAAAAAAAAAAAA11IIIIIIIIIIIIIIIIIIIIIIIIIIIIIIIIIII
AAAAAAAAAAAAAAAAAAAAAAAAAAAA11IIIIIIIIIIIIIIIIIIIIIIIIIIIIIIIIII
AAAAAAAAAAAAAAAAAAAAAAAAAAAAA11IIIIIIIIIIIIIIIIIIIIIIIIIIIIIIIII
AAAAAAAAAAAAAAAAAAAAAAAAAAAAAA11IIIIIIIIIIIIIIIIIIIIIIIIIIIIIIII
AAAAAAAAAAAAAAAAAAAAAAAAAAAAAAA11IIIIIIIIIIIIIIIIIIIIIIIIIIIIIII
AAAAAAAAAAAAAAAAAAAAAAAAAAAAAAAA11IIIIIIIIIIIIIIIIIIIIIIIIIIIIII
AAAAAAAAAAAAAAAAAAAAAAAAAAAAAAAAA11IIIIIIIIIIIIIIIIIIIIIIIIIIIII
AAAAAAAAAAAAAAAAAAAAAAAAAAAAAAAAAA11IIIIIIIIIIIIIIIIIIIIIIIIIIII
AAAAAAAAAAAAAAAAAAAAAAAAAAAAAAAAAAA11IIIIIIIIIIIIIIIIIIIIIIIIIII
AAAAAAAAAAAAAAAAAAAAAAAAAAAAAAAAAAAA11IIIIIIIIIIIIIIIIIIIIIIIIII
AAAAAAAAAAAAAAAAAAAAAAAAAAAAAAAAAAAAA11IIIIIIIIIIIIIIIIIIIIIIIII
AAAAAAAAAAAAAAAAAAAAAAAAAAAAAAAAAAAAAA11IIIIIIIIIIIIIIIIIIIIIIII
AAAAAAAAAAAAAAAAAAAAAAAAAAAAAAAAAAAAAAA11IIIIIIIIIIIIIIIIIIIIIII
AAAAAAAAAAAAAAAAAAAAAAAAAAAAAAAAAAAAAAAA11IIIIIIIIIIIIIIIIIIIIII
AAAAAAAAAAAAAAAAAAAAAAAAAAAAAAAAAAAAAAAAA11IIIIIIIIIIIIIIIIIIIII
AAAAAAAAAAAAAAAAAAAAAAAAAAAAAAAAAAAAAAAAAA11IIIIIIIIIIIIIIIIIIII
AAAAAAAAAAAAAAAAAAAAAAAAAAAAAAAAAAAAAAAAAAA11IIIIIIIIIIIIIIIIIII
AAAAAAAAAAAAAAAAAAAAAAAAAAAAAAAAAAAAAAAAAAAA11IIIIIIIIIIIIIIIIII
AAAAAAAAAAAAAAAAAAAAAAAAAAAAAAAAAAAAAAAAAAAAA11IIIIIIIIIIIIIIIII
AAAAAAAAAAAAAAAAAAAAAAAAAAAAAAAAAAAAAAAAAAAAAA11IIIIIIIIIIIIIIII
AAAAAAAAAAAAAAAAAAAAAAAAAAAAAAAAAAAAAAAAAAAAAAA11IIIIIIIIIIIIIII
AAAAAAAAAAAAAAAAAAAAAAAAAAAAAAAAAAAAAAAAAAAAAAAA11IIIIIIIIIIIIII
AAAAAAAAAAAAAAAAAAAAAAAAAAAAAAAAAAAAAAAAAAAAAAAAA11IIIIIIIIIIIII
AAAAAAAAAAAAAAAAAAAAAAAAAAAAAAAAAAAAAAAAAAAAAAAAAA11IIIIIIIIIIII
AAAAAAAAAAAAAAAAAAAAAAAAAAAAAAAAAAAAAAAAAAAAAAAAAAA11IIIIIIIIIII
AAAAAAAAAAAAAAAAAAAAAAAAAAAAAAAAAAAAAAAAAAAAAAAAAAAA11IIIIIIIIII
AAAAAAAAAAAAAAAAAAAAAAAAAAAAAAAAAAAAAAAAAAAAAAAAAAAAA11IIIIIIIII
AAAAAAAAAAAAAAAAAAAAAAAAAAAAAAAAAAAAAAAAAAAAAAAAAAAAAA11IIIIIIII
AAAAAAAAAAAAAAAAAAAAAAAAAAAAAAAAAAAAAAAAAAAAAAAAAAAAAAA11IIIIIII
AAAAAAAAAAAAAAAAAAAAAAAAAAAAAAAAAAAAAAAAAAAAAAAAAAAAAAAA11IIIIII
AAAAAAAAAAAAAAAAAAAAAAAAAAAAAAAAAAAAAAAAAAAAAAAAAAAAAAAAA11IIIII
AAAAAAAAAAAAAAAAAAAAAAAAAAAAAAAAAAAAAAAAAAAAAAAAAAAAAAAAAA11IIII
AAAAAAAAAAAAAAAAAAAAAAAAAAAAAAAAAAAAAAAAAAAAAAAAAAAAAAAAAAA11III
AAAAAAAAAAAAAAAAAAAAAAAAAAAAAAAAAAAAAAAAAAAAAAAAAAAAAAAAAAAA11II
AAAAAAAAAAAAAAAAAAAAAAAAAAAAAAAAAAAAAAAAAAAAAAAAAAAAAAAAAAAAA11I
AAAAAAAAAAAAAAAAAAAAAAAAAAAAAAAAAAAAAAAAAAAAAAAAAAAAAAAAAAAAAA11
AAAAAAAAAAAAAAAAAAAAAAAAAAAAAAAAAAAAAAAAAAAAAAAAAAAAAAAAAAAAAAA1
AAAAAAAAAAAAAAAAAAAAAAAAAAAAAAAAAAAAAAAAAAAAAAAAAAAAAAAAAAAAAAAA
A11IIIIIIIIIIIIIIIIIIIIIIIIIIIIIIIIIIIIIIIIIIIIIIIIIIIIIIIIIIIII
AA11IIIIIIIIIIIIIIIIIIIIIIIIIIIIIIIIIIIIIIIIIIIIIIIIIIIIIIIIIIII
AAA11IIIIIIIIIIIIIIIIIIIIIIIIIIIIIIIIIIIIIIIIIIIIIIIIIIIIIIIIIII
AAAA11IIIIIIIIIIIIIIIIIIIIIIIIIIIIIIIIIIIIIIIIIIIIIIIIIIIIIIIIII
AAAAA11IIIIIIIIIIIIIIIIIIIIIIIIIIIIIIIIIIIIIIIIIIIIIIIIIIIIIIIII
AAAAAA11IIIIIIIIIIIIIIIIIIIIIIIIIIIIIIIIIIIIIIIIIIIIIIIIIIIIIIII
AAAAAAA11IIIIIIIIIIIIIIIIIIIIIIIIIIIIIIIIIIIIIIIIIIIIIIIIIIIIIII
AAAAAAAA11IIIIIIIIIIIIIIIIIIIIIIIIIIIIIIIIIIIIIIIIIIIIIIIIIIIIII
AAAAAAAAA11IIIIIIIIIIIIIIIIIIIIIIIIIIIIIIIIIIIIIIIIIIIIIIIIIIIII
AAAAAAAAAA11IIIIIIIIIIIIIIIIIIIIIIIIIIIIIIIIIIIIIIIIIIIIIIIIIIII
AAAAAAAAAAA11IIIIIIIIIIIIIIIIIIIIIIIIIIIIIIIIIIIIIIIIIIIIIIIIIII
AAAAAAAAAAAA11IIIIIIIIIIIIIIIIIIIIIIIIIIIIIIIIIIIIIIIIIIIIIIIIII
AAAAAAAAAAAAA11IIIIIIIIIIIIIIIIIIIIIIIIIIIIIIIIIIIIIIIIIIIIIIIII
AAAAAAAAAAAAAA11IIIIIIIIIIIIIIIIIIIIIIIIIIIIIIIIIIIIIIIIIIIIIIII
AAAAAAAAAAAAAAA11IIIIIIIIIIIIIIIIIIIIIIIIIIIIIIIIIIIIIIIIIIIIIII
AAAAAAAAAAAAAAAA11IIIIIIIIIIIIIIIIIIIIIIIIIIIIIIIIIIIIIIIIIIIIII
AAAAAAAAAAAAAAAAA11IIIIIIIIIIIIIIIIIIIIIIIIIIIIIIIIIIIIIIIIIIIII
AAAAAAAAAAAAAAAAAA11IIIIIIIIIIIIIIIIIIIIIIIIIIIIIIIIIIIIIIIIIIII
AAAAAAAAAAAAAAAAAAA11IIIIIIIIIIIIIIIIIIIIIIIIIIIIIIIIIIIIIIIIIII
AAAAAAAAAAAAAAAAAAAA11IIIIIIIIIIIIIIIIIIIIIIIIIIIIIIIIIIIIIIIIII
AAAAAAAAAAAAAAAAAAAAA11IIIIIIIIIIIIIIIIIIIIIIIIIIIIIIIIIIIIIIIII
AAAAAAAAAAAAAAAAAAAAAA11IIIIIIIIIIIIIIIIIIIIIIIIIIIIIIIIIIIIIIII
AAAAAAAAAAAAAAAAAAAAAAA11IIIIIIIIIIIIIIIIIIIIIIIIIIIIIIIIIIIIIII
AAAAAAAAAAAAAAAAAAAAAAAA11IIIIIIIIIIIIIIIIIIIIIIIIIIIIIIIIIIIIII
AAAAAAAAAAAAAAAAAAAAAAAAA11IIIIIIIIIIIIIIIIIIIIIIIIIIIIIIIIIIIII
AAAAAAAAAAAAAAAAAAAAAAAAAA11IIIIIIIIIIIIIIIIIIIIIIIIIIIIIIIIIIII
AAAAAAAAAAAAAAAAAAAAAAAAAAA11IIIIIIIIIIIIIIIIIIIIIIIIIIIIIIIIIII
AAAAAAAAAAAAAAAAAAAAAAAAAAAA11IIIIIIIIIIIIIIIIIIIIIIIIIIIIIIIIII
AAAAAAAAAAAAAAAAAAAAAAAAAAAAA11IIIIIIIIIIIIIIIIIIIIIIIIIIIIIIIII
AAAAAAAAAAAAAAAAAAAAAAAAAAAAAA11IIIIIIIIIIIIIIIIIIIIIIIIIIIIIIII
AAAAAAAAAAAAAAAAAAAAAAAAAAAAAAA11IIIIIIIIIIIIIIIIIIIIIIIIIIIIIII
AAAAAAAAAAAAAAAAAAAAAAAAAAAAAAAA11IIIIIIIIIIIIIIIIIIIIIIIIIIIIII
AAAAAAAAAAAAAAAAAAAAAAAAAAAAAAAAA11IIIIIIIIIIIIIIIIIIIIIIIIIIIII
AAAAAAAAAAAAAAAAAAAAAAAAAAAAAAAAAA11IIIIIIIIIIIIIIIIIIIIIIIIIIII
AAAAAAAAAAAAAAAAAAAAAAAAAAAAAAAAAAA11IIIIIIIIIIIIIIIIIIIIIIIIIII
AAAAAAAAAAAAAAAAAAAAAAAAAAAAAAAAAAAA11IIIIIIIIIIIIIIIIIIIIIIIIII
AAAAAAAAAAAAAAAAAAAAAAAAAAAAAAAAAAAAA11IIIIIIIIIIIIIIIIIIIIIIIII
AAAAAAAAAAAAAAAAAAAAAAAAAAAAAAAAAAAAAA11IIIIIIIIIIIIIIIIIIIIIIII
AAAAAAAAAAAAAAAAAAAAAAAAAAAAAAAAAAAAAAA11IIIIIIIIIIIIIIIIIIIIIII
AAAAAAAAAAAAAAAAAAAAAAAAAAAAAAAAAAAAAAAA11IIIIIIIIIIIIIIIIIIIIII
AAAAAAAAAAAAAAAAAAAAAAAAAAAAAAAAAAAAAAAAA11IIIIIIIIIIIIIIIIIIIII
AAAAAAAAAAAAAAAAAAAAAAAAAAAAAAAAAAAAAAAAAA11IIIIIIIIIIIIIIIIIIII
AAAAAAAAAAAAAAAAAAAAAAAAAAAAAAAAAAAAAAAAAAA11IIIIIIIIIIIIIIIIIII
AAAAAAAAAAAAAAAAAAAAAAAAAAAAAAAAAAAAAAAAAAAA11IIIIIIIIIIIIIIIIII
AAAAAAAAAAAAAAAAAAAAAAAAAAAAAAAAAAAAAAAAAAAAA11IIIIIIIIIIIIIIIII
AAAAAAAAAAAAAAAAAAAAAAAAAAAAAAAAAAAAAAAAAAAAAA11IIIIIIIIIIIIIIII
AAAAAAAAAAAAAAAAAAAAAAAAAAAAAAAAAAAAAAAAAAAAAAA11IIIIIIIIIIIIIII
AAAAAAAAAAAAAAAAAAAAAAAAAAAAAAAAAAAAAAAAAAAAAAAA11IIIIIIIIIIIIII
AAAAAAAAAAAAAAAAAAAAAAAAAAAAAAAAAAAAAAAAAAAAAAAAA11IIIIIIIIIIIII
AAAAAAAAAAAAAAAAAAAAAAAAAAAAAAAAAAAAAAAAAAAAAAAAAA11IIIIIIIIIIII
AAAAAAAAAAAAAAAAAAAAAAAAAAAAAAAAAAAAAAAAAAAAAAAAAAA11IIIIIIIIIII
AAAAAAAAAAAAAAAAAAAAAAAAAAAAAAAAAAAAAAAAAAAAAAAAAAAA11IIIIIIIIII
AAAAAAAAAAAAAAAAAAAAAAAAAAAAAAAAAAAAAAAAAAAAAAAAAAAAA11IIIIIIIII
AAAAAAAAAAAAAAAAAAAAAAAAAAAAAAAAAAAAAAAAAAAAAAAAAAAAAA11IIIIIIII
AAAAAAAAAAAAAAAAAAAAAAAAAAAAAAAAAAAAAAAAAAAAAAAAAAAAAAA11IIIIIII
AAAAAAAAAAAAAAAAAAAAAAAAAAAAAAAAAAAAAAAAAAAAAAAAAAAAAAAA11IIIIII
AAAAAAAAAAAAAAAAAAAAAAAAAAAAAAAAAAAAAAAAAAAAAAAAAAAAAAAAA11IIIII
AAAAAAAAAAAAAAAAAAAAAAAAAAAAAAAAAAAAAAAAAAAAAAAAAAAAAAAAAA11IIII
AAAAAAAAAAAAAAAAAAAAAAAAAAAAAAAAAAAAAAAAAAAAAAAAAAAAAAAAAAA11III
AAAAAAAAAAAAAAAAAAAAAAAAAAAAAAAAAAAAAAAAAAAAAAAAAAAAAAAAAAAA11II
AAAAAAAAAAAAAAAAAAAAAAAAAAAAAAAAAAAAAAAAAAAAAAAAAAAAAAAAAAAAA11I
AAAAAAAAAAAAAAAAAAAAAAAAAAAAAAAAAAAAAAAAAAAAAAAAAAAAAAAAAAAAAA11
AAAAAAAAAAAAAAAAAAAAAAAAAAAAAAAAAAAAAAAAAAAAAAAAAAAAAAAAAAAAAAA1
AAAAAAAAAAAAAAAAAAAAAAAAAAAAAAAAAAAAAAAAAAAAAAAAAAAAAAAAAAAAAAAA
[MLOP] Prefetch Degree Mean: 2.04651
[MLOP] Prefetch Degree SD: 0.21059
[MLOP] Max Score Left Mean (%): 95.6884
[MLOP] Max Score Left SD (%): 3.03447
[MLOP] Max Score Right Mean (%): 100
[MLOP] Max Score Right SD (%): 0

DRAM Statistics
 CHANNEL 0
 RQ ROW_BUFFER_HIT:    1800262  ROW_BUFFER_MISS:   11860020
 DBUS_CONGESTED:        341
 WQ ROW_BUFFER_HIT:     402358  ROW_BUFFER_MISS:    3130677  FULL:          0

 AVG_CONGESTED_CYCLE: 5
 All warmup complete: 5
Channel 0 Bank busy for read cycles: 0
Channel 0 Bank busy for write cycles: 0
Channel 0
Rank 0
0banks busy for read cycles: 1579414
0banks busy for write cycles: 3181
1banks busy for read cycles: 52002184
1banks busy for write cycles: 991587
2banks busy for read cycles: 87773442
2banks busy for write cycles: 709872
3banks busy for read cycles: 91925854
3banks busy for write cycles: 629987
4banks busy for read cycles: 74741021
4banks busy for write cycles: 623047
5banks busy for read cycles: 57050704
5banks busy for write cycles: 676939
6banks busy for read cycles: 44880466
6banks busy for write cycles: 1305202
7banks busy for read cycles: 37707829
7banks busy for write cycles: 11169820
8banks busy for read cycles: 40958091
8banks busy for write cycles: 82652978

CPU 0 Branch Prediction Accuracy: 99.9901% MPKI: 0.0267607 Average ROB Occupancy at Mispredict: 304.272
Branch types
NOT_BRANCH: 411024206 72.4171%
BRANCH_DIRECT_JUMP: 1282 0.000225872%
BRANCH_INDIRECT: 0 0%
BRANCH_CONDITIONAL: 145933476 25.7116%
BRANCH_DIRECT_CALL: 2655616 0.467885%
BRANCH_INDIRECT_CALL: 2654342 0.46766%
BRANCH_RETURN: 5309958 0.935545%
BRANCH_OTHER: 0 0%


CPU 1 Branch Prediction Accuracy: 99.8592% MPKI: 0.035408 Average ROB Occupancy at Mispredict: 296.628
Branch types
NOT_BRANCH: 827368347 97.4758%
BRANCH_DIRECT_JUMP: 75329 0.00887483%
BRANCH_INDIRECT: 0 0%
BRANCH_CONDITIONAL: 21349290 2.51525%
BRANCH_DIRECT_CALL: 232 2.73329e-05%
BRANCH_INDIRECT_CALL: 0 0%
BRANCH_RETURN: 232 2.73329e-05%
BRANCH_OTHER: 0 0%


CPU 2 Branch Prediction Accuracy: 86.648% MPKI: 28.4101 Average ROB Occupancy at Mispredict: 9.94571
Branch types
NOT_BRANCH: 156829619 78.4148%
BRANCH_DIRECT_JUMP: 1976 0.000988%
BRANCH_INDIRECT: 3 1.5e-06%
BRANCH_CONDITIONAL: 43167815 21.5839%
BRANCH_DIRECT_CALL: 308 0.000154%
BRANCH_INDIRECT_CALL: 9 4.5e-06%
BRANCH_RETURN: 317 0.0001585%
BRANCH_OTHER: 0 0%


CPU 3 Branch Prediction Accuracy: 99.4235% MPKI: 1.31964 Average ROB Occupancy at Mispredict: 34.4993
Branch types
NOT_BRANCH: 514421979 77.1082%
BRANCH_DIRECT_JUMP: 0 0%
BRANCH_INDIRECT: 0 0%
BRANCH_CONDITIONAL: 152720954 22.8918%
BRANCH_DIRECT_CALL: 0 0%
BRANCH_INDIRECT_CALL: 0 0%
BRANCH_RETURN: 0 0%
BRANCH_OTHER: 0 0%

DRAM PAGES: 1048576
Allocated PAGES: 64205
