
*** ChampSim Multicore Out-of-Order Simulator ***

Warmup Instructions: 50000000
Simulation Instructions: 200000000
Number of CPUs: 4
LLC sets: 8192
LLC ways: 16
Off-chip DRAM Size: 4096 MB Channels: 1 Width: 64-bit Data Rate: 6400 MT/s
CPU 0 runs ./traces/spec/471.omnetpp-188B.champsimtrace.xz
.xz
CPU 1 runs ./traces/spec/619.lbm_s-2676B.champsimtrace.xz
.xz
CPU 2 runs ./traces/ligra/ligra_BFSCC.com-lj.ungraph.gcc_6.3.0_O3.drop_18750M.length_250M.champsimtrace.xz
.xz
CPU 3 runs ./traces/ligra/ligra_BellmanFord.com-lj.ungraph.gcc_6.3.0_O3.drop_14000M.length_250M.champsimtrace.xz
.xz
BTB has LRU replacement policy
ITLB has LRU replacement policy
DTLB has LRU replacement policy
STLB has LRU replacement policy
L1I has LRU replacement policy
L1D has LRU replacement policy
Initialize SRRIP state for L2C
Initialize DRRIP state for LLC
BTB has LRU replacement policy
ITLB has LRU replacement policy
DTLB has LRU replacement policy
STLB has LRU replacement policy
L1I has LRU replacement policy
L1D has LRU replacement policy
Initialize SRRIP state for L2C
Initialize DRRIP state for LLC
BTB has LRU replacement policy
ITLB has LRU replacement policy
DTLB has LRU replacement policy
STLB has LRU replacement policy
L1I has LRU replacement policy
L1D has LRU replacement policy
Initialize SRRIP state for L2C
Initialize DRRIP state for LLC
BTB has LRU replacement policy
ITLB has LRU replacement policy
DTLB has LRU replacement policy
STLB has LRU replacement policy
L1I has LRU replacement policy
L1D has LRU replacement policy
Initialize SRRIP state for L2C
Initialize DRRIP state for LLC
Heartbeat CPU 2 instructions: 10000002 cycles: 2549680 heartbeat IPC: 3.92206 cumulative IPC: 3.92206 (Simulation time: 0 hr 2 min 53 sec) 
Heartbeat CPU 3 instructions: 10000000 cycles: 2880317 heartbeat IPC: 3.47184 cumulative IPC: 3.47184 (Simulation time: 0 hr 3 min 14 sec) 
Heartbeat CPU 1 instructions: 10000003 cycles: 2895170 heartbeat IPC: 3.45403 cumulative IPC: 3.45403 (Simulation time: 0 hr 3 min 15 sec) 
Heartbeat CPU 0 instructions: 10000003 cycles: 3174826 heartbeat IPC: 3.14978 cumulative IPC: 3.14978 (Simulation time: 0 hr 3 min 32 sec) 
Heartbeat CPU 2 instructions: 20000003 cycles: 5098610 heartbeat IPC: 3.92322 cumulative IPC: 3.92264 (Simulation time: 0 hr 5 min 33 sec) 
Heartbeat CPU 3 instructions: 20000002 cycles: 5755689 heartbeat IPC: 3.47781 cumulative IPC: 3.47482 (Simulation time: 0 hr 6 min 15 sec) 
Heartbeat CPU 1 instructions: 20000003 cycles: 5785528 heartbeat IPC: 3.45978 cumulative IPC: 3.4569 (Simulation time: 0 hr 6 min 17 sec) 
Heartbeat CPU 0 instructions: 20000003 cycles: 6305507 heartbeat IPC: 3.19419 cumulative IPC: 3.17183 (Simulation time: 0 hr 6 min 50 sec) 
Heartbeat CPU 2 instructions: 30000001 cycles: 7647779 heartbeat IPC: 3.92285 cumulative IPC: 3.92271 (Simulation time: 0 hr 8 min 17 sec) 
Heartbeat CPU 3 instructions: 30000000 cycles: 8632986 heartbeat IPC: 3.47548 cumulative IPC: 3.47504 (Simulation time: 0 hr 9 min 18 sec) 
Heartbeat CPU 1 instructions: 30000003 cycles: 8668105 heartbeat IPC: 3.46912 cumulative IPC: 3.46096 (Simulation time: 0 hr 9 min 21 sec) 
Heartbeat CPU 0 instructions: 30000000 cycles: 9473223 heartbeat IPC: 3.15685 cumulative IPC: 3.16682 (Simulation time: 0 hr 10 min 14 sec) 
Heartbeat CPU 2 instructions: 40000002 cycles: 10196881 heartbeat IPC: 3.92295 cumulative IPC: 3.92277 (Simulation time: 0 hr 11 min 7 sec) 
Heartbeat CPU 3 instructions: 40000001 cycles: 11510727 heartbeat IPC: 3.47495 cumulative IPC: 3.47502 (Simulation time: 0 hr 12 min 32 sec) 
Heartbeat CPU 1 instructions: 40000002 cycles: 11536312 heartbeat IPC: 3.4865 cumulative IPC: 3.46731 (Simulation time: 0 hr 12 min 34 sec) 
Heartbeat CPU 0 instructions: 40000002 cycles: 12621984 heartbeat IPC: 3.17585 cumulative IPC: 3.16907 (Simulation time: 0 hr 13 min 44 sec) 
Heartbeat CPU 2 instructions: 50000001 cycles: 12745957 heartbeat IPC: 3.92299 cumulative IPC: 3.92281 (Simulation time: 0 hr 13 min 53 sec) 
Heartbeat CPU 1 instructions: 50000001 cycles: 14392224 heartbeat IPC: 3.50151 cumulative IPC: 3.4741 (Simulation time: 0 hr 15 min 22 sec) 
Heartbeat CPU 3 instructions: 50000003 cycles: 14392434 heartbeat IPC: 3.47017 cumulative IPC: 3.47405 (Simulation time: 0 hr 15 min 22 sec) 
Heartbeat CPU 0 instructions: 50000003 cycles: 15769704 heartbeat IPC: 3.1769 cumulative IPC: 3.17064 (Simulation time: 0 hr 16 min 28 sec) 

Warmup complete CPU 0 instructions: 50000003 cycles: 15769704 (Simulation time: 0 hr 16 min 28 sec) 
Warmup complete CPU 1 instructions: 54840280 cycles: 15769703 (Simulation time: 0 hr 16 min 28 sec) 
Warmup complete CPU 2 instructions: 58575985 cycles: 15769703 (Simulation time: 0 hr 16 min 28 sec) 
Warmup complete CPU 3 instructions: 53337012 cycles: 15769703 (Simulation time: 0 hr 16 min 28 sec) 

Heartbeat CPU 2 instructions: 60000001 cycles: 20118032 heartbeat IPC: 1.35647 cumulative IPC: 0.327486 (Simulation time: 0 hr 17 min 19 sec) 
Heartbeat CPU 3 instructions: 60000002 cycles: 25604932 heartbeat IPC: 0.891862 cumulative IPC: 0.677462 (Simulation time: 0 hr 18 min 19 sec) 
Heartbeat CPU 1 instructions: 60000002 cycles: 27767287 heartbeat IPC: 0.74766 cumulative IPC: 0.430063 (Simulation time: 0 hr 18 min 45 sec) 
Heartbeat CPU 3 instructions: 70000002 cycles: 40247910 heartbeat IPC: 0.682921 cumulative IPC: 0.680728 (Simulation time: 0 hr 20 min 55 sec) 
Heartbeat CPU 1 instructions: 70000002 cycles: 50593843 heartbeat IPC: 0.438086 cumulative IPC: 0.435322 (Simulation time: 0 hr 22 min 32 sec) 
Heartbeat CPU 2 instructions: 70000001 cycles: 50828954 heartbeat IPC: 0.325617 cumulative IPC: 0.325849 (Simulation time: 0 hr 22 min 34 sec) 
Heartbeat CPU 3 instructions: 80000003 cycles: 54893481 heartbeat IPC: 0.6828 cumulative IPC: 0.681503 (Simulation time: 0 hr 23 min 12 sec) 
Heartbeat CPU 3 instructions: 90000000 cycles: 69485137 heartbeat IPC: 0.685323 cumulative IPC: 0.682541 (Simulation time: 0 hr 25 min 47 sec) 
Heartbeat CPU 1 instructions: 80000002 cycles: 71255653 heartbeat IPC: 0.483985 cumulative IPC: 0.453443 (Simulation time: 0 hr 26 min 6 sec) 
Heartbeat CPU 2 instructions: 80000000 cycles: 81130618 heartbeat IPC: 0.330015 cumulative IPC: 0.32778 (Simulation time: 0 hr 28 min 1 sec) 
Heartbeat CPU 3 instructions: 100000002 cycles: 84190961 heartbeat IPC: 0.680003 cumulative IPC: 0.681996 (Simulation time: 0 hr 28 min 39 sec) 
Heartbeat CPU 1 instructions: 90000000 cycles: 91808152 heartbeat IPC: 0.486559 cumulative IPC: 0.462394 (Simulation time: 0 hr 30 min 5 sec) 
Heartbeat CPU 3 instructions: 110000000 cycles: 98909393 heartbeat IPC: 0.67942 cumulative IPC: 0.68154 (Simulation time: 0 hr 31 min 29 sec) 
Heartbeat CPU 1 instructions: 100000003 cycles: 111186846 heartbeat IPC: 0.516031 cumulative IPC: 0.473287 (Simulation time: 0 hr 33 min 51 sec) 
Heartbeat CPU 2 instructions: 90000000 cycles: 111750180 heartbeat IPC: 0.326589 cumulative IPC: 0.3274 (Simulation time: 0 hr 33 min 58 sec) 
Heartbeat CPU 3 instructions: 120000000 cycles: 113603934 heartbeat IPC: 0.680525 cumulative IPC: 0.681387 (Simulation time: 0 hr 34 min 17 sec) 
Heartbeat CPU 3 instructions: 130000000 cycles: 128298900 heartbeat IPC: 0.680505 cumulative IPC: 0.681272 (Simulation time: 0 hr 37 min 3 sec) 
Heartbeat CPU 0 instructions: 60000000 cycles: 129538527 heartbeat IPC: 0.0878975 cumulative IPC: 0.0878975 (Simulation time: 0 hr 37 min 18 sec) 
Heartbeat CPU 1 instructions: 110000000 cycles: 130227761 heartbeat IPC: 0.525185 cumulative IPC: 0.481921 (Simulation time: 0 hr 37 min 27 sec) 
Heartbeat CPU 2 instructions: 100000002 cycles: 141997209 heartbeat IPC: 0.330611 cumulative IPC: 0.328169 (Simulation time: 0 hr 39 min 47 sec) 
Heartbeat CPU 3 instructions: 140000001 cycles: 142914200 heartbeat IPC: 0.684215 cumulative IPC: 0.68161 (Simulation time: 0 hr 39 min 58 sec) 
Heartbeat CPU 1 instructions: 120000003 cycles: 148310261 heartbeat IPC: 0.553021 cumulative IPC: 0.491621 (Simulation time: 0 hr 41 min 1 sec) 
Heartbeat CPU 3 instructions: 150000000 cycles: 157379860 heartbeat IPC: 0.691292 cumulative IPC: 0.682599 (Simulation time: 0 hr 42 min 49 sec) 
Heartbeat CPU 1 instructions: 130000002 cycles: 165700415 heartbeat IPC: 0.575038 cumulative IPC: 0.501296 (Simulation time: 0 hr 44 min 31 sec) 
Heartbeat CPU 3 instructions: 160000000 cycles: 171953322 heartbeat IPC: 0.686179 cumulative IPC: 0.682933 (Simulation time: 0 hr 45 min 48 sec) 
Heartbeat CPU 2 instructions: 110000000 cycles: 172263377 heartbeat IPC: 0.330402 cumulative IPC: 0.328601 (Simulation time: 0 hr 45 min 52 sec) 
Heartbeat CPU 1 instructions: 140000003 cycles: 182746889 heartbeat IPC: 0.586632 cumulative IPC: 0.510008 (Simulation time: 0 hr 47 min 59 sec) 
Heartbeat CPU 3 instructions: 170000002 cycles: 186541937 heartbeat IPC: 0.685466 cumulative IPC: 0.68315 (Simulation time: 0 hr 48 min 43 sec) 
Heartbeat CPU 1 instructions: 150000003 cycles: 199255946 heartbeat IPC: 0.605728 cumulative IPC: 0.51862 (Simulation time: 0 hr 51 min 11 sec) 
Heartbeat CPU 3 instructions: 180000000 cycles: 201040618 heartbeat IPC: 0.689718 cumulative IPC: 0.683664 (Simulation time: 0 hr 51 min 32 sec) 
Heartbeat CPU 2 instructions: 120000003 cycles: 203735271 heartbeat IPC: 0.317744 cumulative IPC: 0.326783 (Simulation time: 0 hr 52 min 6 sec) 
Heartbeat CPU 1 instructions: 160000003 cycles: 215146625 heartbeat IPC: 0.6293 cumulative IPC: 0.527442 (Simulation time: 0 hr 54 min 26 sec) 
Heartbeat CPU 3 instructions: 190000001 cycles: 215607719 heartbeat IPC: 0.686478 cumulative IPC: 0.683869 (Simulation time: 0 hr 54 min 32 sec) 
Heartbeat CPU 3 instructions: 200000002 cycles: 229974251 heartbeat IPC: 0.696062 cumulative IPC: 0.684687 (Simulation time: 0 hr 57 min 20 sec) 
Heartbeat CPU 1 instructions: 170000003 cycles: 231086492 heartbeat IPC: 0.627358 cumulative IPC: 0.534839 (Simulation time: 0 hr 57 min 32 sec) 
Heartbeat CPU 0 instructions: 70000001 cycles: 235018067 heartbeat IPC: 0.0948051 cumulative IPC: 0.0912207 (Simulation time: 0 hr 58 min 20 sec) 
Heartbeat CPU 2 instructions: 130000002 cycles: 236208189 heartbeat IPC: 0.307949 cumulative IPC: 0.324009 (Simulation time: 0 hr 58 min 34 sec) 
Heartbeat CPU 3 instructions: 210000000 cycles: 244520836 heartbeat IPC: 0.687446 cumulative IPC: 0.684862 (Simulation time: 1 hr 0 min 13 sec) 
Heartbeat CPU 1 instructions: 180000000 cycles: 247216335 heartbeat IPC: 0.619969 cumulative IPC: 0.540771 (Simulation time: 1 hr 0 min 45 sec) 
Heartbeat CPU 3 instructions: 220000000 cycles: 259127326 heartbeat IPC: 0.684627 cumulative IPC: 0.684848 (Simulation time: 1 hr 3 min 1 sec) 
Heartbeat CPU 1 instructions: 190000000 cycles: 262499599 heartbeat IPC: 0.65431 cumulative IPC: 0.547804 (Simulation time: 1 hr 3 min 38 sec) 
Heartbeat CPU 2 instructions: 140000003 cycles: 267832374 heartbeat IPC: 0.316214 cumulative IPC: 0.323031 (Simulation time: 1 hr 4 min 42 sec) 
Heartbeat CPU 3 instructions: 230000000 cycles: 273605040 heartbeat IPC: 0.690717 cumulative IPC: 0.685178 (Simulation time: 1 hr 5 min 47 sec) 
Heartbeat CPU 1 instructions: 200000003 cycles: 277808417 heartbeat IPC: 0.653219 cumulative IPC: 0.553963 (Simulation time: 1 hr 6 min 39 sec) 
Heartbeat CPU 3 instructions: 240000002 cycles: 288060512 heartbeat IPC: 0.69178 cumulative IPC: 0.685528 (Simulation time: 1 hr 8 min 37 sec) 
Heartbeat CPU 1 instructions: 210000000 cycles: 292748896 heartbeat IPC: 0.669322 cumulative IPC: 0.560185 (Simulation time: 1 hr 9 min 39 sec) 
Heartbeat CPU 2 instructions: 150000002 cycles: 295590043 heartbeat IPC: 0.360261 cumulative IPC: 0.326724 (Simulation time: 1 hr 10 min 17 sec) 
*** Reached end of trace for Core: 3 Repeating trace: ./traces/ligra/ligra_BellmanFord.com-lj.ungraph.gcc_6.3.0_O3.drop_14000M.length_250M.champsimtrace.xz
Heartbeat CPU 3 instructions: 250000000 cycles: 302508310 heartbeat IPC: 0.692147 cumulative IPC: 0.685862 (Simulation time: 1 hr 11 min 49 sec) 
Heartbeat CPU 1 instructions: 220000000 cycles: 306422206 heartbeat IPC: 0.731352 cumulative IPC: 0.568238 (Simulation time: 1 hr 12 min 42 sec) 
Finished CPU 3 instructions: 200000001 cycles: 291519940 cumulative IPC: 0.686059 (Simulation time: 1 hr 12 min 52 sec) 
Heartbeat CPU 3 instructions: 260000002 cycles: 316987774 heartbeat IPC: 0.690633 cumulative IPC: 0.686091 (Simulation time: 1 hr 14 min 52 sec) 
Heartbeat CPU 2 instructions: 160000000 cycles: 318091181 heartbeat IPC: 0.444422 cumulative IPC: 0.335484 (Simulation time: 1 hr 15 min 7 sec) 
Heartbeat CPU 1 instructions: 230000002 cycles: 319901544 heartbeat IPC: 0.741876 cumulative IPC: 0.575934 (Simulation time: 1 hr 15 min 31 sec) 
Heartbeat CPU 3 instructions: 270000000 cycles: 331378188 heartbeat IPC: 0.694907 cumulative IPC: 0.686493 (Simulation time: 1 hr 18 min 8 sec) 
Heartbeat CPU 1 instructions: 240000000 cycles: 333509220 heartbeat IPC: 0.734879 cumulative IPC: 0.582741 (Simulation time: 1 hr 18 min 37 sec) 
Heartbeat CPU 2 instructions: 170000000 cycles: 339821411 heartbeat IPC: 0.460188 cumulative IPC: 0.343846 (Simulation time: 1 hr 19 min 55 sec) 
Heartbeat CPU 3 instructions: 280000001 cycles: 345952760 heartbeat IPC: 0.686127 cumulative IPC: 0.686477 (Simulation time: 1 hr 21 min 13 sec) 
Heartbeat CPU 1 instructions: 250000003 cycles: 348171479 heartbeat IPC: 0.682023 cumulative IPC: 0.58712 (Simulation time: 1 hr 21 min 42 sec) 
Heartbeat CPU 0 instructions: 80000002 cycles: 350338749 heartbeat IPC: 0.0867147 cumulative IPC: 0.0896676 (Simulation time: 1 hr 22 min 12 sec) 
Finished CPU 1 instructions: 200000002 cycles: 339335081 cumulative IPC: 0.589388 (Simulation time: 1 hr 23 min 15 sec) 
Heartbeat CPU 3 instructions: 290000000 cycles: 360540220 heartbeat IPC: 0.68552 cumulative IPC: 0.686436 (Simulation time: 1 hr 24 min 29 sec) 
Heartbeat CPU 2 instructions: 180000001 cycles: 362159603 heartbeat IPC: 0.447664 cumulative IPC: 0.350541 (Simulation time: 1 hr 24 min 50 sec) 
Heartbeat CPU 1 instructions: 260000001 cycles: 362581325 heartbeat IPC: 0.69397 cumulative IPC: 0.59156 (Simulation time: 1 hr 24 min 55 sec) 
Heartbeat CPU 3 instructions: 300000000 cycles: 375131612 heartbeat IPC: 0.685336 cumulative IPC: 0.686392 (Simulation time: 1 hr 27 min 39 sec) 
Heartbeat CPU 1 instructions: 270000003 cycles: 377210750 heartbeat IPC: 0.683554 cumulative IPC: 0.595283 (Simulation time: 1 hr 28 min 7 sec) 
Heartbeat CPU 2 instructions: 190000003 cycles: 385413920 heartbeat IPC: 0.430028 cumulative IPC: 0.355542 (Simulation time: 1 hr 29 min 47 sec) 
Heartbeat CPU 3 instructions: 310000003 cycles: 389800007 heartbeat IPC: 0.681738 cumulative IPC: 0.686209 (Simulation time: 1 hr 30 min 41 sec) 
Heartbeat CPU 1 instructions: 280000001 cycles: 395168199 heartbeat IPC: 0.556872 cumulative IPC: 0.593465 (Simulation time: 1 hr 31 min 51 sec) 
Heartbeat CPU 3 instructions: 320000003 cycles: 404479094 heartbeat IPC: 0.681241 cumulative IPC: 0.686022 (Simulation time: 1 hr 33 min 45 sec) 
Heartbeat CPU 1 instructions: 290000000 cycles: 415513106 heartbeat IPC: 0.491523 cumulative IPC: 0.588277 (Simulation time: 1 hr 36 min 6 sec) 
Heartbeat CPU 2 instructions: 200000003 cycles: 416083870 heartbeat IPC: 0.326052 cumulative IPC: 0.353283 (Simulation time: 1 hr 36 min 13 sec) 
Heartbeat CPU 3 instructions: 330000000 cycles: 419169579 heartbeat IPC: 0.680713 cumulative IPC: 0.685828 (Simulation time: 1 hr 36 min 52 sec) 
Heartbeat CPU 3 instructions: 340000002 cycles: 433817195 heartbeat IPC: 0.682705 cumulative IPC: 0.685719 (Simulation time: 1 hr 39 min 56 sec) 
Heartbeat CPU 1 instructions: 300000003 cycles: 435853437 heartbeat IPC: 0.491634 cumulative IPC: 0.583597 (Simulation time: 1 hr 40 min 23 sec) 
Heartbeat CPU 2 instructions: 210000002 cycles: 446549033 heartbeat IPC: 0.328244 cumulative IPC: 0.351512 (Simulation time: 1 hr 42 min 35 sec) 
Heartbeat CPU 3 instructions: 350000003 cycles: 448600290 heartbeat IPC: 0.676448 cumulative IPC: 0.685402 (Simulation time: 1 hr 43 min 0 sec) 
Heartbeat CPU 1 instructions: 310000000 cycles: 456305566 heartbeat IPC: 0.488946 cumulative IPC: 0.579203 (Simulation time: 1 hr 44 min 37 sec) 
Heartbeat CPU 3 instructions: 360000000 cycles: 463375961 heartbeat IPC: 0.676788 cumulative IPC: 0.685118 (Simulation time: 1 hr 46 min 6 sec) 
Heartbeat CPU 1 instructions: 320000001 cycles: 477035172 heartbeat IPC: 0.482402 cumulative IPC: 0.574853 (Simulation time: 1 hr 48 min 54 sec) 
Heartbeat CPU 2 instructions: 220000000 cycles: 477315785 heartbeat IPC: 0.325026 cumulative IPC: 0.349746 (Simulation time: 1 hr 48 min 58 sec) 
Heartbeat CPU 3 instructions: 370000001 cycles: 478150842 heartbeat IPC: 0.676824 cumulative IPC: 0.684853 (Simulation time: 1 hr 49 min 9 sec) 
Heartbeat CPU 0 instructions: 90000003 cycles: 482950528 heartbeat IPC: 0.0754081 cumulative IPC: 0.08562 (Simulation time: 1 hr 50 min 7 sec) 
Heartbeat CPU 3 instructions: 380000001 cycles: 492927564 heartbeat IPC: 0.67674 cumulative IPC: 0.684601 (Simulation time: 1 hr 52 min 7 sec) 
Heartbeat CPU 1 instructions: 330000000 cycles: 497357215 heartbeat IPC: 0.492076 cumulative IPC: 0.57136 (Simulation time: 1 hr 53 min 3 sec) 
Heartbeat CPU 3 instructions: 390000002 cycles: 507612642 heartbeat IPC: 0.680963 cumulative IPC: 0.684493 (Simulation time: 1 hr 55 min 0 sec) 
Heartbeat CPU 2 instructions: 230000003 cycles: 508246392 heartbeat IPC: 0.323304 cumulative IPC: 0.348086 (Simulation time: 1 hr 55 min 8 sec) 
Heartbeat CPU 1 instructions: 340000001 cycles: 517997545 heartbeat IPC: 0.484488 cumulative IPC: 0.56779 (Simulation time: 1 hr 57 min 6 sec) 
Heartbeat CPU 3 instructions: 400000000 cycles: 522147070 heartbeat IPC: 0.688021 cumulative IPC: 0.684594 (Simulation time: 1 hr 57 min 55 sec) 
Heartbeat CPU 1 instructions: 350000002 cycles: 536048014 heartbeat IPC: 0.554002 cumulative IPC: 0.567311 (Simulation time: 2 hr 0 min 55 sec) 
Heartbeat CPU 3 instructions: 410000000 cycles: 536761626 heartbeat IPC: 0.684249 cumulative IPC: 0.684584 (Simulation time: 2 hr 1 min 4 sec) 
Heartbeat CPU 2 instructions: 240000000 cycles: 547996119 heartbeat IPC: 0.251574 cumulative IPC: 0.340878 (Simulation time: 2 hr 3 min 28 sec) 
Heartbeat CPU 1 instructions: 360000000 cycles: 549314136 heartbeat IPC: 0.7538 cumulative IPC: 0.571948 (Simulation time: 2 hr 3 min 44 sec) 
Heartbeat CPU 3 instructions: 420000003 cycles: 551337569 heartbeat IPC: 0.686062 cumulative IPC: 0.684625 (Simulation time: 2 hr 4 min 9 sec) 
Heartbeat CPU 1 instructions: 370000003 cycles: 562427727 heartbeat IPC: 0.762568 cumulative IPC: 0.576521 (Simulation time: 2 hr 6 min 36 sec) 
Heartbeat CPU 3 instructions: 430000000 cycles: 565822924 heartbeat IPC: 0.690352 cumulative IPC: 0.684776 (Simulation time: 2 hr 7 min 21 sec) 
Heartbeat CPU 1 instructions: 380000002 cycles: 575396741 heartbeat IPC: 0.771069 cumulative IPC: 0.581029 (Simulation time: 2 hr 9 min 18 sec) 
Heartbeat CPU 3 instructions: 440000000 cycles: 580364205 heartbeat IPC: 0.687697 cumulative IPC: 0.684851 (Simulation time: 2 hr 10 min 23 sec) 
Heartbeat CPU 1 instructions: 390000003 cycles: 588481066 heartbeat IPC: 0.764273 cumulative IPC: 0.585216 (Simulation time: 2 hr 12 min 7 sec) 
Heartbeat CPU 0 instructions: 100000000 cycles: 594716639 heartbeat IPC: 0.0894725 cumulative IPC: 0.0863637 (Simulation time: 2 hr 13 min 23 sec) 
Heartbeat CPU 3 instructions: 450000000 cycles: 594717911 heartbeat IPC: 0.696684 cumulative IPC: 0.685144 (Simulation time: 2 hr 13 min 23 sec) 
Heartbeat CPU 1 instructions: 400000002 cycles: 601207024 heartbeat IPC: 0.785795 cumulative IPC: 0.589576 (Simulation time: 2 hr 14 min 46 sec) 
Heartbeat CPU 3 instructions: 460000001 cycles: 609264030 heartbeat IPC: 0.687469 cumulative IPC: 0.685201 (Simulation time: 2 hr 16 min 27 sec) 
Heartbeat CPU 1 instructions: 410000000 cycles: 614247605 heartbeat IPC: 0.766837 cumulative IPC: 0.593438 (Simulation time: 2 hr 17 min 29 sec) 
*** Reached end of trace for Core: 2 Repeating trace: ./traces/ligra/ligra_BFSCC.com-lj.ungraph.gcc_6.3.0_O3.drop_18750M.length_250M.champsimtrace.xz
Heartbeat CPU 2 instructions: 250000000 cycles: 618305560 heartbeat IPC: 0.142228 cumulative IPC: 0.317697 (Simulation time: 2 hr 18 min 18 sec) 
Heartbeat CPU 3 instructions: 470000000 cycles: 623879005 heartbeat IPC: 0.68423 cumulative IPC: 0.685178 (Simulation time: 2 hr 19 min 9 sec) 
Heartbeat CPU 1 instructions: 420000001 cycles: 629175988 heartbeat IPC: 0.669865 cumulative IPC: 0.595298 (Simulation time: 2 hr 20 min 10 sec) 
Heartbeat CPU 3 instructions: 480000001 cycles: 638367816 heartbeat IPC: 0.690188 cumulative IPC: 0.685294 (Simulation time: 2 hr 21 min 51 sec) 
Heartbeat CPU 1 instructions: 430000001 cycles: 644438186 heartbeat IPC: 0.655214 cumulative IPC: 0.596753 (Simulation time: 2 hr 23 min 0 sec) 
Finished CPU 2 instructions: 200000000 cycles: 628676820 cumulative IPC: 0.318128 (Simulation time: 2 hr 23 min 0 sec) 
Heartbeat CPU 2 instructions: 260000001 cycles: 648644683 heartbeat IPC: 0.329607 cumulative IPC: 0.318268 (Simulation time: 2 hr 23 min 47 sec) 
Heartbeat CPU 3 instructions: 490000003 cycles: 652814235 heartbeat IPC: 0.692213 cumulative IPC: 0.685451 (Simulation time: 2 hr 24 min 35 sec) 
Heartbeat CPU 1 instructions: 440000000 cycles: 659598885 heartbeat IPC: 0.6596 cumulative IPC: 0.598233 (Simulation time: 2 hr 25 min 52 sec) 
*** Reached end of trace for Core: 3 Repeating trace: ./traces/ligra/ligra_BellmanFord.com-lj.ungraph.gcc_6.3.0_O3.drop_14000M.length_250M.champsimtrace.xz
Heartbeat CPU 3 instructions: 500000001 cycles: 667281845 heartbeat IPC: 0.691199 cumulative IPC: 0.685579 (Simulation time: 2 hr 27 min 21 sec) 
Heartbeat CPU 1 instructions: 450000003 cycles: 674914522 heartbeat IPC: 0.652928 cumulative IPC: 0.599504 (Simulation time: 2 hr 28 min 49 sec) 
Heartbeat CPU 2 instructions: 270000003 cycles: 678199612 heartbeat IPC: 0.338353 cumulative IPC: 0.319164 (Simulation time: 2 hr 29 min 21 sec) 
Heartbeat CPU 3 instructions: 510000003 cycles: 681782629 heartbeat IPC: 0.689618 cumulative IPC: 0.685667 (Simulation time: 2 hr 30 min 2 sec) 
Heartbeat CPU 1 instructions: 460000000 cycles: 689946208 heartbeat IPC: 0.665261 cumulative IPC: 0.60097 (Simulation time: 2 hr 31 min 24 sec) 
Heartbeat CPU 3 instructions: 520000001 cycles: 696180184 heartbeat IPC: 0.694562 cumulative IPC: 0.685855 (Simulation time: 2 hr 32 min 33 sec) 
Heartbeat CPU 0 instructions: 110000000 cycles: 704630889 heartbeat IPC: 0.09098 cumulative IPC: 0.0871003 (Simulation time: 2 hr 34 min 5 sec) 
Heartbeat CPU 1 instructions: 470000002 cycles: 705213339 heartbeat IPC: 0.655002 cumulative IPC: 0.602166 (Simulation time: 2 hr 34 min 12 sec) 
Heartbeat CPU 2 instructions: 280000003 cycles: 707510029 heartbeat IPC: 0.341176 cumulative IPC: 0.320097 (Simulation time: 2 hr 34 min 39 sec) 
Heartbeat CPU 3 instructions: 530000000 cycles: 710746049 heartbeat IPC: 0.686537 cumulative IPC: 0.685869 (Simulation time: 2 hr 35 min 12 sec) 
Heartbeat CPU 1 instructions: 480000002 cycles: 720259006 heartbeat IPC: 0.664643 cumulative IPC: 0.603501 (Simulation time: 2 hr 37 min 2 sec) 
Heartbeat CPU 3 instructions: 540000001 cycles: 725357874 heartbeat IPC: 0.684377 cumulative IPC: 0.685839 (Simulation time: 2 hr 37 min 54 sec) 
Heartbeat CPU 1 instructions: 490000002 cycles: 736413143 heartbeat IPC: 0.619036 cumulative IPC: 0.603849 (Simulation time: 2 hr 39 min 57 sec) 
Heartbeat CPU 2 instructions: 290000003 cycles: 737352560 heartbeat IPC: 0.335092 cumulative IPC: 0.320717 (Simulation time: 2 hr 40 min 6 sec) 
Heartbeat CPU 3 instructions: 550000000 cycles: 739969197 heartbeat IPC: 0.684401 cumulative IPC: 0.68581 (Simulation time: 2 hr 40 min 34 sec) 
Heartbeat CPU 3 instructions: 560000000 cycles: 754630315 heartbeat IPC: 0.682076 cumulative IPC: 0.685736 (Simulation time: 2 hr 43 min 3 sec) 
Heartbeat CPU 3 instructions: 570000000 cycles: 769266323 heartbeat IPC: 0.683246 cumulative IPC: 0.685687 (Simulation time: 2 hr 45 min 23 sec) 
Heartbeat CPU 1 instructions: 500000001 cycles: 769494459 heartbeat IPC: 0.302285 cumulative IPC: 0.590613 (Simulation time: 2 hr 45 min 25 sec) 
Heartbeat CPU 2 instructions: 300000000 cycles: 769501294 heartbeat IPC: 0.311054 cumulative IPC: 0.320305 (Simulation time: 2 hr 45 min 26 sec) 
Heartbeat CPU 3 instructions: 580000001 cycles: 783909396 heartbeat IPC: 0.682917 cumulative IPC: 0.685634 (Simulation time: 2 hr 47 min 36 sec) 
Heartbeat CPU 3 instructions: 590000000 cycles: 798531062 heartbeat IPC: 0.683917 cumulative IPC: 0.685602 (Simulation time: 2 hr 49 min 52 sec) 
Heartbeat CPU 2 instructions: 310000002 cycles: 802222921 heartbeat IPC: 0.305608 cumulative IPC: 0.319694 (Simulation time: 2 hr 50 min 30 sec) 
Heartbeat CPU 1 instructions: 510000001 cycles: 812580990 heartbeat IPC: 0.232091 cumulative IPC: 0.571226 (Simulation time: 2 hr 52 min 24 sec) 
Heartbeat CPU 3 instructions: 600000000 cycles: 813230583 heartbeat IPC: 0.680294 cumulative IPC: 0.685504 (Simulation time: 2 hr 52 min 31 sec) 
Heartbeat CPU 0 instructions: 120000002 cycles: 822130924 heartbeat IPC: 0.0851064 cumulative IPC: 0.0868097 (Simulation time: 2 hr 54 min 6 sec) 
Heartbeat CPU 3 instructions: 610000001 cycles: 827936095 heartbeat IPC: 0.680017 cumulative IPC: 0.685405 (Simulation time: 2 hr 55 min 11 sec) 
Heartbeat CPU 1 instructions: 520000000 cycles: 828437730 heartbeat IPC: 0.630647 cumulative IPC: 0.572386 (Simulation time: 2 hr 55 min 16 sec) 
Heartbeat CPU 2 instructions: 320000000 cycles: 832560051 heartbeat IPC: 0.329629 cumulative IPC: 0.320063 (Simulation time: 2 hr 56 min 2 sec) 
Heartbeat CPU 3 instructions: 620000000 cycles: 842619815 heartbeat IPC: 0.681026 cumulative IPC: 0.685327 (Simulation time: 2 hr 57 min 59 sec) 
Heartbeat CPU 1 instructions: 530000000 cycles: 843384466 heartbeat IPC: 0.669042 cumulative IPC: 0.574131 (Simulation time: 2 hr 58 min 8 sec) 
Heartbeat CPU 3 instructions: 630000002 cycles: 857312597 heartbeat IPC: 0.680606 cumulative IPC: 0.685245 (Simulation time: 3 hr 0 min 43 sec) 
Heartbeat CPU 1 instructions: 540000000 cycles: 858699107 heartbeat IPC: 0.65297 cumulative IPC: 0.575564 (Simulation time: 3 hr 1 min 0 sec) 
Heartbeat CPU 2 instructions: 330000000 cycles: 862436112 heartbeat IPC: 0.334716 cumulative IPC: 0.32058 (Simulation time: 3 hr 1 min 42 sec) 
Heartbeat CPU 3 instructions: 640000003 cycles: 871917295 heartbeat IPC: 0.684711 cumulative IPC: 0.685236 (Simulation time: 3 hr 3 min 28 sec) 
Heartbeat CPU 1 instructions: 550000000 cycles: 873655188 heartbeat IPC: 0.668624 cumulative IPC: 0.577186 (Simulation time: 3 hr 3 min 47 sec) 
Heartbeat CPU 3 instructions: 650000000 cycles: 886377110 heartbeat IPC: 0.691572 cumulative IPC: 0.685341 (Simulation time: 3 hr 6 min 7 sec) 
Heartbeat CPU 1 instructions: 560000003 cycles: 889046207 heartbeat IPC: 0.64973 cumulative IPC: 0.578465 (Simulation time: 3 hr 6 min 38 sec) 
Heartbeat CPU 2 instructions: 340000001 cycles: 892873223 heartbeat IPC: 0.328546 cumulative IPC: 0.320856 (Simulation time: 3 hr 7 min 21 sec) 
Heartbeat CPU 3 instructions: 660000000 cycles: 900950202 heartbeat IPC: 0.686196 cumulative IPC: 0.685355 (Simulation time: 3 hr 8 min 50 sec) 
Heartbeat CPU 1 instructions: 570000000 cycles: 903992818 heartbeat IPC: 0.669048 cumulative IPC: 0.579989 (Simulation time: 3 hr 9 min 24 sec) 
Heartbeat CPU 3 instructions: 670000000 cycles: 915525282 heartbeat IPC: 0.686103 cumulative IPC: 0.685367 (Simulation time: 3 hr 11 min 34 sec) 
Heartbeat CPU 1 instructions: 580000002 cycles: 919348155 heartbeat IPC: 0.65124 cumulative IPC: 0.5812 (Simulation time: 3 hr 12 min 16 sec) 
Heartbeat CPU 2 instructions: 350000002 cycles: 923012551 heartbeat IPC: 0.331792 cumulative IPC: 0.321219 (Simulation time: 3 hr 13 min 2 sec) 
Heartbeat CPU 0 instructions: 130000000 cycles: 925727096 heartbeat IPC: 0.0965286 cumulative IPC: 0.0879162 (Simulation time: 3 hr 13 min 34 sec) 
Heartbeat CPU 3 instructions: 680000000 cycles: 930035921 heartbeat IPC: 0.689149 cumulative IPC: 0.685427 (Simulation time: 3 hr 14 min 24 sec) 
Heartbeat CPU 1 instructions: 590000000 cycles: 933914661 heartbeat IPC: 0.686506 cumulative IPC: 0.582871 (Simulation time: 3 hr 15 min 9 sec) 
Heartbeat CPU 3 instructions: 690000001 cycles: 944596581 heartbeat IPC: 0.686782 cumulative IPC: 0.685449 (Simulation time: 3 hr 17 min 11 sec) 
Heartbeat CPU 1 instructions: 600000000 cycles: 949496362 heartbeat IPC: 0.641778 cumulative IPC: 0.583854 (Simulation time: 3 hr 17 min 59 sec) 
Heartbeat CPU 2 instructions: 360000001 cycles: 953347960 heartbeat IPC: 0.329648 cumulative IPC: 0.321492 (Simulation time: 3 hr 18 min 43 sec) 
Heartbeat CPU 3 instructions: 700000001 cycles: 958977457 heartbeat IPC: 0.695368 cumulative IPC: 0.6856 (Simulation time: 3 hr 19 min 49 sec) 
Heartbeat CPU 1 instructions: 610000000 cycles: 964640303 heartbeat IPC: 0.66033 cumulative IPC: 0.585074 (Simulation time: 3 hr 20 min 56 sec) 
Heartbeat CPU 3 instructions: 710000002 cycles: 973525830 heartbeat IPC: 0.687362 cumulative IPC: 0.685627 (Simulation time: 3 hr 22 min 37 sec) 
Heartbeat CPU 1 instructions: 620000000 cycles: 979858578 heartbeat IPC: 0.657105 cumulative IPC: 0.586211 (Simulation time: 3 hr 23 min 46 sec) 
Heartbeat CPU 2 instructions: 370000003 cycles: 984841890 heartbeat IPC: 0.317522 cumulative IPC: 0.321363 (Simulation time: 3 hr 24 min 40 sec) 
Heartbeat CPU 3 instructions: 720000000 cycles: 988154520 heartbeat IPC: 0.683588 cumulative IPC: 0.685596 (Simulation time: 3 hr 25 min 14 sec) 
Heartbeat CPU 1 instructions: 630000002 cycles: 994719652 heartbeat IPC: 0.672899 cumulative IPC: 0.587527 (Simulation time: 3 hr 26 min 30 sec) 
Heartbeat CPU 3 instructions: 730000002 cycles: 1002640490 heartbeat IPC: 0.690323 cumulative IPC: 0.685665 (Simulation time: 3 hr 27 min 59 sec) 
Heartbeat CPU 1 instructions: 640000000 cycles: 1009725804 heartbeat IPC: 0.666393 cumulative IPC: 0.588718 (Simulation time: 3 hr 29 min 21 sec) 
Heartbeat CPU 2 instructions: 380000002 cycles: 1016886233 heartbeat IPC: 0.312068 cumulative IPC: 0.321066 (Simulation time: 3 hr 30 min 38 sec) 
Heartbeat CPU 3 instructions: 740000000 cycles: 1017085928 heartbeat IPC: 0.69226 cumulative IPC: 0.68576 (Simulation time: 3 hr 30 min 40 sec) 
Heartbeat CPU 1 instructions: 650000000 cycles: 1025013928 heartbeat IPC: 0.654103 cumulative IPC: 0.589708 (Simulation time: 3 hr 32 min 7 sec) 
*** Reached end of trace for Core: 3 Repeating trace: ./traces/ligra/ligra_BellmanFord.com-lj.ungraph.gcc_6.3.0_O3.drop_14000M.length_250M.champsimtrace.xz
Heartbeat CPU 3 instructions: 750000002 cycles: 1031537187 heartbeat IPC: 0.691981 cumulative IPC: 0.685849 (Simulation time: 3 hr 33 min 19 sec) 
Heartbeat CPU 0 instructions: 140000001 cycles: 1038447113 heartbeat IPC: 0.0887154 cumulative IPC: 0.0880043 (Simulation time: 3 hr 34 min 33 sec) 
Heartbeat CPU 1 instructions: 660000000 cycles: 1040064004 heartbeat IPC: 0.664448 cumulative IPC: 0.590806 (Simulation time: 3 hr 34 min 51 sec) 
Heartbeat CPU 3 instructions: 760000000 cycles: 1046034641 heartbeat IPC: 0.689776 cumulative IPC: 0.685904 (Simulation time: 3 hr 35 min 57 sec) 
Heartbeat CPU 2 instructions: 390000003 cycles: 1048544879 heartbeat IPC: 0.31587 cumulative IPC: 0.320906 (Simulation time: 3 hr 36 min 25 sec) 
Heartbeat CPU 1 instructions: 670000001 cycles: 1055645843 heartbeat IPC: 0.641773 cumulative IPC: 0.59157 (Simulation time: 3 hr 37 min 48 sec) 
Heartbeat CPU 3 instructions: 770000000 cycles: 1060440151 heartbeat IPC: 0.694179 cumulative IPC: 0.686018 (Simulation time: 3 hr 38 min 38 sec) 
Heartbeat CPU 1 instructions: 680000003 cycles: 1071888653 heartbeat IPC: 0.615657 cumulative IPC: 0.591941 (Simulation time: 3 hr 40 min 52 sec) 
Heartbeat CPU 3 instructions: 780000001 cycles: 1075028377 heartbeat IPC: 0.685484 cumulative IPC: 0.686011 (Simulation time: 3 hr 41 min 32 sec) 
Heartbeat CPU 2 instructions: 400000002 cycles: 1077176163 heartbeat IPC: 0.349268 cumulative IPC: 0.321671 (Simulation time: 3 hr 42 min 1 sec) 
Heartbeat CPU 1 instructions: 690000002 cycles: 1087667912 heartbeat IPC: 0.633743 cumulative IPC: 0.592556 (Simulation time: 3 hr 44 min 14 sec) 
Heartbeat CPU 3 instructions: 790000002 cycles: 1089604090 heartbeat IPC: 0.686073 cumulative IPC: 0.686012 (Simulation time: 3 hr 44 min 37 sec) 
Heartbeat CPU 2 instructions: 410000000 cycles: 1099520814 heartbeat IPC: 0.447534 cumulative IPC: 0.324266 (Simulation time: 3 hr 46 min 46 sec) 
Heartbeat CPU 3 instructions: 800000002 cycles: 1104177981 heartbeat IPC: 0.686159 cumulative IPC: 0.686014 (Simulation time: 3 hr 47 min 47 sec) 
Heartbeat CPU 1 instructions: 700000001 cycles: 1104613559 heartbeat IPC: 0.590122 cumulative IPC: 0.592518 (Simulation time: 3 hr 47 min 53 sec) 
Heartbeat CPU 3 instructions: 810000001 cycles: 1118807394 heartbeat IPC: 0.683554 cumulative IPC: 0.685981 (Simulation time: 3 hr 50 min 36 sec) 
Heartbeat CPU 2 instructions: 420000000 cycles: 1122463948 heartbeat IPC: 0.43586 cumulative IPC: 0.32658 (Simulation time: 3 hr 51 min 14 sec) 
Heartbeat CPU 1 instructions: 710000002 cycles: 1126817062 heartbeat IPC: 0.450379 cumulative IPC: 0.589678 (Simulation time: 3 hr 52 min 1 sec) 
Heartbeat CPU 3 instructions: 820000001 cycles: 1133417237 heartbeat IPC: 0.68447 cumulative IPC: 0.685961 (Simulation time: 3 hr 53 min 19 sec) 
Heartbeat CPU 0 instructions: 150000001 cycles: 1140401517 heartbeat IPC: 0.0980831 cumulative IPC: 0.088918 (Simulation time: 3 hr 54 min 40 sec) 
Heartbeat CPU 2 instructions: 430000001 cycles: 1145647680 heartbeat IPC: 0.431337 cumulative IPC: 0.328729 (Simulation time: 3 hr 55 min 46 sec) 
Heartbeat CPU 3 instructions: 830000000 cycles: 1148028489 heartbeat IPC: 0.684404 cumulative IPC: 0.685941 (Simulation time: 3 hr 56 min 17 sec) 
Heartbeat CPU 1 instructions: 720000000 cycles: 1153133550 heartbeat IPC: 0.37999 cumulative IPC: 0.584826 (Simulation time: 3 hr 57 min 26 sec) 
Heartbeat CPU 3 instructions: 840000001 cycles: 1162610034 heartbeat IPC: 0.685798 cumulative IPC: 0.685939 (Simulation time: 3 hr 59 min 16 sec) 
Heartbeat CPU 2 instructions: 440000000 cycles: 1169738672 heartbeat IPC: 0.415093 cumulative IPC: 0.330532 (Simulation time: 4 hr 0 min 38 sec) 
Heartbeat CPU 3 instructions: 850000000 cycles: 1177375471 heartbeat IPC: 0.677257 cumulative IPC: 0.685829 (Simulation time: 4 hr 1 min 56 sec) 
Heartbeat CPU 3 instructions: 860000002 cycles: 1192150365 heartbeat IPC: 0.676824 cumulative IPC: 0.685716 (Simulation time: 4 hr 4 min 46 sec) 
Heartbeat CPU 1 instructions: 730000003 cycles: 1197797918 heartbeat IPC: 0.223892 cumulative IPC: 0.571187 (Simulation time: 4 hr 5 min 51 sec) 
Heartbeat CPU 2 instructions: 450000003 cycles: 1202145889 heartbeat IPC: 0.308573 cumulative IPC: 0.329932 (Simulation time: 4 hr 6 min 43 sec) 
Heartbeat CPU 3 instructions: 870000001 cycles: 1206919787 heartbeat IPC: 0.677074 cumulative IPC: 0.685609 (Simulation time: 4 hr 7 min 38 sec) 
Heartbeat CPU 3 instructions: 880000000 cycles: 1221728335 heartbeat IPC: 0.675286 cumulative IPC: 0.685482 (Simulation time: 4 hr 10 min 28 sec) 
Heartbeat CPU 2 instructions: 460000003 cycles: 1234596360 heartbeat IPC: 0.308162 cumulative IPC: 0.329353 (Simulation time: 4 hr 12 min 51 sec) 
Heartbeat CPU 3 instructions: 890000000 cycles: 1236441570 heartbeat IPC: 0.67966 cumulative IPC: 0.685412 (Simulation time: 4 hr 13 min 12 sec) 
Heartbeat CPU 3 instructions: 900000000 cycles: 1250971118 heartbeat IPC: 0.688253 cumulative IPC: 0.685445 (Simulation time: 4 hr 15 min 54 sec) 
Heartbeat CPU 1 instructions: 740000001 cycles: 1256370104 heartbeat IPC: 0.170729 cumulative IPC: 0.552281 (Simulation time: 4 hr 16 min 50 sec) 
Heartbeat CPU 3 instructions: 910000001 cycles: 1265616960 heartbeat IPC: 0.682788 cumulative IPC: 0.685414 (Simulation time: 4 hr 18 min 30 sec) 
Heartbeat CPU 2 instructions: 470000003 cycles: 1267302473 heartbeat IPC: 0.305753 cumulative IPC: 0.328736 (Simulation time: 4 hr 18 min 48 sec) 
Heartbeat CPU 3 instructions: 920000001 cycles: 1280280252 heartbeat IPC: 0.681975 cumulative IPC: 0.685374 (Simulation time: 4 hr 21 min 13 sec) 
Heartbeat CPU 0 instructions: 160000000 cycles: 1281620905 heartbeat IPC: 0.0708118 cumulative IPC: 0.086898 (Simulation time: 4 hr 21 min 27 sec) 
Heartbeat CPU 3 instructions: 930000000 cycles: 1294865136 heartbeat IPC: 0.685641 cumulative IPC: 0.685377 (Simulation time: 4 hr 23 min 54 sec) 
Heartbeat CPU 2 instructions: 480000003 cycles: 1299851873 heartbeat IPC: 0.307225 cumulative IPC: 0.328191 (Simulation time: 4 hr 24 min 53 sec) 
Heartbeat CPU 3 instructions: 940000002 cycles: 1309512129 heartbeat IPC: 0.682734 cumulative IPC: 0.685347 (Simulation time: 4 hr 26 min 33 sec) 
Heartbeat CPU 1 instructions: 750000002 cycles: 1315805651 heartbeat IPC: 0.16825 cumulative IPC: 0.534723 (Simulation time: 4 hr 27 min 42 sec) 
Heartbeat CPU 3 instructions: 950000000 cycles: 1323959345 heartbeat IPC: 0.692175 cumulative IPC: 0.685423 (Simulation time: 4 hr 29 min 17 sec) 
Heartbeat CPU 3 instructions: 960000003 cycles: 1338503894 heartbeat IPC: 0.687543 cumulative IPC: 0.685446 (Simulation time: 4 hr 32 min 16 sec) 
Heartbeat CPU 2 instructions: 490000000 cycles: 1340992002 heartbeat IPC: 0.243072 cumulative IPC: 0.325548 (Simulation time: 4 hr 32 min 43 sec) 
Heartbeat CPU 3 instructions: 970000001 cycles: 1353114735 heartbeat IPC: 0.684423 cumulative IPC: 0.685435 (Simulation time: 4 hr 35 min 9 sec) 
Heartbeat CPU 1 instructions: 760000001 cycles: 1354483733 heartbeat IPC: 0.258544 cumulative IPC: 0.526744 (Simulation time: 4 hr 35 min 24 sec) 
Heartbeat CPU 3 instructions: 980000003 cycles: 1367566082 heartbeat IPC: 0.691977 cumulative IPC: 0.685505 (Simulation time: 4 hr 37 min 42 sec) 
Heartbeat CPU 3 instructions: 990000000 cycles: 1382009209 heartbeat IPC: 0.692371 cumulative IPC: 0.685577 (Simulation time: 4 hr 40 min 45 sec) 
Heartbeat CPU 1 instructions: 770000000 cycles: 1387842495 heartbeat IPC: 0.299771 cumulative IPC: 0.521226 (Simulation time: 4 hr 42 min 1 sec) 
*** Reached end of trace for Core: 3 Repeating trace: ./traces/ligra/ligra_BellmanFord.com-lj.ungraph.gcc_6.3.0_O3.drop_14000M.length_250M.champsimtrace.xz
Heartbeat CPU 3 instructions: 1000000000 cycles: 1396451009 heartbeat IPC: 0.692434 cumulative IPC: 0.685649 (Simulation time: 4 hr 43 min 52 sec) 
Heartbeat CPU 0 instructions: 170000000 cycles: 1401744812 heartbeat IPC: 0.0832474 cumulative IPC: 0.0865816 (Simulation time: 4 hr 45 min 3 sec) 
Heartbeat CPU 3 instructions: 1010000001 cycles: 1410934709 heartbeat IPC: 0.690431 cumulative IPC: 0.685699 (Simulation time: 4 hr 46 min 57 sec) 
*** Reached end of trace for Core: 2 Repeating trace: ./traces/ligra/ligra_BFSCC.com-lj.ungraph.gcc_6.3.0_O3.drop_18750M.length_250M.champsimtrace.xz
Heartbeat CPU 2 instructions: 500000000 cycles: 1411049931 heartbeat IPC: 0.142739 cumulative IPC: 0.316369 (Simulation time: 4 hr 46 min 58 sec) 
Heartbeat CPU 1 instructions: 780000002 cycles: 1420076592 heartbeat IPC: 0.310231 cumulative IPC: 0.516383 (Simulation time: 4 hr 48 min 22 sec) 
Heartbeat CPU 3 instructions: 1020000003 cycles: 1425346942 heartbeat IPC: 0.693855 cumulative IPC: 0.685782 (Simulation time: 4 hr 49 min 18 sec) 
Heartbeat CPU 3 instructions: 1030000002 cycles: 1439937040 heartbeat IPC: 0.685396 cumulative IPC: 0.685778 (Simulation time: 4 hr 51 min 47 sec) 
Heartbeat CPU 2 instructions: 510000001 cycles: 1443482475 heartbeat IPC: 0.308332 cumulative IPC: 0.316187 (Simulation time: 4 hr 52 min 24 sec) 
Heartbeat CPU 1 instructions: 790000001 cycles: 1453921642 heartbeat IPC: 0.295464 cumulative IPC: 0.511184 (Simulation time: 4 hr 54 min 7 sec) 
Heartbeat CPU 3 instructions: 1040000003 cycles: 1454549783 heartbeat IPC: 0.684334 cumulative IPC: 0.685764 (Simulation time: 4 hr 54 min 13 sec) 
Heartbeat CPU 3 instructions: 1050000003 cycles: 1469157337 heartbeat IPC: 0.684577 cumulative IPC: 0.685752 (Simulation time: 4 hr 56 min 57 sec) 
Heartbeat CPU 2 instructions: 520000002 cycles: 1474805630 heartbeat IPC: 0.319253 cumulative IPC: 0.316253 (Simulation time: 4 hr 58 min 2 sec) 
Heartbeat CPU 3 instructions: 1060000002 cycles: 1483789823 heartbeat IPC: 0.683411 cumulative IPC: 0.685728 (Simulation time: 4 hr 59 min 38 sec) 
Heartbeat CPU 1 instructions: 800000000 cycles: 1485416155 heartbeat IPC: 0.317516 cumulative IPC: 0.507033 (Simulation time: 4 hr 59 min 55 sec) 
Heartbeat CPU 3 instructions: 1070000002 cycles: 1498401877 heartbeat IPC: 0.684366 cumulative IPC: 0.685715 (Simulation time: 5 hr 2 min 8 sec) 
Heartbeat CPU 2 instructions: 530000003 cycles: 1505959527 heartbeat IPC: 0.320987 cumulative IPC: 0.316352 (Simulation time: 5 hr 3 min 32 sec) 
Heartbeat CPU 3 instructions: 1080000001 cycles: 1513031584 heartbeat IPC: 0.683541 cumulative IPC: 0.685694 (Simulation time: 5 hr 4 min 48 sec) 
Heartbeat CPU 0 instructions: 180000000 cycles: 1515102801 heartbeat IPC: 0.0882161 cumulative IPC: 0.0867052 (Simulation time: 5 hr 5 min 10 sec) 
Heartbeat CPU 1 instructions: 810000002 cycles: 1517507128 heartbeat IPC: 0.311614 cumulative IPC: 0.502857 (Simulation time: 5 hr 5 min 34 sec) 
Heartbeat CPU 3 instructions: 1090000000 cycles: 1527627242 heartbeat IPC: 0.685135 cumulative IPC: 0.685688 (Simulation time: 5 hr 7 min 23 sec) 
Heartbeat CPU 2 instructions: 540000003 cycles: 1537020817 heartbeat IPC: 0.321944 cumulative IPC: 0.316466 (Simulation time: 5 hr 9 min 2 sec) 
Heartbeat CPU 3 instructions: 1100000000 cycles: 1542347422 heartbeat IPC: 0.67934 cumulative IPC: 0.685627 (Simulation time: 5 hr 10 min 0 sec) 
Heartbeat CPU 1 instructions: 820000001 cycles: 1548244079 heartbeat IPC: 0.325341 cumulative IPC: 0.499297 (Simulation time: 5 hr 11 min 7 sec) 
Heartbeat CPU 3 instructions: 1110000000 cycles: 1557061463 heartbeat IPC: 0.679623 cumulative IPC: 0.68557 (Simulation time: 5 hr 12 min 46 sec) 
Heartbeat CPU 2 instructions: 550000000 cycles: 1569382950 heartbeat IPC: 0.309003 cumulative IPC: 0.31631 (Simulation time: 5 hr 15 min 4 sec) 
Heartbeat CPU 3 instructions: 1120000000 cycles: 1571751002 heartbeat IPC: 0.680757 cumulative IPC: 0.685524 (Simulation time: 5 hr 15 min 31 sec) 
Heartbeat CPU 1 instructions: 830000003 cycles: 1579408288 heartbeat IPC: 0.320881 cumulative IPC: 0.495741 (Simulation time: 5 hr 16 min 58 sec) 
Heartbeat CPU 3 instructions: 1130000000 cycles: 1586456647 heartbeat IPC: 0.680011 cumulative IPC: 0.685473 (Simulation time: 5 hr 18 min 18 sec) 
Heartbeat CPU 3 instructions: 1140000001 cycles: 1601081791 heartbeat IPC: 0.683754 cumulative IPC: 0.685457 (Simulation time: 5 hr 21 min 9 sec) 
Heartbeat CPU 2 instructions: 560000003 cycles: 1601223480 heartbeat IPC: 0.314065 cumulative IPC: 0.316265 (Simulation time: 5 hr 21 min 10 sec) 
Heartbeat CPU 1 instructions: 840000000 cycles: 1609733101 heartbeat IPC: 0.329763 cumulative IPC: 0.492583 (Simulation time: 5 hr 22 min 50 sec) 
Heartbeat CPU 3 instructions: 1150000000 cycles: 1615544560 heartbeat IPC: 0.69143 cumulative IPC: 0.685511 (Simulation time: 5 hr 23 min 53 sec) 
Heartbeat CPU 0 instructions: 190000002 cycles: 1626200643 heartbeat IPC: 0.0900108 cumulative IPC: 0.0869333 (Simulation time: 5 hr 25 min 40 sec) 
Heartbeat CPU 3 instructions: 1160000000 cycles: 1630132929 heartbeat IPC: 0.685478 cumulative IPC: 0.685511 (Simulation time: 5 hr 26 min 22 sec) 
Heartbeat CPU 2 instructions: 570000001 cycles: 1633360366 heartbeat IPC: 0.311169 cumulative IPC: 0.316164 (Simulation time: 5 hr 26 min 58 sec) 
Heartbeat CPU 1 instructions: 850000001 cycles: 1640239068 heartbeat IPC: 0.327805 cumulative IPC: 0.489489 (Simulation time: 5 hr 28 min 11 sec) 
Heartbeat CPU 3 instructions: 1170000002 cycles: 1644755229 heartbeat IPC: 0.683887 cumulative IPC: 0.685496 (Simulation time: 5 hr 28 min 54 sec) 
Heartbeat CPU 3 instructions: 1180000000 cycles: 1659261759 heartbeat IPC: 0.689345 cumulative IPC: 0.68553 (Simulation time: 5 hr 31 min 19 sec) 
Heartbeat CPU 2 instructions: 580000000 cycles: 1665208066 heartbeat IPC: 0.313994 cumulative IPC: 0.316122 (Simulation time: 5 hr 32 min 21 sec) 
Heartbeat CPU 1 instructions: 860000000 cycles: 1671884603 heartbeat IPC: 0.316 cumulative IPC: 0.486174 (Simulation time: 5 hr 33 min 29 sec) 
Heartbeat CPU 3 instructions: 1190000000 cycles: 1673826774 heartbeat IPC: 0.686577 cumulative IPC: 0.685539 (Simulation time: 5 hr 33 min 49 sec) 
Heartbeat CPU 3 instructions: 1200000001 cycles: 1688199241 heartbeat IPC: 0.695775 cumulative IPC: 0.685627 (Simulation time: 5 hr 36 min 27 sec) 
Heartbeat CPU 2 instructions: 590000000 cycles: 1697355933 heartbeat IPC: 0.311063 cumulative IPC: 0.316025 (Simulation time: 5 hr 38 min 5 sec) 
Heartbeat CPU 3 instructions: 1210000000 cycles: 1702768554 heartbeat IPC: 0.686374 cumulative IPC: 0.685634 (Simulation time: 5 hr 38 min 57 sec) 
Heartbeat CPU 1 instructions: 870000000 cycles: 1704162276 heartbeat IPC: 0.309812 cumulative IPC: 0.482802 (Simulation time: 5 hr 39 min 10 sec) 
Heartbeat CPU 3 instructions: 1220000000 cycles: 1717394761 heartbeat IPC: 0.683704 cumulative IPC: 0.685617 (Simulation time: 5 hr 41 min 23 sec) 
Heartbeat CPU 2 instructions: 600000002 cycles: 1729234154 heartbeat IPC: 0.313694 cumulative IPC: 0.315982 (Simulation time: 5 hr 43 min 22 sec) 
Heartbeat CPU 3 instructions: 1230000000 cycles: 1731869976 heartbeat IPC: 0.690836 cumulative IPC: 0.685661 (Simulation time: 5 hr 43 min 52 sec) 
Heartbeat CPU 1 instructions: 880000000 cycles: 1737067671 heartbeat IPC: 0.303902 cumulative IPC: 0.479382 (Simulation time: 5 hr 44 min 48 sec) 
Heartbeat CPU 0 instructions: 200000000 cycles: 1742668604 heartbeat IPC: 0.0858605 cumulative IPC: 0.0868609 (Simulation time: 5 hr 45 min 41 sec) 
Heartbeat CPU 3 instructions: 1240000002 cycles: 1746355771 heartbeat IPC: 0.690332 cumulative IPC: 0.6857 (Simulation time: 5 hr 46 min 14 sec) 
*** Reached end of trace for Core: 3 Repeating trace: ./traces/ligra/ligra_BellmanFord.com-lj.ungraph.gcc_6.3.0_O3.drop_14000M.length_250M.champsimtrace.xz
Heartbeat CPU 3 instructions: 1250000001 cycles: 1760818700 heartbeat IPC: 0.691423 cumulative IPC: 0.685748 (Simulation time: 5 hr 48 min 50 sec) 
Heartbeat CPU 2 instructions: 610000003 cycles: 1761540008 heartbeat IPC: 0.309541 cumulative IPC: 0.315863 (Simulation time: 5 hr 48 min 59 sec) 
Heartbeat CPU 1 instructions: 890000000 cycles: 1769643305 heartbeat IPC: 0.306978 cumulative IPC: 0.47618 (Simulation time: 5 hr 50 min 27 sec) 
Heartbeat CPU 3 instructions: 1260000002 cycles: 1775344327 heartbeat IPC: 0.688439 cumulative IPC: 0.68577 (Simulation time: 5 hr 51 min 19 sec) 
Heartbeat CPU 3 instructions: 1270000000 cycles: 1789753895 heartbeat IPC: 0.693983 cumulative IPC: 0.685836 (Simulation time: 5 hr 53 min 47 sec) 
Heartbeat CPU 2 instructions: 620000003 cycles: 1795447263 heartbeat IPC: 0.294922 cumulative IPC: 0.315464 (Simulation time: 5 hr 54 min 47 sec) 
Heartbeat CPU 1 instructions: 900000001 cycles: 1802555354 heartbeat IPC: 0.30384 cumulative IPC: 0.473006 (Simulation time: 5 hr 55 min 57 sec) 
Heartbeat CPU 3 instructions: 1280000000 cycles: 1804334185 heartbeat IPC: 0.685857 cumulative IPC: 0.685837 (Simulation time: 5 hr 56 min 13 sec) 
Heartbeat CPU 3 instructions: 1290000000 cycles: 1818936848 heartbeat IPC: 0.684807 cumulative IPC: 0.685828 (Simulation time: 5 hr 58 min 48 sec) 
Heartbeat CPU 2 instructions: 630000002 cycles: 1829377619 heartbeat IPC: 0.294721 cumulative IPC: 0.315076 (Simulation time: 6 hr 0 min 36 sec) 
Heartbeat CPU 3 instructions: 1300000000 cycles: 1833542460 heartbeat IPC: 0.684668 cumulative IPC: 0.685819 (Simulation time: 6 hr 1 min 22 sec) 
Heartbeat CPU 1 instructions: 910000002 cycles: 1834176270 heartbeat IPC: 0.316246 cumulative IPC: 0.47028 (Simulation time: 6 hr 1 min 29 sec) 
Heartbeat CPU 3 instructions: 1310000003 cycles: 1848201986 heartbeat IPC: 0.68215 cumulative IPC: 0.68579 (Simulation time: 6 hr 3 min 50 sec) 
Heartbeat CPU 3 instructions: 1320000000 cycles: 1862833698 heartbeat IPC: 0.683447 cumulative IPC: 0.685771 (Simulation time: 6 hr 6 min 34 sec) 
Heartbeat CPU 2 instructions: 640000000 cycles: 1862944478 heartbeat IPC: 0.297913 cumulative IPC: 0.314764 (Simulation time: 6 hr 6 min 35 sec) 
Heartbeat CPU 1 instructions: 920000001 cycles: 1866525349 heartbeat IPC: 0.309128 cumulative IPC: 0.467463 (Simulation time: 6 hr 7 min 16 sec) 
Heartbeat CPU 0 instructions: 210000000 cycles: 1868533164 heartbeat IPC: 0.0794505 cumulative IPC: 0.0863575 (Simulation time: 6 hr 7 min 37 sec) 
Heartbeat CPU 3 instructions: 1330000000 cycles: 1877465715 heartbeat IPC: 0.683433 cumulative IPC: 0.685753 (Simulation time: 6 hr 9 min 12 sec) 
Heartbeat CPU 3 instructions: 1340000001 cycles: 1892068244 heartbeat IPC: 0.684813 cumulative IPC: 0.685745 (Simulation time: 6 hr 11 min 52 sec) 
Heartbeat CPU 2 instructions: 650000002 cycles: 1892427037 heartbeat IPC: 0.339184 cumulative IPC: 0.315148 (Simulation time: 6 hr 11 min 57 sec) 
Heartbeat CPU 1 instructions: 930000002 cycles: 1897880183 heartbeat IPC: 0.31893 cumulative IPC: 0.464988 (Simulation time: 6 hr 12 min 59 sec) 
Heartbeat CPU 3 instructions: 1350000000 cycles: 1906758792 heartbeat IPC: 0.68071 cumulative IPC: 0.685706 (Simulation time: 6 hr 14 min 45 sec) 
Heartbeat CPU 2 instructions: 660000000 cycles: 1914996889 heartbeat IPC: 0.443069 cumulative IPC: 0.316668 (Simulation time: 6 hr 16 min 26 sec) 
Heartbeat CPU 3 instructions: 1360000001 cycles: 1921449580 heartbeat IPC: 0.680699 cumulative IPC: 0.685668 (Simulation time: 6 hr 17 min 53 sec) 
Heartbeat CPU 1 instructions: 940000000 cycles: 1925109644 heartbeat IPC: 0.367249 cumulative IPC: 0.463595 (Simulation time: 6 hr 18 min 36 sec) 
Heartbeat CPU 3 instructions: 1370000001 cycles: 1936133289 heartbeat IPC: 0.681027 cumulative IPC: 0.685632 (Simulation time: 6 hr 20 min 45 sec) 
Heartbeat CPU 2 instructions: 670000000 cycles: 1937644433 heartbeat IPC: 0.441549 cumulative IPC: 0.318139 (Simulation time: 6 hr 21 min 3 sec) 
Heartbeat CPU 3 instructions: 1380000001 cycles: 1950815588 heartbeat IPC: 0.681092 cumulative IPC: 0.685598 (Simulation time: 6 hr 23 min 38 sec) 
Heartbeat CPU 1 instructions: 950000001 cycles: 1955190256 heartbeat IPC: 0.33244 cumulative IPC: 0.46156 (Simulation time: 6 hr 24 min 22 sec) 
Heartbeat CPU 2 instructions: 680000001 cycles: 1961268858 heartbeat IPC: 0.423291 cumulative IPC: 0.319416 (Simulation time: 6 hr 25 min 35 sec) 
Heartbeat CPU 3 instructions: 1390000002 cycles: 1965415644 heartbeat IPC: 0.684929 cumulative IPC: 0.685593 (Simulation time: 6 hr 26 min 25 sec) 
Heartbeat CPU 0 instructions: 220000000 cycles: 1979083567 heartbeat IPC: 0.0904565 cumulative IPC: 0.0865883 (Simulation time: 6 hr 29 min 15 sec) 
Heartbeat CPU 3 instructions: 1400000000 cycles: 1979858991 heartbeat IPC: 0.69236 cumulative IPC: 0.685642 (Simulation time: 6 hr 29 min 24 sec) 
Heartbeat CPU 2 instructions: 690000003 cycles: 1985572313 heartbeat IPC: 0.411464 cumulative IPC: 0.320552 (Simulation time: 6 hr 30 min 35 sec) 
Heartbeat CPU 1 instructions: 960000001 cycles: 1986036965 heartbeat IPC: 0.324184 cumulative IPC: 0.45941 (Simulation time: 6 hr 30 min 40 sec) 
Heartbeat CPU 3 instructions: 1410000001 cycles: 1994497074 heartbeat IPC: 0.68315 cumulative IPC: 0.685624 (Simulation time: 6 hr 32 min 23 sec) 
Heartbeat CPU 3 instructions: 1420000003 cycles: 2009174333 heartbeat IPC: 0.681326 cumulative IPC: 0.685592 (Simulation time: 6 hr 35 min 17 sec) 
Heartbeat CPU 2 instructions: 700000003 cycles: 2018168410 heartbeat IPC: 0.306785 cumulative IPC: 0.320328 (Simulation time: 6 hr 37 min 0 sec) 
Heartbeat CPU 3 instructions: 1430000000 cycles: 2023751510 heartbeat IPC: 0.686004 cumulative IPC: 0.685595 (Simulation time: 6 hr 38 min 1 sec) 
Heartbeat CPU 1 instructions: 970000001 cycles: 2030543410 heartbeat IPC: 0.224687 cumulative IPC: 0.454225 (Simulation time: 6 hr 39 min 15 sec) 
Heartbeat CPU 3 instructions: 1440000001 cycles: 2038387290 heartbeat IPC: 0.683257 cumulative IPC: 0.685578 (Simulation time: 6 hr 40 min 45 sec) 
Heartbeat CPU 2 instructions: 710000001 cycles: 2050539770 heartbeat IPC: 0.308915 cumulative IPC: 0.320146 (Simulation time: 6 hr 43 min 14 sec) 
Heartbeat CPU 3 instructions: 1450000002 cycles: 2052826992 heartbeat IPC: 0.692535 cumulative IPC: 0.685628 (Simulation time: 6 hr 43 min 42 sec) 
Heartbeat CPU 3 instructions: 1460000001 cycles: 2067453277 heartbeat IPC: 0.683701 cumulative IPC: 0.685614 (Simulation time: 6 hr 46 min 35 sec) 
Heartbeat CPU 1 instructions: 980000003 cycles: 2075965149 heartbeat IPC: 0.220159 cumulative IPC: 0.449064 (Simulation time: 6 hr 48 min 24 sec) 
Heartbeat CPU 3 instructions: 1470000001 cycles: 2082162885 heartbeat IPC: 0.679828 cumulative IPC: 0.685573 (Simulation time: 6 hr 49 min 42 sec) 
Heartbeat CPU 2 instructions: 720000003 cycles: 2082876359 heartbeat IPC: 0.309247 cumulative IPC: 0.319976 (Simulation time: 6 hr 49 min 50 sec) 
Heartbeat CPU 3 instructions: 1480000001 cycles: 2096743770 heartbeat IPC: 0.685829 cumulative IPC: 0.685575 (Simulation time: 6 hr 52 min 40 sec) 
Heartbeat CPU 3 instructions: 1490000003 cycles: 2111294997 heartbeat IPC: 0.687227 cumulative IPC: 0.685586 (Simulation time: 6 hr 55 min 41 sec) 
Heartbeat CPU 2 instructions: 730000001 cycles: 2115350438 heartbeat IPC: 0.307938 cumulative IPC: 0.31979 (Simulation time: 6 hr 56 min 28 sec) 
Heartbeat CPU 1 instructions: 990000000 cycles: 2122020088 heartbeat IPC: 0.217132 cumulative IPC: 0.443993 (Simulation time: 6 hr 57 min 41 sec) 
*** Reached end of trace for Core: 3 Repeating trace: ./traces/ligra/ligra_BellmanFord.com-lj.ungraph.gcc_6.3.0_O3.drop_14000M.length_250M.champsimtrace.xz
Heartbeat CPU 3 instructions: 1500000002 cycles: 2125835810 heartbeat IPC: 0.687719 cumulative IPC: 0.685601 (Simulation time: 6 hr 58 min 30 sec) 
Heartbeat CPU 3 instructions: 1510000003 cycles: 2140418911 heartbeat IPC: 0.685725 cumulative IPC: 0.685602 (Simulation time: 7 hr 1 min 19 sec) 
Heartbeat CPU 0 instructions: 230000002 cycles: 2154076629 heartbeat IPC: 0.0571451 cumulative IPC: 0.0841787 (Simulation time: 7 hr 4 min 14 sec) 
Heartbeat CPU 3 instructions: 1520000001 cycles: 2154803373 heartbeat IPC: 0.695194 cumulative IPC: 0.685666 (Simulation time: 7 hr 4 min 24 sec) 
Heartbeat CPU 2 instructions: 740000000 cycles: 2156289675 heartbeat IPC: 0.244264 cumulative IPC: 0.318345 (Simulation time: 7 hr 4 min 42 sec) 
Heartbeat CPU 1 instructions: 1000000003 cycles: 2157182962 heartbeat IPC: 0.284391 cumulative IPC: 0.441372 (Simulation time: 7 hr 4 min 53 sec) 
Heartbeat CPU 3 instructions: 1530000001 cycles: 2169383061 heartbeat IPC: 0.685886 cumulative IPC: 0.685668 (Simulation time: 7 hr 7 min 28 sec) 
Heartbeat CPU 3 instructions: 1540000000 cycles: 2183974456 heartbeat IPC: 0.685335 cumulative IPC: 0.685665 (Simulation time: 7 hr 10 min 27 sec) 
Heartbeat CPU 1 instructions: 1010000002 cycles: 2185435847 heartbeat IPC: 0.353946 cumulative IPC: 0.440233 (Simulation time: 7 hr 10 min 45 sec) 
Heartbeat CPU 3 instructions: 1550000001 cycles: 2198546825 heartbeat IPC: 0.68623 cumulative IPC: 0.685669 (Simulation time: 7 hr 13 min 25 sec) 
Heartbeat CPU 1 instructions: 1020000002 cycles: 2212825825 heartbeat IPC: 0.365097 cumulative IPC: 0.439297 (Simulation time: 7 hr 16 min 17 sec) 
Heartbeat CPU 3 instructions: 1560000000 cycles: 2213166593 heartbeat IPC: 0.684005 cumulative IPC: 0.685658 (Simulation time: 7 hr 16 min 21 sec) 
*** Reached end of trace for Core: 2 Repeating trace: ./traces/ligra/ligra_BFSCC.com-lj.ungraph.gcc_6.3.0_O3.drop_18750M.length_250M.champsimtrace.xz
Heartbeat CPU 2 instructions: 750000000 cycles: 2226366076 heartbeat IPC: 0.142701 cumulative IPC: 0.312777 (Simulation time: 7 hr 18 min 44 sec) 
Heartbeat CPU 3 instructions: 1570000000 cycles: 2227766018 heartbeat IPC: 0.684958 cumulative IPC: 0.685654 (Simulation time: 7 hr 18 min 58 sec) 
Heartbeat CPU 3 instructions: 1580000001 cycles: 2242415139 heartbeat IPC: 0.682635 cumulative IPC: 0.685634 (Simulation time: 7 hr 21 min 24 sec) 
Heartbeat CPU 1 instructions: 1030000003 cycles: 2243712308 heartbeat IPC: 0.323766 cumulative IPC: 0.437695 (Simulation time: 7 hr 21 min 38 sec) 
Heartbeat CPU 3 instructions: 1590000002 cycles: 2257011969 heartbeat IPC: 0.68508 cumulative IPC: 0.68563 (Simulation time: 7 hr 23 min 57 sec) 
Heartbeat CPU 2 instructions: 760000001 cycles: 2258711925 heartbeat IPC: 0.309159 cumulative IPC: 0.312725 (Simulation time: 7 hr 24 min 14 sec) 
Heartbeat CPU 0 instructions: 240000002 cycles: 2259754634 heartbeat IPC: 0.0946271 cumulative IPC: 0.0846708 (Simulation time: 7 hr 24 min 24 sec) 
Heartbeat CPU 3 instructions: 1600000001 cycles: 2271732140 heartbeat IPC: 0.67934 cumulative IPC: 0.685589 (Simulation time: 7 hr 26 min 31 sec) 
Heartbeat CPU 1 instructions: 1040000000 cycles: 2275445506 heartbeat IPC: 0.315127 cumulative IPC: 0.435974 (Simulation time: 7 hr 27 min 11 sec) 
Heartbeat CPU 3 instructions: 1610000002 cycles: 2286443898 heartbeat IPC: 0.679729 cumulative IPC: 0.685551 (Simulation time: 7 hr 29 min 9 sec) 
Heartbeat CPU 2 instructions: 770000000 cycles: 2289677104 heartbeat IPC: 0.322943 cumulative IPC: 0.312864 (Simulation time: 7 hr 29 min 46 sec) 
Heartbeat CPU 3 instructions: 1620000000 cycles: 2301142655 heartbeat IPC: 0.68033 cumulative IPC: 0.685517 (Simulation time: 7 hr 31 min 48 sec) 
Heartbeat CPU 1 instructions: 1050000001 cycles: 2307773504 heartbeat IPC: 0.309329 cumulative IPC: 0.434188 (Simulation time: 7 hr 32 min 58 sec) 
Heartbeat CPU 3 instructions: 1630000002 cycles: 2315838833 heartbeat IPC: 0.680449 cumulative IPC: 0.685485 (Simulation time: 7 hr 34 min 15 sec) 
Heartbeat CPU 2 instructions: 780000003 cycles: 2321021282 heartbeat IPC: 0.319039 cumulative IPC: 0.312948 (Simulation time: 7 hr 35 min 5 sec) 
Heartbeat CPU 3 instructions: 1640000003 cycles: 2330453504 heartbeat IPC: 0.684244 cumulative IPC: 0.685477 (Simulation time: 7 hr 36 min 38 sec) 
Heartbeat CPU 1 instructions: 1060000003 cycles: 2340178700 heartbeat IPC: 0.308593 cumulative IPC: 0.432437 (Simulation time: 7 hr 38 min 11 sec) 
Heartbeat CPU 3 instructions: 1650000000 cycles: 2344925826 heartbeat IPC: 0.690974 cumulative IPC: 0.685511 (Simulation time: 7 hr 38 min 55 sec) 
Heartbeat CPU 2 instructions: 790000000 cycles: 2352323210 heartbeat IPC: 0.319469 cumulative IPC: 0.313035 (Simulation time: 7 hr 40 min 6 sec) 
Heartbeat CPU 3 instructions: 1660000002 cycles: 2359505739 heartbeat IPC: 0.685875 cumulative IPC: 0.685514 (Simulation time: 7 hr 41 min 14 sec) 
Heartbeat CPU 1 instructions: 1070000002 cycles: 2372152673 heartbeat IPC: 0.312754 cumulative IPC: 0.430813 (Simulation time: 7 hr 43 min 21 sec) 
Heartbeat CPU 3 instructions: 1670000000 cycles: 2374107702 heartbeat IPC: 0.684839 cumulative IPC: 0.685509 (Simulation time: 7 hr 43 min 42 sec) 
Heartbeat CPU 0 instructions: 250000000 cycles: 2381036058 heartbeat IPC: 0.0824528 cumulative IPC: 0.0845571 (Simulation time: 7 hr 44 min 53 sec) 
Finished CPU 0 instructions: 200000001 cycles: 2365266367 cumulative IPC: 0.0845571 (Simulation time: 7 hr 44 min 53 sec) 

ChampSim completed all CPUs

Total Simulation Statistics (not including warmup)

CPU 0 cumulative IPC: 0.0845571 instructions: 200000001 cycles: 2365266367
ITLB TOTAL     ACCESS:   34184528  HIT:   34112617  MISS:      71911  HIT %:    99.7896  MISS %:   0.210361   MPKI: 0.359555
ITLB LOAD      ACCESS:          0  HIT:          0  MISS:          0  HIT %:       -nan  MISS %:       -nan   MPKI: 0
ITLB RFO       ACCESS:          0  HIT:          0  MISS:          0  HIT %:       -nan  MISS %:       -nan   MPKI: 0
ITLB PREFETCH  ACCESS:          0  HIT:          0  MISS:          0  HIT %:       -nan  MISS %:       -nan   MPKI: 0
ITLB WRITEBACK ACCESS:          0  HIT:          0  MISS:          0  HIT %:       -nan  MISS %:       -nan   MPKI: 0
DTLB TOTAL     ACCESS:   56029465  HIT:   52177162  MISS:    3852303  HIT %:    93.1245  MISS %:    6.87549   MPKI: 19.2615
DTLB LOAD      ACCESS:          0  HIT:          0  MISS:          0  HIT %:       -nan  MISS %:       -nan   MPKI: 0
DTLB RFO       ACCESS:          0  HIT:          0  MISS:          0  HIT %:       -nan  MISS %:       -nan   MPKI: 0
DTLB PREFETCH  ACCESS:          0  HIT:          0  MISS:          0  HIT %:       -nan  MISS %:       -nan   MPKI: 0
DTLB WRITEBACK ACCESS:          0  HIT:          0  MISS:          0  HIT %:       -nan  MISS %:       -nan   MPKI: 0
STLB TOTAL     ACCESS:    7001509  HIT:    6050866  MISS:     950643  HIT %:    86.4223  MISS %:    13.5777   MPKI: 4.75321
STLB LOAD      ACCESS:          0  HIT:          0  MISS:          0  HIT %:       -nan  MISS %:       -nan   MPKI: 0
STLB RFO       ACCESS:          0  HIT:          0  MISS:          0  HIT %:       -nan  MISS %:       -nan   MPKI: 0
STLB PREFETCH  ACCESS:          0  HIT:          0  MISS:          0  HIT %:       -nan  MISS %:       -nan   MPKI: 0
STLB WRITEBACK ACCESS:          0  HIT:          0  MISS:          0  HIT %:       -nan  MISS %:       -nan   MPKI: 0
L1D TOTAL     ACCESS:   68757728  HIT:   63055979  MISS:    5701749  HIT %:    91.7075  MISS %:    8.29252   MPKI: 28.5087
L1D LOAD      ACCESS:   36290039  HIT:   32236798  MISS:    4053241  HIT %:     88.831  MISS %:     11.169   MPKI: 20.2662
L1D RFO       ACCESS:   31428774  HIT:   30794383  MISS:     634391  HIT %:    97.9815  MISS %:     2.0185   MPKI: 3.17195
L1D PREFETCH  ACCESS:    1038915  HIT:      24798  MISS:    1014117  HIT %:    2.38691  MISS %:    97.6131   MPKI: 5.07058
L1D WRITEBACK ACCESS:          0  HIT:          0  MISS:          0  HIT %:       -nan  MISS %:       -nan   MPKI: 0
L1I TOTAL     ACCESS:   38573668  HIT:   38568673  MISS:       4995  HIT %:    99.9871  MISS %:  0.0129492   MPKI: 0.024975
L1I LOAD      ACCESS:   38573668  HIT:   38568673  MISS:       4995  HIT %:    99.9871  MISS %:  0.0129492   MPKI: 0.024975
L1I RFO       ACCESS:          0  HIT:          0  MISS:          0  HIT %:       -nan  MISS %:       -nan   MPKI: 0
L1I PREFETCH  ACCESS:          0  HIT:          0  MISS:          0  HIT %:       -nan  MISS %:       -nan   MPKI: 0
L1I WRITEBACK ACCESS:          0  HIT:          0  MISS:          0  HIT %:       -nan  MISS %:       -nan   MPKI: 0
L2C TOTAL     ACCESS:   11300493  HIT:    3693560  MISS:    7606933  HIT %:    32.6849  MISS %:    67.3151   MPKI: 38.0347
L2C LOAD      ACCESS:    3971092  HIT:     951267  MISS:    3019825  HIT %:    23.9548  MISS %:    76.0452   MPKI: 15.0991
L2C RFO       ACCESS:     614212  HIT:     118714  MISS:     495498  HIT %:    19.3279  MISS %:    80.6721   MPKI: 2.47749
L2C PREFETCH  ACCESS:    3578822  HIT:     246064  MISS:    3332758  HIT %:    6.87556  MISS %:    93.1244   MPKI: 16.6638
L2C WRITEBACK ACCESS:    2134497  HIT:    1839611  MISS:     294886  HIT %:    86.1848  MISS %:    13.8152   MPKI: 1.47443
PSCL5 TOTAL     ACCESS:     950643  HIT:     950643  MISS:          0  HIT %:        100  MISS %:          0   MPKI: 0
PSCL5 LOAD      ACCESS:          0  HIT:          0  MISS:          0  HIT %:       -nan  MISS %:       -nan   MPKI: 0
PSCL5 RFO       ACCESS:          0  HIT:          0  MISS:          0  HIT %:       -nan  MISS %:       -nan   MPKI: 0
PSCL5 PREFETCH  ACCESS:          0  HIT:          0  MISS:          0  HIT %:       -nan  MISS %:       -nan   MPKI: 0
PSCL5 WRITEBACK ACCESS:          0  HIT:          0  MISS:          0  HIT %:       -nan  MISS %:       -nan   MPKI: 0
PSCL4 TOTAL     ACCESS:     950643  HIT:     950643  MISS:          0  HIT %:        100  MISS %:          0   MPKI: 0
PSCL4 LOAD      ACCESS:          0  HIT:          0  MISS:          0  HIT %:       -nan  MISS %:       -nan   MPKI: 0
PSCL4 RFO       ACCESS:          0  HIT:          0  MISS:          0  HIT %:       -nan  MISS %:       -nan   MPKI: 0
PSCL4 PREFETCH  ACCESS:          0  HIT:          0  MISS:          0  HIT %:       -nan  MISS %:       -nan   MPKI: 0
PSCL4 WRITEBACK ACCESS:          0  HIT:          0  MISS:          0  HIT %:       -nan  MISS %:       -nan   MPKI: 0
PSCL3 TOTAL     ACCESS:     950643  HIT:     950643  MISS:          0  HIT %:        100  MISS %:          0   MPKI: 0
PSCL3 LOAD      ACCESS:          0  HIT:          0  MISS:          0  HIT %:       -nan  MISS %:       -nan   MPKI: 0
PSCL3 RFO       ACCESS:          0  HIT:          0  MISS:          0  HIT %:       -nan  MISS %:       -nan   MPKI: 0
PSCL3 PREFETCH  ACCESS:          0  HIT:          0  MISS:          0  HIT %:       -nan  MISS %:       -nan   MPKI: 0
PSCL3 WRITEBACK ACCESS:          0  HIT:          0  MISS:          0  HIT %:       -nan  MISS %:       -nan   MPKI: 0
PSCL2 TOTAL     ACCESS:     950643  HIT:     899413  MISS:      51230  HIT %:     94.611  MISS %:    5.38898   MPKI: 0.25615
PSCL2 LOAD      ACCESS:          0  HIT:          0  MISS:          0  HIT %:       -nan  MISS %:       -nan   MPKI: 0
PSCL2 RFO       ACCESS:          0  HIT:          0  MISS:          0  HIT %:       -nan  MISS %:       -nan   MPKI: 0
PSCL2 PREFETCH  ACCESS:          0  HIT:          0  MISS:          0  HIT %:       -nan  MISS %:       -nan   MPKI: 0
PSCL2 WRITEBACK ACCESS:          0  HIT:          0  MISS:          0  HIT %:       -nan  MISS %:       -nan   MPKI: 0
=== CPU 0 L1D Prefetcher Statistics ===
[MLOP] History of tracked zone:
IIIIIIIIIIIIIIIIIIIIIIIIIIIIIIIIIIIIIIIIIIIIIIIIIIIIIIIIIIIIIIII
IIIIIIIIIIIIIIIIIIIIIIIIIIIIIIIIIIIIIIIIIIIIIIIIIIIIIIAIIIIIIIII
IIIIIIIIIIIIIIIIIIIIIIIIIIIIIIIIIIIIIIIIIIIIIIIIIIIIIIAII2IIIIII
IIIIIIIIIIIIIIIIIIIIIIIIIIIIIIIIIIIIIIAIIIIIIIIIIIIIIIIIIIIIIIII
IIIIIA2IIIIIIIIIIIIIIIIIIIIIIIIIIIIIIIIIIIIIIIIIIIIIIIIIIIIIIIII
IIIIIIIIIIIIIIIIIIIIIIIIIIIIIIIIIIIIIIA1IIIIIIIIIIIIIIIIIIIIIIII
IIIIIIIIIIIIIIIIIIIIIIIIIIIIIIIIIA1IIIIIIIIIIIIIIIIIIIIIIIIIIIII
IIIIIIIIIIIIIIIIIIIIIIIIIIIIIIIIIA1I2IIIIIIIIIIIIIIIIIIIIIIIIIII
IIIIIIIIIIIIIIIIIIIIIIIIIIIIIIIIIAI2IIIIIIIIIIIIIIIIIIIIIIIIIIII
IIIIIIIIIIIIIIIIIIIIIIIIIIIIIIIIIAIIIIIIIIIIIIIIIIIIIIIIIIIIIIII
IIIIIIIIIIIIIIIIIIIIIIIIIIIIIIIIIA1IIIIIIIIIIIIIIIIIIIIIIIIIIIII
IIIIIIIIIIIIIIIIIIIIIIIIIIIIIIIIIA1I2IIIIIIIIIIIIIIIIIIIIIIIIIII
IIIIIIIIIIIIIIIIIIIIIIIIIIIIIIIIIAI2IIIIIIIIIIIIIIIIIIIIIIIIIIII
IIIIIIIIIIIIIIIIIIIIIIIIIIIIIIIIIA1IIIIIIIIIIIIIIIIIIIIIIIIIIIII
IIIIIIIIIIIIIIIIIIIIIIIIIIIIIIIIIAI2IIIIIIIIIIIIIIIIIIIIIIIIIIII
IIIIIIIIIIIIIIIIIIIIIIIIIIIIIIIIIIA2IIIIIIIIIIIIIIIIIIIIIIIIIIII
IIIIIIIIIIIIIIIIIIIIIIIIIIIIIIIIIAI12IIIIIIIIIIIIIIIIIIIIIIIIIII
IIIIIIIIIIIIIIIIIIIIIIIIIIIIIIIIIA112IIIIIIIIIIIIIIIIIIIIIIIIIII
IIIIIIIIIIIIIIIIIIIIIIIIIIIIIIIIIA2IIIIIIIIIIIIIIIIIIIIIIIIIIIII
IIIIIIIIIIIIIIIIIIIIIIIIIIIIIIIIIIIIIIIIIIIIIIIIIA2IIIIIIIIIIIII
IIIIIIIIIIIIIIIIIIIIIIIIIIIIIIIIIIIIIIIIIIIIIIIIIAA2IIIIIIIIIIII
IIIIIA2IIIIIIIIIIIIIIIIIIIIIIIIIIIIIIIIIIIIIIIIIIIIIIIIIIIIIIIII
IIIIIA1IIIIIIIIIIIIIIIIIIIIIIIIIIIIIIIIIIIIIIIIIIIIIIIIIIIIIIIII
IIIIIIIIIIIIIIIIIIIIIIIIIIIIIIIIIIAI12IIIIIIIIIIIIIIIIIIIIIIIIII
IIIIIIIIIIIIIIIIIIIIIIIIIIIIIIIIIIAA112IIIIIIIIIIIIIIIIIIIIIIIII
IIIIIAII2IIIIIIIIIIIIIIIIIIIIIIIIIIIIIIIIIIIIIIIIIIIIIIIIIIIIIII
IIIIIA1I2IIIIIIIIIIIIIIIIIIIIIIIIIIIIIIIIIIIIIIIIIIIIIIIIIIIIIII
IIIIIIIIIIIIIIIIIIIIIIIIIIIIIIIIIA1II2IIIIIIIIIIIIIIIIIIIIIIIIII
IIIIIA2IIIIIIIIIIIIIIIIIIIIIIIIIIIIIIIIIIIIIIIIIIIIIIIIIIIIIIIII
IIIIIA1I2IIIIIIIIIIIIIIIIIIIIIIIIIIIIIIIIIIIIIIIIIIIIIIIIIIIIIII
IIIIIA1I22IIIIIIIIIIIIIIIIIIIIIIIIIIIIIIIIIIIIIIIIIIIIIIIIIIIIII
IIIIIA1IIIIIIIIIIIIIIIIIIIIIIIIIIIIIIIIIIIIIIIIIIIIIIIIIIIIIIIII
IIIIIA2IIIIIIIIIIIIIIIIIIIIIIIIIIIIIIIIIIIIIIIIIIIIIIIIIIIIIIIII
IIIIIAI2IIIIIIIIIIIIIIIIIIIIIIIIIIIIIIIIIIIIIIIIIIIIIIIIIIIIIIII
IIIIIA1IIIIIIIIIIIIIIIIIIIIIIIIIIIIIIIIIIIIIIIIIIIIIIIIIIIIIIIII
IIIIIIIIIIIIIIIIIIIIIIIIIIIIIIIIIAI12IIIIIIIIIIIIIIIIIIIIIIIIIII
IIIIIIIIIIIIIIIIIIIIIIIIIIIIIIIIIIA1IIIIIIIIIIIIIIIIIIIIIIIIIIII
IIIIIIIIIIIIIIIIIIIIIIIIIIIIIIIIIAA1IIIIIIIIIIIIIIIIIIIIIIIIIIII
IIIIIIIIIIIIIIIIIIIIIIIIIIIIIIIIIIA1IIIIIIIIIIIIIIIIIIIIIIIIIIII
IIIIIIIIIIIIIIIIIIIIIIIIIIIIIIIIIIA1I2IIIIIIIIIIIIIIIIIIIIIIIIII
IIIIIIIIIIIIIIIIIIIIIIIIIIIIIIIIIAA122IIIIIIIIIIIIIIIIIIIIIIIIII
IIIIIIIIIIIIIIIIIIIIIIIIIIIIIIIIIAI12IIIIIIIIIIIIIIIIIIIIIIIIIII
IIIIIIIIIIIIIIIIIIIIIIIIIIIIIIIIIAA112IIIIIIIIIIIIIIIIIIIIIIIIII
IIIIIIIIIIIIIIIIIIIIIIIIIIIIIIIIIIA2IIIIIIIIIIIIIIIIIIIIIIIIIIII
IIIIIIIIIIIIIIIIIIIIIIIIIIIIIIIIIAA2IIIIIIIIIIIIIIIIIIIIIIIIIIII
IIIIIIIIIIIIIIIIIIIIIIIIIIIIIIIIIIA2IIIIIIIIIIIIIIIIIIIIIIIIIIII
IIIIIIIIIIIIIIIIIIIIIIIIIIIIIIIIIIA1IIIIIIIIIIIIIIIIIIIIIIIIIIII
IIIIIIIIIIIIIIIIIIIIIIIIIIIIIIIIIAIIIIIIIIIIIIIIIIIIIIIIIIIIIIII
IIIIIIIIIIIIIIIIIIIIIIIIIIIIIIIIIIA2IIIIIIIIIIIIIIIIIIIIIIIIIIII
IIIIIIIIIIIIIIIIIIIIIIIIIIIIIIIIIA1IIIIIIIIIIIIIIIIIIIIIIIIIIIII
IIIIIA2I2IIIIIIIIIIIIIIIIIIIIIIIIIIIIIIIIIIIIIIIIIIIIIIIIIIIIIII
IIIIIAIIIIIIIIIIIIIIIIIIIIIIIIIIIIIIIIIIIIIIIIIIIIIIIIIIIIIIIIII
IIIIIIIIIIIIIIIIIIIIIIIIIIIIIIIIIA2IIIIIIIIIIIIIIIIIIIIIIIIIIIII
A2IIIIIIIIIIIIIIIIIIIIIIIIIIIIIIIIIIIIIIIIIIIIIIIIIIIIIIIIIIIIII
A2A2IIIIIIIIIIIIIIIIIIIIIIIIIIIIIIIIIIIIIIIIIIIIIIIIIIIIIIIIIIII
AAA2IIIIIIIIIIIIIIIIIIIIIIIIIIIIIIIIIIIIIIIIIIIIIIIIIIIIIIIIIIII
IIIIIIIIIIIIIIIIIIIIIIIIIIIIIIIIIA2IIIIIIIIIIIIIIIIIIIIIIIIIIIII
IIIIIIIIIIIIIIIIIIIIIIIIIIIIIIIIIIIIIIIIIIIIIIIIIA2IIIIIIIIIIIII
IIIIIIIIIIIIIIIIIIIIIIIIIIIIIIIIIIIIIIIIIIIIIIIIIAA2IIIIIIIIIIII
IIIIIIIIIIIIIIIIIIIIIIIIIIIIIIIIIA2IIIIIIIIIIIIIIIIIIIIIIIIIIIII
IIIIIIIIIIIIIIIIIIIIIIIIIIIIIIIIIA21IIIIIIIIIIIIIIIIIIIIIIIIIIII
IIIIIIIIIIIIIIIIIIIIIIIIIIIIIIIIIAIIIIIIIIIIIIIIIIIIIIIIIIIIIIII
IIIIIIIIIIIIIIIIIIIIIIIIIIIIIIIIIA2IIIIIIIIIIIIIIIIIIIIIIIIIIIII
IIIIIIIIIIIIIIIIIIIIIIIIIIIIIIIIIAAI2IIIIIIIIIIIIIIIIIIIIIIIIIII
IIIIIIIIIIIIIIIIIIIIIIIIIIIIIIIIIAAA22IIIIIIIIIIIIIIIIIIIIIIIIII
IIIIIIIIIIIIIIIIIIIIIIIIIIIIIIIIIA1IIIIIIIIIIIIIIIIIIIIIIIIIIIII
IIIIIIIIIIIIIIIIIIIIIIIIIIIIIIIIIIIIIIIIIIIIIIIIIA2IIIIIIIIIIIII
IIIIIIIIIIIIIIIIIIIIIIIIIIIIIIIIIIIIIIIIIIIIIIIIIAA2IIIIIIIIIIII
IIIIIIIIIIIIIIIIIIIIIIIIIIIIIIIAI2IIIIIIIIIIIIIIIIIIIIIIIIIIIIII
IIIIIIIIIIIIIIIIIIIIIIIIIIIIIIIA1IIIIIIIIIIIIIIIIIIIIIIIIIIIIIII
IIIIIIIIIIIIIIIIIIIIIIIIIIIIIIIIIIA1I2IIIIIIIIIIIIIIIIIIIIIIIIII
IIIIIA2IIIIIIIIIIIIIIIIIIIIIIIIIIIIIIIIIIIIIIIIIIIIIIIIIIIIIIIII
IIIIIIIIIIIIIIIIIIIIIIIIIIIIIIIIIIAIII2IIIIIIIIIIIIIIIIIIIIIIIII
IIIIIIIIIIIIIIIIIIIIIIIIIIIIIIIIIIA2IIIIIIIIIIIIIIIIIIIIIIIIIIII
A2IIIIIIIIIIIIIIIIIIIIIIIIIIIIIIIIIIIIIIIIIIIIIIIIIIIIIIIIIIIIII
A2A2IIIIIIIIIIIIIIIIIIIIIIIIIIIIIIIIIIIIIIIIIIIIIIIIIIIIIIIIIIII
AAA2IIIIIIIIIIIIIIIIIIIIIIIIIIIIIIIIIIIIIIIIIIIIIIIIIIIIIIIIIIII
IIIIIAIII2IIIIIIIIIIIIIIIIIIIIIIIIIIIIIIIIIIIIIIIIIIIIIIIIIIIIII
IIIIIIIIIIIIIIIIIIIIIIIIIIIIIIIIIIAI1IIIIIIIIIIIIIIIIIIIIIIIIIII
IIIIIIIIIIIIIIIIIIIIIIIIIIIIIIIIIA2IIIIIIIIIIIIIIIIIIIIIIIIIIIII
IIIIIIIIIIIIIIIIIIIIIIIIIIIIIIIIIAA2IIIIIIIIIIIIIIIIIIIIIIIIIIII
IIIIIIIIIIIIIIIIIIIIIIIIIIIIIIIIIA2IIIIIIIIIIIIIIIIIIIIIIIIIIIII
IIIIIIIIIIIIIIIIIIIIIIIIIIIIIIIIIIAI2IIIIIIIIIIIIIIIIIIIIIIIIIII
IIIIIIIIIIIIIIIIIIIIIIIIIIIIIIIIIAI2IIIIIIIIIIIIIIIIIIIIIIIIIIII
IIIIIIIIIIIIIIIIIIIIIIIIIIIIIIIIIA11IIIIIIIIIIIIIIIIIIIIIIIIIIII
IIIIIIIIIIIIIIIIIIIIIIIIIIIIIIIIIIAIIIIIIIIIIIIIIIIIIIIIIIIIIIII
IIIIIIIIIIIIIIIIIIIIIIIIIIIIIIIIIIIIIIIIIIIIIIIIIA2IIIIIIIIIIIII
IIIIIIIIIIIIIIIIIIIIIIIIIIIIIIIIIIIIIIIIIIIIIIIIIAA2IIIIIIIIIIII
IIIIIIIIIIIIIIIIIIIIIIIIIIIIIIIAII2IIIIIIIIIIIIIIIIIIIIIIIIIIIII
IIIIIIIIIIIIIIIIIIIIIIIIIIIIIIIA2IIIIIIIIIIIIIIIIIIIIIIIIIIIIIII
IIIIIIIIIIIIIIIIIIIIIIIIIIIIIIIIIIA2IIIIIIIIIIIIIIIIIIIIIIIIIIII
IIIIIIIIIIIIIIIIIIIIIIIIIIIIIIIIIA2IIIIIIIIIIIIIIIIIIIIIIIIIIIII
IIIIIIIIIIIIIIIIIIIIIIIIIIIIIIIA1IIIIIIIIIIIIIIIIIIIIIIIIIIIIIII
IIIIIIIIIIIIIIIIIIIIIIIIIIIIIIIIIAI1IIIIIIIIIIIIIIIIIIIIIIIIIIII
IIIIIIIIIIIIIIIIIIIIIIIIIIIIIIIIIAI2IIIIIIIIIIIIIIIIIIIIIIIIIIII
IIIIIIIIIIIIIIIIIIIIIIIIIIIIIIIIIIIIIIIIIIIIIIIIIA2IIIIIIIIIIIII
IIIIIIIIIIIIIIIIIIIIIIIIIIIIIIIIIIIIIIIIIIIIIIIIIAA2IIIIIIIIIIII
IIIIIIIIIIIIIIIIIIIIIIIIIIIIIIIAI12IIIIIIIIIIIIIIIIIIIIIIIIIIIII
IIIIIIIIIIIIIIIIIIIIIIIIIIIIIIIAI2IIIIIIIIIIIIIIIIIIIIIIIIIIIIII
IIIIIIIIIIIIIIIIIIIIIIIIIIIIIIIA1IIIIIIIIIIIIIIIIIIIIIIIIIIIIIII
A2IIIIIIIIIIIIIIIIIIIIIIIIIIIIIIIIIIIIIIIIIIIIIIIIIIIIIIIIIIIIII
A2A2IIIIIIIIIIIIIIIIIIIIIIIIIIIIIIIIIIIIIIIIIIIIIIIIIIIIIIIIIIII
AAA2IIIIIIIIIIIIIIIIIIIIIIIIIIIIIIIIIIIIIIIIIIIIIIIIIIIIIIIIIIII
IIIIIIIIIIIIIIIIIIIIIIIIIIIIIIIIIIAIIIIIIIIIIIIIIIIIIIIIIIIIIIII
IIIIIIIIIIIIIIIIIIIIIIIIIIIIIIIIIA2IIIIIIIIIIIIIIIIIIIIIIIIIIIII
IIIIIIIIIIIIIIIIIIIIIIA2IIIIIIIIIIIIIIIIIIIIIIIIIIIIIIIIIIIIIIII
IIIIIIIIIIIIIIIIIIIIIIAI2IIIIIIIIIIIIIIIIIIIIIIIIIIIIIIIIIIIIIII
IIIIIIIIIIIIIIIIIIIIIIA2IIIIIIIIIIIIIIIIIIIIIIIIIIIIIIIIIIIIIIII
IIIIIIIIIIIIIIIIIIIIIIIIIIIIIIIIIIIIIIIIIIIIIIIIIA2IIIIIIIIIIIII
IIIIIIIIIIIIIIIIIIIIIIIIIIIIIIIIIIIIIIIIIIIIIIIIIAA2IIIIIIIIIIII
IIIIIIIIIIIIIIIIIIIIIIIIIIIIIIIAII2IIIIIIIIIIIIIIIIIIIIIIIIIIIII
IIIIIIIIIIIIIIIIIIIIIIIIIIIIIIIAI2IIIIIIIIIIIIIIIIIIIIIIIIIIIIII
IIIIIA2IIIIIIIIIIIIIIIIIIIIIIIIIIIIIIIIIIIIIIIIIIIIIIIIIIIIIIIII
IIIIIIIIIIIIIIIIIIIIIIIIIIIIIIIA1IIIIIIIIIIIIIIIIIIIIIIIIIIIIIII
IIIIIIIIIIIIIIIIIIIIIIAII12IIIIIIIIIIIIIIIIIIIIIIIIIIIIIIIIIIIII
IIIIIIIIIIIIIIIIIIIIIIIIIIIIIIIIIA1IIIIIIIIIIIIIIIIIIIIIIIIIIIII
IIIIIA2IIIIIIIIIIIIIIIIIIIIIIIIIIIIIIIIIIIIIIIIIIIIIIIIIIIIIIIII
IIIIIIIIIIIIIIIIIIIIIIIIIIIIIIIIIIAIIIIIIIIIIIIIIIIIIIIIIIIIIIII
IIIIIIIIIIIIIIIIIIIIIIIIIIIIIIIIIA1IIIIIIIIIIIIIIIIIIIIIIIIIIIII
IIIIIIIIIIIIIIIIIIIIIIIIIIIIIIIIIAI12IIIIIIIIIIIIIIIIIIIIIIIIIII
A2IIIIIIIIIIIIIIIIIIIIIIIIIIIIIIIIIIIIIIIIIIIIIIIIIIIIIIIIIIIIII
A2A2IIIIIIIIIIIIIIIIIIIIIIIIIIIIIIIIIIIIIIIIIIIIIIIIIIIIIIIIIIII
AAA2IIIIIIIIIIIIIIIIIIIIIIIIIIIIIIIIIIIIIIIIIIIIIIIIIIIIIIIIIIII
IIIIIA2IIIIIIIIIIIIIIIIIIIIIIIIIIIIIIIIIIIIIIIIIIIIIIIIIIIIIIIII
IIIIIIIIIIIIIIIIIIIIIIIIIIIIIIIIIIIIIIIIIIIIIIII2AIIIIIIIIIIIIII
IIIIIIIIIIIIIIIIIIIIIIIIIIIIIIIIIIIIIIIIIIIIIIII2AAIIIIIIIIIIIII
IIIIIIIIIIIIIIIIIIIIIIIIIIIIIIIA2IIIIIIIIIIIIIIIIIIIIIIIIIIIIIII
IIIIIA2IIIIIIIIIIIIIIIIIIIIIIIIIIIIIIIIIIIIIIIIIIIIIIIIIIIIIIIII
IIIIIIIIIIIIIIIIIIIIIIIIIIIIIIIA2IIIIIIIIIIIIIIIIIIIIIIIIIIIIIII
IIIIIIIIIIIIIIIIIIIIIIA2IIIIIIIIIIIIIIIIIIIIIIIIIIIIIIIIIIIIIIII
IIIIIIIIIIIIIIIIIIIIIIIIIIIIIIIAI2IIIIIIIIIIIIIIIIIIIIIIIIIIIIII
IIIIIA2IIIIIIIIIIIIIIIIIIIIIIIIIIIIIIIIIIIIIIIIIIIIIIIIIIIIIIIII
A2IIIIIIIIIIIIIIIIIIIIIIIIIIIIIIIIIIIIIIIIIIIIIIIIIIIIIIIIIIIIII
A2A2IIIIIIIIIIIIIIIIIIIIIIIIIIIIIIIIIIIIIIIIIIIIIIIIIIIIIIIIIIII
AAA2IIIIIIIIIIIIIIIIIIIIIIIIIIIIIIIIIIIIIIIIIIIIIIIIIIIIIIIIIIII
IIIIIIIIIIIIIIIIIIIIIIIIIIIIIIIIIIA2IIIIIIIIIIIIIIIIIIIIIIIIIIII
IIIIIIIIIIIIIIIIIIIIIIIIIIIIIIIIIAI1IIIIIIIIIIIIIIIIIIIIIIIIIIII
IIIIIIIIIIIIIIIIIIIIIIIIIIIIIIIIIA1IIIIIIIIIIIIIIIIIIIIIIIIIIIII
IIIIIIIIIIIIIIIIIIIIIIAIIIIIIIIIIIIIIIIIIIIIIIIIIIIIIIIIIIIIIIII
IIIIIIIIIIIIIIIIIIA12IIIIIIIIIIIIIIIIIIIIIIIIIIIIIIIIIIIIIIIIIII
IIIIIIIIIIIIIIIII2A12IIIIIIIIIIIIIIIIIIIIIIIIIIIIIIIIIIIIIIIIIII
IIIIIIIIIIIIIIII2AA12IIIIIIIIIIIIIIIIIIIIIIIIIIIIIIIIIIIIIIIIIII
IIIIIIIIIIIIIII2AAA12IIIIIIIIIIIIIIIIIIIIIIIIIIIIIIIIIIIIIIIIIII
IIIIIIIIIIIIIIIIIIIIIIIIIIIIIIIIIAII2IIIIIIIIIIIIIIIIIIIIIIIIIII
IIIIIIIIIIIIIIIIIIIIIIA1IIIIIIIIIIIIIIIIIIIIIIIIIIIIIIIIIIIIIIII
IIIIIIIIIIIIIIIIIIIIIIA2IIIIIIIIIIIIIIIIIIIIIIIIIIIIIIIIIIIIIIII
IIIIIA2IIIIIIIIIIIIIIIIIIIIIIIIIIIIIIIIIIIIIIIIIIIIIIIIIIIIIIIII
IIIIIIIIIIIIIIIIIIIIIIIIIIIIIIIIIAII2IIIIIIIIIIIIIIIIIIIIIIIIIII
IIIIIIIIIIIIIIIIIIIIIIAII2IIIIIIIIIIIIIIIIIIIIIIIIIIIIIIIIIIIIII
IIIIIIIIIIIIIIIIIIIIIIIIIIIIIIIA2IIIIIIIIIIIIIIIIIIIIIIIIIIIIIII
IIIIIIIIIIIIIIIIIIIIIIIIIIIIIIIA1IIIIIIIIIIIIIIIIIIIIIIIIIIIIIII
IIIIIIIIIIIIIIIIIIIIIIIIIIIIIIIAI2IIIIIIIIIIIIIIIIIIIIIIIIIIIIII
IIIIIIIIIIIIIIIIIIIIIIIIIIIIIIIIIA2IIIIIIIIIIIIIIIIIIIIIIIIIIIII
IIIIIIIIIIIIIIIIIIIIIIA1IIIIIIIIIA2IIIIIIIIIIIIIIIIIIIIIIIIIIIII
IIIIIIIIIIIIIIIIIIIIIIA2I2IIIIIIIIIIIIIIIIIIIIIIIIIIIIIIIIIIIIII
IIIIIIIIIIIIIIIIIIIIIIIIIIIIIIIIIA2IIIIIIIIIIIIIIIIIIIIIIIIIIIII
IIIIIIIIIIIIIIIIIIIIIIIIIIIIIIIIIIA2IIIIIIIIIIIIIIIIIIIIIIIIIIII
IIIIIIIIIIIIIIIIIIIIIIIIIIIIIIIIIIAA2IIIIIIIIIIIIIIIIIIIIIIIIIII
IIIIIIIIIIIIIIIIIIIIIIIIIIIIIIIIIAAA2IIIIIIIIIIIIIIIIIIIIIIIIIII
IIIIIIIIIIIIIIIIIIIIIIIIIIIIIIIIIAII2IIIIIIIIIIIIIIIIIIIIIIIIIII
IIIIIIIIIIIIIIIIIIIIIIIIIIIIIIIIIIA2IIIIIIIIIIIIIIIIIIIIIIIIIIII
IIIIIIIIIIIIIIIIIIIIIIIIIIIIIIIIIAA2IIIIIIIIIIIIIIIIIIIIIIIIIIII
IIIIIIIIIIIIIIIIIIIIIIIIIIIIIIII2AA2IIIIIIIIIIIIIIIIIIIIIIIIIIII
IIIIIIIIIIIIIIIIIIIIIIIIIIIIIIIIIAI2IIIIIIIIIIIIIIIIIIIIIIIIIIII
IIIIIIIIIIIIIIIIIIIIIIIIIIIIIIIIIA12IIIIIIIIIIIIIIIIIIIIIIIIIIII
IIIIIIIIIIIIIIIIIIIIIIIIIIIIIIII2AIIIIIIIIIIIIIIIIIIIIIIIIIIIIII
IIIIIIIIIIIIIIIIIIIIIIA2IIIIIIIIIIIIIIIIIIIIIIIIIIIIIIIIIIIIIIII
IIIIIIIIIIIIIIIIIIIIIIIIIIIIIIIIIIIIIIIIIIIIIIIIIA2IIIIIIIIIIIII
IIIIIIIIIIIIIIIIIIIIIIIIIIIIIIIIIIIIIIIIIIIIIIIIIAA2IIIIIIIIIIII
IIIIIIIIIIIIIIIIIIIIIIIIIIIIIIIIIIIIIIIIIIIIIIIIIAAA2IIIIIIIIIII
IIIIIIIIIIIIIIIIIIIIIIIIIIIIIIIA2IIIIIIIIIIIIIIIIIIIIIIIIIIIIIII
IIIIIIIIIIIIIIIIIIIIIIA2IIIIIIIIIIIIIIIIIIIIIIIIIIIIIIIIIIIIIIII
IIII2AIIIIIIIIIIIIIIIIIIIIIIIIIIIIIIIIIIIIIIIIIIIIIIIIIIIIIIIIII
[MLOP] Prefetch Degree Mean: 1.12419
[MLOP] Prefetch Degree SD: 0.40165
[MLOP] Max Score Left Mean (%): 5.18823
[MLOP] Max Score Left SD (%): 2.19261
[MLOP] Max Score Right Mean (%): 39.9308
[MLOP] Max Score Right SD (%): 5.76644
LLC TOTAL     ACCESS:    9242673  HIT:    2423279  MISS:    6819394  HIT %:    26.2184  MISS %:    73.7816   MPKI: 34.097
LLC LOAD      ACCESS:    2840359  HIT:     337965  MISS:    2502394  HIT %:    11.8987  MISS %:    88.1013   MPKI: 12.512
LLC RFO       ACCESS:     468016  HIT:      47471  MISS:     420545  HIT %:     10.143  MISS %:     89.857   MPKI: 2.10272
LLC PREFETCH  ACCESS:    3539702  HIT:     246846  MISS:    3292856  HIT %:    6.97364  MISS %:    93.0264   MPKI: 16.4643
LLC WRITEBACK ACCESS:    1930630  HIT:    1564545  MISS:     366085  HIT %:    81.0381  MISS %:    18.9619   MPKI: 1.83042

RAW hits: 4887600
Loads Generated: 59784168
Loads sent to L1D: 54896568
Stores Generated: 33676559
Stores sent to L1D: 33676568

CPU 1 cumulative IPC: 0.430336 instructions: 1017859918 cycles: 2365266368
ITLB TOTAL     ACCESS:  135082693  HIT:  135082692  MISS:          1  HIT %:        100  MISS %: 7.40287e-07   MPKI: 9.82453e-07
ITLB LOAD      ACCESS:          0  HIT:          0  MISS:          0  HIT %:       -nan  MISS %:       -nan   MPKI: 0
ITLB RFO       ACCESS:          0  HIT:          0  MISS:          0  HIT %:       -nan  MISS %:       -nan   MPKI: 0
ITLB PREFETCH  ACCESS:          0  HIT:          0  MISS:          0  HIT %:       -nan  MISS %:       -nan   MPKI: 0
ITLB WRITEBACK ACCESS:          0  HIT:          0  MISS:          0  HIT %:       -nan  MISS %:       -nan   MPKI: 0
DTLB TOTAL     ACCESS:  144293352  HIT:  143319104  MISS:     974248  HIT %:    99.3248  MISS %:   0.675186   MPKI: 0.957153
DTLB LOAD      ACCESS:          0  HIT:          0  MISS:          0  HIT %:       -nan  MISS %:       -nan   MPKI: 0
DTLB RFO       ACCESS:          0  HIT:          0  MISS:          0  HIT %:       -nan  MISS %:       -nan   MPKI: 0
DTLB PREFETCH  ACCESS:          0  HIT:          0  MISS:          0  HIT %:       -nan  MISS %:       -nan   MPKI: 0
DTLB WRITEBACK ACCESS:          0  HIT:          0  MISS:          0  HIT %:       -nan  MISS %:       -nan   MPKI: 0
STLB TOTAL     ACCESS:    2821674  HIT:    2292370  MISS:     529304  HIT %:    81.2415  MISS %:    18.7585   MPKI: 0.520017
STLB LOAD      ACCESS:          0  HIT:          0  MISS:          0  HIT %:       -nan  MISS %:       -nan   MPKI: 0
STLB RFO       ACCESS:          0  HIT:          0  MISS:          0  HIT %:       -nan  MISS %:       -nan   MPKI: 0
STLB PREFETCH  ACCESS:          0  HIT:          0  MISS:          0  HIT %:       -nan  MISS %:       -nan   MPKI: 0
STLB WRITEBACK ACCESS:          0  HIT:          0  MISS:          0  HIT %:       -nan  MISS %:       -nan   MPKI: 0
L1D TOTAL     ACCESS:  220187617  HIT:  164314311  MISS:   55873306  HIT %:    74.6247  MISS %:    25.3753   MPKI: 54.8929
L1D LOAD      ACCESS:   71753295  HIT:   67247756  MISS:    4505539  HIT %:    93.7208  MISS %:    6.27921   MPKI: 4.42648
L1D RFO       ACCESS:  144470561  HIT:   97063462  MISS:   47407099  HIT %:    67.1856  MISS %:    32.8144   MPKI: 46.5753
L1D PREFETCH  ACCESS:    3963761  HIT:       3093  MISS:    3960668  HIT %:  0.0780319  MISS %:     99.922   MPKI: 3.89117
L1D WRITEBACK ACCESS:          0  HIT:          0  MISS:          0  HIT %:       -nan  MISS %:       -nan   MPKI: 0
[...]
AAAAAAAAAAAAAAAAAAAAAAAAAAAAAAAAAAAAAAAAAAAAAAAAAAAAAAAA111IIIII
AAAAAAAAAAAAAAAAAAAAAAAAAAAAAAAAAAAAAAAAAAAAAAAAAAAAAAAAA111IIII
AAAAAAAAAAAAAAAAAAAAAAAAAAAAAAAAAAAAAAAAAAAAAAAAAAAAAAAAAA111III
AAAAAAAAAAAAAAAAAAAAAAAAAAAAAAAAAAAAAAAAAAAAAAAAAAAAAAAAAAA111II
AAAAAAAAAAAAAAAAAAAAAAAAAAAAAAAAAAAAAAAAAAAAAAAAAAAAAAAAAAAA111I
AAAAAAAAAAAAAAAAAAAAAAAAAAAAAAAAAAAAAAAAAAAAAAAAAAAAAAAAAAAAA111
AAAAAAAAAAAAAAAAAAAAAAAAAAAAAAAAAAAAAAAAAAAAAAAAAAAAAAAAAAAAAA11
AAAAAAAAAAAAAAAAAAAAAAAAAAAAAAAAAAAAAAAAAAAAAAAAAAAAAAAAAAAAAAA1
AAAAAAAAAAAAAAAAAAAAAAAAAAAAAAAAAAAAAAAAAAAAAAAAAAAAAAAAAAAAAAAA
A111IIIIIIIIIIIIIIIIIIIIIIIIIIIIIIIIIIIIIIIIIIIIIIIIIIIIIIIIIIII
AA111IIIIIIIIIIIIIIIIIIIIIIIIIIIIIIIIIIIIIIIIIIIIIIIIIIIIIIIIIII
AAA111IIIIIIIIIIIIIIIIIIIIIIIIIIIIIIIIIIIIIIIIIIIIIIIIIIIIIIIIII
AAAA111IIIIIIIIIIIIIIIIIIIIIIIIIIIIIIIIIIIIIIIIIIIIIIIIIIIIIIIII
AAAAA111IIIIIIIIIIIIIIIIIIIIIIIIIIIIIIIIIIIIIIIIIIIIIIIIIIIIIIII
AAAAAA111IIIIIIIIIIIIIIIIIIIIIIIIIIIIIIIIIIIIIIIIIIIIIIIIIIIIIII
AAAAAAA111IIIIIIIIIIIIIIIIIIIIIIIIIIIIIIIIIIIIIIIIIIIIIIIIIIIIII
AAAAAAAA111IIIIIIIIIIIIIIIIIIIIIIIIIIIIIIIIIIIIIIIIIIIIIIIIIIIII
AAAAAAAAA111IIIIIIIIIIIIIIIIIIIIIIIIIIIIIIIIIIIIIIIIIIIIIIIIIIII
AAAAAAAAAA111IIIIIIIIIIIIIIIIIIIIIIIIIIIIIIIIIIIIIIIIIIIIIIIIIII
AAAAAAAAAAA111IIIIIIIIIIIIIIIIIIIIIIIIIIIIIIIIIIIIIIIIIIIIIIIIII
AAAAAAAAAAAA111IIIIIIIIIIIIIIIIIIIIIIIIIIIIIIIIIIIIIIIIIIIIIIIII
AAAAAAAAAAAAA111IIIIIIIIIIIIIIIIIIIIIIIIIIIIIIIIIIIIIIIIIIIIIIII
AAAAAAAAAAAAAA111IIIIIIIIIIIIIIIIIIIIIIIIIIIIIIIIIIIIIIIIIIIIIII
AAAAAAAAAAAAAAA111IIIIIIIIIIIIIIIIIIIIIIIIIIIIIIIIIIIIIIIIIIIIII
AAAAAAAAAAAAAAAA111IIIIIIIIIIIIIIIIIIIIIIIIIIIIIIIIIIIIIIIIIIIII
AAAAAAAAAAAAAAAAA111IIIIIIIIIIIIIIIIIIIIIIIIIIIIIIIIIIIIIIIIIIII
AAAAAAAAAAAAAAAAAA111IIIIIIIIIIIIIIIIIIIIIIIIIIIIIIIIIIIIIIIIIII
AAAAAAAAAAAAAAAAAAA111IIIIIIIIIIIIIIIIIIIIIIIIIIIIIIIIIIIIIIIIII
AAAAAAAAAAAAAAAAAAAA111IIIIIIIIIIIIIIIIIIIIIIIIIIIIIIIIIIIIIIIII
AAAAAAAAAAAAAAAAAAAAA111IIIIIIIIIIIIIIIIIIIIIIIIIIIIIIIIIIIIIIII
AAAAAAAAAAAAAAAAAAAAAA111IIIIIIIIIIIIIIIIIIIIIIIIIIIIIIIIIIIIIII
AAAAAAAAAAAAAAAAAAAAAAA111IIIIIIIIIIIIIIIIIIIIIIIIIIIIIIIIIIIIII
AAAAAAAAAAAAAAAAAAAAAAAA111IIIIIIIIIIIIIIIIIIIIIIIIIIIIIIIIIIIII
AAAAAAAAAAAAAAAAAAAAAAAAA111IIIIIIIIIIIIIIIIIIIIIIIIIIIIIIIIIIII
AAAAAAAAAAAAAAAAAAAAAAAAAA111IIIIIIIIIIIIIIIIIIIIIIIIIIIIIIIIIII
AAAAAAAAAAAAAAAAAAAAAAAAAAA111IIIIIIIIIIIIIIIIIIIIIIIIIIIIIIIIII
AAAAAAAAAAAAAAAAAAAAAAAAAAAA111IIIIIIIIIIIIIIIIIIIIIIIIIIIIIIIII
AAAAAAAAAAAAAAAAAAAAAAAAAAAAA111IIIIIIIIIIIIIIIIIIIIIIIIIIIIIIII
AAAAAAAAAAAAAAAAAAAAAAAAAAAAAA111IIIIIIIIIIIIIIIIIIIIIIIIIIIIIII
AAAAAAAAAAAAAAAAAAAAAAAAAAAAAAA111IIIIIIIIIIIIIIIIIIIIIIIIIIIIII
AAAAAAAAAAAAAAAAAAAAAAAAAAAAAAAA111IIIIIIIIIIIIIIIIIIIIIIIIIIIII
AAAAAAAAAAAAAAAAAAAAAAAAAAAAAAAAA111IIIIIIIIIIIIIIIIIIIIIIIIIIII
AAAAAAAAAAAAAAAAAAAAAAAAAAAAAAAAAA111IIIIIIIIIIIIIIIIIIIIIIIIIII
AAAAAAAAAAAAAAAAAAAAAAAAAAAAAAAAAAA111IIIIIIIIIIIIIIIIIIIIIIIIII
AAAAAAAAAAAAAAAAAAAAAAAAAAAAAAAAAAAA111IIIIIIIIIIIIIIIIIIIIIIIII
AAAAAAAAAAAAAAAAAAAAAAAAAAAAAAAAAAAAA111IIIIIIIIIIIIIIIIIIIIIIII
AAAAAAAAAAAAAAAAAAAAAAAAAAAAAAAAAAAAAA111IIIIIIIIIIIIIIIIIIIIIII
AAAAAAAAAAAAAAAAAAAAAAAAAAAAAAAAAAAAAAA111IIIIIIIIIIIIIIIIIIIIII
AAAAAAAAAAAAAAAAAAAAAAAAAAAAAAAAAAAAAAAA111IIIIIIIIIIIIIIIIIIIII
AAAAAAAAAAAAAAAAAAAAAAAAAAAAAAAAAAAAAAAAA111IIIIIIIIIIIIIIIIIIII
AAAAAAAAAAAAAAAAAAAAAAAAAAAAAAAAAAAAAAAAAA111IIIIIIIIIIIIIIIIIII
AAAAAAAAAAAAAAAAAAAAAAAAAAAAAAAAAAAAAAAAAAA111IIIIIIIIIIIIIIIIII
AAAAAAAAAAAAAAAAAAAAAAAAAAAAAAAAAAAAAAAAAAAA111IIIIIIIIIIIIIIIII
AAAAAAAAAAAAAAAAAAAAAAAAAAAAAAAAAAAAAAAAAAAAA111IIIIIIIIIIIIIIII
AAAAAAAAAAAAAAAAAAAAAAAAAAAAAAAAAAAAAAAAAAAAAA111IIIIIIIIIIIIIII
AAAAAAAAAAAAAAAAAAAAAAAAAAAAAAAAAAAAAAAAAAAAAAA111IIIIIIIIIIIIII
AAAAAAAAAAAAAAAAAAAAAAAAAAAAAAAAAAAAAAAAAAAAAAAA111IIIIIIIIIIIII
AAAAAAAAAAAAAAAAAAAAAAAAAAAAAAAAAAAAAAAAAAAAAAAAA111IIIIIIIIIIII
AAAAAAAAAAAAAAAAAAAAAAAAAAAAAAAAAAAAAAAAAAAAAAAAAA111IIIIIIIIIII
AAAAAAAAAAAAAAAAAAAAAAAAAAAAAAAAAAAAAAAAAAAAAAAAAAA111IIIIIIIIII
AAAAAAAAAAAAAAAAAAAAAAAAAAAAAAAAAAAAAAAAAAAAAAAAAAAA111IIIIIIIII
AAAAAAAAAAAAAAAAAAAAAAAAAAAAAAAAAAAAAAAAAAAAAAAAAAAAA111IIIIIIII
AAAAAAAAAAAAAAAAAAAAAAAAAAAAAAAAAAAAAAAAAAAAAAAAAAAAAA111IIIIIII
AAAAAAAAAAAAAAAAAAAAAAAAAAAAAAAAAAAAAAAAAAAAAAAAAAAAAAA111IIIIII
AAAAAAAAAAAAAAAAAAAAAAAAAAAAAAAAAAAAAAAAAAAAAAAAAAAAAAAA111IIIII
AAAAAAAAAAAAAAAAAAAAAAAAAAAAAAAAAAAAAAAAAAAAAAAAAAAAAAAAA111IIII
AAAAAAAAAAAAAAAAAAAAAAAAAAAAAAAAAAAAAAAAAAAAAAAAAAAAAAAAAA111III
AAAAAAAAAAAAAAAAAAAAAAAAAAAAAAAAAAAAAAAAAAAAAAAAAAAAAAAAAAA111II
AAAAAAAAAAAAAAAAAAAAAAAAAAAAAAAAAAAAAAAAAAAAAAAAAAAAAAAAAAAA111I
AAAAAAAAAAAAAAAAAAAAAAAAAAAAAAAAAAAAAAAAAAAAAAAAAAAAAAAAAAAAA111
AAAAAAAAAAAAAAAAAAAAAAAAAAAAAAAAAAAAAAAAAAAAAAAAAAAAAAAAAAAAAA11
AAAAAAAAAAAAAAAAAAAAAAAAAAAAAAAAAAAAAAAAAAAAAAAAAAAAAAAAAAAAAAA1
AAAAAAAAAAAAAAAAAAAAAAAAAAAAAAAAAAAAAAAAAAAAAAAAAAAAAAAAAAAAAAAA
A111IIIIIIIIIIIIIIIIIIIIIIIIIIIIIIIIIIIIIIIIIIIIIIIIIIIIIIIIIIII
AA111IIIIIIIIIIIIIIIIIIIIIIIIIIIIIIIIIIIIIIIIIIIIIIIIIIIIIIIIIII
AAA111IIIIIIIIIIIIIIIIIIIIIIIIIIIIIIIIIIIIIIIIIIIIIIIIIIIIIIIIII
AAAA111IIIIIIIIIIIIIIIIIIIIIIIIIIIIIIIIIIIIIIIIIIIIIIIIIIIIIIIII
AAAAA111IIIIIIIIIIIIIIIIIIIIIIIIIIIIIIIIIIIIIIIIIIIIIIIIIIIIIIII
AAAAAA111IIIIIIIIIIIIIIIIIIIIIIIIIIIIIIIIIIIIIIIIIIIIIIIIIIIIIII
AAAAAAA111IIIIIIIIIIIIIIIIIIIIIIIIIIIIIIIIIIIIIIIIIIIIIIIIIIIIII
AAAAAAAA111IIIIIIIIIIIIIIIIIIIIIIIIIIIIIIIIIIIIIIIIIIIIIIIIIIIII
AAAAAAAAA111IIIIIIIIIIIIIIIIIIIIIIIIIIIIIIIIIIIIIIIIIIIIIIIIIIII
AAAAAAAAAA111IIIIIIIIIIIIIIIIIIIIIIIIIIIIIIIIIIIIIIIIIIIIIIIIIII
AAAAAAAAAAA111IIIIIIIIIIIIIIIIIIIIIIIIIIIIIIIIIIIIIIIIIIIIIIIIII
AAAAAAAAAAAA111IIIIIIIIIIIIIIIIIIIIIIIIIIIIIIIIIIIIIIIIIIIIIIIII
AAAAAAAAAAAAA111IIIIIIIIIIIIIIIIIIIIIIIIIIIIIIIIIIIIIIIIIIIIIIII
AAAAAAAAAAAAAA111IIIIIIIIIIIIIIIIIIIIIIIIIIIIIIIIIIIIIIIIIIIIIII
AAAAAAAAAAAAAAA111IIIIIIIIIIIIIIIIIIIIIIIIIIIIIIIIIIIIIIIIIIIIII
AAAAAAAAAAAAAAAA111IIIIIIIIIIIIIIIIIIIIIIIIIIIIIIIIIIIIIIIIIIIII
AAAAAAAAAAAAAAAAA111IIIIIIIIIIIIIIIIIIIIIIIIIIIIIIIIIIIIIIIIIIII
AAAAAAAAAAAAAAAAAA111IIIIIIIIIIIIIIIIIIIIIIIIIIIIIIIIIIIIIIIIIII
AAAAAAAAAAAAAAAAAAA111IIIIIIIIIIIIIIIIIIIIIIIIIIIIIIIIIIIIIIIIII
AAAAAAAAAAAAAAAAAAAA111IIIIIIIIIIIIIIIIIIIIIIIIIIIIIIIIIIIIIIIII
AAAAAAAAAAAAAAAAAAAAA111IIIIIIIIIIIIIIIIIIIIIIIIIIIIIIIIIIIIIIII
AAAAAAAAAAAAAAAAAAAAAA111IIIIIIIIIIIIIIIIIIIIIIIIIIIIIIIIIIIIIII
AAAAAAAAAAAAAAAAAAAAAAA111IIIIIIIIIIIIIIIIIIIIIIIIIIIIIIIIIIIIII
AAAAAAAAAAAAAAAAAAAAAAAA111IIIIIIIIIIIIIIIIIIIIIIIIIIIIIIIIIIIII
AAAAAAAAAAAAAAAAAAAAAAAAA111IIIIIIIIIIIIIIIIIIIIIIIIIIIIIIIIIIII
AAAAAAAAAAAAAAAAAAAAAAAAAA111IIIIIIIIIIIIIIIIIIIIIIIIIIIIIIIIIII
AAAAAAAAAAAAAAAAAAAAAAAAAAA111IIIIIIIIIIIIIIIIIIIIIIIIIIIIIIIIII
AAAAAAAAAAAAAAAAAAAAAAAAAAAA111IIIIIIIIIIIIIIIIIIIIIIIIIIIIIIIII
AAAAAAAAAAAAAAAAAAAAAAAAAAAAA111IIIIIIIIIIIIIIIIIIIIIIIIIIIIIIII
AAAAAAAAAAAAAAAAAAAAAAAAAAAAAA111IIIIIIIIIIIIIIIIIIIIIIIIIIIIIII
AAAAAAAAAAAAAAAAAAAAAAAAAAAAAAA111IIIIIIIIIIIIIIIIIIIIIIIIIIIIII
AAAAAAAAAAAAAAAAAAAAAAAAAAAAAAAA111IIIIIIIIIIIIIIIIIIIIIIIIIIIII
AAAAAAAAAAAAAAAAAAAAAAAAAAAAAAAAA111IIIIIIIIIIIIIIIIIIIIIIIIIIII
AAAAAAAAAAAAAAAAAAAAAAAAAAAAAAAAAA111IIIIIIIIIIIIIIIIIIIIIIIIIII
AAAAAAAAAAAAAAAAAAAAAAAAAAAAAAAAAAA111IIIIIIIIIIIIIIIIIIIIIIIIII
AAAAAAAAAAAAAAAAAAAAAAAAAAAAAAAAAAAA111IIIIIIIIIIIIIIIIIIIIIIIII
AAAAAAAAAAAAAAAAAAAAAAAAAAAAAAAAAAAAA111IIIIIIIIIIIIIIIIIIIIIIII
AAAAAAAAAAAAAAAAAAAAAAAAAAAAAAAAAAAAAA111IIIIIIIIIIIIIIIIIIIIIII
AAAAAAAAAAAAAAAAAAAAAAAAAAAAAAAAAAAAAAA111IIIIIIIIIIIIIIIIIIIIII
AAAAAAAAAAAAAAAAAAAAAAAAAAAAAAAAAAAAAAAA111IIIIIIIIIIIIIIIIIIIII
AAAAAAAAAAAAAAAAAAAAAAAAAAAAAAAAAAAAAAAAA111IIIIIIIIIIIIIIIIIIII
AAAAAAAAAAAAAAAAAAAAAAAAAAAAAAAAAAAAAAAAAA111IIIIIIIIIIIIIIIIIII
AAAAAAAAAAAAAAAAAAAAAAAAAAAAAAAAAAAAAAAAAAA111IIIIIIIIIIIIIIIIII
AAAAAAAAAAAAAAAAAAAAAAAAAAAAAAAAAAAAAAAAAAAA111IIIIIIIIIIIIIIIII
AAAAAAAAAAAAAAAAAAAAAAAAAAAAAAAAAAAAAAAAAAAAA111IIIIIIIIIIIIIIII
AAAAAAAAAAAAAAAAAAAAAAAAAAAAAAAAAAAAAAAAAAAAAA111IIIIIIIIIIIIIII
AAAAAAAAAAAAAAAAAAAAAAAAAAAAAAAAAAAAAAAAAAAAAAA111IIIIIIIIIIIIII
AAAAAAAAAAAAAAAAAAAAAAAAAAAAAAAAAAAAAAAAAAAAAAAA111IIIIIIIIIIIII
AAAAAAAAAAAAAAAAAAAAAAAAAAAAAAAAAAAAAAAAAAAAAAAAA111IIIIIIIIIIII
AAAAAAAAAAAAAAAAAAAAAAAAAAAAAAAAAAAAAAAAAAAAAAAAAA111IIIIIIIIIII
AAAAAAAAAAAAAAAAAAAAAAAAAAAAAAAAAAAAAAAAAAAAAAAAAAA111IIIIIIIIII
AAAAAAAAAAAAAAAAAAAAAAAAAAAAAAAAAAAAAAAAAAAAAAAAAAAA111IIIIIIIII
AAAAAAAAAAAAAAAAAAAAAAAAAAAAAAAAAAAAAAAAAAAAAAAAAAAAA111IIIIIIII
AAAAAAAAAAAAAAAAAAAAAAAAAAAAAAAAAAAAAAAAAAAAAAAAAAAAAA111IIIIIII
AAAAAAAAAAAAAAAAAAAAAAAAAAAAAAAAAAAAAAAAAAAAAAAAAAAAAAA111IIIIII
AAAAAAAAAAAAAAAAAAAAAAAAAAAAAAAAAAAAAAAAAAAAAAAAAAAAAAAA111IIIII
AAAAAAAAAAAAAAAAAAAAAAAAAAAAAAAAAAAAAAAAAAAAAAAAAAAAAAAAA111IIII
AAAAAAAAAAAAAAAAAAAAAAAAAAAAAAAAAAAAAAAAAAAAAAAAAAAAAAAAAA111III
AAAAAAAAAAAAAAAAAAAAAAAAAAAAAAAAAAAAAAAAAAAAAAAAAAAAAAAAAAA111II
AAAAAAAAAAAAAAAAAAAAAAAAAAAAAAAAAAAAAAAAAAAAAAAAAAAAAAAAAAAA111I
AAAAAAAAAAAAAAAAAAAAAAAAAAAAAAAAAAAAAAAAAAAAAAAAAAAAAAAAAAAAA111
AAAAAAAAAAAAAAAAAAAAAAAAAAAAAAAAAAAAAAAAAAAAAAAAAAAAAAAAAAAAAA11
AAAAAAAAAAAAAAAAAAAAAAAAAAAAAAAAAAAAAAAAAAAAAAAAAAAAAAAAAAAAAAA1
AAAAAAAAAAAAAAAAAAAAAAAAAAAAAAAAAAAAAAAAAAAAAAAAAAAAAAAAAAAAAAAA
A111IIIIIIIIIIIIIIIIIIIIIIIIIIIIIIIIIIIIIIIIIIIIIIIIIIIIIIIIIIII
AA111IIIIIIIIIIIIIIIIIIIIIIIIIIIIIIIIIIIIIIIIIIIIIIIIIIIIIIIIIII
AAA111IIIIIIIIIIIIIIIIIIIIIIIIIIIIIIIIIIIIIIIIIIIIIIIIIIIIIIIIII
AAAA111IIIIIIIIIIIIIIIIIIIIIIIIIIIIIIIIIIIIIIIIIIIIIIIIIIIIIIIII
AAAAA111IIIIIIIIIIIIIIIIIIIIIIIIIIIIIIIIIIIIIIIIIIIIIIIIIIIIIIII
AAAAAA111IIIIIIIIIIIIIIIIIIIIIIIIIIIIIIIIIIIIIIIIIIIIIIIIIIIIIII
AAAAAAA111IIIIIIIIIIIIIIIIIIIIIIIIIIIIIIIIIIIIIIIIIIIIIIIIIIIIII
AAAAAAAA111IIIIIIIIIIIIIIIIIIIIIIIIIIIIIIIIIIIIIIIIIIIIIIIIIIIII
AAAAAAAAA111IIIIIIIIIIIIIIIIIIIIIIIIIIIIIIIIIIIIIIIIIIIIIIIIIIII
AAAAAAAAAA111IIIIIIIIIIIIIIIIIIIIIIIIIIIIIIIIIIIIIIIIIIIIIIIIIII
AAAAAAAAAAA111IIIIIIIIIIIIIIIIIIIIIIIIIIIIIIIIIIIIIIIIIIIIIIIIII
AAAAAAAAAAAA111IIIIIIIIIIIIIIIIIIIIIIIIIIIIIIIIIIIIIIIIIIIIIIIII
AAAAAAAAAAAAA111IIIIIIIIIIIIIIIIIIIIIIIIIIIIIIIIIIIIIIIIIIIIIIII
AAAAAAAAAAAAAA111IIIIIIIIIIIIIIIIIIIIIIIIIIIIIIIIIIIIIIIIIIIIIII
AAAAAAAAAAAAAAA111IIIIIIIIIIIIIIIIIIIIIIIIIIIIIIIIIIIIIIIIIIIIII
AAAAAAAAAAAAAAAA111IIIIIIIIIIIIIIIIIIIIIIIIIIIIIIIIIIIIIIIIIIIII
AAAAAAAAAAAAAAAAA111IIIIIIIIIIIIIIIIIIIIIIIIIIIIIIIIIIIIIIIIIIII
AAAAAAAAAAAAAAAAAA111IIIIIIIIIIIIIIIIIIIIIIIIIIIIIIIIIIIIIIIIIII
AAAAAAAAAAAAAAAAAAA111IIIIIIIIIIIIIIIIIIIIIIIIIIIIIIIIIIIIIIIIII
AAAAAAAAAAAAAAAAAAAA111IIIIIIIIIIIIIIIIIIIIIIIIIIIIIIIIIIIIIIIII
AAAAAAAAAAAAAAAAAAAAA111IIIIIIIIIIIIIIIIIIIIIIIIIIIIIIIIIIIIIIII
AAAAAAAAAAAAAAAAAAAAAA111IIIIIIIIIIIIIIIIIIIIIIIIIIIIIIIIIIIIIII
AAAAAAAAAAAAAAAAAAAAAAA111IIIIIIIIIIIIIIIIIIIIIIIIIIIIIIIIIIIIII
AAAAAAAAAAAAAAAAAAAAAAAA111IIIIIIIIIIIIIIIIIIIIIIIIIIIIIIIIIIIII
AAAAAAAAAAAAAAAAAAAAAAAAA111IIIIIIIIIIIIIIIIIIIIIIIIIIIIIIIIIIII
AAAAAAAAAAAAAAAAAAAAAAAAAA111IIIIIIIIIIIIIIIIIIIIIIIIIIIIIIIIIII
AAAAAAAAAAAAAAAAAAAAAAAAAAA111IIIIIIIIIIIIIIIIIIIIIIIIIIIIIIIIII
AAAAAAAAAAAAAAAAAAAAAAAAAAAA111IIIIIIIIIIIIIIIIIIIIIIIIIIIIIIIII
AAAAAAAAAAAAAAAAAAAAAAAAAAAAA111IIIIIIIIIIIIIIIIIIIIIIIIIIIIIIII
AAAAAAAAAAAAAAAAAAAAAAAAAAAAAA111IIIIIIIIIIIIIIIIIIIIIIIIIIIIIII
AAAAAAAAAAAAAAAAAAAAAAAAAAAAAAA111IIIIIIIIIIIIIIIIIIIIIIIIIIIIII
AAAAAAAAAAAAAAAAAAAAAAAAAAAAAAAA111IIIIIIIIIIIIIIIIIIIIIIIIIIIII
AAAAAAAAAAAAAAAAAAAAAAAAAAAAAAAAA111IIIIIIIIIIIIIIIIIIIIIIIIIIII
AAAAAAAAAAAAAAAAAAAAAAAAAAAAAAAAAA111IIIIIIIIIIIIIIIIIIIIIIIIIII
AAAAAAAAAAAAAAAAAAAAAAAAAAAAAAAAAAA111IIIIIIIIIIIIIIIIIIIIIIIIII
AAAAAAAAAAAAAAAAAAAAAAAAAAAAAAAAAAAA111IIIIIIIIIIIIIIIIIIIIIIIII
AAAAAAAAAAAAAAAAAAAAAAAAAAAAAAAAAAAAA111IIIIIIIIIIIIIIIIIIIIIIII
AAAAAAAAAAAAAAAAAAAAAAAAAAAAAAAAAAAAAA111IIIIIIIIIIIIIIIIIIIIIII
AAAAAAAAAAAAAAAAAAAAAAAAAAAAAAAAAAAAAAA111IIIIIIIIIIIIIIIIIIIIII
AAAAAAAAAAAAAAAAAAAAAAAAAAAAAAAAAAAAAAAA111IIIIIIIIIIIIIIIIIIIII
AAAAAAAAAAAAAAAAAAAAAAAAAAAAAAAAAAAAAAAAA111IIIIIIIIIIIIIIIIIIII
AAAAAAAAAAAAAAAAAAAAAAAAAAAAAAAAAAAAAAAAAA111IIIIIIIIIIIIIIIIIII
AAAAAAAAAAAAAAAAAAAAAAAAAAAAAAAAAAAAAAAAAAA111IIIIIIIIIIIIIIIIII
AAAAAAAAAAAAAAAAAAAAAAAAAAAAAAAAAAAAAAAAAAAA111IIIIIIIIIIIIIIIII
AAAAAAAAAAAAAAAAAAAAAAAAAAAAAAAAAAAAAAAAAAAAA111IIIIIIIIIIIIIIII
AAAAAAAAAAAAAAAAAAAAAAAAAAAAAAAAAAAAAAAAAAAAAA111IIIIIIIIIIIIIII
AAAAAAAAAAAAAAAAAAAAAAAAAAAAAAAAAAAAAAAAAAAAAAA111IIIIIIIIIIIIII
AAAAAAAAAAAAAAAAAAAAAAAAAAAAAAAAAAAAAAAAAAAAAAAA111IIIIIIIIIIIII
AAAAAAAAAAAAAAAAAAAAAAAAAAAAAAAAAAAAAAAAAAAAAAAAA111IIIIIIIIIIII
AAAAAAAAAAAAAAAAAAAAAAAAAAAAAAAAAAAAAAAAAAAAAAAAAA111IIIIIIIIIII
AAAAAAAAAAAAAAAAAAAAAAAAAAAAAAAAAAAAAAAAAAAAAAAAAAA111IIIIIIIIII
AAAAAAAAAAAAAAAAAAAAAAAAAAAAAAAAAAAAAAAAAAAAAAAAAAAA111IIIIIIIII
AAAAAAAAAAAAAAAAAAAAAAAAAAAAAAAAAAAAAAAAAAAAAAAAAAAAA111IIIIIIII
AAAAAAAAAAAAAAAAAAAAAAAAAAAAAAAAAAAAAAAAAAAAAAAAAAAAAA111IIIIIII
AAAAAAAAAAAAAAAAAAAAAAAAAAAAAAAAAAAAAAAAAAAAAAAAAAAAAAA111IIIIII
AAAAAAAAAAAAAAAAAAAAAAAAAAAAAAAAAAAAAAAAAAAAAAAAAAAAAAAA111IIIII
AAAAAAAAAAAAAAAAAAAAAAAAAAAAAAAAAAAAAAAAAAAAAAAAAAAAAAAAA111IIII
AAAAAAAAAAAAAAAAAAAAAAAAAAAAAAAAAAAAAAAAAAAAAAAAAAAAAAAAAA111III
AAAAAAAAAAAAAAAAAAAAAAAAAAAAAAAAAAAAAAAAAAAAAAAAAAAAAAAAAAA111II
AAAAAAAAAAAAAAAAAAAAAAAAAAAAAAAAAAAAAAAAAAAAAAAAAAAAAAAAAAAA111I
AAAAAAAAAAAAAAAAAAAAAAAAAAAAAAAAAAAAAAAAAAAAAAAAAAAAAAAAAAAAA111
AAAAAAAAAAAAAAAAAAAAAAAAAAAAAAAAAAAAAAAAAAAAAAAAAAAAAAAAAAAAAA11
AAAAAAAAAAAAAAAAAAAAAAAAAAAAAAAAAAAAAAAAAAAAAAAAAAAAAAAAAAAAAAA1
AAAAAAAAAAAAAAAAAAAAAAAAAAAAAAAAAAAAAAAAAAAAAAAAAAAAAAAAAAAAAAAA
A111IIIIIIIIIIIIIIIIIIIIIIIIIIIIIIIIIIIIIIIIIIIIIIIIIIIIIIIIIIII
AA111IIIIIIIIIIIIIIIIIIIIIIIIIIIIIIIIIIIIIIIIIIIIIIIIIIIIIIIIIII
AAA111IIIIIIIIIIIIIIIIIIIIIIIIIIIIIIIIIIIIIIIIIIIIIIIIIIIIIIIIII
AAAA111IIIIIIIIIIIIIIIIIIIIIIIIIIIIIIIIIIIIIIIIIIIIIIIIIIIIIIIII
AAAAA111IIIIIIIIIIIIIIIIIIIIIIIIIIIIIIIIIIIIIIIIIIIIIIIIIIIIIIII
AAAAAA111IIIIIIIIIIIIIIIIIIIIIIIIIIIIIIIIIIIIIIIIIIIIIIIIIIIIIII
AAAAAAA111IIIIIIIIIIIIIIIIIIIIIIIIIIIIIIIIIIIIIIIIIIIIIIIIIIIIII
AAAAAAAA111IIIIIIIIIIIIIIIIIIIIIIIIIIIIIIIIIIIIIIIIIIIIIIIIIIIII
AAAAAAAAA111IIIIIIIIIIIIIIIIIIIIIIIIIIIIIIIIIIIIIIIIIIIIIIIIIIII
AAAAAAAAAA111IIIIIIIIIIIIIIIIIIIIIIIIIIIIIIIIIIIIIIIIIIIIIIIIIII
AAAAAAAAAAA111IIIIIIIIIIIIIIIIIIIIIIIIIIIIIIIIIIIIIIIIIIIIIIIIII
AAAAAAAAAAAA111IIIIIIIIIIIIIIIIIIIIIIIIIIIIIIIIIIIIIIIIIIIIIIIII
AAAAAAAAAAAAA111IIIIIIIIIIIIIIIIIIIIIIIIIIIIIIIIIIIIIIIIIIIIIIII
AAAAAAAAAAAAAA111IIIIIIIIIIIIIIIIIIIIIIIIIIIIIIIIIIIIIIIIIIIIIII
AAAAAAAAAAAAAAA111IIIIIIIIIIIIIIIIIIIIIIIIIIIIIIIIIIIIIIIIIIIIII
AAAAAAAAAAAAAAAA111IIIIIIIIIIIIIIIIIIIIIIIIIIIIIIIIIIIIIIIIIIIII
AAAAAAAAAAAAAAAAA111IIIIIIIIIIIIIIIIIIIIIIIIIIIIIIIIIIIIIIIIIIII
AAAAAAAAAAAAAAAAAA111IIIIIIIIIIIIIIIIIIIIIIIIIIIIIIIIIIIIIIIIIII
AAAAAAAAAAAAAAAAAAA111IIIIIIIIIIIIIIIIIIIIIIIIIIIIIIIIIIIIIIIIII
AAAAAAAAAAAAAAAAAAAA111IIIIIIIIIIIIIIIIIIIIIIIIIIIIIIIIIIIIIIIII
AAAAAAAAAAAAAAAAAAAAA111IIIIIIIIIIIIIIIIIIIIIIIIIIIIIIIIIIIIIIII
AAAAAAAAAAAAAAAAAAAAAA111IIIIIIIIIIIIIIIIIIIIIIIIIIIIIIIIIIIIIII
AAAAAAAAAAAAAAAAAAAAAAA111IIIIIIIIIIIIIIIIIIIIIIIIIIIIIIIIIIIIII
AAAAAAAAAAAAAAAAAAAAAAAA111IIIIIIIIIIIIIIIIIIIIIIIIIIIIIIIIIIIII
AAAAAAAAAAAAAAAAAAAAAAAAA111IIIIIIIIIIIIIIIIIIIIIIIIIIIIIIIIIIII
AAAAAAAAAAAAAAAAAAAAAAAAAA111IIIIIIIIIIIIIIIIIIIIIIIIIIIIIIIIIII
AAAAAAAAAAAAAAAAAAAAAAAAAAA111IIIIIIIIIIIIIIIIIIIIIIIIIIIIIIIIII
AAAAAAAAAAAAAAAAAAAAAAAAAAAA111IIIIIIIIIIIIIIIIIIIIIIIIIIIIIIIII
AAAAAAAAAAAAAAAAAAAAAAAAAAAAA111IIIIIIIIIIIIIIIIIIIIIIIIIIIIIIII
AAAAAAAAAAAAAAAAAAAAAAAAAAAAAA111IIIIIIIIIIIIIIIIIIIIIIIIIIIIIII
AAAAAAAAAAAAAAAAAAAAAAAAAAAAAAA111IIIIIIIIIIIIIIIIIIIIIIIIIIIIII
AAAAAAAAAAAAAAAAAAAAAAAAAAAAAAAA111IIIIIIIIIIIIIIIIIIIIIIIIIIIII
AAAAAAAAAAAAAAAAAAAAAAAAAAAAAAAAA111IIIIIIIIIIIIIIIIIIIIIIIIIIII
AAAAAAAAAAAAAAAAAAAAAAAAAAAAAAAAAA111IIIIIIIIIIIIIIIIIIIIIIIIIII
AAAAAAAAAAAAAAAAAAAAAAAAAAAAAAAAAAA111IIIIIIIIIIIIIIIIIIIIIIIIII
AAAAAAAAAAAAAAAAAAAAAAAAAAAAAAAAAAAA111IIIIIIIIIIIIIIIIIIIIIIIII
AAAAAAAAAAAAAAAAAAAAAAAAAAAAAAAAAAAAA111IIIIIIIIIIIIIIIIIIIIIIII
AAAAAAAAAAAAAAAAAAAAAAAAAAAAAAAAAAAAAA111IIIIIIIIIIIIIIIIIIIIIII
AAAAAAAAAAAAAAAAAAAAAAAAAAAAAAAAAAAAAAA111IIIIIIIIIIIIIIIIIIIIII
AAAAAAAAAAAAAAAAAAAAAAAAAAAAAAAAAAAAAAAA111IIIIIIIIIIIIIIIIIIIII
AAAAAAAAAAAAAAAAAAAAAAAAAAAAAAAAAAAAAAAAA111IIIIIIIIIIIIIIIIIIII
AAAAAAAAAAAAAAAAAAAAAAAAAAAAAAAAAAAAAAAAAA111IIIIIIIIIIIIIIIIIII
AAAAAAAAAAAAAAAAAAAAAAAAAAAAAAAAAAAAAAAAAAA111IIIIIIIIIIIIIIIIII
AAAAAAAAAAAAAAAAAAAAAAAAAAAAAAAAAAAAAAAAAAAA111IIIIIIIIIIIIIIIII
AAAAAAAAAAAAAAAAAAAAAAAAAAAAAAAAAAAAAAAAAAAAA111IIIIIIIIIIIIIIII
AAAAAAAAAAAAAAAAAAAAAAAAAAAAAAAAAAAAAAAAAAAAAA111IIIIIIIIIIIIIII
AAAAAAAAAAAAAAAAAAAAAAAAAAAAAAAAAAAAAAAAAAAAAAA111IIIIIIIIIIIIII
AAAAAAAAAAAAAAAAAAAAAAAAAAAAAAAAAAAAAAAAAAAAAAAA111IIIIIIIIIIIII
AAAAAAAAAAAAAAAAAAAAAAAAAAAAAAAAAAAAAAAAAAAAAAAAA111IIIIIIIIIIII
AAAAAAAAAAAAAAAAAAAAAAAAAAAAAAAAAAAAAAAAAAAAAAAAAA111IIIIIIIIIII
AAAAAAAAAAAAAAAAAAAAAAAAAAAAAAAAAAAAAAAAAAAAAAAAAAA111IIIIIIIIII
AAAAAAAAAAAAAAAAAAAAAAAAAAAAAAAAAAAAAAAAAAAAAAAAAAAA111IIIIIIIII
AAAAAAAAAAAAAAAAAAAAAAAAAAAAAAAAAAAAAAAAAAAAAAAAAAAAA111IIIIIIII
AAAAAAAAAAAAAAAAAAAAAAAAAAAAAAAAAAAAAAAAAAAAAAAAAAAAAA111IIIIIII
AAAAAAAAAAAAAAAAAAAAAAAAAAAAAAAAAAAAAAAAAAAAAAAAAAAAAAA111IIIIII
AAAAAAAAAAAAAAAAAAAAAAAAAAAAAAAAAAAAAAAAAAAAAAAAAAAAAAAA111IIIII
AAAAAAAAAAAAAAAAAAAAAAAAAAAAAAAAAAAAAAAAAAAAAAAAAAAAAAAAA111IIII
AAAAAAAAAAAAAAAAAAAAAAAAAAAAAAAAAAAAAAAAAAAAAAAAAAAAAAAAAA111III
AAAAAAAAAAAAAAAAAAAAAAAAAAAAAAAAAAAAAAAAAAAAAAAAAAAAAAAAAAA111II
AAAAAAAAAAAAAAAAAAAAAAAAAAAAAAAAAAAAAAAAAAAAAAAAAAAAAAAAAAAA111I
AAAAAAAAAAAAAAAAAAAAAAAAAAAAAAAAAAAAAAAAAAAAAAAAAAAAAAAAAAAAA111
AAAAAAAAAAAAAAAAAAAAAAAAAAAAAAAAAAAAAAAAAAAAAAAAAAAAAAAAAAAAAA11
AAAAAAAAAAAAAAAAAAAAAAAAAAAAAAAAAAAAAAAAAAAAAAAAAAAAAAAAAAAAAAA1
AAAAAAAAAAAAAAAAAAAAAAAAAAAAAAAAAAAAAAAAAAAAAAAAAAAAAAAAAAAAAAAA
[MLOP] Prefetch Degree Mean: 3
[MLOP] Prefetch Degree SD: 0
[MLOP] Max Score Left Mean (%): 95
[MLOP] Max Score Left SD (%): 0
[MLOP] Max Score Right Mean (%): 99.8
[MLOP] Max Score Right SD (%): 0

DRAM Statistics
 CHANNEL 0
 RQ ROW_BUFFER_HIT:    8614089  ROW_BUFFER_MISS:   53229301
 DBUS_CONGESTED:          0
 WQ ROW_BUFFER_HIT:    2853213  ROW_BUFFER_MISS:   34947948  FULL:     134943

 AVG_CONGESTED_CYCLE: -
 All warmup complete: 5
Channel 0 Bank busy for read cycles: 0
Channel 0 Bank busy for write cycles: 0
Channel 0
Rank 0
0banks busy for read cycles: 15527
0banks busy for write cycles: 0
1banks busy for read cycles: 5942021
1banks busy for write cycles: 3670595
2banks busy for read cycles: 10912290
2banks busy for write cycles: 3670593
3banks busy for read cycles: 18952062
3banks busy for write cycles: 3670586
4banks busy for read cycles: 33558512
4banks busy for write cycles: 3670588
5banks busy for read cycles: 66757337
5banks busy for write cycles: 3677197
6banks busy for read cycles: 153278044
6banks busy for write cycles: 4711019
7banks busy for read cycles: 349799252
7banks busy for write cycles: 69384127
8banks busy for read cycles: 718007325
8banks busy for write cycles: 915589293

CPU 0 Branch Prediction Accuracy: 98.5363% MPKI: 3.53579 Average ROB Occupancy at Mispredict: 66.6071
Branch types
NOT_BRANCH: 151685876 75.8429%
BRANCH_DIRECT_JUMP: 3899459 1.94973%
BRANCH_INDIRECT: 593469 0.296734%
BRANCH_CONDITIONAL: 31930514 15.9653%
BRANCH_DIRECT_CALL: 5117697 2.55885%
BRANCH_INDIRECT_CALL: 827496 0.413748%
BRANCH_RETURN: 5945199 2.9726%
BRANCH_OTHER: 0 0%


CPU 1 Branch Prediction Accuracy: 98.386% MPKI: 0.228055 Average ROB Occupancy at Mispredict: 253.567
Branch types
NOT_BRANCH: 1003408953 98.5803%
BRANCH_DIRECT_JUMP: 1585590 0.155777%
BRANCH_INDIRECT: 0 0%
BRANCH_CONDITIONAL: 12865360 1.26396%
BRANCH_DIRECT_CALL: 2 1.96491e-07%
BRANCH_INDIRECT_CALL: 0 0%
BRANCH_RETURN: 2 1.96491e-07%
BRANCH_OTHER: 0 0%


CPU 2 Branch Prediction Accuracy: 93.1614% MPKI: 11.657 Average ROB Occupancy at Mispredict: 27.1418
Branch types
NOT_BRANCH: 612764580 82.7566%
BRANCH_DIRECT_JUMP: 261 3.52492e-05%
BRANCH_INDIRECT: 6 8.10326e-07%
BRANCH_CONDITIONAL: 127677318 17.2434%
BRANCH_DIRECT_CALL: 90 1.21549e-05%
BRANCH_INDIRECT_CALL: 0 0%
BRANCH_RETURN: 87 1.17497e-05%
BRANCH_OTHER: 0 0%


CPU 3 Branch Prediction Accuracy: 97.5493% MPKI: 7.11128 Average ROB Occupancy at Mispredict: 53.8189
Branch types
NOT_BRANCH: 1149973809 70.9224%
BRANCH_DIRECT_JUMP: 63691497 3.92805%
BRANCH_INDIRECT: 0 0%
BRANCH_CONDITIONAL: 389540320 24.0242%
BRANCH_DIRECT_CALL: 9123693 0.562686%
BRANCH_INDIRECT_CALL: 0 0%
BRANCH_RETURN: 9123693 0.562686%
BRANCH_OTHER: 0 0%

DRAM PAGES: 1048576
Allocated PAGES: 420110
