
*** ChampSim Multicore Out-of-Order Simulator ***

Warmup Instructions: 50000000
Simulation Instructions: 200000000
Number of CPUs: 4
LLC sets: 8192
LLC ways: 16
Off-chip DRAM Size: 4096 MB Channels: 1 Width: 64-bit Data Rate: 6400 MT/s
CPU 0 runs ./traces/spec/470.lbm-1274B.champsimtrace.xz
.xz
CPU 1 runs ./traces/spec/470.lbm-1274B.champsimtrace.xz
.xz
CPU 2 runs ./traces/spec/470.lbm-1274B.champsimtrace.xz
.xz
CPU 3 runs ./traces/spec/470.lbm-1274B.champsimtrace.xz
.xz
BTB has LRU replacement policy
ITLB has LRU replacement policy
DTLB has LRU replacement policy
STLB has LRU replacement policy
L1I has LRU replacement policy
L1D has LRU replacement policy
Initialize SRRIP state for L2C
Initialize DRRIP state for LLC
BTB has LRU replacement policy
ITLB has LRU replacement policy
DTLB has LRU replacement policy
STLB has LRU replacement policy
L1I has LRU replacement policy
L1D has LRU replacement policy
Initialize SRRIP state for L2C
Initialize DRRIP state for LLC
BTB has LRU replacement policy
ITLB has LRU replacement policy
DTLB has LRU replacement policy
STLB has LRU replacement policy
L1I has LRU replacement policy
L1D has LRU replacement policy
Initialize SRRIP state for L2C
Initialize DRRIP state for LLC
BTB has LRU replacement policy
ITLB has LRU replacement policy
DTLB has LRU replacement policy
STLB has LRU replacement policy
L1I has LRU replacement policy
L1D has LRU replacement policy
Initialize SRRIP state for L2C
Initialize DRRIP state for LLC
Heartbeat CPU 0 instructions: 10000001 cycles: 2703370 heartbeat IPC: 3.69909 cumulative IPC: 3.69909 (Simulation time: 0 hr 2 min 24 sec) 
Heartbeat CPU 1 instructions: 10000001 cycles: 2704918 heartbeat IPC: 3.69697 cumulative IPC: 3.69697 (Simulation time: 0 hr 2 min 24 sec) 
Heartbeat CPU 2 instructions: 10000001 cycles: 2706833 heartbeat IPC: 3.69435 cumulative IPC: 3.69435 (Simulation time: 0 hr 2 min 24 sec) 
Heartbeat CPU 3 instructions: 10000001 cycles: 2707439 heartbeat IPC: 3.69353 cumulative IPC: 3.69353 (Simulation time: 0 hr 2 min 25 sec) 
Heartbeat CPU 0 instructions: 20000000 cycles: 5401030 heartbeat IPC: 3.70692 cumulative IPC: 3.703 (Simulation time: 0 hr 4 min 58 sec) 
Heartbeat CPU 1 instructions: 20000000 cycles: 5404513 heartbeat IPC: 3.70426 cumulative IPC: 3.70061 (Simulation time: 0 hr 4 min 59 sec) 
Heartbeat CPU 2 instructions: 20000000 cycles: 5406237 heartbeat IPC: 3.70452 cumulative IPC: 3.69943 (Simulation time: 0 hr 4 min 59 sec) 
Heartbeat CPU 3 instructions: 20000000 cycles: 5407038 heartbeat IPC: 3.70425 cumulative IPC: 3.69888 (Simulation time: 0 hr 4 min 59 sec) 
Heartbeat CPU 0 instructions: 30000001 cycles: 8098058 heartbeat IPC: 3.70779 cumulative IPC: 3.70459 (Simulation time: 0 hr 7 min 13 sec) 
Heartbeat CPU 1 instructions: 30000001 cycles: 8103691 heartbeat IPC: 3.70483 cumulative IPC: 3.70202 (Simulation time: 0 hr 7 min 13 sec) 
Heartbeat CPU 2 instructions: 30000001 cycles: 8107437 heartbeat IPC: 3.70206 cumulative IPC: 3.70031 (Simulation time: 0 hr 7 min 13 sec) 
Heartbeat CPU 3 instructions: 30000001 cycles: 8107900 heartbeat IPC: 3.70252 cumulative IPC: 3.7001 (Simulation time: 0 hr 7 min 13 sec) 
Heartbeat CPU 0 instructions: 40000001 cycles: 10794697 heartbeat IPC: 3.70832 cumulative IPC: 3.70552 (Simulation time: 0 hr 9 min 39 sec) 
Heartbeat CPU 1 instructions: 40000001 cycles: 10801007 heartbeat IPC: 3.70739 cumulative IPC: 3.70336 (Simulation time: 0 hr 9 min 39 sec) 
Heartbeat CPU 2 instructions: 40000001 cycles: 10806950 heartbeat IPC: 3.70437 cumulative IPC: 3.70132 (Simulation time: 0 hr 9 min 40 sec) 
Heartbeat CPU 3 instructions: 40000001 cycles: 10807352 heartbeat IPC: 3.70446 cumulative IPC: 3.70118 (Simulation time: 0 hr 9 min 40 sec) 
Heartbeat CPU 0 instructions: 50000003 cycles: 13491365 heartbeat IPC: 3.70828 cumulative IPC: 3.70607 (Simulation time: 0 hr 12 min 17 sec) 
Heartbeat CPU 1 instructions: 50000003 cycles: 13498048 heartbeat IPC: 3.70777 cumulative IPC: 3.70424 (Simulation time: 0 hr 12 min 17 sec) 
Heartbeat CPU 2 instructions: 50000003 cycles: 13506415 heartbeat IPC: 3.70444 cumulative IPC: 3.70194 (Simulation time: 0 hr 12 min 17 sec) 
Heartbeat CPU 3 instructions: 50000003 cycles: 13506613 heartbeat IPC: 3.70472 cumulative IPC: 3.70189 (Simulation time: 0 hr 12 min 17 sec) 

Warmup complete CPU 0 instructions: 50056555 cycles: 13506613 (Simulation time: 0 hr 12 min 17 sec) 
Warmup complete CPU 1 instructions: 50031731 cycles: 13506613 (Simulation time: 0 hr 12 min 17 sec) 
Warmup complete CPU 2 instructions: 50000774 cycles: 13506613 (Simulation time: 0 hr 12 min 17 sec) 
Warmup complete CPU 3 instructions: 50000003 cycles: 13506613 (Simulation time: 0 hr 12 min 17 sec) 

Heartbeat CPU 1 instructions: 60000001 cycles: 58848265 heartbeat IPC: 0.220506 cumulative IPC: 0.219848 (Simulation time: 0 hr 20 min 0 sec) 
Heartbeat CPU 2 instructions: 60000001 cycles: 58881661 heartbeat IPC: 0.220384 cumulative IPC: 0.220368 (Simulation time: 0 hr 20 min 0 sec) 
Heartbeat CPU 0 instructions: 60000001 cycles: 58886183 heartbeat IPC: 0.220289 cumulative IPC: 0.219117 (Simulation time: 0 hr 20 min 0 sec) 
Heartbeat CPU 3 instructions: 60000002 cycles: 58994488 heartbeat IPC: 0.219839 cumulative IPC: 0.219839 (Simulation time: 0 hr 20 min 1 sec) 
Heartbeat CPU 0 instructions: 70000003 cycles: 104306339 heartbeat IPC: 0.220167 cumulative IPC: 0.219642 (Simulation time: 0 hr 28 min 8 sec) 
Heartbeat CPU 2 instructions: 70000003 cycles: 104362335 heartbeat IPC: 0.219874 cumulative IPC: 0.220121 (Simulation time: 0 hr 28 min 8 sec) 
Heartbeat CPU 3 instructions: 70000001 cycles: 104735967 heartbeat IPC: 0.21862 cumulative IPC: 0.219228 (Simulation time: 0 hr 28 min 12 sec) 
Heartbeat CPU 1 instructions: 70000003 cycles: 105072702 heartbeat IPC: 0.216336 cumulative IPC: 0.218075 (Simulation time: 0 hr 28 min 16 sec) 
Heartbeat CPU 2 instructions: 80000001 cycles: 149646807 heartbeat IPC: 0.220826 cumulative IPC: 0.220355 (Simulation time: 0 hr 36 min 6 sec) 
Heartbeat CPU 0 instructions: 80000001 cycles: 149735898 heartbeat IPC: 0.220121 cumulative IPC: 0.219802 (Simulation time: 0 hr 36 min 7 sec) 
Heartbeat CPU 3 instructions: 80000003 cycles: 149976816 heartbeat IPC: 0.221039 cumulative IPC: 0.219828 (Simulation time: 0 hr 36 min 10 sec) 
Heartbeat CPU 1 instructions: 80000001 cycles: 150602099 heartbeat IPC: 0.219638 cumulative IPC: 0.218594 (Simulation time: 0 hr 36 min 17 sec) 
Heartbeat CPU 2 instructions: 90000000 cycles: 195141857 heartbeat IPC: 0.219804 cumulative IPC: 0.220217 (Simulation time: 0 hr 44 min 27 sec) 
Heartbeat CPU 0 instructions: 90000000 cycles: 195503670 heartbeat IPC: 0.218494 cumulative IPC: 0.219473 (Simulation time: 0 hr 44 min 30 sec) 
Heartbeat CPU 3 instructions: 90000000 cycles: 195530987 heartbeat IPC: 0.219519 cumulative IPC: 0.219751 (Simulation time: 0 hr 44 min 30 sec) 
Heartbeat CPU 1 instructions: 90000000 cycles: 196341174 heartbeat IPC: 0.218631 cumulative IPC: 0.218603 (Simulation time: 0 hr 44 min 38 sec) 
Heartbeat CPU 3 instructions: 100000001 cycles: 241065186 heartbeat IPC: 0.219615 cumulative IPC: 0.219724 (Simulation time: 0 hr 52 min 13 sec) 
Heartbeat CPU 0 instructions: 100000001 cycles: 241081443 heartbeat IPC: 0.219405 cumulative IPC: 0.219459 (Simulation time: 0 hr 52 min 13 sec) 
Heartbeat CPU 2 instructions: 100000000 cycles: 241247816 heartbeat IPC: 0.216892 cumulative IPC: 0.219544 (Simulation time: 0 hr 52 min 15 sec) 
Heartbeat CPU 1 instructions: 100000001 cycles: 241844383 heartbeat IPC: 0.219765 cumulative IPC: 0.218835 (Simulation time: 0 hr 52 min 20 sec) 
Heartbeat CPU 0 instructions: 110000000 cycles: 286638454 heartbeat IPC: 0.219505 cumulative IPC: 0.219467 (Simulation time: 1 hr 0 min 4 sec) 
Heartbeat CPU 3 instructions: 110000000 cycles: 286805093 heartbeat IPC: 0.218627 cumulative IPC: 0.21954 (Simulation time: 1 hr 0 min 5 sec) 
Heartbeat CPU 2 instructions: 110000000 cycles: 286995676 heartbeat IPC: 0.218589 cumulative IPC: 0.219384 (Simulation time: 1 hr 0 min 7 sec) 
Heartbeat CPU 1 instructions: 110000000 cycles: 288014060 heartbeat IPC: 0.216592 cumulative IPC: 0.218458 (Simulation time: 1 hr 0 min 17 sec) 
Heartbeat CPU 0 instructions: 120000002 cycles: 332303195 heartbeat IPC: 0.218987 cumulative IPC: 0.219398 (Simulation time: 1 hr 7 min 38 sec) 
Heartbeat CPU 3 instructions: 120000002 cycles: 332499111 heartbeat IPC: 0.218847 cumulative IPC: 0.219441 (Simulation time: 1 hr 7 min 41 sec) 
Heartbeat CPU 2 instructions: 120000002 cycles: 332592745 heartbeat IPC: 0.219312 cumulative IPC: 0.219374 (Simulation time: 1 hr 7 min 42 sec) 
Heartbeat CPU 1 instructions: 120000002 cycles: 334327791 heartbeat IPC: 0.215919 cumulative IPC: 0.218091 (Simulation time: 1 hr 8 min 2 sec) 
Heartbeat CPU 0 instructions: 130000002 cycles: 377877467 heartbeat IPC: 0.219422 cumulative IPC: 0.219401 (Simulation time: 1 hr 15 min 25 sec) 
Heartbeat CPU 3 instructions: 130000002 cycles: 377960220 heartbeat IPC: 0.219968 cumulative IPC: 0.219507 (Simulation time: 1 hr 15 min 26 sec) 
Heartbeat CPU 2 instructions: 130000002 cycles: 378162842 heartbeat IPC: 0.219442 cumulative IPC: 0.219383 (Simulation time: 1 hr 15 min 28 sec) 
Heartbeat CPU 1 instructions: 130000002 cycles: 380853226 heartbeat IPC: 0.214936 cumulative IPC: 0.217692 (Simulation time: 1 hr 15 min 54 sec) 
Heartbeat CPU 0 instructions: 140000001 cycles: 423315385 heartbeat IPC: 0.22008 cumulative IPC: 0.219477 (Simulation time: 1 hr 23 min 13 sec) 
Heartbeat CPU 3 instructions: 140000003 cycles: 423503924 heartbeat IPC: 0.219569 cumulative IPC: 0.219514 (Simulation time: 1 hr 23 min 14 sec) 
Heartbeat CPU 2 instructions: 140000003 cycles: 423694515 heartbeat IPC: 0.219627 cumulative IPC: 0.21941 (Simulation time: 1 hr 23 min 16 sec) 
Heartbeat CPU 1 instructions: 140000003 cycles: 427242782 heartbeat IPC: 0.215566 cumulative IPC: 0.217453 (Simulation time: 1 hr 23 min 50 sec) 
Heartbeat CPU 0 instructions: 150000001 cycles: 468634492 heartbeat IPC: 0.220657 cumulative IPC: 0.219594 (Simulation time: 1 hr 30 min 39 sec) 
Heartbeat CPU 3 instructions: 150000001 cycles: 468954894 heartbeat IPC: 0.220017 cumulative IPC: 0.219564 (Simulation time: 1 hr 30 min 42 sec) 
Heartbeat CPU 2 instructions: 150000001 cycles: 469311015 heartbeat IPC: 0.219219 cumulative IPC: 0.219391 (Simulation time: 1 hr 30 min 45 sec) 
Heartbeat CPU 1 instructions: 150000001 cycles: 472766251 heartbeat IPC: 0.219667 cumulative IPC: 0.217673 (Simulation time: 1 hr 31 min 17 sec) 
Heartbeat CPU 0 instructions: 160000000 cycles: 514630278 heartbeat IPC: 0.217411 cumulative IPC: 0.219394 (Simulation time: 1 hr 38 min 43 sec) 
Heartbeat CPU 3 instructions: 160000000 cycles: 514708559 heartbeat IPC: 0.218562 cumulative IPC: 0.219472 (Simulation time: 1 hr 38 min 44 sec) 
Heartbeat CPU 2 instructions: 160000000 cycles: 514979533 heartbeat IPC: 0.218969 cumulative IPC: 0.219352 (Simulation time: 1 hr 38 min 46 sec) 
Heartbeat CPU 1 instructions: 160000000 cycles: 518418386 heartbeat IPC: 0.219048 cumulative IPC: 0.217797 (Simulation time: 1 hr 39 min 18 sec) 
Heartbeat CPU 3 instructions: 170000000 cycles: 560163746 heartbeat IPC: 0.219997 cumulative IPC: 0.219516 (Simulation time: 1 hr 46 min 14 sec) 
Heartbeat CPU 0 instructions: 170000002 cycles: 560319811 heartbeat IPC: 0.218869 cumulative IPC: 0.21935 (Simulation time: 1 hr 46 min 16 sec) 
Heartbeat CPU 2 instructions: 170000001 cycles: 560774056 heartbeat IPC: 0.218367 cumulative IPC: 0.21927 (Simulation time: 1 hr 46 min 20 sec) 
Heartbeat CPU 1 instructions: 170000002 cycles: 564551298 heartbeat IPC: 0.216765 cumulative IPC: 0.217711 (Simulation time: 1 hr 46 min 56 sec) 
Heartbeat CPU 3 instructions: 180000001 cycles: 605861594 heartbeat IPC: 0.218829 cumulative IPC: 0.219463 (Simulation time: 1 hr 54 min 8 sec) 
Heartbeat CPU 0 instructions: 180000001 cycles: 605904953 heartbeat IPC: 0.21937 cumulative IPC: 0.219351 (Simulation time: 1 hr 54 min 8 sec) 
Heartbeat CPU 2 instructions: 180000001 cycles: 607022722 heartbeat IPC: 0.216222 cumulative IPC: 0.219032 (Simulation time: 1 hr 54 min 21 sec) 
Heartbeat CPU 1 instructions: 180000001 cycles: 610107357 heartbeat IPC: 0.21951 cumulative IPC: 0.217848 (Simulation time: 1 hr 54 min 53 sec) 
Heartbeat CPU 0 instructions: 190000002 cycles: 651522214 heartbeat IPC: 0.219215 cumulative IPC: 0.219342 (Simulation time: 2 hr 2 min 2 sec) 
Heartbeat CPU 3 instructions: 190000001 cycles: 651876716 heartbeat IPC: 0.21732 cumulative IPC: 0.219309 (Simulation time: 2 hr 2 min 5 sec) 
Heartbeat CPU 2 instructions: 190000002 cycles: 653008788 heartbeat IPC: 0.217457 cumulative IPC: 0.218919 (Simulation time: 2 hr 2 min 17 sec) 
Heartbeat CPU 1 instructions: 190000003 cycles: 655689313 heartbeat IPC: 0.219385 cumulative IPC: 0.217957 (Simulation time: 2 hr 2 min 44 sec) 
Heartbeat CPU 0 instructions: 200000003 cycles: 697082280 heartbeat IPC: 0.21949 cumulative IPC: 0.219352 (Simulation time: 2 hr 9 min 41 sec) 
Heartbeat CPU 3 instructions: 200000002 cycles: 697746235 heartbeat IPC: 0.21801 cumulative IPC: 0.219221 (Simulation time: 2 hr 9 min 47 sec) 
Heartbeat CPU 2 instructions: 200000001 cycles: 699180567 heartbeat IPC: 0.216582 cumulative IPC: 0.218762 (Simulation time: 2 hr 10 min 1 sec) 
Heartbeat CPU 1 instructions: 200000001 cycles: 701429081 heartbeat IPC: 0.218628 cumulative IPC: 0.218002 (Simulation time: 2 hr 10 min 23 sec) 
Heartbeat CPU 3 instructions: 210000003 cycles: 743006030 heartbeat IPC: 0.220947 cumulative IPC: 0.219328 (Simulation time: 2 hr 16 min 51 sec) 
Heartbeat CPU 0 instructions: 210000000 cycles: 743063728 heartbeat IPC: 0.217479 cumulative IPC: 0.219234 (Simulation time: 2 hr 16 min 52 sec) 
Heartbeat CPU 2 instructions: 210000000 cycles: 744417388 heartbeat IPC: 0.221059 cumulative IPC: 0.218904 (Simulation time: 2 hr 17 min 4 sec) 
Heartbeat CPU 1 instructions: 210000001 cycles: 746689195 heartbeat IPC: 0.220945 cumulative IPC: 0.218183 (Simulation time: 2 hr 17 min 25 sec) 
Heartbeat CPU 3 instructions: 220000000 cycles: 788486044 heartbeat IPC: 0.219877 cumulative IPC: 0.219361 (Simulation time: 2 hr 23 min 42 sec) 
Heartbeat CPU 0 instructions: 220000000 cycles: 789205434 heartbeat IPC: 0.216724 cumulative IPC: 0.219084 (Simulation time: 2 hr 23 min 48 sec) 
Heartbeat CPU 2 instructions: 220000000 cycles: 790130252 heartbeat IPC: 0.218757 cumulative IPC: 0.218895 (Simulation time: 2 hr 23 min 56 sec) 
Heartbeat CPU 1 instructions: 220000000 cycles: 792473358 heartbeat IPC: 0.218416 cumulative IPC: 0.218197 (Simulation time: 2 hr 24 min 17 sec) 
Heartbeat CPU 3 instructions: 230000003 cycles: 834133597 heartbeat IPC: 0.21907 cumulative IPC: 0.219344 (Simulation time: 2 hr 30 min 52 sec) 
Heartbeat CPU 0 instructions: 230000003 cycles: 834925840 heartbeat IPC: 0.218721 cumulative IPC: 0.219064 (Simulation time: 2 hr 31 min 0 sec) 
Heartbeat CPU 2 instructions: 230000003 cycles: 835907476 heartbeat IPC: 0.218449 cumulative IPC: 0.21887 (Simulation time: 2 hr 31 min 9 sec) 
Heartbeat CPU 1 instructions: 230000003 cycles: 838400663 heartbeat IPC: 0.217735 cumulative IPC: 0.218171 (Simulation time: 2 hr 31 min 32 sec) 
Heartbeat CPU 3 instructions: 240000000 cycles: 879670794 heartbeat IPC: 0.219601 cumulative IPC: 0.219358 (Simulation time: 2 hr 38 min 7 sec) 
Heartbeat CPU 0 instructions: 240000000 cycles: 880465189 heartbeat IPC: 0.21959 cumulative IPC: 0.219092 (Simulation time: 2 hr 38 min 16 sec) 
Heartbeat CPU 2 instructions: 240000000 cycles: 882315233 heartbeat IPC: 0.215481 cumulative IPC: 0.218689 (Simulation time: 2 hr 38 min 37 sec) 
Heartbeat CPU 1 instructions: 240000000 cycles: 883827672 heartbeat IPC: 0.220133 cumulative IPC: 0.218274 (Simulation time: 2 hr 38 min 53 sec) 
Heartbeat CPU 3 instructions: 250000001 cycles: 925260141 heartbeat IPC: 0.21935 cumulative IPC: 0.219358 (Simulation time: 2 hr 45 min 34 sec) 
Finished CPU 3 instructions: 200000002 cycles: 911753529 cumulative IPC: 0.219358 (Simulation time: 2 hr 45 min 34 sec) 
Heartbeat CPU 0 instructions: 250000001 cycles: 926238493 heartbeat IPC: 0.218468 cumulative IPC: 0.21906 (Simulation time: 2 hr 45 min 46 sec) 
Finished CPU 0 instructions: 200000002 cycles: 912972483 cumulative IPC: 0.219065 (Simulation time: 2 hr 45 min 49 sec) 
Heartbeat CPU 2 instructions: 250000001 cycles: 928505719 heartbeat IPC: 0.216495 cumulative IPC: 0.218579 (Simulation time: 2 hr 46 min 11 sec) 
Finished CPU 2 instructions: 200000003 cycles: 915007665 cumulative IPC: 0.218577 (Simulation time: 2 hr 46 min 11 sec) 
Heartbeat CPU 1 instructions: 250000001 cycles: 929513560 heartbeat IPC: 0.218886 cumulative IPC: 0.218304 (Simulation time: 2 hr 46 min 20 sec) 
Finished CPU 1 instructions: 200000001 cycles: 916171705 cumulative IPC: 0.2183 (Simulation time: 2 hr 46 min 22 sec) 

ChampSim completed all CPUs

Total Simulation Statistics (not including warmup)

CPU 0 cumulative IPC: 0.219072 instructions: 200707270 cycles: 916171705
ITLB TOTAL     ACCESS:   28854955  HIT:   28854955  MISS:          0  HIT %:        100  MISS %:          0   MPKI: 0
ITLB LOAD      ACCESS:          0  HIT:          0  MISS:          0  HIT %:       -nan  MISS %:       -nan   MPKI: 0
ITLB RFO       ACCESS:          0  HIT:          0  MISS:          0  HIT %:       -nan  MISS %:       -nan   MPKI: 0
ITLB PREFETCH  ACCESS:          0  HIT:          0  MISS:          0  HIT %:       -nan  MISS %:       -nan   MPKI: 0
ITLB WRITEBACK ACCESS:          0  HIT:          0  MISS:          0  HIT %:       -nan  MISS %:       -nan   MPKI: 0
DTLB TOTAL     ACCESS:   24139338  HIT:   24050074  MISS:      89264  HIT %:    99.6302  MISS %:   0.369786   MPKI: 0.444747
DTLB LOAD      ACCESS:          0  HIT:          0  MISS:          0  HIT %:       -nan  MISS %:       -nan   MPKI: 0
DTLB RFO       ACCESS:          0  HIT:          0  MISS:          0  HIT %:       -nan  MISS %:       -nan   MPKI: 0
DTLB PREFETCH  ACCESS:          0  HIT:          0  MISS:          0  HIT %:       -nan  MISS %:       -nan   MPKI: 0
DTLB WRITEBACK ACCESS:          0  HIT:          0  MISS:          0  HIT %:       -nan  MISS %:       -nan   MPKI: 0
STLB TOTAL     ACCESS:     484620  HIT:     395356  MISS:      89264  HIT %:    81.5806  MISS %:    18.4194   MPKI: 0.444747
STLB LOAD      ACCESS:          0  HIT:          0  MISS:          0  HIT %:       -nan  MISS %:       -nan   MPKI: 0
STLB RFO       ACCESS:          0  HIT:          0  MISS:          0  HIT %:       -nan  MISS %:       -nan   MPKI: 0
STLB PREFETCH  ACCESS:          0  HIT:          0  MISS:          0  HIT %:       -nan  MISS %:       -nan   MPKI: 0
STLB WRITEBACK ACCESS:          0  HIT:          0  MISS:          0  HIT %:       -nan  MISS %:       -nan   MPKI: 0
L1D TOTAL     ACCESS:   30266931  HIT:   20852296  MISS:    9414635  HIT %:    68.8946  MISS %:    31.1054   MPKI: 46.9073
L1D LOAD      ACCESS:   10831179  HIT:   10139962  MISS:     691217  HIT %:    93.6183  MISS %:    6.38173   MPKI: 3.44391
L1D RFO       ACCESS:   18700248  HIT:   10712186  MISS:    7988062  HIT %:    57.2837  MISS %:    42.7163   MPKI: 39.7996
L1D PREFETCH  ACCESS:     735504  HIT:        148  MISS:     735356  HIT %:  0.0201223  MISS %:    99.9799   MPKI: 3.66382
L1D WRITEBACK ACCESS:          0  HIT:          0  MISS:          0  HIT %:       -nan  MISS %:       -nan   MPKI: 0
L1I TOTAL     ACCESS:   40077944  HIT:   40077944  MISS:          0  HIT %:        100  MISS %:          0   MPKI: 0
L1I LOAD      ACCESS:   40077944  HIT:   40077944  MISS:          0  HIT %:        100  MISS %:          0   MPKI: 0
L1I RFO       ACCESS:          0  HIT:          0  MISS:          0  HIT %:       -nan  MISS %:       -nan   MPKI: 0
L1I PREFETCH  ACCESS:          0  HIT:          0  MISS:          0  HIT %:       -nan  MISS %:       -nan   MPKI: 0
L1I WRITEBACK ACCESS:          0  HIT:          0  MISS:          0  HIT %:       -nan  MISS %:       -nan   MPKI: 0
L2C TOTAL     ACCESS:   17491967  HIT:   11151725  MISS:    6340242  HIT %:    63.7534  MISS %:    36.2466   MPKI: 31.5895
L2C LOAD      ACCESS:     221168  HIT:          4  MISS:     221164  HIT %: 0.00180858  MISS %:    99.9982   MPKI: 1.10192
L2C RFO       ACCESS:    7988062  HIT:    3580575  MISS:    4407487  HIT %:    44.8241  MISS %:    55.1759   MPKI: 21.9598
L2C PREFETCH  ACCESS:    1205409  HIT:          0  MISS:    1205409  HIT %:          0  MISS %:        100   MPKI: 6.00581
L2C WRITEBACK ACCESS:    7988058  HIT:    7493680  MISS:     494378  HIT %:     93.811  MISS %:    6.18896   MPKI: 2.46318
PSCL5 TOTAL     ACCESS:      89264  HIT:      89264  MISS:          0  HIT %:        100  MISS %:          0   MPKI: 0
PSCL5 LOAD      ACCESS:          0  HIT:          0  MISS:          0  HIT %:       -nan  MISS %:       -nan   MPKI: 0
PSCL5 RFO       ACCESS:          0  HIT:          0  MISS:          0  HIT %:       -nan  MISS %:       -nan   MPKI: 0
PSCL5 PREFETCH  ACCESS:          0  HIT:          0  MISS:          0  HIT %:       -nan  MISS %:       -nan   MPKI: 0
PSCL5 WRITEBACK ACCESS:          0  HIT:          0  MISS:          0  HIT %:       -nan  MISS %:       -nan   MPKI: 0
PSCL4 TOTAL     ACCESS:      89264  HIT:      89264  MISS:          0  HIT %:        100  MISS %:          0   MPKI: 0
PSCL4 LOAD      ACCESS:          0  HIT:          0  MISS:          0  HIT %:       -nan  MISS %:       -nan   MPKI: 0
PSCL4 RFO       ACCESS:          0  HIT:          0  MISS:          0  HIT %:       -nan  MISS %:       -nan   MPKI: 0
PSCL4 PREFETCH  ACCESS:          0  HIT:          0  MISS:          0  HIT %:       -nan  MISS %:       -nan   MPKI: 0
PSCL4 WRITEBACK ACCESS:          0  HIT:          0  MISS:          0  HIT %:       -nan  MISS %:       -nan   MPKI: 0
PSCL3 TOTAL     ACCESS:      89264  HIT:      89264  MISS:          0  HIT %:        100  MISS %:          0   MPKI: 0
PSCL3 LOAD      ACCESS:          0  HIT:          0  MISS:          0  HIT %:       -nan  MISS %:       -nan   MPKI: 0
PSCL3 RFO       ACCESS:          0  HIT:          0  MISS:          0  HIT %:       -nan  MISS %:       -nan   MPKI: 0
PSCL3 PREFETCH  ACCESS:          0  HIT:          0  MISS:          0  HIT %:       -nan  MISS %:       -nan   MPKI: 0
PSCL3 WRITEBACK ACCESS:          0  HIT:          0  MISS:          0  HIT %:       -nan  MISS %:       -nan   MPKI: 0
PSCL2 TOTAL     ACCESS:      89264  HIT:      89170  MISS:         94  HIT %:    99.8947  MISS %:   0.105306   MPKI: 0.000468344
PSCL2 LOAD      ACCESS:          0  HIT:          0  MISS:          0  HIT %:       -nan  MISS %:       -nan   MPKI: 0
PSCL2 RFO       ACCESS:          0  HIT:          0  MISS:          0  HIT %:       -nan  MISS %:       -nan   MPKI: 0
PSCL2 PREFETCH  ACCESS:          0  HIT:          0  MISS:          0  HIT %:       -nan  MISS %:       -nan   MPKI: 0
PSCL2 WRITEBACK ACCESS:          0  HIT:          0  MISS:          0  HIT %:       -nan  MISS %:       -nan   MPKI: 0
=== CPU 0 L1D Prefetcher Statistics ===
[MLOP] History of tracked zone:
IIIIIIIIIIIIIIIIIIIIIIIIIIIIIIIIIIIIIIIIIIIIIIIIIIIIIIIIIIIIIIII
AII1I1111IIIIIIIIIIIIIIIIIIIIIIIIIIIIIIIIIIIIIIIIIIIIIIIIIIIIIII
AIIAI1111111IIIIIIIIIIIIIIIIIIIIIIIIIIIIIIIIIIIIIIIIIIIIIIIIIIII
AAIA11111111IIIIIIIIIIIIIIIIIIIIIIIIIIIIIIIIIIIIIIIIIIIIIIIIIIII
AAAA11111111IIIIIIIIIIIIIIIIIIIIIIIIIIIIIIIIIIIIIIIIIIIIIIIIIIII
AAAA1A11111111IIIIIIIIIIIIIIIIIIIIIIIIIIIIIIIIIIIIIIIIIIIIIIIIII
AAAAAA11111111IIIIIIIIIIIIIIIIIIIIIIIIIIIIIIIIIIIIIIIIIIIIIIIIII
AAAAAA11A11111111IIIIIIIIIIIIIIIIIIIIIIIIIIIIIIIIIIIIIIIIIIIIIII
AAAAAAA1A11111111IIIIIIIIIIIIIIIIIIIIIIIIIIIIIIIIIIIIIIIIIIIIIII
AAAAAAAAA11111111IIIIIIIIIIIIIIIIIIIIIIIIIIIIIIIIIIIIIIIIIIIIIII
AAAAAAAAA1A11111111IIIIIIIIIIIIIIIIIIIIIIIIIIIIIIIIIIIIIIIIIIIII
AAAAAAAAAAA11111111IIIIIIIIIIIIIIIIIIIIIIIIIIIIIIIIIIIIIIIIIIIII
AAAAAAAAAAA11A11111111IIIIIIIIIIIIIIIIIIIIIIIIIIIIIIIIIIIIIIIIII
AAAAAAAAAAAA1A11111111IIIIIIIIIIIIIIIIIIIIIIIIIIIIIIIIIIIIIIIIII
AAAAAAAAAAAAAA11111111IIIIIIIIIIIIIIIIIIIIIIIIIIIIIIIIIIIIIIIIII
AAAAAAAAAAAAAA1A11111111IIIIIIIIIIIIIIIIIIIIIIIIIIIIIIIIIIIIIIII
AAAAAAAAAAAAAAAA11111111IIIIIIIIIIIIIIIIIIIIIIIIIIIIIIIIIIIIIIII
AAAAAAAAAAAAAAAA11A11111111IIIIIIIIIIIIIIIIIIIIIIIIIIIIIIIIIIIII
AAAAAAAAAAAAAAAAA1A11111111IIIIIIIIIIIIIIIIIIIIIIIIIIIIIIIIIIIII
AAAAAAAAAAAAAAAAAAA11111111IIIIIIIIIIIIIIIIIIIIIIIIIIIIIIIIIIIII
AAAAAAAAAAAAAAAAAAA1A11111111IIIIIIIIIIIIIIIIIIIIIIIIIIIIIIIIIII
AAAAAAAAAAAAAAAAAAAAA11111111IIIIIIIIIIIIIIIIIIIIIIIIIIIIIIIIIII
AAAAAAAAAAAAAAAAAAAAA11A11111111IIIIIIIIIIIIIIIIIIIIIIIIIIIIIIII
AAAAAAAAAAAAAAAAAAAAAA1A11111111IIIIIIIIIIIIIIIIIIIIIIIIIIIIIIII
AAAAAAAAAAAAAAAAAAAAAAAA11111111IIIIIIIIIIIIIIIIIIIIIIIIIIIIIIII
AAAAAAAAAAAAAAAAAAAAAAAA1A11111111IIIIIIIIIIIIIIIIIIIIIIIIIIIIII
AAAAAAAAAAAAAAAAAAAAAAAAAA11111111IIIIIIIIIIIIIIIIIIIIIIIIIIIIII
AAAAAAAAAAAAAAAAAAAAAAAAAA11A11111111IIIIIIIIIIIIIIIIIIIIIIIIIII
AAAAAAAAAAAAAAAAAAAAAAAAAAA1A11111111IIIIIIIIIIIIIIIIIIIIIIIIIII
AAAAAAAAAAAAAAAAAAAAAAAAAAAAA11111111IIIIIIIIIIIIIIIIIIIIIIIIIII
AAAAAAAAAAAAAAAAAAAAAAAAAAAAA1A11111111IIIIIIIIIIIIIIIIIIIIIIIII
AAAAAAAAAAAAAAAAAAAAAAAAAAAAAAA11111111IIIIIIIIIIIIIIIIIIIIIIIII
AAAAAAAAAAAAAAAAAAAAAAAAAAAAAAA11A11111111IIIIIIIIIIIIIIIIIIIIII
AAAAAAAAAAAAAAAAAAAAAAAAAAAAAAAA1A11111111IIIIIIIIIIIIIIIIIIIIII
AAAAAAAAAAAAAAAAAAAAAAAAAAAAAAAAAA11111111IIIIIIIIIIIIIIIIIIIIII
AAAAAAAAAAAAAAAAAAAAAAAAAAAAAAAAAA1A11111111IIIIIIIIIIIIIIIIIIII
AAAAAAAAAAAAAAAAAAAAAAAAAAAAAAAAAAAA11111111IIIIIIIIIIIIIIIIIIII
AAAAAAAAAAAAAAAAAAAAAAAAAAAAAAAAAAAA11A11111111IIIIIIIIIIIIIIIII
AAAAAAAAAAAAAAAAAAAAAAAAAAAAAAAAAAAAA1A11111111IIIIIIIIIIIIIIIII
AAAAAAAAAAAAAAAAAAAAAAAAAAAAAAAAAAAAAAA11111111IIIIIIIIIIIIIIIII
AAAAAAAAAAAAAAAAAAAAAAAAAAAAAAAAAAAAAAA1A11111111IIIIIIIIIIIIIII
AAAAAAAAAAAAAAAAAAAAAAAAAAAAAAAAAAAAAAAAA11111111IIIIIIIIIIIIIII
AAAAAAAAAAAAAAAAAAAAAAAAAAAAAAAAAAAAAAAAA11A11111111IIIIIIIIIIII
AAAAAAAAAAAAAAAAAAAAAAAAAAAAAAAAAAAAAAAAAA1A11111111IIIIIIIIIIII
AAAAAAAAAAAAAAAAAAAAAAAAAAAAAAAAAAAAAAAAAAAA11111111IIIIIIIIIIII
AAAAAAAAAAAAAAAAAAAAAAAAAAAAAAAAAAAAAAAAAAAA1A11111111IIIIIIIIII
AAAAAAAAAAAAAAAAAAAAAAAAAAAAAAAAAAAAAAAAAAAAAA11111111IIIIIIIIII
AAAAAAAAAAAAAAAAAAAAAAAAAAAAAAAAAAAAAAAAAAAAAA11A11111111IIIIIII
AAAAAAAAAAAAAAAAAAAAAAAAAAAAAAAAAAAAAAAAAAAAAAA1A11111111IIIIIII
AAAAAAAAAAAAAAAAAAAAAAAAAAAAAAAAAAAAAAAAAAAAAAAAA11111111IIIIIII
AAAAAAAAAAAAAAAAAAAAAAAAAAAAAAAAAAAAAAAAAAAAAAAAA1A11111111IIIII
AAAAAAAAAAAAAAAAAAAAAAAAAAAAAAAAAAAAAAAAAAAAAAAAAAA11111111IIIII
AAAAAAAAAAAAAAAAAAAAAAAAAAAAAAAAAAAAAAAAAAAAAAAAAAA11A11111111II
AAAAAAAAAAAAAAAAAAAAAAAAAAAAAAAAAAAAAAAAAAAAAAAAAAAA1A11111111II
AAAAAAAAAAAAAAAAAAAAAAAAAAAAAAAAAAAAAAAAAAAAAAAAAAAAAA11111111II
AAAAAAAAAAAAAAAAAAAAAAAAAAAAAAAAAAAAAAAAAAAAAAAAAAAAAA1A11111111
AAAAAAAAAAAAAAAAAAAAAAAAAAAAAAAAAAAAAAAAAAAAAAAAAAAAAAAA11111111
AAAAAAAAAAAAAAAAAAAAAAAAAAAAAAAAAAAAAAAAAAAAAAAAAAAAAAAA11A11111
AAAAAAAAAAAAAAAAAAAAAAAAAAAAAAAAAAAAAAAAAAAAAAAAAAAAAAAAA1A11111
AAAAAAAAAAAAAAAAAAAAAAAAAAAAAAAAAAAAAAAAAAAAAAAAAAAAAAAAAAA11111
AAAAAAAAAAAAAAAAAAAAAAAAAAAAAAAAAAAAAAAAAAAAAAAAAAAAAAAAAAA1A111
AAAAAAAAAAAAAAAAAAAAAAAAAAAAAAAAAAAAAAAAAAAAAAAAAAAAAAAAAAAAA111
AAAAAAAAAAAAAAAAAAAAAAAAAAAAAAAAAAAAAAAAAAAAAAAAAAAAAAAAAAAAA11A
AAAAAAAAAAAAAAAAAAAAAAAAAAAAAAAAAAAAAAAAAAAAAAAAAAAAAAAAAAAAAA1A
AAAAAAAAAAAAAAAAAAAAAAAAAAAAAAAAAAAAAAAAAAAAAAAAAAAAAAAAAAAAAAAA
[MLOP] Prefetch Degree Mean: 6.8559
[MLOP] Prefetch Degree SD: 1.54168
[MLOP] Max Score Left Mean (%): 83.7389
[MLOP] Max Score Left SD (%): 10.4226
[MLOP] Max Score Right Mean (%): 92.7461
[MLOP] Max Score Right SD (%): 4.42166
LLC TOTAL     ACCESS:   10269089  HIT:    4239679  MISS:    6029410  HIT %:    41.2858  MISS %:    58.7142   MPKI: 30.0408
LLC LOAD      ACCESS:     221159  HIT:          0  MISS:     221159  HIT %:          0  MISS %:        100   MPKI: 1.1019
LLC RFO       ACCESS:    4407183  HIT:     128271  MISS:    4278912  HIT %:     2.9105  MISS %:    97.0895   MPKI: 21.3192
LLC PREFETCH  ACCESS:    1205414  HIT:          0  MISS:    1205414  HIT %:          0  MISS %:        100   MPKI: 6.00583
LLC WRITEBACK ACCESS:    4423529  HIT:    4110927  MISS:     312602  HIT %:    92.9332  MISS %:     7.0668   MPKI: 1.5575

RAW hits: 4498912
Loads Generated: 38262368
Loads sent to L1D: 33763456
Stores Generated: 20156395
Stores sent to L1D: 20156396

CPU 1 cumulative IPC: 0.2183 instructions: 200000001 cycles: 916171705
ITLB TOTAL     ACCESS:   28754354  HIT:   28754354  MISS:          0  HIT %:        100  MISS %:          0   MPKI: 0
ITLB LOAD      ACCESS:          0  HIT:          0  MISS:          0  HIT %:       -nan  MISS %:       -nan   MPKI: 0
ITLB RFO       ACCESS:          0  HIT:          0  MISS:          0  HIT %:       -nan  MISS %:       -nan   MPKI: 0
ITLB PREFETCH  ACCESS:          0  HIT:          0  MISS:          0  HIT %:       -nan  MISS %:       -nan   MPKI: 0
ITLB WRITEBACK ACCESS:          0  HIT:          0  MISS:          0  HIT %:       -nan  MISS %:       -nan   MPKI: 0
DTLB TOTAL     ACCESS:   24059117  HIT:   23970162  MISS:      88955  HIT %:    99.6303  MISS %:   0.369735   MPKI: 0.444775
DTLB LOAD      ACCESS:          0  HIT:          0  MISS:          0  HIT %:       -nan  MISS %:       -nan   MPKI: 0
DTLB RFO       ACCESS:          0  HIT:          0  MISS:          0  HIT %:       -nan  MISS %:       -nan   MPKI: 0
DTLB PREFETCH  ACCESS:          0  HIT:          0  MISS:          0  HIT %:       -nan  MISS %:       -nan   MPKI: 0
DTLB WRITEBACK ACCESS:          0  HIT:          0  MISS:          0  HIT %:       -nan  MISS %:       -nan   MPKI: 0
STLB TOTAL     ACCESS:     483329  HIT:     394374  MISS:      88955  HIT %:    81.5954  MISS %:    18.4046   MPKI: 0.444775
STLB LOAD      ACCESS:          0  HIT:          0  MISS:          0  HIT %:       -nan  MISS %:       -nan   MPKI: 0
STLB RFO       ACCESS:          0  HIT:          0  MISS:          0  HIT %:       -nan  MISS %:       -nan   MPKI: 0
STLB PREFETCH  ACCESS:          0  HIT:          0  MISS:          0  HIT %:       -nan  MISS %:       -nan   MPKI: 0
STLB WRITEBACK ACCESS:          0  HIT:          0  MISS:          0  HIT %:       -nan  MISS %:       -nan   MPKI: 0
L1D TOTAL     ACCESS:   30167002  HIT:   20784963  MISS:    9382039  HIT %:    68.8997  MISS %:    31.1003   MPKI: 46.9102
L1D LOAD      ACCESS:   10790020  HIT:   10099287  MISS:     690733  HIT %:    93.5984  MISS %:    6.40159   MPKI: 3.45366
L1D RFO       ACCESS:   18645949  HIT:   10685553  MISS:    7960396  HIT %:    57.3076  MISS %:    42.6924   MPKI: 39.802
L1D PREFETCH  ACCESS:     731033  HIT:        123  MISS:     730910  HIT %:  0.0168255  MISS %:    99.9832   MPKI: 3.65455
L1D WRITEBACK ACCESS:          0  HIT:          0  MISS:          0  HIT %:       -nan  MISS %:       -nan   MPKI: 0
L1I TOTAL     ACCESS:   39936077  HIT:   39936077  MISS:          0  HIT %:        100  MISS %:          0   MPKI: 0
L1I LOAD      ACCESS:   39936077  HIT:   39936077  MISS:          0  HIT %:        100  MISS %:          0   MPKI: 0
L1I RFO       ACCESS:          0  HIT:          0  MISS:          0  HIT %:       -nan  MISS %:       -nan   MPKI: 0
L1I PREFETCH  ACCESS:          0  HIT:          0  MISS:          0  HIT %:       -nan  MISS %:       -nan   MPKI: 0
L1I WRITEBACK ACCESS:          0  HIT:          0  MISS:          0  HIT %:       -nan  MISS %:       -nan   MPKI: 0
L2C TOTAL     ACCESS:   17431504  HIT:   11113878  MISS:    6317626  HIT %:    63.7574  MISS %:    36.2426   MPKI: 31.5881
L2C LOAD      ACCESS:     221141  HIT:        103  MISS:     221038  HIT %:  0.0465766  MISS %:    99.9534   MPKI: 1.10519
L2C RFO       ACCESS:    7960397  HIT:    3568075  MISS:    4392322  HIT %:    44.8228  MISS %:    55.1772   MPKI: 21.9616
L2C PREFETCH  ACCESS:    1200609  HIT:          4  MISS:    1200605  HIT %: 0.000333164  MISS %:    99.9997   MPKI: 6.00302
L2C WRITEBACK ACCESS:    7960396  HIT:    7468472  MISS:     491924  HIT %:    93.8204  MISS %:    6.17964   MPKI: 2.45962
PSCL5 TOTAL     ACCESS:      88955  HIT:      88955  MISS:          0  HIT %:        100  MISS %:          0   MPKI: 0
PSCL5 LOAD      ACCESS:          0  HIT:          0  MISS:          0  HIT %:       -nan  MISS %:       -nan   MPKI: 0
PSCL5 RFO       ACCESS:          0  HIT:          0  MISS:          0  HIT %:       -nan  MISS %:       -nan   MPKI: 0
PSCL5 PREFETCH  ACCESS:          0  HIT:          0  MISS:          0  HIT %:       -nan  MISS %:       -nan   MPKI: 0
PSCL5 WRITEBACK ACCESS:          0  HIT:          0  MISS:          0  HIT %:       -nan  MISS %:       -nan   MPKI: 0
PSCL4 TOTAL     ACCESS:      88955  HIT:      88955  MISS:          0  HIT %:        100  MISS %:          0   MPKI: 0
PSCL4 LOAD      ACCESS:          0  HIT:          0  MISS:          0  HIT %:       -nan  MISS %:       -nan   MPKI: 0
PSCL4 RFO       ACCESS:          0  HIT:          0  MISS:          0  HIT %:       -nan  MISS %:       -nan   MPKI: 0
PSCL4 PREFETCH  ACCESS:          0  HIT:          0  MISS:          0  HIT %:       -nan  MISS %:       -nan   MPKI: 0
PSCL4 WRITEBACK ACCESS:          0  HIT:          0  MISS:          0  HIT %:       -nan  MISS %:       -nan   MPKI: 0
PSCL3 TOTAL     ACCESS:      88955  HIT:      88955  MISS:          0  HIT %:        100  MISS %:          0   MPKI: 0
PSCL3 LOAD      ACCESS:          0  HIT:          0  MISS:          0  HIT %:       -nan  MISS %:       -nan   MPKI: 0
PSCL3 RFO       ACCESS:          0  HIT:          0  MISS:          0  HIT %:       -nan  MISS %:       -nan   MPKI: 0
PSCL3 PREFETCH  ACCESS:          0  HIT:          0  MISS:          0  HIT %:       -nan  MISS %:       -nan   MPKI: 0
PSCL3 WRITEBACK ACCESS:          0  HIT:          0  MISS:          0  HIT %:       -nan  MISS %:       -nan   MPKI: 0
PSCL2 TOTAL     ACCESS:      88955  HIT:      88862  MISS:         93  HIT %:    99.8955  MISS %:   0.104547   MPKI: 0.000465
PSCL2 LOAD      ACCESS:          0  HIT:          0  MISS:          0  HIT %:       -nan  MISS %:       -nan   MPKI: 0
PSCL2 RFO       ACCESS:          0  HIT:          0  MISS:          0  HIT %:       -nan  MISS %:       -nan   MPKI: 0
PSCL2 PREFETCH  ACCESS:          0  HIT:          0  MISS:          0  HIT %:       -nan  MISS %:       -nan   MPKI: 0
PSCL2 WRITEBACK ACCESS:          0  HIT:          0  MISS:          0  HIT %:       -nan  MISS %:       -nan   MPKI: 0
=== CPU 1 L1D Prefetcher Statistics ===
[MLOP] History of tracked zone:
IIIIIIIIIIIIIIIIIIIIIIIIIIIIIIIIIIIIIIIIIIIIIIIIIIIIIIIIIIIIIIII
AII1I1111IIIIIIIIIIIIIIIIIIIIIIIIIIIIIIIIIIIIIIIIIIIIIIIIIIIIIII
AIIAI1111111IIIIIIIIIIIIIIIIIIIIIIIIIIIIIIIIIIIIIIIIIIIIIIIIIIII
AAIA11111111IIIIIIIIIIIIIIIIIIIIIIIIIIIIIIIIIIIIIIIIIIIIIIIIIIII
AAAA11111111IIIIIIIIIIIIIIIIIIIIIIIIIIIIIIIIIIIIIIIIIIIIIIIIIIII
AAAA1A11111111IIIIIIIIIIIIIIIIIIIIIIIIIIIIIIIIIIIIIIIIIIIIIIIIII
AAAAAA11111111IIIIIIIIIIIIIIIIIIIIIIIIIIIIIIIIIIIIIIIIIIIIIIIIII
AAAAAA11A11111111IIIIIIIIIIIIIIIIIIIIIIIIIIIIIIIIIIIIIIIIIIIIIII
AAAAAAA1A11111111IIIIIIIIIIIIIIIIIIIIIIIIIIIIIIIIIIIIIIIIIIIIIII
AAAAAAAAA11111111IIIIIIIIIIIIIIIIIIIIIIIIIIIIIIIIIIIIIIIIIIIIIII
AAAAAAAAA1A11111111IIIIIIIIIIIIIIIIIIIIIIIIIIIIIIIIIIIIIIIIIIIII
AAAAAAAAAAA11111111IIIIIIIIIIIIIIIIIIIIIIIIIIIIIIIIIIIIIIIIIIIII
AAAAAAAAAAA11A11111111IIIIIIIIIIIIIIIIIIIIIIIIIIIIIIIIIIIIIIIIII
AAAAAAAAAAAA1A11111111IIIIIIIIIIIIIIIIIIIIIIIIIIIIIIIIIIIIIIIIII
AAAAAAAAAAAAAA11111111IIIIIIIIIIIIIIIIIIIIIIIIIIIIIIIIIIIIIIIIII
AAAAAAAAAAAAAA1A11111111IIIIIIIIIIIIIIIIIIIIIIIIIIIIIIIIIIIIIIII
AAAAAAAAAAAAAAAA11111111IIIIIIIIIIIIIIIIIIIIIIIIIIIIIIIIIIIIIIII
AAAAAAAAAAAAAAAA11A11111111IIIIIIIIIIIIIIIIIIIIIIIIIIIIIIIIIIIII
AAAAAAAAAAAAAAAAA1A11111111IIIIIIIIIIIIIIIIIIIIIIIIIIIIIIIIIIIII
AAAAAAAAAAAAAAAAAAA11111111IIIIIIIIIIIIIIIIIIIIIIIIIIIIIIIIIIIII
AAAAAAAAAAAAAAAAAAA1A11111111IIIIIIIIIIIIIIIIIIIIIIIIIIIIIIIIIII
AAAAAAAAAAAAAAAAAAAAA11111111IIIIIIIIIIIIIIIIIIIIIIIIIIIIIIIIIII
AAAAAAAAAAAAAAAAAAAAA11A11111111IIIIIIIIIIIIIIIIIIIIIIIIIIIIIIII
AAAAAAAAAAAAAAAAAAAAAA1A11111111IIIIIIIIIIIIIIIIIIIIIIIIIIIIIIII
AAAAAAAAAAAAAAAAAAAAAAAA11111111IIIIIIIIIIIIIIIIIIIIIIIIIIIIIIII
AAAAAAAAAAAAAAAAAAAAAAAA1A11111111IIIIIIIIIIIIIIIIIIIIIIIIIIIIII
AAAAAAAAAAAAAAAAAAAAAAAAAA11111111IIIIIIIIIIIIIIIIIIIIIIIIIIIIII
AAAAAAAAAAAAAAAAAAAAAAAAAA11A11111111IIIIIIIIIIIIIIIIIIIIIIIIIII
AAAAAAAAAAAAAAAAAAAAAAAAAAA1A11111111IIIIIIIIIIIIIIIIIIIIIIIIIII
AAAAAAAAAAAAAAAAAAAAAAAAAAAAA11111111IIIIIIIIIIIIIIIIIIIIIIIIIII
AAAAAAAAAAAAAAAAAAAAAAAAAAAAA1A11111111IIIIIIIIIIIIIIIIIIIIIIIII
AAAAAAAAAAAAAAAAAAAAAAAAAAAAAAA11111111IIIIIIIIIIIIIIIIIIIIIIIII
AAAAAAAAAAAAAAAAAAAAAAAAAAAAAAA11A11111111IIIIIIIIIIIIIIIIIIIIII
AAAAAAAAAAAAAAAAAAAAAAAAAAAAAAAA1A11111111IIIIIIIIIIIIIIIIIIIIII
AAAAAAAAAAAAAAAAAAAAAAAAAAAAAAAAAA11111111IIIIIIIIIIIIIIIIIIIIII
AAAAAAAAAAAAAAAAAAAAAAAAAAAAAAAAAA1A11111111IIIIIIIIIIIIIIIIIIII
AAAAAAAAAAAAAAAAAAAAAAAAAAAAAAAAAAAA11111111IIIIIIIIIIIIIIIIIIII
AAAAAAAAAAAAAAAAAAAAAAAAAAAAAAAAAAAA11A11111111IIIIIIIIIIIIIIIII
AAAAAAAAAAAAAAAAAAAAAAAAAAAAAAAAAAAAA1A11111111IIIIIIIIIIIIIIIII
AAAAAAAAAAAAAAAAAAAAAAAAAAAAAAAAAAAAAAA11111111IIIIIIIIIIIIIIIII
AAAAAAAAAAAAAAAAAAAAAAAAAAAAAAAAAAAAAAA1A11111111IIIIIIIIIIIIIII
AAAAAAAAAAAAAAAAAAAAAAAAAAAAAAAAAAAAAAAAA11111111IIIIIIIIIIIIIII
AAAAAAAAAAAAAAAAAAAAAAAAAAAAAAAAAAAAAAAAA11A11111111IIIIIIIIIIII
AAAAAAAAAAAAAAAAAAAAAAAAAAAAAAAAAAAAAAAAAA1A11111111IIIIIIIIIIII
AAAAAAAAAAAAAAAAAAAAAAAAAAAAAAAAAAAAAAAAAAAA11111111IIIIIIIIIIII
AAAAAAAAAAAAAAAAAAAAAAAAAAAAAAAAAAAAAAAAAAAA1A11111111IIIIIIIIII
AAAAAAAAAAAAAAAAAAAAAAAAAAAAAAAAAAAAAAAAAAAAAA11111111IIIIIIIIII
AAAAAAAAAAAAAAAAAAAAAAAAAAAAAAAAAAAAAAAAAAAAAA11A11111111IIIIIII
AAAAAAAAAAAAAAAAAAAAAAAAAAAAAAAAAAAAAAAAAAAAAAA1A11111111IIIIIII
AAAAAAAAAAAAAAAAAAAAAAAAAAAAAAAAAAAAAAAAAAAAAAAAA11111111IIIIIII
AAAAAAAAAAAAAAAAAAAAAAAAAAAAAAAAAAAAAAAAAAAAAAAAA1A11111111IIIII
AAAAAAAAAAAAAAAAAAAAAAAAAAAAAAAAAAAAAAAAAAAAAAAAAAA11111111IIIII
AAAAAAAAAAAAAAAAAAAAAAAAAAAAAAAAAAAAAAAAAAAAAAAAAAA11A11111111II
AAAAAAAAAAAAAAAAAAAAAAAAAAAAAAAAAAAAAAAAAAAAAAAAAAAA1A11111111II
AAAAAAAAAAAAAAAAAAAAAAAAAAAAAAAAAAAAAAAAAAAAAAAAAAAAAA11111111II
AAAAAAAAAAAAAAAAAAAAAAAAAAAAAAAAAAAAAAAAAAAAAAAAAAAAAA1A11111111
AAAAAAAAAAAAAAAAAAAAAAAAAAAAAAAAAAAAAAAAAAAAAAAAAAAAAAAA11111111
AAAAAAAAAAAAAAAAAAAAAAAAAAAAAAAAAAAAAAAAAAAAAAAAAAAAAAAA11A11111
AAAAAAAAAAAAAAAAAAAAAAAAAAAAAAAAAAAAAAAAAAAAAAAAAAAAAAAAA1A11111
AAAAAAAAAAAAAAAAAAAAAAAAAAAAAAAAAAAAAAAAAAAAAAAAAAAAAAAAAAA11111
AAAAAAAAAAAAAAAAAAAAAAAAAAAAAAAAAAAAAAAAAAAAAAAAAAAAAAAAAAA1A111
AAAAAAAAAAAAAAAAAAAAAAAAAAAAAAAAAAAAAAAAAAAAAAAAAAAAAAAAAAAAA111
AAAAAAAAAAAAAAAAAAAAAAAAAAAAAAAAAAAAAAAAAAAAAAAAAAAAAAAAAAAAA11A
AAAAAAAAAAAAAAAAAAAAAAAAAAAAAAAAAAAAAAAAAAAAAAAAAAAAAAAAAAAAAA1A
AAAAAAAAAAAAAAAAAAAAAAAAAAAAAAAAAAAAAAAAAAAAAAAAAAAAAAAAAAAAAAAA
[MLOP] Prefetch Degree Mean: 6.87174
[MLOP] Prefetch Degree SD: 1.54599
[MLOP] Max Score Left Mean (%): 83.7275
[MLOP] Max Score Left SD (%): 9.9701
[MLOP] Max Score Right Mean (%): 92.7094
[MLOP] Max Score Right SD (%): 4.64622
LLC TOTAL     ACCESS:   10234382  HIT:    4371704  MISS:    5862678  HIT %:    42.7159  MISS %:    57.2841   MPKI: 29.3134
LLC LOAD      ACCESS:     220959  HIT:          0  MISS:     220959  HIT %:          0  MISS %:        100   MPKI: 1.10479
LLC RFO       ACCESS:    4392050  HIT:     127992  MISS:    4264058  HIT %:    2.91417  MISS %:    97.0858   MPKI: 21.3203
LLC PREFETCH  ACCESS:    1200684  HIT:          0  MISS:    1200684  HIT %:          0  MISS %:        100   MPKI: 6.00342
LLC WRITEBACK ACCESS:    4408952  HIT:    4243252  MISS:     165700  HIT %:    96.2417  MISS %:    3.75826   MPKI: 0.8285

RAW hits: 4484998
Loads Generated: 38127909
Loads sent to L1D: 33642909
Stores Generated: 20085909
Stores sent to L1D: 20085928

CPU 2 cumulative IPC: 0.218575 instructions: 200252282 cycles: 916171705
ITLB TOTAL     ACCESS:   28788722  HIT:   28788722  MISS:          0  HIT %:        100  MISS %:          0   MPKI: 0
ITLB LOAD      ACCESS:          0  HIT:          0  MISS:          0  HIT %:       -nan  MISS %:       -nan   MPKI: 0
ITLB RFO       ACCESS:          0  HIT:          0  MISS:          0  HIT %:       -nan  MISS %:       -nan   MPKI: 0
ITLB PREFETCH  ACCESS:          0  HIT:          0  MISS:          0  HIT %:       -nan  MISS %:       -nan   MPKI: 0
ITLB WRITEBACK ACCESS:          0  HIT:          0  MISS:          0  HIT %:       -nan  MISS %:       -nan   MPKI: 0
DTLB TOTAL     ACCESS:   24081053  HIT:   23991989  MISS:      89064  HIT %:    99.6301  MISS %:   0.369851   MPKI: 0.444759
DTLB LOAD      ACCESS:          0  HIT:          0  MISS:          0  HIT %:       -nan  MISS %:       -nan   MPKI: 0
DTLB RFO       ACCESS:          0  HIT:          0  MISS:          0  HIT %:       -nan  MISS %:       -nan   MPKI: 0
DTLB PREFETCH  ACCESS:          0  HIT:          0  MISS:          0  HIT %:       -nan  MISS %:       -nan   MPKI: 0
DTLB WRITEBACK ACCESS:          0  HIT:          0  MISS:          0  HIT %:       -nan  MISS %:       -nan   MPKI: 0
STLB TOTAL     ACCESS:     483543  HIT:     394479  MISS:      89064  HIT %:     81.581  MISS %:     18.419   MPKI: 0.444759
STLB LOAD      ACCESS:          0  HIT:          0  MISS:          0  HIT %:       -nan  MISS %:       -nan   MPKI: 0
STLB RFO       ACCESS:          0  HIT:          0  MISS:          0  HIT %:       -nan  MISS %:       -nan   MPKI: 0
STLB PREFETCH  ACCESS:          0  HIT:          0  MISS:          0  HIT %:       -nan  MISS %:       -nan   MPKI: 0
STLB WRITEBACK ACCESS:          0  HIT:          0  MISS:          0  HIT %:       -nan  MISS %:       -nan   MPKI: 0
L1D TOTAL     ACCESS:   30192224  HIT:   20798573  MISS:    9393651  HIT %:    68.8872  MISS %:    31.1128   MPKI: 46.9091
L1D LOAD      ACCESS:   10801408  HIT:   10111172  MISS:     690236  HIT %:    93.6098  MISS %:    6.39024   MPKI: 3.44683
L1D RFO       ACCESS:   18657534  HIT:   10687272  MISS:    7970262  HIT %:    57.2813  MISS %:    42.7187   MPKI: 39.8011
L1D PREFETCH  ACCESS:     733282  HIT:        129  MISS:     733153  HIT %:  0.0175921  MISS %:    99.9824   MPKI: 3.66115
L1D WRITEBACK ACCESS:          0  HIT:          0  MISS:          0  HIT %:       -nan  MISS %:       -nan   MPKI: 0
L1I TOTAL     ACCESS:   39983810  HIT:   39983810  MISS:          0  HIT %:        100  MISS %:          0   MPKI: 0
L1I LOAD      ACCESS:   39983810  HIT:   39983810  MISS:          0  HIT %:        100  MISS %:          0   MPKI: 0
L1I RFO       ACCESS:          0  HIT:          0  MISS:          0  HIT %:       -nan  MISS %:       -nan   MPKI: 0
L1I PREFETCH  ACCESS:          0  HIT:          0  MISS:          0  HIT %:       -nan  MISS %:       -nan   MPKI: 0
L1I WRITEBACK ACCESS:          0  HIT:          0  MISS:          0  HIT %:       -nan  MISS %:       -nan   MPKI: 0
L2C TOTAL     ACCESS:   17453068  HIT:   11116658  MISS:    6336410  HIT %:    63.6946  MISS %:    36.3054   MPKI: 31.6421
L2C LOAD      ACCESS:     221320  HIT:         89  MISS:     221231  HIT %:  0.0402133  MISS %:    99.9598   MPKI: 1.10476
L2C RFO       ACCESS:    7970261  HIT:    3570340  MISS:    4399921  HIT %:    44.7958  MISS %:    55.2042   MPKI: 21.9719
L2C PREFETCH  ACCESS:    1202166  HIT:          8  MISS:    1202158  HIT %: 0.000665466  MISS %:    99.9993   MPKI: 6.00322
L2C WRITEBACK ACCESS:    7970251  HIT:    7468902  MISS:     501349  HIT %:    93.7097  MISS %:    6.29025   MPKI: 2.50359
PSCL5 TOTAL     ACCESS:      89064  HIT:      89064  MISS:          0  HIT %:        100  MISS %:          0   MPKI: 0
PSCL5 LOAD      ACCESS:          0  HIT:          0  MISS:          0  HIT %:       -nan  MISS %:       -nan   MPKI: 0
PSCL5 RFO       ACCESS:          0  HIT:          0  MISS:          0  HIT %:       -nan  MISS %:       -nan   MPKI: 0
PSCL5 PREFETCH  ACCESS:          0  HIT:          0  MISS:          0  HIT %:       -nan  MISS %:       -nan   MPKI: 0
PSCL5 WRITEBACK ACCESS:          0  HIT:          0  MISS:          0  HIT %:       -nan  MISS %:       -nan   MPKI: 0
PSCL4 TOTAL     ACCESS:      89064  HIT:      89064  MISS:          0  HIT %:        100  MISS %:          0   MPKI: 0
PSCL4 LOAD      ACCESS:          0  HIT:          0  MISS:          0  HIT %:       -nan  MISS %:       -nan   MPKI: 0
PSCL4 RFO       ACCESS:          0  HIT:          0  MISS:          0  HIT %:       -nan  MISS %:       -nan   MPKI: 0
PSCL4 PREFETCH  ACCESS:          0  HIT:          0  MISS:          0  HIT %:       -nan  MISS %:       -nan   MPKI: 0
PSCL4 WRITEBACK ACCESS:          0  HIT:          0  MISS:          0  HIT %:       -nan  MISS %:       -nan   MPKI: 0
PSCL3 TOTAL     ACCESS:      89064  HIT:      89064  MISS:          0  HIT %:        100  MISS %:          0   MPKI: 0
PSCL3 LOAD      ACCESS:          0  HIT:          0  MISS:          0  HIT %:       -nan  MISS %:       -nan   MPKI: 0
PSCL3 RFO       ACCESS:          0  HIT:          0  MISS:          0  HIT %:       -nan  MISS %:       -nan   MPKI: 0
PSCL3 PREFETCH  ACCESS:          0  HIT:          0  MISS:          0  HIT %:       -nan  MISS %:       -nan   MPKI: 0
PSCL3 WRITEBACK ACCESS:          0  HIT:          0  MISS:          0  HIT %:       -nan  MISS %:       -nan   MPKI: 0
PSCL2 TOTAL     ACCESS:      89064  HIT:      88971  MISS:         93  HIT %:    99.8956  MISS %:   0.104419   MPKI: 0.000464414
PSCL2 LOAD      ACCESS:          0  HIT:          0  MISS:          0  HIT %:       -nan  MISS %:       -nan   MPKI: 0
PSCL2 RFO       ACCESS:          0  HIT:          0  MISS:          0  HIT %:       -nan  MISS %:       -nan   MPKI: 0
PSCL2 PREFETCH  ACCESS:          0  HIT:          0  MISS:          0  HIT %:       -nan  MISS %:       -nan   MPKI: 0
PSCL2 WRITEBACK ACCESS:          0  HIT:          0  MISS:          0  HIT %:       -nan  MISS %:       -nan   MPKI: 0
=== CPU 2 L1D Prefetcher Statistics ===
[MLOP] History of tracked zone:
IIIIIIIIIIIIIIIIIIIIIIIIIIIIIIIIIIIIIIIIIIIIIIIIIIIIIIIIIIIIIIII
AII1I1111IIIIIIIIIIIIIIIIIIIIIIIIIIIIIIIIIIIIIIIIIIIIIIIIIIIIIII
AIIAI1111111IIIIIIIIIIIIIIIIIIIIIIIIIIIIIIIIIIIIIIIIIIIIIIIIIIII
AAIA11111111IIIIIIIIIIIIIIIIIIIIIIIIIIIIIIIIIIIIIIIIIIIIIIIIIIII
AAAA11111111IIIIIIIIIIIIIIIIIIIIIIIIIIIIIIIIIIIIIIIIIIIIIIIIIIII
AAAA1A11111111IIIIIIIIIIIIIIIIIIIIIIIIIIIIIIIIIIIIIIIIIIIIIIIIII
AAAAAA11111111IIIIIIIIIIIIIIIIIIIIIIIIIIIIIIIIIIIIIIIIIIIIIIIIII
AAAAAA11A11111111IIIIIIIIIIIIIIIIIIIIIIIIIIIIIIIIIIIIIIIIIIIIIII
AAAAAAA1A11111111IIIIIIIIIIIIIIIIIIIIIIIIIIIIIIIIIIIIIIIIIIIIIII
AAAAAAAAA11111111IIIIIIIIIIIIIIIIIIIIIIIIIIIIIIIIIIIIIIIIIIIIIII
AAAAAAAAA1A11111111IIIIIIIIIIIIIIIIIIIIIIIIIIIIIIIIIIIIIIIIIIIII
AAAAAAAAAAA11111111IIIIIIIIIIIIIIIIIIIIIIIIIIIIIIIIIIIIIIIIIIIII
AAAAAAAAAAA11A11111111IIIIIIIIIIIIIIIIIIIIIIIIIIIIIIIIIIIIIIIIII
AAAAAAAAAAAA1A11111111IIIIIIIIIIIIIIIIIIIIIIIIIIIIIIIIIIIIIIIIII
AAAAAAAAAAAAAA11111111IIIIIIIIIIIIIIIIIIIIIIIIIIIIIIIIIIIIIIIIII
AAAAAAAAAAAAAA1A11111111IIIIIIIIIIIIIIIIIIIIIIIIIIIIIIIIIIIIIIII
AAAAAAAAAAAAAAAA11111111IIIIIIIIIIIIIIIIIIIIIIIIIIIIIIIIIIIIIIII
AAAAAAAAAAAAAAAA11A11111111IIIIIIIIIIIIIIIIIIIIIIIIIIIIIIIIIIIII
AAAAAAAAAAAAAAAAA1A11111111IIIIIIIIIIIIIIIIIIIIIIIIIIIIIIIIIIIII
AAAAAAAAAAAAAAAAAAA11111111IIIIIIIIIIIIIIIIIIIIIIIIIIIIIIIIIIIII
AAAAAAAAAAAAAAAAAAA1A11111111IIIIIIIIIIIIIIIIIIIIIIIIIIIIIIIIIII
AAAAAAAAAAAAAAAAAAAAA11111111IIIIIIIIIIIIIIIIIIIIIIIIIIIIIIIIIII
AAAAAAAAAAAAAAAAAAAAA11A11111111IIIIIIIIIIIIIIIIIIIIIIIIIIIIIIII
AAAAAAAAAAAAAAAAAAAAAA1A11111111IIIIIIIIIIIIIIIIIIIIIIIIIIIIIIII
AAAAAAAAAAAAAAAAAAAAAAAA11111111IIIIIIIIIIIIIIIIIIIIIIIIIIIIIIII
AAAAAAAAAAAAAAAAAAAAAAAA1A11111111IIIIIIIIIIIIIIIIIIIIIIIIIIIIII
AAAAAAAAAAAAAAAAAAAAAAAAAA11111111IIIIIIIIIIIIIIIIIIIIIIIIIIIIII
AAAAAAAAAAAAAAAAAAAAAAAAAA11A11111111IIIIIIIIIIIIIIIIIIIIIIIIIII
AAAAAAAAAAAAAAAAAAAAAAAAAAA1A11111111IIIIIIIIIIIIIIIIIIIIIIIIIII
AAAAAAAAAAAAAAAAAAAAAAAAAAAAA11111111IIIIIIIIIIIIIIIIIIIIIIIIIII
AAAAAAAAAAAAAAAAAAAAAAAAAAAAA1A11111111IIIIIIIIIIIIIIIIIIIIIIIII
AAAAAAAAAAAAAAAAAAAAAAAAAAAAAAA11111111IIIIIIIIIIIIIIIIIIIIIIIII
AAAAAAAAAAAAAAAAAAAAAAAAAAAAAAA11A11111111IIIIIIIIIIIIIIIIIIIIII
AAAAAAAAAAAAAAAAAAAAAAAAAAAAAAAA1A11111111IIIIIIIIIIIIIIIIIIIIII
AAAAAAAAAAAAAAAAAAAAAAAAAAAAAAAAAA11111111IIIIIIIIIIIIIIIIIIIIII
AAAAAAAAAAAAAAAAAAAAAAAAAAAAAAAAAA1A11111111IIIIIIIIIIIIIIIIIIII
AAAAAAAAAAAAAAAAAAAAAAAAAAAAAAAAAAAA11111111IIIIIIIIIIIIIIIIIIII
AAAAAAAAAAAAAAAAAAAAAAAAAAAAAAAAAAAA11A11111111IIIIIIIIIIIIIIIII
AAAAAAAAAAAAAAAAAAAAAAAAAAAAAAAAAAAAA1A11111111IIIIIIIIIIIIIIIII
AAAAAAAAAAAAAAAAAAAAAAAAAAAAAAAAAAAAAAA11111111IIIIIIIIIIIIIIIII
AAAAAAAAAAAAAAAAAAAAAAAAAAAAAAAAAAAAAAA1A11111111IIIIIIIIIIIIIII
AAAAAAAAAAAAAAAAAAAAAAAAAAAAAAAAAAAAAAAAA11111111IIIIIIIIIIIIIII
AAAAAAAAAAAAAAAAAAAAAAAAAAAAAAAAAAAAAAAAA11A11111111IIIIIIIIIIII
AAAAAAAAAAAAAAAAAAAAAAAAAAAAAAAAAAAAAAAAAA1A11111111IIIIIIIIIIII
AAAAAAAAAAAAAAAAAAAAAAAAAAAAAAAAAAAAAAAAAAAA11111111IIIIIIIIIIII
AAAAAAAAAAAAAAAAAAAAAAAAAAAAAAAAAAAAAAAAAAAA1A11111111IIIIIIIIII
AAAAAAAAAAAAAAAAAAAAAAAAAAAAAAAAAAAAAAAAAAAAAA11111111IIIIIIIIII
AAAAAAAAAAAAAAAAAAAAAAAAAAAAAAAAAAAAAAAAAAAAAA11A11111111IIIIIII
AAAAAAAAAAAAAAAAAAAAAAAAAAAAAAAAAAAAAAAAAAAAAAA1A11111111IIIIIII
AAAAAAAAAAAAAAAAAAAAAAAAAAAAAAAAAAAAAAAAAAAAAAAAA11111111IIIIIII
AAAAAAAAAAAAAAAAAAAAAAAAAAAAAAAAAAAAAAAAAAAAAAAAA1A11111111IIIII
AAAAAAAAAAAAAAAAAAAAAAAAAAAAAAAAAAAAAAAAAAAAAAAAAAA11111111IIIII
AAAAAAAAAAAAAAAAAAAAAAAAAAAAAAAAAAAAAAAAAAAAAAAAAAA11A11111111II
AAAAAAAAAAAAAAAAAAAAAAAAAAAAAAAAAAAAAAAAAAAAAAAAAAAA1A11111111II
AAAAAAAAAAAAAAAAAAAAAAAAAAAAAAAAAAAAAAAAAAAAAAAAAAAAAA11111111II
AAAAAAAAAAAAAAAAAAAAAAAAAAAAAAAAAAAAAAAAAAAAAAAAAAAAAA1A11111111
AAAAAAAAAAAAAAAAAAAAAAAAAAAAAAAAAAAAAAAAAAAAAAAAAAAAAAAA11111111
AAAAAAAAAAAAAAAAAAAAAAAAAAAAAAAAAAAAAAAAAAAAAAAAAAAAAAAA11A11111
AAAAAAAAAAAAAAAAAAAAAAAAAAAAAAAAAAAAAAAAAAAAAAAAAAAAAAAAA1A11111
AAAAAAAAAAAAAAAAAAAAAAAAAAAAAAAAAAAAAAAAAAAAAAAAAAAAAAAAAAA11111
AAAAAAAAAAAAAAAAAAAAAAAAAAAAAAAAAAAAAAAAAAAAAAAAAAAAAAAAAAA1A111
AAAAAAAAAAAAAAAAAAAAAAAAAAAAAAAAAAAAAAAAAAAAAAAAAAAAAAAAAAAAA111
AAAAAAAAAAAAAAAAAAAAAAAAAAAAAAAAAAAAAAAAAAAAAAAAAAAAAAAAAAAAA11A
AAAAAAAAAAAAAAAAAAAAAAAAAAAAAAAAAAAAAAAAAAAAAAAAAAAAAAAAAAAAAA1A
AAAAAAAAAAAAAAAAAAAAAAAAAAAAAAAAAAAAAAAAAAAAAAAAAAAAAAAAAAAAAAAA
[MLOP] Prefetch Degree Mean: 6.88035
[MLOP] Prefetch Degree SD: 1.55798
[MLOP] Max Score Left Mean (%): 83.7687
[MLOP] Max Score Left SD (%): 9.26683
[MLOP] Max Score Right Mean (%): 92.5771
[MLOP] Max Score Right SD (%): 5.1947
LLC TOTAL     ACCESS:   10251684  HIT:    4383444  MISS:    5868240  HIT %:    42.7583  MISS %:    57.2417   MPKI: 29.3042
LLC LOAD      ACCESS:     221136  HIT:          0  MISS:     221136  HIT %:          0  MISS %:        100   MPKI: 1.10429
LLC RFO       ACCESS:    4399613  HIT:     130217  MISS:    4269396  HIT %:    2.95974  MISS %:    97.0403   MPKI: 21.3201
LLC PREFETCH  ACCESS:    1202253  HIT:          0  MISS:    1202253  HIT %:          0  MISS %:        100   MPKI: 6.00369
LLC WRITEBACK ACCESS:    4416931  HIT:    4252767  MISS:     164164  HIT %:    96.2833  MISS %:     3.7167   MPKI: 0.819786

RAW hits: 4489485
Loads Generated: 38175876
Loads sent to L1D: 33686389
Stores Generated: 20111061
Stores sent to L1D: 20111071

CPU 3 cumulative IPC: 0.219373 instructions: 200983253 cycles: 916171705
ITLB TOTAL     ACCESS:   28895060  HIT:   28895060  MISS:          0  HIT %:        100  MISS %:          0   MPKI: 0
ITLB LOAD      ACCESS:          0  HIT:          0  MISS:          0  HIT %:       -nan  MISS %:       -nan   MPKI: 0
ITLB RFO       ACCESS:          0  HIT:          0  MISS:          0  HIT %:       -nan  MISS %:       -nan   MPKI: 0
ITLB PREFETCH  ACCESS:          0  HIT:          0  MISS:          0  HIT %:       -nan  MISS %:       -nan   MPKI: 0
ITLB WRITEBACK ACCESS:          0  HIT:          0  MISS:          0  HIT %:       -nan  MISS %:       -nan   MPKI: 0
DTLB TOTAL     ACCESS:   24177902  HIT:   24088519  MISS:      89383  HIT %:    99.6303  MISS %:   0.369689   MPKI: 0.444729
DTLB LOAD      ACCESS:          0  HIT:          0  MISS:          0  HIT %:       -nan  MISS %:       -nan   MPKI: 0
DTLB RFO       ACCESS:          0  HIT:          0  MISS:          0  HIT %:       -nan  MISS %:       -nan   MPKI: 0
DTLB PREFETCH  ACCESS:          0  HIT:          0  MISS:          0  HIT %:       -nan  MISS %:       -nan   MPKI: 0
DTLB WRITEBACK ACCESS:          0  HIT:          0  MISS:          0  HIT %:       -nan  MISS %:       -nan   MPKI: 0
STLB TOTAL     ACCESS:     485648  HIT:     396265  MISS:      89383  HIT %:    81.5951  MISS %:    18.4049   MPKI: 0.444729
STLB LOAD      ACCESS:          0  HIT:          0  MISS:          0  HIT %:       -nan  MISS %:       -nan   MPKI: 0
STLB RFO       ACCESS:          0  HIT:          0  MISS:          0  HIT %:       -nan  MISS %:       -nan   MPKI: 0
STLB PREFETCH  ACCESS:          0  HIT:          0  MISS:          0  HIT %:       -nan  MISS %:       -nan   MPKI: 0
STLB WRITEBACK ACCESS:          0  HIT:          0  MISS:          0  HIT %:       -nan  MISS %:       -nan   MPKI: 0
L1D TOTAL     ACCESS:   30316120  HIT:   20888780  MISS:    9427340  HIT %:    68.9032  MISS %:    31.0968   MPKI: 46.9061
L1D LOAD      ACCESS:   10845686  HIT:   10152952  MISS:     692734  HIT %:    93.6128  MISS %:    6.38718   MPKI: 3.44672
L1D RFO       ACCESS:   18734539  HIT:   10735694  MISS:    7998845  HIT %:    57.3043  MISS %:    42.6957   MPKI: 39.7986
L1D PREFETCH  ACCESS:     735895  HIT:        134  MISS:     735761  HIT %:  0.0182091  MISS %:    99.9818   MPKI: 3.66081
L1D WRITEBACK ACCESS:          0  HIT:          0  MISS:          0  HIT %:       -nan  MISS %:       -nan   MPKI: 0
L1I TOTAL     ACCESS:   40132697  HIT:   40132697  MISS:          0  HIT %:        100  MISS %:          0   MPKI: 0
L1I LOAD      ACCESS:   40132697  HIT:   40132697  MISS:          0  HIT %:        100  MISS %:          0   MPKI: 0
L1I RFO       ACCESS:          0  HIT:          0  MISS:          0  HIT %:       -nan  MISS %:       -nan   MPKI: 0
L1I PREFETCH  ACCESS:          0  HIT:          0  MISS:          0  HIT %:       -nan  MISS %:       -nan   MPKI: 0
L1I WRITEBACK ACCESS:          0  HIT:          0  MISS:          0  HIT %:       -nan  MISS %:       -nan   MPKI: 0
L2C TOTAL     ACCESS:   17515673  HIT:   11180528  MISS:    6335145  HIT %:    63.8316  MISS %:    36.1684   MPKI: 31.5208
L2C LOAD      ACCESS:     220613  HIT:         98  MISS:     220515  HIT %:  0.0444217  MISS %:    99.9556   MPKI: 1.09718
L2C RFO       ACCESS:    7998845  HIT:    3592254  MISS:    4406591  HIT %:    44.9097  MISS %:    55.0903   MPKI: 21.9252
L2C PREFETCH  ACCESS:    1207988  HIT:          8  MISS:    1207980  HIT %: 0.000662258  MISS %:    99.9993   MPKI: 6.01035
L2C WRITEBACK ACCESS:    7998838  HIT:    7510507  MISS:     488331  HIT %:     93.895  MISS %:    6.10502   MPKI: 2.42971
PSCL5 TOTAL     ACCESS:      89383  HIT:      89383  MISS:          0  HIT %:        100  MISS %:          0   MPKI: 0
PSCL5 LOAD      ACCESS:          0  HIT:          0  MISS:          0  HIT %:       -nan  MISS %:       -nan   MPKI: 0
PSCL5 RFO       ACCESS:          0  HIT:          0  MISS:          0  HIT %:       -nan  MISS %:       -nan   MPKI: 0
PSCL5 PREFETCH  ACCESS:          0  HIT:          0  MISS:          0  HIT %:       -nan  MISS %:       -nan   MPKI: 0
PSCL5 WRITEBACK ACCESS:          0  HIT:          0  MISS:          0  HIT %:       -nan  MISS %:       -nan   MPKI: 0
PSCL4 TOTAL     ACCESS:      89383  HIT:      89383  MISS:          0  HIT %:        100  MISS %:          0   MPKI: 0
PSCL4 LOAD      ACCESS:          0  HIT:          0  MISS:          0  HIT %:       -nan  MISS %:       -nan   MPKI: 0
PSCL4 RFO       ACCESS:          0  HIT:          0  MISS:          0  HIT %:       -nan  MISS %:       -nan   MPKI: 0
PSCL4 PREFETCH  ACCESS:          0  HIT:          0  MISS:          0  HIT %:       -nan  MISS %:       -nan   MPKI: 0
PSCL4 WRITEBACK ACCESS:          0  HIT:          0  MISS:          0  HIT %:       -nan  MISS %:       -nan   MPKI: 0
PSCL3 TOTAL     ACCESS:      89383  HIT:      89383  MISS:          0  HIT %:        100  MISS %:          0   MPKI: 0
PSCL3 LOAD      ACCESS:          0  HIT:          0  MISS:          0  HIT %:       -nan  MISS %:       -nan   MPKI: 0
PSCL3 RFO       ACCESS:          0  HIT:          0  MISS:          0  HIT %:       -nan  MISS %:       -nan   MPKI: 0
PSCL3 PREFETCH  ACCESS:          0  HIT:          0  MISS:          0  HIT %:       -nan  MISS %:       -nan   MPKI: 0
PSCL3 WRITEBACK ACCESS:          0  HIT:          0  MISS:          0  HIT %:       -nan  MISS %:       -nan   MPKI: 0
PSCL2 TOTAL     ACCESS:      89383  HIT:      89289  MISS:         94  HIT %:    99.8948  MISS %:   0.105165   MPKI: 0.000467701
PSCL2 LOAD      ACCESS:          0  HIT:          0  MISS:          0  HIT %:       -nan  MISS %:       -nan   MPKI: 0
PSCL2 RFO       ACCESS:          0  HIT:          0  MISS:          0  HIT %:       -nan  MISS %:       -nan   MPKI: 0
PSCL2 PREFETCH  ACCESS:          0  HIT:          0  MISS:          0  HIT %:       -nan  MISS %:       -nan   MPKI: 0
PSCL2 WRITEBACK ACCESS:          0  HIT:          0  MISS:          0  HIT %:       -nan  MISS %:       -nan   MPKI: 0
=== CPU 3 L1D Prefetcher Statistics ===
[MLOP] History of tracked zone:
IIIIIIIIIIIIIIIIIIIIIIIIIIIIIIIIIIIIIIIIIIIIIIIIIIIIIIIIIIIIIIII
AII1I1111IIIIIIIIIIIIIIIIIIIIIIIIIIIIIIIIIIIIIIIIIIIIIIIIIIIIIII
AIIAI1111111IIIIIIIIIIIIIIIIIIIIIIIIIIIIIIIIIIIIIIIIIIIIIIIIIIII
AAIA11111111IIIIIIIIIIIIIIIIIIIIIIIIIIIIIIIIIIIIIIIIIIIIIIIIIIII
AAAA11111111IIIIIIIIIIIIIIIIIIIIIIIIIIIIIIIIIIIIIIIIIIIIIIIIIIII
AAAA1A11111111IIIIIIIIIIIIIIIIIIIIIIIIIIIIIIIIIIIIIIIIIIIIIIIIII
AAAAAA11111111IIIIIIIIIIIIIIIIIIIIIIIIIIIIIIIIIIIIIIIIIIIIIIIIII
AAAAAA11A11111111IIIIIIIIIIIIIIIIIIIIIIIIIIIIIIIIIIIIIIIIIIIIIII
AAAAAAA1A11111111IIIIIIIIIIIIIIIIIIIIIIIIIIIIIIIIIIIIIIIIIIIIIII
AAAAAAAAA11111111IIIIIIIIIIIIIIIIIIIIIIIIIIIIIIIIIIIIIIIIIIIIIII
AAAAAAAAA1A11111111IIIIIIIIIIIIIIIIIIIIIIIIIIIIIIIIIIIIIIIIIIIII
AAAAAAAAAAA11111111IIIIIIIIIIIIIIIIIIIIIIIIIIIIIIIIIIIIIIIIIIIII
AAAAAAAAAAA11A11111111IIIIIIIIIIIIIIIIIIIIIIIIIIIIIIIIIIIIIIIIII
AAAAAAAAAAAA1A11111111IIIIIIIIIIIIIIIIIIIIIIIIIIIIIIIIIIIIIIIIII
AAAAAAAAAAAAAA11111111IIIIIIIIIIIIIIIIIIIIIIIIIIIIIIIIIIIIIIIIII
AAAAAAAAAAAAAA1A11111111IIIIIIIIIIIIIIIIIIIIIIIIIIIIIIIIIIIIIIII
AAAAAAAAAAAAAAAA11111111IIIIIIIIIIIIIIIIIIIIIIIIIIIIIIIIIIIIIIII
AAAAAAAAAAAAAAAA11A11111111IIIIIIIIIIIIIIIIIIIIIIIIIIIIIIIIIIIII
AAAAAAAAAAAAAAAAA1A11111111IIIIIIIIIIIIIIIIIIIIIIIIIIIIIIIIIIIII
AAAAAAAAAAAAAAAAAAA11111111IIIIIIIIIIIIIIIIIIIIIIIIIIIIIIIIIIIII
AAAAAAAAAAAAAAAAAAA1A11111111IIIIIIIIIIIIIIIIIIIIIIIIIIIIIIIIIII
AAAAAAAAAAAAAAAAAAAAA11111111IIIIIIIIIIIIIIIIIIIIIIIIIIIIIIIIIII
AAAAAAAAAAAAAAAAAAAAA11A11111111IIIIIIIIIIIIIIIIIIIIIIIIIIIIIIII
AAAAAAAAAAAAAAAAAAAAAA1A11111111IIIIIIIIIIIIIIIIIIIIIIIIIIIIIIII
AAAAAAAAAAAAAAAAAAAAAAAA11111111IIIIIIIIIIIIIIIIIIIIIIIIIIIIIIII
AAAAAAAAAAAAAAAAAAAAAAAA1A11111111IIIIIIIIIIIIIIIIIIIIIIIIIIIIII
AAAAAAAAAAAAAAAAAAAAAAAAAA11111111IIIIIIIIIIIIIIIIIIIIIIIIIIIIII
AAAAAAAAAAAAAAAAAAAAAAAAAA11A11111111IIIIIIIIIIIIIIIIIIIIIIIIIII
AAAAAAAAAAAAAAAAAAAAAAAAAAA1A11111111IIIIIIIIIIIIIIIIIIIIIIIIIII
AAAAAAAAAAAAAAAAAAAAAAAAAAAAA11111111IIIIIIIIIIIIIIIIIIIIIIIIIII
AAAAAAAAAAAAAAAAAAAAAAAAAAAAA1A11111111IIIIIIIIIIIIIIIIIIIIIIIII
AAAAAAAAAAAAAAAAAAAAAAAAAAAAAAA11111111IIIIIIIIIIIIIIIIIIIIIIIII
AAAAAAAAAAAAAAAAAAAAAAAAAAAAAAA11A11111111IIIIIIIIIIIIIIIIIIIIII
AAAAAAAAAAAAAAAAAAAAAAAAAAAAAAAA1A11111111IIIIIIIIIIIIIIIIIIIIII
AAAAAAAAAAAAAAAAAAAAAAAAAAAAAAAAAA11111111IIIIIIIIIIIIIIIIIIIIII
AAAAAAAAAAAAAAAAAAAAAAAAAAAAAAAAAA1A11111111IIIIIIIIIIIIIIIIIIII
AAAAAAAAAAAAAAAAAAAAAAAAAAAAAAAAAAAA11111111IIIIIIIIIIIIIIIIIIII
AAAAAAAAAAAAAAAAAAAAAAAAAAAAAAAAAAAA11A11111111IIIIIIIIIIIIIIIII
AAAAAAAAAAAAAAAAAAAAAAAAAAAAAAAAAAAAA1A11111111IIIIIIIIIIIIIIIII
AAAAAAAAAAAAAAAAAAAAAAAAAAAAAAAAAAAAAAA11111111IIIIIIIIIIIIIIIII
AAAAAAAAAAAAAAAAAAAAAAAAAAAAAAAAAAAAAAA1A11111111IIIIIIIIIIIIIII
AAAAAAAAAAAAAAAAAAAAAAAAAAAAAAAAAAAAAAAAA11111111IIIIIIIIIIIIIII
AAAAAAAAAAAAAAAAAAAAAAAAAAAAAAAAAAAAAAAAA11A11111111IIIIIIIIIIII
AAAAAAAAAAAAAAAAAAAAAAAAAAAAAAAAAAAAAAAAAA1A11111111IIIIIIIIIIII
AAAAAAAAAAAAAAAAAAAAAAAAAAAAAAAAAAAAAAAAAAAA11111111IIIIIIIIIIII
AAAAAAAAAAAAAAAAAAAAAAAAAAAAAAAAAAAAAAAAAAAA1A11111111IIIIIIIIII
AAAAAAAAAAAAAAAAAAAAAAAAAAAAAAAAAAAAAAAAAAAAAA11111111IIIIIIIIII
AAAAAAAAAAAAAAAAAAAAAAAAAAAAAAAAAAAAAAAAAAAAAA11A11111111IIIIIII
AAAAAAAAAAAAAAAAAAAAAAAAAAAAAAAAAAAAAAAAAAAAAAA1A11111111IIIIIII
AAAAAAAAAAAAAAAAAAAAAAAAAAAAAAAAAAAAAAAAAAAAAAAAA11111111IIIIIII
AAAAAAAAAAAAAAAAAAAAAAAAAAAAAAAAAAAAAAAAAAAAAAAAA1A11111111IIIII
AAAAAAAAAAAAAAAAAAAAAAAAAAAAAAAAAAAAAAAAAAAAAAAAAAA11111111IIIII
AAAAAAAAAAAAAAAAAAAAAAAAAAAAAAAAAAAAAAAAAAAAAAAAAAA11A11111111II
AAAAAAAAAAAAAAAAAAAAAAAAAAAAAAAAAAAAAAAAAAAAAAAAAAAA1A11111111II
AAAAAAAAAAAAAAAAAAAAAAAAAAAAAAAAAAAAAAAAAAAAAAAAAAAAAA11111111II
AAAAAAAAAAAAAAAAAAAAAAAAAAAAAAAAAAAAAAAAAAAAAAAAAAAAAA1A11111111
AAAAAAAAAAAAAAAAAAAAAAAAAAAAAAAAAAAAAAAAAAAAAAAAAAAAAAAA11111111
AAAAAAAAAAAAAAAAAAAAAAAAAAAAAAAAAAAAAAAAAAAAAAAAAAAAAAAA11A11111
AAAAAAAAAAAAAAAAAAAAAAAAAAAAAAAAAAAAAAAAAAAAAAAAAAAAAAAAA1A11111
AAAAAAAAAAAAAAAAAAAAAAAAAAAAAAAAAAAAAAAAAAAAAAAAAAAAAAAAAAA11111
AAAAAAAAAAAAAAAAAAAAAAAAAAAAAAAAAAAAAAAAAAAAAAAAAAAAAAAAAAA1A111
AAAAAAAAAAAAAAAAAAAAAAAAAAAAAAAAAAAAAAAAAAAAAAAAAAAAAAAAAAAAA111
AAAAAAAAAAAAAAAAAAAAAAAAAAAAAAAAAAAAAAAAAAAAAAAAAAAAAAAAAAAAA11A
AAAAAAAAAAAAAAAAAAAAAAAAAAAAAAAAAAAAAAAAAAAAAAAAAAAAAAAAAAAAAA1A
AAAAAAAAAAAAAAAAAAAAAAAAAAAAAAAAAAAAAAAAAAAAAAAAAAAAAAAAAAAAAAAA
[MLOP] Prefetch Degree Mean: 6.86903
[MLOP] Prefetch Degree SD: 1.58121
[MLOP] Max Score Left Mean (%): 83.8352
[MLOP] Max Score Left SD (%): 9.45425
[MLOP] Max Score Right Mean (%): 92.601
[MLOP] Max Score Right SD (%): 5.04862
LLC TOTAL     ACCESS:   10268432  HIT:    4381397  MISS:    5887035  HIT %:    42.6686  MISS %:    57.3314   MPKI: 29.2912
LLC LOAD      ACCESS:     220435  HIT:          0  MISS:     220435  HIT %:          0  MISS %:        100   MPKI: 1.09678
LLC RFO       ACCESS:    4406295  HIT:     121578  MISS:    4284717  HIT %:    2.75919  MISS %:    97.2408   MPKI: 21.3188
LLC PREFETCH  ACCESS:    1208060  HIT:          0  MISS:    1208060  HIT %:          0  MISS %:        100   MPKI: 6.01075
LLC WRITEBACK ACCESS:    4421914  HIT:    4259419  MISS:     162495  HIT %:    96.3252  MISS %:    3.67477   MPKI: 0.8085

RAW hits: 4506391
Loads Generated: 38314821
Loads sent to L1D: 33808428
Stores Generated: 20183893
Stores sent to L1D: 20183910

Region of Interest Statistics

CPU 0 cumulative IPC: 0.219065 instructions: 200000002 cycles: 912972483
ITLB TOTAL     ACCESS:   28753213  HIT:   28753213  MISS:          0  HIT %:        100  MISS %:          0   MPKI: 0
ITLB LOAD TRANSLATION ACCESS:   28753213  HIT:   28753213  MISS:          0  HIT %:        100  MISS %:          0   MPKI: 0
ITLB PREFETCH  REQUESTED:          0  ISSUED:          0  USEFUL:          0  USELESS:          0
ITLB USEFUL LOAD PREFETCHES:          0 PREFETCH ISSUED TO LOWER LEVEL:          0  ACCURACY: -nan
ITLB TIMELY PREFETCHES:          0 LATE PREFETCHES: 0 DROPPED PREFETCHES: 0
ITLB PREFETCHES SAME FILL-ORIGIN LEVEL: 0 DIFFERENT FILL-ORIGIN LEVEL: 0
ITLB AVERAGE MISS LATENCY: -nan cycles
ITLB RQ	ACCESS:   40077944	FORWARD:          0	MERGED:   11222989	TO_CACHE:   28854955

DTLB TOTAL     ACCESS:   24055132  HIT:   23966176  MISS:      88956  HIT %:    99.6302  MISS %:   0.369801   MPKI: 0.44478
DTLB LOAD TRANSLATION ACCESS:   24055132  HIT:   23966176  MISS:      88956  HIT %:    99.6302  MISS %:   0.369801   MPKI: 0.44478
DTLB PREFETCH  REQUESTED:          0  ISSUED:          0  USEFUL:          0  USELESS:          0
DTLB USEFUL LOAD PREFETCHES:          0 PREFETCH ISSUED TO LOWER LEVEL:          0  ACCURACY: -nan
DTLB TIMELY PREFETCHES:          0 LATE PREFETCHES: 0 DROPPED PREFETCHES: 0
DTLB PREFETCHES SAME FILL-ORIGIN LEVEL: 0 DIFFERENT FILL-ORIGIN LEVEL: 0
DTLB AVERAGE MISS LATENCY: 401.482 cycles
DTLB RQ	ACCESS:   30043367	FORWARD:          0	MERGED:    5862497	TO_CACHE:   24180870

STLB TOTAL     ACCESS:     482962  HIT:     394006  MISS:      88956  HIT %:    81.5812  MISS %:    18.4188   MPKI: 0.44478
STLB LOAD TRANSLATION ACCESS:      88956  HIT:          0  MISS:      88956  HIT %:          0  MISS %:        100   MPKI: 0.44478
STLB TRANSLATION FROM L1D PREFETCHER ACCESS:     394006  HIT:     394006  MISS:          0  HIT %:        100  MISS %:          0   MPKI: 0
STLB PREFETCH  REQUESTED:          0  ISSUED:          0  USEFUL:          0  USELESS:          0
STLB USEFUL LOAD PREFETCHES:          0 PREFETCH ISSUED TO LOWER LEVEL:          0  ACCURACY: -nan
STLB TIMELY PREFETCHES:          0 LATE PREFETCHES: 0 DROPPED PREFETCHES: 0
STLB PREFETCHES SAME FILL-ORIGIN LEVEL: 0 DIFFERENT FILL-ORIGIN LEVEL: 0
STLB AVERAGE MISS LATENCY: 392.45 cycles
STLB RQ	ACCESS:    1306497	FORWARD:          0	MERGED:     821877	TO_CACHE:     484620

STLB Hit, L1D data hit: 0
STLB Hit, L2C data hit: 0
STLB Hit, LLC data hit: 0
STLB Hit, LLC data miss: 0
STLB STLB hints to L2: 0
L1D TOTAL     ACCESS:   30161660  HIT:   20779646  MISS:    9382014  HIT %:    68.8942  MISS %:    31.1058   MPKI: 46.9101
L1D LOAD      ACCESS:   10793225  HIT:   10104322  MISS:     688903  HIT %:    93.6173  MISS %:    6.38274   MPKI: 3.44451
L1D RFO       ACCESS:   18635553  HIT:   10675176  MISS:    7960377  HIT %:    57.2839  MISS %:    42.7161   MPKI: 39.8019
L1D PREFETCH  ACCESS:     732882  HIT:        148  MISS:     732734  HIT %:  0.0201942  MISS %:    99.9798   MPKI: 3.66367
L1D PREFETCH  REQUESTED:    2434510  ISSUED:    2434510  USEFUL:     735363  USELESS:          0
L1D USEFUL LOAD PREFETCHES:     735363 PREFETCH ISSUED TO LOWER LEVEL:    1205418  ACCURACY: 61.0048
L1D TIMELY PREFETCHES:     735363 LATE PREFETCHES: 470050 DROPPED PREFETCHES: 0
L1D PREFETCHES SAME FILL-ORIGIN LEVEL: 1205408 DIFFERENT FILL-ORIGIN LEVEL: 10
L1D AVERAGE MISS LATENCY: 1134.87 cycles
L1D RQ	ACCESS:   33763456	FORWARD:          0	MERGED:   19247162	TO_CACHE:   11120772
L1D WQ	ACCESS:   20156396	FORWARD:    3395522	MERGED:    1233801	TO_CACHE:   18922595
L1D PQ	ACCESS:    1217277	FORWARD:          0	MERGED:         44	TO_CACHE:    1217233

L1D UNIQUE REGIONS ACCESSED: 0
L1D REGIONS CONFLICTS: 0
L1D Cross Page Prefetch Requests: 0
L1D Same Page Prefetch Requests: 1568853
L1D ROI Sum of L1D PQ occupancy: 86643997
L1D PREFETCHES PUSHED FROM L2C: 0
L1I TOTAL     ACCESS:   39936673  HIT:   39936673  MISS:          0  HIT %:        100  MISS %:          0   MPKI: 0
L1I LOAD      ACCESS:   39936673  HIT:   39936673  MISS:          0  HIT %:        100  MISS %:          0   MPKI: 0
L1I PREFETCH  REQUESTED:          0  ISSUED:          0  USEFUL:          0  USELESS:          0
L1I USEFUL LOAD PREFETCHES:          0 PREFETCH ISSUED TO LOWER LEVEL:          0  ACCURACY: -nan
L1I TIMELY PREFETCHES:          0 LATE PREFETCHES: 0 DROPPED PREFETCHES: 0
L1I PREFETCHES SAME FILL-ORIGIN LEVEL: 0 DIFFERENT FILL-ORIGIN LEVEL: 0
L1I AVERAGE MISS LATENCY: -nan cycles
L1I RQ	ACCESS:   55075242	FORWARD:          0	MERGED:   14997298	TO_CACHE:   40077944

BTB TOTAL     ACCESS:    2206716  HIT:    2206716  MISS:          0  HIT %:        100  MISS %:          0   MPKI: 0
BTB BRANCH_DIRECT_JUMP	ACCESS:    1092086  HIT:    1092086  MISS:          0
BTB BRANCH_INDIRECT	ACCESS:          0  HIT:          0  MISS:          0
BTB BRANCH_CONDITIONAL	ACCESS:    1114630  HIT:    1114630  MISS:          0
BTB BRANCH_DIRECT_CALL	ACCESS:          0  HIT:          0  MISS:          0
BTB BRANCH_INDIRECT_CALL	ACCESS:          0  HIT:          0  MISS:          0
BTB BRANCH_RETURN	ACCESS:          0  HIT:          0  MISS:          0
BTB BRANCH_OTHER ACCESS:          0  HIT:          0  MISS:          0

L2C TOTAL     ACCESS:   17431361  HIT:   11112944  MISS:    6318417  HIT %:    63.7526  MISS %:    36.2474   MPKI: 31.5921
L2C LOAD      ACCESS:     220455  HIT:          4  MISS:     220451  HIT %: 0.00181443  MISS %:    99.9982   MPKI: 1.10225
L2C DATA LOAD MPKI: 1.10225
L2C INSTRUCTION LOAD MPKI: 0
L2C RFO       ACCESS:    7960377  HIT:    3568139  MISS:    4392238  HIT %:    44.8237  MISS %:    55.1763   MPKI: 21.9612
L2C PREFETCH  ACCESS:    1201186  HIT:          0  MISS:    1201186  HIT %:          0  MISS %:        100   MPKI: 6.00593
L2C DATA PREFETCH MPKI: 6.00593
L2C INSTRUCTION PREFETCH MPKI: 0
L2C WRITEBACK ACCESS:    7960381  HIT:    7467603  MISS:     492778  HIT %:    93.8096  MISS %:    6.19038   MPKI: 2.46389
L2C LOAD TRANSLATION ACCESS:      88962  HIT:      77198  MISS:      11764  HIT %:    86.7764  MISS %:    13.2236   MPKI: 0.05882
L2C PREFETCH  REQUESTED:          0  ISSUED:          0  USEFUL:          4  USELESS:    1205473
L2C USEFUL LOAD PREFETCHES:          4 PREFETCH ISSUED TO LOWER LEVEL:    1205417  ACCURACY: 0.000331835
L2C TIMELY PREFETCHES:          4 LATE PREFETCHES: 5 DROPPED PREFETCHES: 0
L2C PREFETCHES SAME FILL-ORIGIN LEVEL: 10 DIFFERENT FILL-ORIGIN LEVEL: 0
L2C AVERAGE MISS LATENCY: 1846.01 cycles
L2C RQ	ACCESS:    8298505	FORWARD:          0	MERGED:          0	TO_CACHE:    8298505
L2C WQ	ACCESS:    7988058	FORWARD:          0	MERGED:          0	TO_CACHE:    7988058
L2C PQ	ACCESS:    1205418	FORWARD:          0	MERGED:          0	TO_CACHE:    1205418

L2C Instructions Evicting Data 0
L2C Translations Evicting Data 11803
L2C Data Evicting Data 5823075
L2C Instructions Evicting Instructions 0
L2C Translations Evicting Instructions 0
L2C Data Evicting Instructions 0
L2C Instructions Evicting Translations 0
L2C Translations Evicting Translations 1
L2C Data Evicting Translations 10985
L2C Dense regions hint from L2: 0
PSCL5 TOTAL     ACCESS:      88956  HIT:      88956  MISS:          0  HIT %:        100  MISS %:          0   MPKI: 0
PSCL5 LOAD TRANSLATION ACCESS:      88956  HIT:      88956  MISS:          0  HIT %:        100  MISS %:          0   MPKI: 0
PSCL5 PREFETCH  REQUESTED:          0  ISSUED:          0  USEFUL:          0  USELESS:          0
PSCL5 USEFUL LOAD PREFETCHES:          0 PREFETCH ISSUED TO LOWER LEVEL:          0  ACCURACY: -nan
PSCL5 TIMELY PREFETCHES:          0 LATE PREFETCHES: 0 DROPPED PREFETCHES: 0
PSCL5 PREFETCHES SAME FILL-ORIGIN LEVEL: 0 DIFFERENT FILL-ORIGIN LEVEL: 0

PSCL4 TOTAL     ACCESS:      88956  HIT:      88956  MISS:          0  HIT %:        100  MISS %:          0   MPKI: 0
PSCL4 LOAD TRANSLATION ACCESS:      88956  HIT:      88956  MISS:          0  HIT %:        100  MISS %:          0   MPKI: 0
PSCL4 PREFETCH  REQUESTED:          0  ISSUED:          0  USEFUL:          0  USELESS:          0
PSCL4 USEFUL LOAD PREFETCHES:          0 PREFETCH ISSUED TO LOWER LEVEL:          0  ACCURACY: -nan
PSCL4 TIMELY PREFETCHES:          0 LATE PREFETCHES: 0 DROPPED PREFETCHES: 0
PSCL4 PREFETCHES SAME FILL-ORIGIN LEVEL: 0 DIFFERENT FILL-ORIGIN LEVEL: 0

PSCL3 TOTAL     ACCESS:      88956  HIT:      88956  MISS:          0  HIT %:        100  MISS %:          0   MPKI: 0
PSCL3 LOAD TRANSLATION ACCESS:      88956  HIT:      88956  MISS:          0  HIT %:        100  MISS %:          0   MPKI: 0
PSCL3 PREFETCH  REQUESTED:          0  ISSUED:          0  USEFUL:          0  USELESS:          0
PSCL3 USEFUL LOAD PREFETCHES:          0 PREFETCH ISSUED TO LOWER LEVEL:          0  ACCURACY: -nan
PSCL3 TIMELY PREFETCHES:          0 LATE PREFETCHES: 0 DROPPED PREFETCHES: 0
PSCL3 PREFETCHES SAME FILL-ORIGIN LEVEL: 0 DIFFERENT FILL-ORIGIN LEVEL: 0

PSCL2 TOTAL     ACCESS:      88956  HIT:      88863  MISS:         93  HIT %:    99.8955  MISS %:   0.104546   MPKI: 0.000465
PSCL2 LOAD TRANSLATION ACCESS:      88956  HIT:      88863  MISS:         93  HIT %:    99.8955  MISS %:   0.104546   MPKI: 0.000465
PSCL2 PREFETCH  REQUESTED:          0  ISSUED:          0  USEFUL:          0  USELESS:          0
PSCL2 USEFUL LOAD PREFETCHES:          0 PREFETCH ISSUED TO LOWER LEVEL:          0  ACCURACY: -nan
PSCL2 TIMELY PREFETCHES:          0 LATE PREFETCHES: 0 DROPPED PREFETCHES: 0
PSCL2 PREFETCHES SAME FILL-ORIGIN LEVEL: 0 DIFFERENT FILL-ORIGIN LEVEL: 0

LLC TOTAL     ACCESS:   10233845  HIT:    4224927  MISS:    6008918  HIT %:    41.2839  MISS %:    58.7161   MPKI: 30.0446
LLC LOAD      ACCESS:     220446  HIT:          0  MISS:     220446  HIT %:          0  MISS %:        100   MPKI: 1.10223
LLC RFO       ACCESS:    4391936  HIT:     127857  MISS:    4264079  HIT %:    2.91118  MISS %:    97.0888   MPKI: 21.3204
LLC PREFETCH  ACCESS:    1201191  HIT:          0  MISS:    1201191  HIT %:          0  MISS %:        100   MPKI: 6.00595
LLC WRITEBACK ACCESS:    4408508  HIT:    4096590  MISS:     311918  HIT %:    92.9246  MISS %:    7.07536   MPKI: 1.55959
LLC LOAD TRANSLATION ACCESS:      11764  HIT:        480  MISS:      11284  HIT %:    4.08024  MISS %:    95.9198   MPKI: 0.05642
LLC PREFETCH  REQUESTED:          0  ISSUED:          0  USEFUL:          0  USELESS:    4820494
LLC USEFUL LOAD PREFETCHES:          0 PREFETCH ISSUED TO LOWER LEVEL:    6412741  ACCURACY: 0
LLC TIMELY PREFETCHES:          0 LATE PREFETCHES: 0 DROPPED PREFETCHES: 0
LLC PREFETCHES SAME FILL-ORIGIN LEVEL: 0 DIFFERENT FILL-ORIGIN LEVEL: 0
LLC AVERAGE MISS LATENCY: 7647.5 cycles
LLC RQ	ACCESS:   18537071	FORWARD:          0	MERGED:          0	TO_CACHE:   18535891
LLC WQ	ACCESS:   17671325	FORWARD:       1180	MERGED:          0	TO_CACHE:   17671325
LLC PQ	ACCESS:    4816420	FORWARD:          0	MERGED:          0	TO_CACHE:    4816420

LLC Dense regions hint to LLC: 0

RAW hits: 4483252
Loads Generated: 38127908
Loads sent to L1D: 33644658
Stores Generated: 20085924
Stores sent to L1D: 20085925
Major fault: 0 Minor fault: 56606
Allocated PAGES: 226199

CPU 1 cumulative IPC: 0.2183 instructions: 200000001 cycles: 916171705
ITLB TOTAL     ACCESS:   28754354  HIT:   28754354  MISS:          0  HIT %:        100  MISS %:          0   MPKI: 0
ITLB LOAD TRANSLATION ACCESS:   28754354  HIT:   28754354  MISS:          0  HIT %:        100  MISS %:          0   MPKI: 0
ITLB PREFETCH  REQUESTED:          0  ISSUED:          0  USEFUL:          0  USELESS:          0
ITLB USEFUL LOAD PREFETCHES:          0 PREFETCH ISSUED TO LOWER LEVEL:          0  ACCURACY: -nan
ITLB TIMELY PREFETCHES:          0 LATE PREFETCHES: 0 DROPPED PREFETCHES: 0
ITLB PREFETCHES SAME FILL-ORIGIN LEVEL: 0 DIFFERENT FILL-ORIGIN LEVEL: 0
ITLB AVERAGE MISS LATENCY: -nan cycles
ITLB RQ	ACCESS:   39936079	FORWARD:          0	MERGED:   11181725	TO_CACHE:   28754354

DTLB TOTAL     ACCESS:   24059117  HIT:   23970162  MISS:      88955  HIT %:    99.6303  MISS %:   0.369735   MPKI: 0.444775
DTLB LOAD TRANSLATION ACCESS:   24059117  HIT:   23970162  MISS:      88955  HIT %:    99.6303  MISS %:   0.369735   MPKI: 0.444775
DTLB PREFETCH  REQUESTED:          0  ISSUED:          0  USEFUL:          0  USELESS:          0
DTLB USEFUL LOAD PREFETCHES:          0 PREFETCH ISSUED TO LOWER LEVEL:          0  ACCURACY: -nan
DTLB TIMELY PREFETCHES:          0 LATE PREFETCHES: 0 DROPPED PREFETCHES: 0
DTLB PREFETCHES SAME FILL-ORIGIN LEVEL: 0 DIFFERENT FILL-ORIGIN LEVEL: 0
DTLB AVERAGE MISS LATENCY: 398.861 cycles
DTLB RQ	ACCESS:   29946558	FORWARD:          0	MERGED:    5846050	TO_CACHE:   24100508

STLB TOTAL     ACCESS:     483329  HIT:     394374  MISS:      88955  HIT %:    81.5954  MISS %:    18.4046   MPKI: 0.444775
STLB LOAD TRANSLATION ACCESS:      88955  HIT:          0  MISS:      88955  HIT %:          0  MISS %:        100   MPKI: 0.444775
STLB TRANSLATION FROM L1D PREFETCHER ACCESS:     394374  HIT:     394374  MISS:          0  HIT %:        100  MISS %:          0   MPKI: 0
STLB PREFETCH  REQUESTED:          0  ISSUED:          0  USEFUL:          0  USELESS:          0
STLB USEFUL LOAD PREFETCHES:          0 PREFETCH ISSUED TO LOWER LEVEL:          0  ACCURACY: -nan
STLB TIMELY PREFETCHES:          0 LATE PREFETCHES: 0 DROPPED PREFETCHES: 0
STLB PREFETCHES SAME FILL-ORIGIN LEVEL: 0 DIFFERENT FILL-ORIGIN LEVEL: 0
STLB AVERAGE MISS LATENCY: 389.861 cycles
STLB RQ	ACCESS:    1301518	FORWARD:          0	MERGED:     818189	TO_CACHE:     483329

STLB Hit, L1D data hit: 0
STLB Hit, L2C data hit: 0
STLB Hit, LLC data hit: 0
STLB Hit, LLC data miss: 0
STLB STLB hints to L2: 0
L1D TOTAL     ACCESS:   30167002  HIT:   20784963  MISS:    9382039  HIT %:    68.8997  MISS %:    31.1003   MPKI: 46.9102
L1D LOAD      ACCESS:   10790020  HIT:   10099287  MISS:     690733  HIT %:    93.5984  MISS %:    6.40159   MPKI: 3.45366
L1D RFO       ACCESS:   18645949  HIT:   10685553  MISS:    7960396  HIT %:    57.3076  MISS %:    42.6924   MPKI: 39.802
L1D PREFETCH  ACCESS:     731033  HIT:        123  MISS:     730910  HIT %:  0.0168255  MISS %:    99.9832   MPKI: 3.65455
L1D PREFETCH  REQUESTED:    2425160  ISSUED:    2425160  USEFUL:     730908  USELESS:          0
L1D USEFUL LOAD PREFETCHES:     730908 PREFETCH ISSUED TO LOWER LEVEL:    1200701  ACCURACY: 60.8734
L1D TIMELY PREFETCHES:     730908 LATE PREFETCHES: 469592 DROPPED PREFETCHES: 0
L1D PREFETCHES SAME FILL-ORIGIN LEVEL: 1200506 DIFFERENT FILL-ORIGIN LEVEL: 195
L1D AVERAGE MISS LATENCY: 1135.3 cycles
L1D RQ	ACCESS:   33642909	FORWARD:          0	MERGED:   19184776	TO_CACHE:   11079762
L1D WQ	ACCESS:   20085928	FORWARD:    3378371	MERGED:    1219132	TO_CACHE:   18866796
L1D PQ	ACCESS:    1212597	FORWARD:          0	MERGED:         34	TO_CACHE:    1212563

L1D UNIQUE REGIONS ACCESSED: 0
L1D REGIONS CONFLICTS: 0
L1D Cross Page Prefetch Requests: 0
L1D Same Page Prefetch Requests: 1599612
L1D ROI Sum of L1D PQ occupancy: 86595111
L1D PREFETCHES PUSHED FROM L2C: 0
L1I TOTAL     ACCESS:   39936077  HIT:   39936077  MISS:          0  HIT %:        100  MISS %:          0   MPKI: 0
L1I LOAD      ACCESS:   39936077  HIT:   39936077  MISS:          0  HIT %:        100  MISS %:          0   MPKI: 0
L1I PREFETCH  REQUESTED:          0  ISSUED:          0  USEFUL:          0  USELESS:          0
L1I USEFUL LOAD PREFETCHES:          0 PREFETCH ISSUED TO LOWER LEVEL:          0  ACCURACY: -nan
L1I TIMELY PREFETCHES:          0 LATE PREFETCHES: 0 DROPPED PREFETCHES: 0
L1I PREFETCHES SAME FILL-ORIGIN LEVEL: 0 DIFFERENT FILL-ORIGIN LEVEL: 0
L1I AVERAGE MISS LATENCY: -nan cycles
L1I RQ	ACCESS:   54883320	FORWARD:          0	MERGED:   14947241	TO_CACHE:   39936079

BTB TOTAL     ACCESS:    2206717  HIT:    2206717  MISS:          0  HIT %:        100  MISS %:          0   MPKI: 0
BTB BRANCH_DIRECT_JUMP	ACCESS:    1092087  HIT:    1092087  MISS:          0
BTB BRANCH_INDIRECT	ACCESS:          0  HIT:          0  MISS:          0
BTB BRANCH_CONDITIONAL	ACCESS:    1114630  HIT:    1114630  MISS:          0
BTB BRANCH_DIRECT_CALL	ACCESS:          0  HIT:          0  MISS:          0
BTB BRANCH_INDIRECT_CALL	ACCESS:          0  HIT:          0  MISS:          0
BTB BRANCH_RETURN	ACCESS:          0  HIT:          0  MISS:          0
BTB BRANCH_OTHER ACCESS:          0  HIT:          0  MISS:          0

L2C TOTAL     ACCESS:   17431504  HIT:   11113878  MISS:    6317626  HIT %:    63.7574  MISS %:    36.2426   MPKI: 31.5881
L2C LOAD      ACCESS:     221141  HIT:        103  MISS:     221038  HIT %:  0.0465766  MISS %:    99.9534   MPKI: 1.10519
L2C DATA LOAD MPKI: 1.10519
L2C INSTRUCTION LOAD MPKI: 0
L2C RFO       ACCESS:    7960397  HIT:    3568075  MISS:    4392322  HIT %:    44.8228  MISS %:    55.1772   MPKI: 21.9616
L2C PREFETCH  ACCESS:    1200609  HIT:          4  MISS:    1200605  HIT %: 0.000333164  MISS %:    99.9997   MPKI: 6.00302
L2C DATA PREFETCH MPKI: 6.00302
L2C INSTRUCTION PREFETCH MPKI: 0
L2C WRITEBACK ACCESS:    7960396  HIT:    7468472  MISS:     491924  HIT %:    93.8204  MISS %:    6.17964   MPKI: 2.45962
L2C LOAD TRANSLATION ACCESS:      88961  HIT:      77224  MISS:      11737  HIT %:    86.8066  MISS %:    13.1934   MPKI: 0.058685
L2C PREFETCH  REQUESTED:          0  ISSUED:          0  USEFUL:        103  USELESS:    1200059
L2C USEFUL LOAD PREFETCHES:        103 PREFETCH ISSUED TO LOWER LEVEL:    1200688  ACCURACY: 0.00857842
L2C TIMELY PREFETCHES:        103 LATE PREFETCHES: 79 DROPPED PREFETCHES: 0
L2C PREFETCHES SAME FILL-ORIGIN LEVEL: 193 DIFFERENT FILL-ORIGIN LEVEL: 0
L2C AVERAGE MISS LATENCY: 1846.77 cycles
L2C RQ	ACCESS:    8270510	FORWARD:          0	MERGED:          0	TO_CACHE:    8270510
L2C WQ	ACCESS:    7960397	FORWARD:          0	MERGED:          0	TO_CACHE:    7960397
[...]
AAAAAA11A11111111IIIIIIIIIIIIIIIIIIIIIIIIIIIIIIIIIIIIIIIIIIIIIII
AAAAAAA1A11111111IIIIIIIIIIIIIIIIIIIIIIIIIIIIIIIIIIIIIIIIIIIIIII
AAAAAAAAA11111111IIIIIIIIIIIIIIIIIIIIIIIIIIIIIIIIIIIIIIIIIIIIIII
AAAAAAAAA1A11111111IIIIIIIIIIIIIIIIIIIIIIIIIIIIIIIIIIIIIIIIIIIII
AAAAAAAAAAA11111111IIIIIIIIIIIIIIIIIIIIIIIIIIIIIIIIIIIIIIIIIIIII
AAAAAAAAAAA11A11111111IIIIIIIIIIIIIIIIIIIIIIIIIIIIIIIIIIIIIIIIII
AAAAAAAAAAAA1A11111111IIIIIIIIIIIIIIIIIIIIIIIIIIIIIIIIIIIIIIIIII
AAAAAAAAAAAAAA11111111IIIIIIIIIIIIIIIIIIIIIIIIIIIIIIIIIIIIIIIIII
AAAAAAAAAAAAAA1A11111111IIIIIIIIIIIIIIIIIIIIIIIIIIIIIIIIIIIIIIII
AAAAAAAAAAAAAAAA11111111IIIIIIIIIIIIIIIIIIIIIIIIIIIIIIIIIIIIIIII
AAAAAAAAAAAAAAAA11A11111111IIIIIIIIIIIIIIIIIIIIIIIIIIIIIIIIIIIII
AAAAAAAAAAAAAAAAA1A11111111IIIIIIIIIIIIIIIIIIIIIIIIIIIIIIIIIIIII
AAAAAAAAAAAAAAAAAAA11111111IIIIIIIIIIIIIIIIIIIIIIIIIIIIIIIIIIIII
AAAAAAAAAAAAAAAAAAA1A11111111IIIIIIIIIIIIIIIIIIIIIIIIIIIIIIIIIII
AAAAAAAAAAAAAAAAAAAAA11111111IIIIIIIIIIIIIIIIIIIIIIIIIIIIIIIIIII
AAAAAAAAAAAAAAAAAAAAA11A11111111IIIIIIIIIIIIIIIIIIIIIIIIIIIIIIII
AAAAAAAAAAAAAAAAAAAAAA1A11111111IIIIIIIIIIIIIIIIIIIIIIIIIIIIIIII
AAAAAAAAAAAAAAAAAAAAAAAA11111111IIIIIIIIIIIIIIIIIIIIIIIIIIIIIIII
AAAAAAAAAAAAAAAAAAAAAAAA1A11111111IIIIIIIIIIIIIIIIIIIIIIIIIIIIII
AAAAAAAAAAAAAAAAAAAAAAAAAA11111111IIIIIIIIIIIIIIIIIIIIIIIIIIIIII
AAAAAAAAAAAAAAAAAAAAAAAAAA11A11111111IIIIIIIIIIIIIIIIIIIIIIIIIII
AAAAAAAAAAAAAAAAAAAAAAAAAAA1A11111111IIIIIIIIIIIIIIIIIIIIIIIIIII
AAAAAAAAAAAAAAAAAAAAAAAAAAAAA11111111IIIIIIIIIIIIIIIIIIIIIIIIIII
AAAAAAAAAAAAAAAAAAAAAAAAAAAAA1A11111111IIIIIIIIIIIIIIIIIIIIIIIII
AAAAAAAAAAAAAAAAAAAAAAAAAAAAAAA11111111IIIIIIIIIIIIIIIIIIIIIIIII
AAAAAAAAAAAAAAAAAAAAAAAAAAAAAAA11A11111111IIIIIIIIIIIIIIIIIIIIII
AAAAAAAAAAAAAAAAAAAAAAAAAAAAAAAA1A11111111IIIIIIIIIIIIIIIIIIIIII
AAAAAAAAAAAAAAAAAAAAAAAAAAAAAAAAAA11111111IIIIIIIIIIIIIIIIIIIIII
AAAAAAAAAAAAAAAAAAAAAAAAAAAAAAAAAA1A11111111IIIIIIIIIIIIIIIIIIII
AAAAAAAAAAAAAAAAAAAAAAAAAAAAAAAAAAAA11111111IIIIIIIIIIIIIIIIIIII
AAAAAAAAAAAAAAAAAAAAAAAAAAAAAAAAAAAA11A11111111IIIIIIIIIIIIIIIII
AAAAAAAAAAAAAAAAAAAAAAAAAAAAAAAAAAAAA1A11111111IIIIIIIIIIIIIIIII
AAAAAAAAAAAAAAAAAAAAAAAAAAAAAAAAAAAAAAA11111111IIIIIIIIIIIIIIIII
AAAAAAAAAAAAAAAAAAAAAAAAAAAAAAAAAAAAAAA1A11111111IIIIIIIIIIIIIII
AAAAAAAAAAAAAAAAAAAAAAAAAAAAAAAAAAAAAAAAA11111111IIIIIIIIIIIIIII
AAAAAAAAAAAAAAAAAAAAAAAAAAAAAAAAAAAAAAAAA11A11111111IIIIIIIIIIII
AAAAAAAAAAAAAAAAAAAAAAAAAAAAAAAAAAAAAAAAAA1A11111111IIIIIIIIIIII
AAAAAAAAAAAAAAAAAAAAAAAAAAAAAAAAAAAAAAAAAAAA11111111IIIIIIIIIIII
AAAAAAAAAAAAAAAAAAAAAAAAAAAAAAAAAAAAAAAAAAAA1A11111111IIIIIIIIII
AAAAAAAAAAAAAAAAAAAAAAAAAAAAAAAAAAAAAAAAAAAAAA11111111IIIIIIIIII
AAAAAAAAAAAAAAAAAAAAAAAAAAAAAAAAAAAAAAAAAAAAAA11A11111111IIIIIII
AAAAAAAAAAAAAAAAAAAAAAAAAAAAAAAAAAAAAAAAAAAAAAA1A11111111IIIIIII
AAAAAAAAAAAAAAAAAAAAAAAAAAAAAAAAAAAAAAAAAAAAAAAAA11111111IIIIIII
AAAAAAAAAAAAAAAAAAAAAAAAAAAAAAAAAAAAAAAAAAAAAAAAA1A11111111IIIII
AAAAAAAAAAAAAAAAAAAAAAAAAAAAAAAAAAAAAAAAAAAAAAAAAAA11111111IIIII
AAAAAAAAAAAAAAAAAAAAAAAAAAAAAAAAAAAAAAAAAAAAAAAAAAA11A11111111II
AAAAAAAAAAAAAAAAAAAAAAAAAAAAAAAAAAAAAAAAAAAAAAAAAAAA1A11111111II
AAAAAAAAAAAAAAAAAAAAAAAAAAAAAAAAAAAAAAAAAAAAAAAAAAAAAA11111111II
AAAAAAAAAAAAAAAAAAAAAAAAAAAAAAAAAAAAAAAAAAAAAAAAAAAAAA1A11111111
AAAAAAAAAAAAAAAAAAAAAAAAAAAAAAAAAAAAAAAAAAAAAAAAAAAAAAAA11111111
AAAAAAAAAAAAAAAAAAAAAAAAAAAAAAAAAAAAAAAAAAAAAAAAAAAAAAAA11A11111
AAAAAAAAAAAAAAAAAAAAAAAAAAAAAAAAAAAAAAAAAAAAAAAAAAAAAAAAA1A11111
AAAAAAAAAAAAAAAAAAAAAAAAAAAAAAAAAAAAAAAAAAAAAAAAAAAAAAAAAAA11111
AAAAAAAAAAAAAAAAAAAAAAAAAAAAAAAAAAAAAAAAAAAAAAAAAAAAAAAAAAA1A111
AAAAAAAAAAAAAAAAAAAAAAAAAAAAAAAAAAAAAAAAAAAAAAAAAAAAAAAAAAAAA111
AAAAAAAAAAAAAAAAAAAAAAAAAAAAAAAAAAAAAAAAAAAAAAAAAAAAAAAAAAAAA11A
AAAAAAAAAAAAAAAAAAAAAAAAAAAAAAAAAAAAAAAAAAAAAAAAAAAAAAAAAAAAAA1A
AAAAAAAAAAAAAAAAAAAAAAAAAAAAAAAAAAAAAAAAAAAAAAAAAAAAAAAAAAAAAAAA
[MLOP] Prefetch Degree Mean: 6.8559
[MLOP] Prefetch Degree SD: 1.54168
[MLOP] Max Score Left Mean (%): 83.7389
[MLOP] Max Score Left SD (%): 10.4226
[MLOP] Max Score Right Mean (%): 92.7461
[MLOP] Max Score Right SD (%): 4.42166
=== CPU 1 L1D Prefetcher Statistics ===
[MLOP] History of tracked zone:
IIIIIIIIIIIIIIIIIIIIIIIIIIIIIIIIIIIIIIIIIIIIIIIIIIIIIIIIIIIIIIII
AII1I1111IIIIIIIIIIIIIIIIIIIIIIIIIIIIIIIIIIIIIIIIIIIIIIIIIIIIIII
AIIAI1111111IIIIIIIIIIIIIIIIIIIIIIIIIIIIIIIIIIIIIIIIIIIIIIIIIIII
AAIA11111111IIIIIIIIIIIIIIIIIIIIIIIIIIIIIIIIIIIIIIIIIIIIIIIIIIII
AAAA11111111IIIIIIIIIIIIIIIIIIIIIIIIIIIIIIIIIIIIIIIIIIIIIIIIIIII
AAAA1A11111111IIIIIIIIIIIIIIIIIIIIIIIIIIIIIIIIIIIIIIIIIIIIIIIIII
AAAAAA11111111IIIIIIIIIIIIIIIIIIIIIIIIIIIIIIIIIIIIIIIIIIIIIIIIII
AAAAAA11A11111111IIIIIIIIIIIIIIIIIIIIIIIIIIIIIIIIIIIIIIIIIIIIIII
AAAAAAA1A11111111IIIIIIIIIIIIIIIIIIIIIIIIIIIIIIIIIIIIIIIIIIIIIII
AAAAAAAAA11111111IIIIIIIIIIIIIIIIIIIIIIIIIIIIIIIIIIIIIIIIIIIIIII
AAAAAAAAA1A11111111IIIIIIIIIIIIIIIIIIIIIIIIIIIIIIIIIIIIIIIIIIIII
AAAAAAAAAAA11111111IIIIIIIIIIIIIIIIIIIIIIIIIIIIIIIIIIIIIIIIIIIII
AAAAAAAAAAA11A11111111IIIIIIIIIIIIIIIIIIIIIIIIIIIIIIIIIIIIIIIIII
AAAAAAAAAAAA1A11111111IIIIIIIIIIIIIIIIIIIIIIIIIIIIIIIIIIIIIIIIII
AAAAAAAAAAAAAA11111111IIIIIIIIIIIIIIIIIIIIIIIIIIIIIIIIIIIIIIIIII
AAAAAAAAAAAAAA1A11111111IIIIIIIIIIIIIIIIIIIIIIIIIIIIIIIIIIIIIIII
AAAAAAAAAAAAAAAA11111111IIIIIIIIIIIIIIIIIIIIIIIIIIIIIIIIIIIIIIII
AAAAAAAAAAAAAAAA11A11111111IIIIIIIIIIIIIIIIIIIIIIIIIIIIIIIIIIIII
AAAAAAAAAAAAAAAAA1A11111111IIIIIIIIIIIIIIIIIIIIIIIIIIIIIIIIIIIII
AAAAAAAAAAAAAAAAAAA11111111IIIIIIIIIIIIIIIIIIIIIIIIIIIIIIIIIIIII
AAAAAAAAAAAAAAAAAAA1A11111111IIIIIIIIIIIIIIIIIIIIIIIIIIIIIIIIIII
AAAAAAAAAAAAAAAAAAAAA11111111IIIIIIIIIIIIIIIIIIIIIIIIIIIIIIIIIII
AAAAAAAAAAAAAAAAAAAAA11A11111111IIIIIIIIIIIIIIIIIIIIIIIIIIIIIIII
AAAAAAAAAAAAAAAAAAAAAA1A11111111IIIIIIIIIIIIIIIIIIIIIIIIIIIIIIII
AAAAAAAAAAAAAAAAAAAAAAAA11111111IIIIIIIIIIIIIIIIIIIIIIIIIIIIIIII
AAAAAAAAAAAAAAAAAAAAAAAA1A11111111IIIIIIIIIIIIIIIIIIIIIIIIIIIIII
AAAAAAAAAAAAAAAAAAAAAAAAAA11111111IIIIIIIIIIIIIIIIIIIIIIIIIIIIII
AAAAAAAAAAAAAAAAAAAAAAAAAA11A11111111IIIIIIIIIIIIIIIIIIIIIIIIIII
AAAAAAAAAAAAAAAAAAAAAAAAAAA1A11111111IIIIIIIIIIIIIIIIIIIIIIIIIII
AAAAAAAAAAAAAAAAAAAAAAAAAAAAA11111111IIIIIIIIIIIIIIIIIIIIIIIIIII
AAAAAAAAAAAAAAAAAAAAAAAAAAAAA1A11111111IIIIIIIIIIIIIIIIIIIIIIIII
AAAAAAAAAAAAAAAAAAAAAAAAAAAAAAA11111111IIIIIIIIIIIIIIIIIIIIIIIII
AAAAAAAAAAAAAAAAAAAAAAAAAAAAAAA11A11111111IIIIIIIIIIIIIIIIIIIIII
AAAAAAAAAAAAAAAAAAAAAAAAAAAAAAAA1A11111111IIIIIIIIIIIIIIIIIIIIII
AAAAAAAAAAAAAAAAAAAAAAAAAAAAAAAAAA11111111IIIIIIIIIIIIIIIIIIIIII
AAAAAAAAAAAAAAAAAAAAAAAAAAAAAAAAAA1A11111111IIIIIIIIIIIIIIIIIIII
AAAAAAAAAAAAAAAAAAAAAAAAAAAAAAAAAAAA11111111IIIIIIIIIIIIIIIIIIII
AAAAAAAAAAAAAAAAAAAAAAAAAAAAAAAAAAAA11A11111111IIIIIIIIIIIIIIIII
AAAAAAAAAAAAAAAAAAAAAAAAAAAAAAAAAAAAA1A11111111IIIIIIIIIIIIIIIII
AAAAAAAAAAAAAAAAAAAAAAAAAAAAAAAAAAAAAAA11111111IIIIIIIIIIIIIIIII
AAAAAAAAAAAAAAAAAAAAAAAAAAAAAAAAAAAAAAA1A11111111IIIIIIIIIIIIIII
AAAAAAAAAAAAAAAAAAAAAAAAAAAAAAAAAAAAAAAAA11111111IIIIIIIIIIIIIII
AAAAAAAAAAAAAAAAAAAAAAAAAAAAAAAAAAAAAAAAA11A11111111IIIIIIIIIIII
AAAAAAAAAAAAAAAAAAAAAAAAAAAAAAAAAAAAAAAAAA1A11111111IIIIIIIIIIII
AAAAAAAAAAAAAAAAAAAAAAAAAAAAAAAAAAAAAAAAAAAA11111111IIIIIIIIIIII
AAAAAAAAAAAAAAAAAAAAAAAAAAAAAAAAAAAAAAAAAAAA1A11111111IIIIIIIIII
AAAAAAAAAAAAAAAAAAAAAAAAAAAAAAAAAAAAAAAAAAAAAA11111111IIIIIIIIII
AAAAAAAAAAAAAAAAAAAAAAAAAAAAAAAAAAAAAAAAAAAAAA11A11111111IIIIIII
AAAAAAAAAAAAAAAAAAAAAAAAAAAAAAAAAAAAAAAAAAAAAAA1A11111111IIIIIII
AAAAAAAAAAAAAAAAAAAAAAAAAAAAAAAAAAAAAAAAAAAAAAAAA11111111IIIIIII
AAAAAAAAAAAAAAAAAAAAAAAAAAAAAAAAAAAAAAAAAAAAAAAAA1A11111111IIIII
AAAAAAAAAAAAAAAAAAAAAAAAAAAAAAAAAAAAAAAAAAAAAAAAAAA11111111IIIII
AAAAAAAAAAAAAAAAAAAAAAAAAAAAAAAAAAAAAAAAAAAAAAAAAAA11A11111111II
AAAAAAAAAAAAAAAAAAAAAAAAAAAAAAAAAAAAAAAAAAAAAAAAAAAA1A11111111II
AAAAAAAAAAAAAAAAAAAAAAAAAAAAAAAAAAAAAAAAAAAAAAAAAAAAAA11111111II
AAAAAAAAAAAAAAAAAAAAAAAAAAAAAAAAAAAAAAAAAAAAAAAAAAAAAA1A11111111
AAAAAAAAAAAAAAAAAAAAAAAAAAAAAAAAAAAAAAAAAAAAAAAAAAAAAAAA11111111
AAAAAAAAAAAAAAAAAAAAAAAAAAAAAAAAAAAAAAAAAAAAAAAAAAAAAAAA11A11111
AAAAAAAAAAAAAAAAAAAAAAAAAAAAAAAAAAAAAAAAAAAAAAAAAAAAAAAAA1A11111
AAAAAAAAAAAAAAAAAAAAAAAAAAAAAAAAAAAAAAAAAAAAAAAAAAAAAAAAAAA11111
AAAAAAAAAAAAAAAAAAAAAAAAAAAAAAAAAAAAAAAAAAAAAAAAAAAAAAAAAAA1A111
AAAAAAAAAAAAAAAAAAAAAAAAAAAAAAAAAAAAAAAAAAAAAAAAAAAAAAAAAAAAA111
AAAAAAAAAAAAAAAAAAAAAAAAAAAAAAAAAAAAAAAAAAAAAAAAAAAAAAAAAAAAA11A
AAAAAAAAAAAAAAAAAAAAAAAAAAAAAAAAAAAAAAAAAAAAAAAAAAAAAAAAAAAAAA1A
AAAAAAAAAAAAAAAAAAAAAAAAAAAAAAAAAAAAAAAAAAAAAAAAAAAAAAAAAAAAAAAA
[MLOP] Prefetch Degree Mean: 6.87174
[MLOP] Prefetch Degree SD: 1.54599
[MLOP] Max Score Left Mean (%): 83.7275
[MLOP] Max Score Left SD (%): 9.9701
[MLOP] Max Score Right Mean (%): 92.7094
[MLOP] Max Score Right SD (%): 4.64622
=== CPU 2 L1D Prefetcher Statistics ===
[MLOP] History of tracked zone:
IIIIIIIIIIIIIIIIIIIIIIIIIIIIIIIIIIIIIIIIIIIIIIIIIIIIIIIIIIIIIIII
AII1I1111IIIIIIIIIIIIIIIIIIIIIIIIIIIIIIIIIIIIIIIIIIIIIIIIIIIIIII
AIIAI1111111IIIIIIIIIIIIIIIIIIIIIIIIIIIIIIIIIIIIIIIIIIIIIIIIIIII
AAIA11111111IIIIIIIIIIIIIIIIIIIIIIIIIIIIIIIIIIIIIIIIIIIIIIIIIIII
AAAA11111111IIIIIIIIIIIIIIIIIIIIIIIIIIIIIIIIIIIIIIIIIIIIIIIIIIII
AAAA1A11111111IIIIIIIIIIIIIIIIIIIIIIIIIIIIIIIIIIIIIIIIIIIIIIIIII
AAAAAA11111111IIIIIIIIIIIIIIIIIIIIIIIIIIIIIIIIIIIIIIIIIIIIIIIIII
AAAAAA11A11111111IIIIIIIIIIIIIIIIIIIIIIIIIIIIIIIIIIIIIIIIIIIIIII
AAAAAAA1A11111111IIIIIIIIIIIIIIIIIIIIIIIIIIIIIIIIIIIIIIIIIIIIIII
AAAAAAAAA11111111IIIIIIIIIIIIIIIIIIIIIIIIIIIIIIIIIIIIIIIIIIIIIII
AAAAAAAAA1A11111111IIIIIIIIIIIIIIIIIIIIIIIIIIIIIIIIIIIIIIIIIIIII
AAAAAAAAAAA11111111IIIIIIIIIIIIIIIIIIIIIIIIIIIIIIIIIIIIIIIIIIIII
AAAAAAAAAAA11A11111111IIIIIIIIIIIIIIIIIIIIIIIIIIIIIIIIIIIIIIIIII
AAAAAAAAAAAA1A11111111IIIIIIIIIIIIIIIIIIIIIIIIIIIIIIIIIIIIIIIIII
AAAAAAAAAAAAAA11111111IIIIIIIIIIIIIIIIIIIIIIIIIIIIIIIIIIIIIIIIII
AAAAAAAAAAAAAA1A11111111IIIIIIIIIIIIIIIIIIIIIIIIIIIIIIIIIIIIIIII
AAAAAAAAAAAAAAAA11111111IIIIIIIIIIIIIIIIIIIIIIIIIIIIIIIIIIIIIIII
AAAAAAAAAAAAAAAA11A11111111IIIIIIIIIIIIIIIIIIIIIIIIIIIIIIIIIIIII
AAAAAAAAAAAAAAAAA1A11111111IIIIIIIIIIIIIIIIIIIIIIIIIIIIIIIIIIIII
AAAAAAAAAAAAAAAAAAA11111111IIIIIIIIIIIIIIIIIIIIIIIIIIIIIIIIIIIII
AAAAAAAAAAAAAAAAAAA1A11111111IIIIIIIIIIIIIIIIIIIIIIIIIIIIIIIIIII
AAAAAAAAAAAAAAAAAAAAA11111111IIIIIIIIIIIIIIIIIIIIIIIIIIIIIIIIIII
AAAAAAAAAAAAAAAAAAAAA11A11111111IIIIIIIIIIIIIIIIIIIIIIIIIIIIIIII
AAAAAAAAAAAAAAAAAAAAAA1A11111111IIIIIIIIIIIIIIIIIIIIIIIIIIIIIIII
AAAAAAAAAAAAAAAAAAAAAAAA11111111IIIIIIIIIIIIIIIIIIIIIIIIIIIIIIII
AAAAAAAAAAAAAAAAAAAAAAAA1A11111111IIIIIIIIIIIIIIIIIIIIIIIIIIIIII
AAAAAAAAAAAAAAAAAAAAAAAAAA11111111IIIIIIIIIIIIIIIIIIIIIIIIIIIIII
AAAAAAAAAAAAAAAAAAAAAAAAAA11A11111111IIIIIIIIIIIIIIIIIIIIIIIIIII
AAAAAAAAAAAAAAAAAAAAAAAAAAA1A11111111IIIIIIIIIIIIIIIIIIIIIIIIIII
AAAAAAAAAAAAAAAAAAAAAAAAAAAAA11111111IIIIIIIIIIIIIIIIIIIIIIIIIII
AAAAAAAAAAAAAAAAAAAAAAAAAAAAA1A11111111IIIIIIIIIIIIIIIIIIIIIIIII
AAAAAAAAAAAAAAAAAAAAAAAAAAAAAAA11111111IIIIIIIIIIIIIIIIIIIIIIIII
AAAAAAAAAAAAAAAAAAAAAAAAAAAAAAA11A11111111IIIIIIIIIIIIIIIIIIIIII
AAAAAAAAAAAAAAAAAAAAAAAAAAAAAAAA1A11111111IIIIIIIIIIIIIIIIIIIIII
AAAAAAAAAAAAAAAAAAAAAAAAAAAAAAAAAA11111111IIIIIIIIIIIIIIIIIIIIII
AAAAAAAAAAAAAAAAAAAAAAAAAAAAAAAAAA1A11111111IIIIIIIIIIIIIIIIIIII
AAAAAAAAAAAAAAAAAAAAAAAAAAAAAAAAAAAA11111111IIIIIIIIIIIIIIIIIIII
AAAAAAAAAAAAAAAAAAAAAAAAAAAAAAAAAAAA11A11111111IIIIIIIIIIIIIIIII
AAAAAAAAAAAAAAAAAAAAAAAAAAAAAAAAAAAAA1A11111111IIIIIIIIIIIIIIIII
AAAAAAAAAAAAAAAAAAAAAAAAAAAAAAAAAAAAAAA11111111IIIIIIIIIIIIIIIII
AAAAAAAAAAAAAAAAAAAAAAAAAAAAAAAAAAAAAAA1A11111111IIIIIIIIIIIIIII
AAAAAAAAAAAAAAAAAAAAAAAAAAAAAAAAAAAAAAAAA11111111IIIIIIIIIIIIIII
AAAAAAAAAAAAAAAAAAAAAAAAAAAAAAAAAAAAAAAAA11A11111111IIIIIIIIIIII
AAAAAAAAAAAAAAAAAAAAAAAAAAAAAAAAAAAAAAAAAA1A11111111IIIIIIIIIIII
AAAAAAAAAAAAAAAAAAAAAAAAAAAAAAAAAAAAAAAAAAAA11111111IIIIIIIIIIII
AAAAAAAAAAAAAAAAAAAAAAAAAAAAAAAAAAAAAAAAAAAA1A11111111IIIIIIIIII
AAAAAAAAAAAAAAAAAAAAAAAAAAAAAAAAAAAAAAAAAAAAAA11111111IIIIIIIIII
AAAAAAAAAAAAAAAAAAAAAAAAAAAAAAAAAAAAAAAAAAAAAA11A11111111IIIIIII
AAAAAAAAAAAAAAAAAAAAAAAAAAAAAAAAAAAAAAAAAAAAAAA1A11111111IIIIIII
AAAAAAAAAAAAAAAAAAAAAAAAAAAAAAAAAAAAAAAAAAAAAAAAA11111111IIIIIII
AAAAAAAAAAAAAAAAAAAAAAAAAAAAAAAAAAAAAAAAAAAAAAAAA1A11111111IIIII
AAAAAAAAAAAAAAAAAAAAAAAAAAAAAAAAAAAAAAAAAAAAAAAAAAA11111111IIIII
AAAAAAAAAAAAAAAAAAAAAAAAAAAAAAAAAAAAAAAAAAAAAAAAAAA11A11111111II
AAAAAAAAAAAAAAAAAAAAAAAAAAAAAAAAAAAAAAAAAAAAAAAAAAAA1A11111111II
AAAAAAAAAAAAAAAAAAAAAAAAAAAAAAAAAAAAAAAAAAAAAAAAAAAAAA11111111II
AAAAAAAAAAAAAAAAAAAAAAAAAAAAAAAAAAAAAAAAAAAAAAAAAAAAAA1A11111111
AAAAAAAAAAAAAAAAAAAAAAAAAAAAAAAAAAAAAAAAAAAAAAAAAAAAAAAA11111111
AAAAAAAAAAAAAAAAAAAAAAAAAAAAAAAAAAAAAAAAAAAAAAAAAAAAAAAA11A11111
AAAAAAAAAAAAAAAAAAAAAAAAAAAAAAAAAAAAAAAAAAAAAAAAAAAAAAAAA1A11111
AAAAAAAAAAAAAAAAAAAAAAAAAAAAAAAAAAAAAAAAAAAAAAAAAAAAAAAAAAA11111
AAAAAAAAAAAAAAAAAAAAAAAAAAAAAAAAAAAAAAAAAAAAAAAAAAAAAAAAAAA1A111
AAAAAAAAAAAAAAAAAAAAAAAAAAAAAAAAAAAAAAAAAAAAAAAAAAAAAAAAAAAAA111
AAAAAAAAAAAAAAAAAAAAAAAAAAAAAAAAAAAAAAAAAAAAAAAAAAAAAAAAAAAAA11A
AAAAAAAAAAAAAAAAAAAAAAAAAAAAAAAAAAAAAAAAAAAAAAAAAAAAAAAAAAAAAA1A
AAAAAAAAAAAAAAAAAAAAAAAAAAAAAAAAAAAAAAAAAAAAAAAAAAAAAAAAAAAAAAAA
[MLOP] Prefetch Degree Mean: 6.88035
[MLOP] Prefetch Degree SD: 1.55798
[MLOP] Max Score Left Mean (%): 83.7687
[MLOP] Max Score Left SD (%): 9.26683
[MLOP] Max Score Right Mean (%): 92.5771
[MLOP] Max Score Right SD (%): 5.1947
=== CPU 3 L1D Prefetcher Statistics ===
[MLOP] History of tracked zone:
IIIIIIIIIIIIIIIIIIIIIIIIIIIIIIIIIIIIIIIIIIIIIIIIIIIIIIIIIIIIIIII
AII1I1111IIIIIIIIIIIIIIIIIIIIIIIIIIIIIIIIIIIIIIIIIIIIIIIIIIIIIII
AIIAI1111111IIIIIIIIIIIIIIIIIIIIIIIIIIIIIIIIIIIIIIIIIIIIIIIIIIII
AAIA11111111IIIIIIIIIIIIIIIIIIIIIIIIIIIIIIIIIIIIIIIIIIIIIIIIIIII
AAAA11111111IIIIIIIIIIIIIIIIIIIIIIIIIIIIIIIIIIIIIIIIIIIIIIIIIIII
AAAA1A11111111IIIIIIIIIIIIIIIIIIIIIIIIIIIIIIIIIIIIIIIIIIIIIIIIII
AAAAAA11111111IIIIIIIIIIIIIIIIIIIIIIIIIIIIIIIIIIIIIIIIIIIIIIIIII
AAAAAA11A11111111IIIIIIIIIIIIIIIIIIIIIIIIIIIIIIIIIIIIIIIIIIIIIII
AAAAAAA1A11111111IIIIIIIIIIIIIIIIIIIIIIIIIIIIIIIIIIIIIIIIIIIIIII
AAAAAAAAA11111111IIIIIIIIIIIIIIIIIIIIIIIIIIIIIIIIIIIIIIIIIIIIIII
AAAAAAAAA1A11111111IIIIIIIIIIIIIIIIIIIIIIIIIIIIIIIIIIIIIIIIIIIII
AAAAAAAAAAA11111111IIIIIIIIIIIIIIIIIIIIIIIIIIIIIIIIIIIIIIIIIIIII
AAAAAAAAAAA11A11111111IIIIIIIIIIIIIIIIIIIIIIIIIIIIIIIIIIIIIIIIII
AAAAAAAAAAAA1A11111111IIIIIIIIIIIIIIIIIIIIIIIIIIIIIIIIIIIIIIIIII
AAAAAAAAAAAAAA11111111IIIIIIIIIIIIIIIIIIIIIIIIIIIIIIIIIIIIIIIIII
AAAAAAAAAAAAAA1A11111111IIIIIIIIIIIIIIIIIIIIIIIIIIIIIIIIIIIIIIII
AAAAAAAAAAAAAAAA11111111IIIIIIIIIIIIIIIIIIIIIIIIIIIIIIIIIIIIIIII
AAAAAAAAAAAAAAAA11A11111111IIIIIIIIIIIIIIIIIIIIIIIIIIIIIIIIIIIII
AAAAAAAAAAAAAAAAA1A11111111IIIIIIIIIIIIIIIIIIIIIIIIIIIIIIIIIIIII
AAAAAAAAAAAAAAAAAAA11111111IIIIIIIIIIIIIIIIIIIIIIIIIIIIIIIIIIIII
AAAAAAAAAAAAAAAAAAA1A11111111IIIIIIIIIIIIIIIIIIIIIIIIIIIIIIIIIII
AAAAAAAAAAAAAAAAAAAAA11111111IIIIIIIIIIIIIIIIIIIIIIIIIIIIIIIIIII
AAAAAAAAAAAAAAAAAAAAA11A11111111IIIIIIIIIIIIIIIIIIIIIIIIIIIIIIII
AAAAAAAAAAAAAAAAAAAAAA1A11111111IIIIIIIIIIIIIIIIIIIIIIIIIIIIIIII
AAAAAAAAAAAAAAAAAAAAAAAA11111111IIIIIIIIIIIIIIIIIIIIIIIIIIIIIIII
AAAAAAAAAAAAAAAAAAAAAAAA1A11111111IIIIIIIIIIIIIIIIIIIIIIIIIIIIII
AAAAAAAAAAAAAAAAAAAAAAAAAA11111111IIIIIIIIIIIIIIIIIIIIIIIIIIIIII
AAAAAAAAAAAAAAAAAAAAAAAAAA11A11111111IIIIIIIIIIIIIIIIIIIIIIIIIII
AAAAAAAAAAAAAAAAAAAAAAAAAAA1A11111111IIIIIIIIIIIIIIIIIIIIIIIIIII
AAAAAAAAAAAAAAAAAAAAAAAAAAAAA11111111IIIIIIIIIIIIIIIIIIIIIIIIIII
AAAAAAAAAAAAAAAAAAAAAAAAAAAAA1A11111111IIIIIIIIIIIIIIIIIIIIIIIII
AAAAAAAAAAAAAAAAAAAAAAAAAAAAAAA11111111IIIIIIIIIIIIIIIIIIIIIIIII
AAAAAAAAAAAAAAAAAAAAAAAAAAAAAAA11A11111111IIIIIIIIIIIIIIIIIIIIII
AAAAAAAAAAAAAAAAAAAAAAAAAAAAAAAA1A11111111IIIIIIIIIIIIIIIIIIIIII
AAAAAAAAAAAAAAAAAAAAAAAAAAAAAAAAAA11111111IIIIIIIIIIIIIIIIIIIIII
AAAAAAAAAAAAAAAAAAAAAAAAAAAAAAAAAA1A11111111IIIIIIIIIIIIIIIIIIII
AAAAAAAAAAAAAAAAAAAAAAAAAAAAAAAAAAAA11111111IIIIIIIIIIIIIIIIIIII
AAAAAAAAAAAAAAAAAAAAAAAAAAAAAAAAAAAA11A11111111IIIIIIIIIIIIIIIII
AAAAAAAAAAAAAAAAAAAAAAAAAAAAAAAAAAAAA1A11111111IIIIIIIIIIIIIIIII
AAAAAAAAAAAAAAAAAAAAAAAAAAAAAAAAAAAAAAA11111111IIIIIIIIIIIIIIIII
AAAAAAAAAAAAAAAAAAAAAAAAAAAAAAAAAAAAAAA1A11111111IIIIIIIIIIIIIII
AAAAAAAAAAAAAAAAAAAAAAAAAAAAAAAAAAAAAAAAA11111111IIIIIIIIIIIIIII
AAAAAAAAAAAAAAAAAAAAAAAAAAAAAAAAAAAAAAAAA11A11111111IIIIIIIIIIII
AAAAAAAAAAAAAAAAAAAAAAAAAAAAAAAAAAAAAAAAAA1A11111111IIIIIIIIIIII
AAAAAAAAAAAAAAAAAAAAAAAAAAAAAAAAAAAAAAAAAAAA11111111IIIIIIIIIIII
AAAAAAAAAAAAAAAAAAAAAAAAAAAAAAAAAAAAAAAAAAAA1A11111111IIIIIIIIII
AAAAAAAAAAAAAAAAAAAAAAAAAAAAAAAAAAAAAAAAAAAAAA11111111IIIIIIIIII
AAAAAAAAAAAAAAAAAAAAAAAAAAAAAAAAAAAAAAAAAAAAAA11A11111111IIIIIII
AAAAAAAAAAAAAAAAAAAAAAAAAAAAAAAAAAAAAAAAAAAAAAA1A11111111IIIIIII
AAAAAAAAAAAAAAAAAAAAAAAAAAAAAAAAAAAAAAAAAAAAAAAAA11111111IIIIIII
AAAAAAAAAAAAAAAAAAAAAAAAAAAAAAAAAAAAAAAAAAAAAAAAA1A11111111IIIII
AAAAAAAAAAAAAAAAAAAAAAAAAAAAAAAAAAAAAAAAAAAAAAAAAAA11111111IIIII
AAAAAAAAAAAAAAAAAAAAAAAAAAAAAAAAAAAAAAAAAAAAAAAAAAA11A11111111II
AAAAAAAAAAAAAAAAAAAAAAAAAAAAAAAAAAAAAAAAAAAAAAAAAAAA1A11111111II
AAAAAAAAAAAAAAAAAAAAAAAAAAAAAAAAAAAAAAAAAAAAAAAAAAAAAA11111111II
AAAAAAAAAAAAAAAAAAAAAAAAAAAAAAAAAAAAAAAAAAAAAAAAAAAAAA1A11111111
AAAAAAAAAAAAAAAAAAAAAAAAAAAAAAAAAAAAAAAAAAAAAAAAAAAAAAAA11111111
AAAAAAAAAAAAAAAAAAAAAAAAAAAAAAAAAAAAAAAAAAAAAAAAAAAAAAAA11A11111
AAAAAAAAAAAAAAAAAAAAAAAAAAAAAAAAAAAAAAAAAAAAAAAAAAAAAAAAA1A11111
AAAAAAAAAAAAAAAAAAAAAAAAAAAAAAAAAAAAAAAAAAAAAAAAAAAAAAAAAAA11111
AAAAAAAAAAAAAAAAAAAAAAAAAAAAAAAAAAAAAAAAAAAAAAAAAAAAAAAAAAA1A111
AAAAAAAAAAAAAAAAAAAAAAAAAAAAAAAAAAAAAAAAAAAAAAAAAAAAAAAAAAAAA111
AAAAAAAAAAAAAAAAAAAAAAAAAAAAAAAAAAAAAAAAAAAAAAAAAAAAAAAAAAAAA11A
AAAAAAAAAAAAAAAAAAAAAAAAAAAAAAAAAAAAAAAAAAAAAAAAAAAAAAAAAAAAAA1A
AAAAAAAAAAAAAAAAAAAAAAAAAAAAAAAAAAAAAAAAAAAAAAAAAAAAAAAAAAAAAAAA
[MLOP] Prefetch Degree Mean: 6.86903
[MLOP] Prefetch Degree SD: 1.58121
[MLOP] Max Score Left Mean (%): 83.8352
[MLOP] Max Score Left SD (%): 9.45425
[MLOP] Max Score Right Mean (%): 92.601
[MLOP] Max Score Right SD (%): 5.04862

DRAM Statistics
 CHANNEL 0
 RQ ROW_BUFFER_HIT:    5729647  ROW_BUFFER_MISS:   17112750
 DBUS_CONGESTED:          0
 WQ ROW_BUFFER_HIT:     795778  ROW_BUFFER_MISS:   16303672  FULL:       6250

 AVG_CONGESTED_CYCLE: -
 All warmup complete: 5
Channel 0 Bank busy for read cycles: 0
Channel 0 Bank busy for write cycles: 0
Channel 0
Rank 0
0banks busy for read cycles: 46
0banks busy for write cycles: 0
1banks busy for read cycles: 1622334
1banks busy for write cycles: 1618054
2banks busy for read cycles: 1660035
2banks busy for write cycles: 1618054
3banks busy for read cycles: 1768090
3banks busy for write cycles: 1618054
4banks busy for read cycles: 2086340
4banks busy for write cycles: 1618054
5banks busy for read cycles: 3250459
5banks busy for write cycles: 1618683
6banks busy for read cycles: 9530541
6banks busy for write cycles: 1764172
7banks busy for read cycles: 54540345
7banks busy for write cycles: 23547258
8banks busy for read cycles: 375613971
8banks busy for write cycles: 432697216

CPU 0 Branch Prediction Accuracy: 99.7951% MPKI: 0.0284215 Average ROB Occupancy at Mispredict: 236.893
Branch types
NOT_BRANCH: 197922201 98.6124%
BRANCH_DIRECT_JUMP: 1095963 0.54605%
BRANCH_INDIRECT: 0 0%
BRANCH_CONDITIONAL: 1689109 0.841578%
BRANCH_DIRECT_CALL: 0 0%
BRANCH_INDIRECT_CALL: 0 0%
BRANCH_RETURN: 0 0%
BRANCH_OTHER: 0 0%


CPU 1 Branch Prediction Accuracy: 99.7951% MPKI: 0.0284305 Average ROB Occupancy at Mispredict: 238.659
Branch types
NOT_BRANCH: 197224373 98.6122%
BRANCH_DIRECT_JUMP: 1092087 0.546043%
BRANCH_INDIRECT: 0 0%
BRANCH_CONDITIONAL: 1683217 0.841608%
BRANCH_DIRECT_CALL: 0 0%
BRANCH_INDIRECT_CALL: 0 0%
BRANCH_RETURN: 0 0%
BRANCH_OTHER: 0 0%


CPU 2 Branch Prediction Accuracy: 99.7951% MPKI: 0.028434 Average ROB Occupancy at Mispredict: 237.687
Branch types
NOT_BRANCH: 197473501 98.6124%
BRANCH_DIRECT_JUMP: 1093471 0.546047%
BRANCH_INDIRECT: 0 0%
BRANCH_CONDITIONAL: 1685323 0.8416%
BRANCH_DIRECT_CALL: 0 0%
BRANCH_INDIRECT_CALL: 0 0%
BRANCH_RETURN: 0 0%
BRANCH_OTHER: 0 0%


CPU 3 Branch Prediction Accuracy: 99.7951% MPKI: 0.0284352 Average ROB Occupancy at Mispredict: 236.627
Branch types
NOT_BRANCH: 198194339 98.6124%
BRANCH_DIRECT_JUMP: 1097475 0.546053%
BRANCH_INDIRECT: 0 0%
BRANCH_CONDITIONAL: 1691409 0.841567%
BRANCH_DIRECT_CALL: 0 0%
BRANCH_INDIRECT_CALL: 0 0%
BRANCH_RETURN: 0 0%
BRANCH_OTHER: 0 0%

DRAM PAGES: 1048576
Allocated PAGES: 226199
