
*** ChampSim Multicore Out-of-Order Simulator ***

Warmup Instructions: 50000000
Simulation Instructions: 200000000
Number of CPUs: 4
LLC sets: 8192
LLC ways: 16
Off-chip DRAM Size: 4096 MB Channels: 1 Width: 64-bit Data Rate: 6400 MT/s
CPU 0 runs ./traces/ligra/ligra_BFSCC.com-lj.ungraph.gcc_6.3.0_O3.drop_22000M.length_250M.champsimtrace.xz
.xz
CPU 1 runs ./traces/ligra/ligra_BFSCC.com-lj.ungraph.gcc_6.3.0_O3.drop_22000M.length_250M.champsimtrace.xz
.xz
CPU 2 runs ./traces/ligra/ligra_BFSCC.com-lj.ungraph.gcc_6.3.0_O3.drop_22000M.length_250M.champsimtrace.xz
.xz
CPU 3 runs ./traces/ligra/ligra_BFSCC.com-lj.ungraph.gcc_6.3.0_O3.drop_22000M.length_250M.champsimtrace.xz
.xz
BTB has LRU replacement policy
ITLB has LRU replacement policy
DTLB has LRU replacement policy
STLB has LRU replacement policy
L1I has LRU replacement policy
L1D has LRU replacement policy
Initialize SRRIP state for L2C
Initialize DRRIP state for LLC
BTB has LRU replacement policy
ITLB has LRU replacement policy
DTLB has LRU replacement policy
STLB has LRU replacement policy
L1I has LRU replacement policy
L1D has LRU replacement policy
Initialize SRRIP state for L2C
Initialize DRRIP state for LLC
BTB has LRU replacement policy
ITLB has LRU replacement policy
DTLB has LRU replacement policy
STLB has LRU replacement policy
L1I has LRU replacement policy
L1D has LRU replacement policy
Initialize SRRIP state for L2C
Initialize DRRIP state for LLC
BTB has LRU replacement policy
ITLB has LRU replacement policy
DTLB has LRU replacement policy
STLB has LRU replacement policy
L1I has LRU replacement policy
L1D has LRU replacement policy
Initialize SRRIP state for L2C
Initialize DRRIP state for LLC
Heartbeat CPU 0 instructions: 10000002 cycles: 3235675 heartbeat IPC: 3.09055 cumulative IPC: 3.09055 (Simulation time: 0 hr 3 min 22 sec) 
Heartbeat CPU 1 instructions: 10000002 cycles: 3235979 heartbeat IPC: 3.09026 cumulative IPC: 3.09026 (Simulation time: 0 hr 3 min 22 sec) 
Heartbeat CPU 2 instructions: 10000002 cycles: 3236502 heartbeat IPC: 3.08976 cumulative IPC: 3.08976 (Simulation time: 0 hr 3 min 22 sec) 
Heartbeat CPU 3 instructions: 10000002 cycles: 3236525 heartbeat IPC: 3.08973 cumulative IPC: 3.08973 (Simulation time: 0 hr 3 min 22 sec) 
Heartbeat CPU 0 instructions: 20000002 cycles: 6451619 heartbeat IPC: 3.10951 cumulative IPC: 3.1 (Simulation time: 0 hr 6 min 42 sec) 
Heartbeat CPU 1 instructions: 20000002 cycles: 6452316 heartbeat IPC: 3.10913 cumulative IPC: 3.09966 (Simulation time: 0 hr 6 min 42 sec) 
Heartbeat CPU 2 instructions: 20000002 cycles: 6453124 heartbeat IPC: 3.10885 cumulative IPC: 3.09927 (Simulation time: 0 hr 6 min 42 sec) 
Heartbeat CPU 3 instructions: 20000002 cycles: 6453314 heartbeat IPC: 3.10869 cumulative IPC: 3.09918 (Simulation time: 0 hr 6 min 42 sec) 
Heartbeat CPU 0 instructions: 30000002 cycles: 9624853 heartbeat IPC: 3.15136 cumulative IPC: 3.11693 (Simulation time: 0 hr 10 min 0 sec) 
Heartbeat CPU 1 instructions: 30000002 cycles: 9625693 heartbeat IPC: 3.15122 cumulative IPC: 3.11666 (Simulation time: 0 hr 10 min 0 sec) 
Heartbeat CPU 2 instructions: 30000002 cycles: 9626818 heartbeat IPC: 3.1509 cumulative IPC: 3.11629 (Simulation time: 0 hr 10 min 0 sec) 
Heartbeat CPU 3 instructions: 30000002 cycles: 9627088 heartbeat IPC: 3.15082 cumulative IPC: 3.11621 (Simulation time: 0 hr 10 min 0 sec) 
Heartbeat CPU 0 instructions: 40000000 cycles: 12762610 heartbeat IPC: 3.18699 cumulative IPC: 3.13416 (Simulation time: 0 hr 13 min 47 sec) 
Heartbeat CPU 1 instructions: 40000000 cycles: 12763744 heartbeat IPC: 3.18669 cumulative IPC: 3.13388 (Simulation time: 0 hr 13 min 47 sec) 
Heartbeat CPU 2 instructions: 40000000 cycles: 12765043 heartbeat IPC: 3.18651 cumulative IPC: 3.13356 (Simulation time: 0 hr 13 min 47 sec) 
Heartbeat CPU 3 instructions: 40000000 cycles: 12765877 heartbeat IPC: 3.18594 cumulative IPC: 3.13335 (Simulation time: 0 hr 13 min 47 sec) 
Heartbeat CPU 0 instructions: 50000001 cycles: 15877536 heartbeat IPC: 3.21035 cumulative IPC: 3.1491 (Simulation time: 0 hr 17 min 26 sec) 
Heartbeat CPU 1 instructions: 50000001 cycles: 15878722 heartbeat IPC: 3.2103 cumulative IPC: 3.14887 (Simulation time: 0 hr 17 min 26 sec) 
Heartbeat CPU 2 instructions: 50000001 cycles: 15880094 heartbeat IPC: 3.21022 cumulative IPC: 3.1486 (Simulation time: 0 hr 17 min 26 sec) 
Heartbeat CPU 3 instructions: 50000001 cycles: 15882307 heartbeat IPC: 3.2088 cumulative IPC: 3.14816 (Simulation time: 0 hr 17 min 26 sec) 

Warmup complete CPU 0 instructions: 50008439 cycles: 15882307 (Simulation time: 0 hr 17 min 26 sec) 
Warmup complete CPU 1 instructions: 50006381 cycles: 15882307 (Simulation time: 0 hr 17 min 26 sec) 
Warmup complete CPU 2 instructions: 50003970 cycles: 15882307 (Simulation time: 0 hr 17 min 26 sec) 
Warmup complete CPU 3 instructions: 50000001 cycles: 15882307 (Simulation time: 0 hr 17 min 26 sec) 

Heartbeat CPU 2 instructions: 60000000 cycles: 68362433 heartbeat IPC: 0.19054 cumulative IPC: 0.190473 (Simulation time: 0 hr 21 min 56 sec) 
Heartbeat CPU 1 instructions: 60000000 cycles: 68639408 heartbeat IPC: 0.189535 cumulative IPC: 0.189427 (Simulation time: 0 hr 21 min 57 sec) 
Heartbeat CPU 0 instructions: 60000000 cycles: 68772875 heartbeat IPC: 0.189053 cumulative IPC: 0.18891 (Simulation time: 0 hr 21 min 58 sec) 
Heartbeat CPU 3 instructions: 60000000 cycles: 68965312 heartbeat IPC: 0.188384 cumulative IPC: 0.188384 (Simulation time: 0 hr 21 min 59 sec) 
Heartbeat CPU 2 instructions: 70000000 cycles: 121795605 heartbeat IPC: 0.18715 cumulative IPC: 0.188796 (Simulation time: 0 hr 26 min 44 sec) 
Heartbeat CPU 0 instructions: 70000000 cycles: 122073467 heartbeat IPC: 0.187615 cumulative IPC: 0.18826 (Simulation time: 0 hr 26 min 45 sec) 
Heartbeat CPU 1 instructions: 70000000 cycles: 122079589 heartbeat IPC: 0.187125 cumulative IPC: 0.188269 (Simulation time: 0 hr 26 min 45 sec) 
Heartbeat CPU 3 instructions: 70000000 cycles: 123238064 heartbeat IPC: 0.184255 cumulative IPC: 0.186296 (Simulation time: 0 hr 26 min 51 sec) 
Heartbeat CPU 2 instructions: 80000001 cycles: 154926182 heartbeat IPC: 0.301836 cumulative IPC: 0.215731 (Simulation time: 0 hr 30 min 30 sec) 
Heartbeat CPU 0 instructions: 80000001 cycles: 155071321 heartbeat IPC: 0.30305 cumulative IPC: 0.215474 (Simulation time: 0 hr 30 min 33 sec) 
Heartbeat CPU 1 instructions: 80000001 cycles: 155232700 heartbeat IPC: 0.301631 cumulative IPC: 0.215239 (Simulation time: 0 hr 30 min 35 sec) 
Heartbeat CPU 3 instructions: 80000001 cycles: 155940106 heartbeat IPC: 0.305791 cumulative IPC: 0.214197 (Simulation time: 0 hr 30 min 46 sec) 
Heartbeat CPU 2 instructions: 90000000 cycles: 163310703 heartbeat IPC: 1.19267 cumulative IPC: 0.271291 (Simulation time: 0 hr 32 min 33 sec) 
Heartbeat CPU 0 instructions: 90000000 cycles: 163455393 heartbeat IPC: 1.19274 cumulative IPC: 0.270995 (Simulation time: 0 hr 32 min 36 sec) 
Heartbeat CPU 1 instructions: 90000000 cycles: 163616730 heartbeat IPC: 1.19274 cumulative IPC: 0.270713 (Simulation time: 0 hr 32 min 39 sec) 
Heartbeat CPU 3 instructions: 90000000 cycles: 164324522 heartbeat IPC: 1.19269 cumulative IPC: 0.269465 (Simulation time: 0 hr 32 min 49 sec) 
Heartbeat CPU 2 instructions: 100000000 cycles: 171678791 heartbeat IPC: 1.19502 cumulative IPC: 0.320906 (Simulation time: 0 hr 34 min 39 sec) 
Heartbeat CPU 0 instructions: 100000000 cycles: 171820988 heartbeat IPC: 1.19537 cumulative IPC: 0.320585 (Simulation time: 0 hr 34 min 41 sec) 
Heartbeat CPU 1 instructions: 100000000 cycles: 171985250 heartbeat IPC: 1.19495 cumulative IPC: 0.320261 (Simulation time: 0 hr 34 min 43 sec) 
Heartbeat CPU 3 instructions: 100000000 cycles: 172691286 heartbeat IPC: 1.19521 cumulative IPC: 0.318859 (Simulation time: 0 hr 34 min 53 sec) 
Heartbeat CPU 2 instructions: 110000000 cycles: 180016110 heartbeat IPC: 1.19943 cumulative IPC: 0.365531 (Simulation time: 0 hr 36 min 42 sec) 
Heartbeat CPU 0 instructions: 110000000 cycles: 180158315 heartbeat IPC: 1.19943 cumulative IPC: 0.365188 (Simulation time: 0 hr 36 min 44 sec) 
Heartbeat CPU 1 instructions: 110000000 cycles: 180322559 heartbeat IPC: 1.19943 cumulative IPC: 0.364835 (Simulation time: 0 hr 36 min 47 sec) 
Heartbeat CPU 3 instructions: 110000000 cycles: 181028619 heartbeat IPC: 1.19942 cumulative IPC: 0.363314 (Simulation time: 0 hr 36 min 57 sec) 
Heartbeat CPU 2 instructions: 120000001 cycles: 190697201 heartbeat IPC: 0.936234 cumulative IPC: 0.400401 (Simulation time: 0 hr 38 min 50 sec) 
Heartbeat CPU 0 instructions: 120000001 cycles: 190839540 heartbeat IPC: 0.936222 cumulative IPC: 0.40005 (Simulation time: 0 hr 38 min 51 sec) 
Heartbeat CPU 1 instructions: 120000001 cycles: 191004786 heartbeat IPC: 0.936134 cumulative IPC: 0.399684 (Simulation time: 0 hr 38 min 53 sec) 
Heartbeat CPU 3 instructions: 120000001 cycles: 191711894 heartbeat IPC: 0.936043 cumulative IPC: 0.398113 (Simulation time: 0 hr 38 min 59 sec) 
Heartbeat CPU 2 instructions: 130000000 cycles: 205556757 heartbeat IPC: 0.672968 cumulative IPC: 0.421754 (Simulation time: 0 hr 41 min 14 sec) 
Heartbeat CPU 0 instructions: 130000000 cycles: 205700245 heartbeat IPC: 0.672916 cumulative IPC: 0.421412 (Simulation time: 0 hr 41 min 15 sec) 
Heartbeat CPU 1 instructions: 130000000 cycles: 205863813 heartbeat IPC: 0.672992 cumulative IPC: 0.42106 (Simulation time: 0 hr 41 min 17 sec) 
Heartbeat CPU 3 instructions: 130000000 cycles: 206573610 heartbeat IPC: 0.67287 cumulative IPC: 0.419526 (Simulation time: 0 hr 41 min 23 sec) 
Heartbeat CPU 2 instructions: 140000001 cycles: 216336400 heartbeat IPC: 0.927675 cumulative IPC: 0.448961 (Simulation time: 0 hr 43 min 21 sec) 
Heartbeat CPU 0 instructions: 140000001 cycles: 216480049 heartbeat IPC: 0.927661 cumulative IPC: 0.448617 (Simulation time: 0 hr 43 min 23 sec) 
Heartbeat CPU 1 instructions: 140000001 cycles: 216644529 heartbeat IPC: 0.927582 cumulative IPC: 0.44826 (Simulation time: 0 hr 43 min 26 sec) 
Heartbeat CPU 3 instructions: 140000001 cycles: 217352776 heartbeat IPC: 0.927716 cumulative IPC: 0.446716 (Simulation time: 0 hr 43 min 36 sec) 
Heartbeat CPU 2 instructions: 150000001 cycles: 266244380 heartbeat IPC: 0.200369 cumulative IPC: 0.399406 (Simulation time: 0 hr 50 min 22 sec) 
Heartbeat CPU 0 instructions: 150000000 cycles: 266540009 heartbeat IPC: 0.19976 cumulative IPC: 0.398917 (Simulation time: 0 hr 50 min 24 sec) 
Heartbeat CPU 1 instructions: 150000002 cycles: 267087768 heartbeat IPC: 0.198243 cumulative IPC: 0.398055 (Simulation time: 0 hr 50 min 29 sec) 
Heartbeat CPU 3 instructions: 150000000 cycles: 267835696 heartbeat IPC: 0.198087 cumulative IPC: 0.396899 (Simulation time: 0 hr 50 min 35 sec) 
Heartbeat CPU 1 instructions: 160000002 cycles: 318409753 heartbeat IPC: 0.194848 cumulative IPC: 0.363582 (Simulation time: 0 hr 57 min 7 sec) 
Heartbeat CPU 0 instructions: 160000001 cycles: 318413332 heartbeat IPC: 0.192777 cumulative IPC: 0.363571 (Simulation time: 0 hr 57 min 7 sec) 
Heartbeat CPU 2 instructions: 160000001 cycles: 318448913 heartbeat IPC: 0.191554 cumulative IPC: 0.363543 (Simulation time: 0 hr 57 min 8 sec) 
Heartbeat CPU 3 instructions: 160000002 cycles: 319130341 heartbeat IPC: 0.194952 cumulative IPC: 0.362739 (Simulation time: 0 hr 57 min 14 sec) 
Heartbeat CPU 0 instructions: 170000001 cycles: 346649466 heartbeat IPC: 0.354156 cumulative IPC: 0.362767 (Simulation time: 1 hr 0 min 41 sec) 
Heartbeat CPU 1 instructions: 170000001 cycles: 346809465 heartbeat IPC: 0.352116 cumulative IPC: 0.362598 (Simulation time: 1 hr 0 min 42 sec) 
Heartbeat CPU 2 instructions: 170000001 cycles: 346868939 heartbeat IPC: 0.351865 cumulative IPC: 0.36254 (Simulation time: 1 hr 0 min 42 sec) 
Heartbeat CPU 3 instructions: 170000001 cycles: 347357155 heartbeat IPC: 0.354273 cumulative IPC: 0.362018 (Simulation time: 1 hr 0 min 45 sec) 
Heartbeat CPU 0 instructions: 180000000 cycles: 377475372 heartbeat IPC: 0.324402 cumulative IPC: 0.359497 (Simulation time: 1 hr 4 min 19 sec) 
Heartbeat CPU 1 instructions: 180000000 cycles: 377505047 heartbeat IPC: 0.32578 cumulative IPC: 0.359473 (Simulation time: 1 hr 4 min 19 sec) 
Heartbeat CPU 2 instructions: 180000000 cycles: 377816768 heartbeat IPC: 0.323124 cumulative IPC: 0.35917 (Simulation time: 1 hr 4 min 22 sec) 
Heartbeat CPU 3 instructions: 180000000 cycles: 378199046 heartbeat IPC: 0.324234 cumulative IPC: 0.358802 (Simulation time: 1 hr 4 min 24 sec) 
Heartbeat CPU 1 instructions: 190000002 cycles: 408379368 heartbeat IPC: 0.323894 cumulative IPC: 0.356674 (Simulation time: 1 hr 8 min 3 sec) 
Heartbeat CPU 0 instructions: 190000002 cycles: 408632483 heartbeat IPC: 0.320954 cumulative IPC: 0.356439 (Simulation time: 1 hr 8 min 4 sec) 
Heartbeat CPU 2 instructions: 190000002 cycles: 409284899 heartbeat IPC: 0.317782 cumulative IPC: 0.355859 (Simulation time: 1 hr 8 min 9 sec) 
Heartbeat CPU 3 instructions: 190000002 cycles: 409775674 heartbeat IPC: 0.31669 cumulative IPC: 0.355426 (Simulation time: 1 hr 8 min 13 sec) 
Heartbeat CPU 0 instructions: 200000000 cycles: 441255230 heartbeat IPC: 0.306535 cumulative IPC: 0.352612 (Simulation time: 1 hr 11 min 58 sec) 
Heartbeat CPU 1 instructions: 200000000 cycles: 441952256 heartbeat IPC: 0.297859 cumulative IPC: 0.35204 (Simulation time: 1 hr 12 min 4 sec) 
Heartbeat CPU 2 instructions: 200000000 cycles: 442882845 heartbeat IPC: 0.297637 cumulative IPC: 0.351278 (Simulation time: 1 hr 12 min 11 sec) 
Heartbeat CPU 3 instructions: 200000000 cycles: 443037389 heartbeat IPC: 0.300646 cumulative IPC: 0.351161 (Simulation time: 1 hr 12 min 12 sec) 
Heartbeat CPU 0 instructions: 210000002 cycles: 473513926 heartbeat IPC: 0.309994 cumulative IPC: 0.349608 (Simulation time: 1 hr 15 min 59 sec) 
Heartbeat CPU 1 instructions: 210000003 cycles: 475295724 heartbeat IPC: 0.299909 cumulative IPC: 0.348256 (Simulation time: 1 hr 16 min 11 sec) 
Heartbeat CPU 3 instructions: 210000002 cycles: 475608124 heartbeat IPC: 0.307024 cumulative IPC: 0.348034 (Simulation time: 1 hr 16 min 14 sec) 
Heartbeat CPU 2 instructions: 210000002 cycles: 476305967 heartbeat IPC: 0.299194 cumulative IPC: 0.347497 (Simulation time: 1 hr 16 min 20 sec) 
Heartbeat CPU 0 instructions: 220000000 cycles: 507381311 heartbeat IPC: 0.295269 cumulative IPC: 0.345863 (Simulation time: 1 hr 20 min 11 sec) 
Heartbeat CPU 3 instructions: 220000000 cycles: 509439857 heartbeat IPC: 0.29558 cumulative IPC: 0.344438 (Simulation time: 1 hr 20 min 25 sec) 
Heartbeat CPU 1 instructions: 220000000 cycles: 509967592 heartbeat IPC: 0.288418 cumulative IPC: 0.344057 (Simulation time: 1 hr 20 min 29 sec) 
Heartbeat CPU 2 instructions: 220000000 cycles: 510902738 heartbeat IPC: 0.289044 cumulative IPC: 0.343412 (Simulation time: 1 hr 20 min 35 sec) 
Heartbeat CPU 0 instructions: 230000002 cycles: 543665474 heartbeat IPC: 0.275602 cumulative IPC: 0.341033 (Simulation time: 1 hr 24 min 26 sec) 
Heartbeat CPU 3 instructions: 230000002 cycles: 546031576 heartbeat IPC: 0.273286 cumulative IPC: 0.339527 (Simulation time: 1 hr 24 min 41 sec) 
Heartbeat CPU 1 instructions: 230000002 cycles: 546903107 heartbeat IPC: 0.270742 cumulative IPC: 0.338958 (Simulation time: 1 hr 24 min 46 sec) 
Heartbeat CPU 2 instructions: 230000002 cycles: 547755351 heartbeat IPC: 0.271351 cumulative IPC: 0.338419 (Simulation time: 1 hr 24 min 52 sec) 
Heartbeat CPU 0 instructions: 240000002 cycles: 583499178 heartbeat IPC: 0.251044 cumulative IPC: 0.334718 (Simulation time: 1 hr 28 min 42 sec) 
Heartbeat CPU 3 instructions: 240000002 cycles: 585920665 heartbeat IPC: 0.250695 cumulative IPC: 0.333311 (Simulation time: 1 hr 28 min 56 sec) 
Heartbeat CPU 1 instructions: 240000002 cycles: 586816684 heartbeat IPC: 0.250541 cumulative IPC: 0.332777 (Simulation time: 1 hr 29 min 2 sec) 
Heartbeat CPU 2 instructions: 240000002 cycles: 587455231 heartbeat IPC: 0.25189 cumulative IPC: 0.332409 (Simulation time: 1 hr 29 min 5 sec) 
*** Reached end of trace for Core: 0 Repeating trace: ./traces/ligra/ligra_BFSCC.com-lj.ungraph.gcc_6.3.0_O3.drop_22000M.length_250M.champsimtrace.xz
Heartbeat CPU 0 instructions: 250000000 cycles: 627184883 heartbeat IPC: 0.228908 cumulative IPC: 0.327156 (Simulation time: 1 hr 32 min 57 sec) 
Finished CPU 0 instructions: 200000001 cycles: 611424614 cumulative IPC: 0.327105 (Simulation time: 1 hr 32 min 57 sec) 
*** Reached end of trace for Core: 3 Repeating trace: ./traces/ligra/ligra_BFSCC.com-lj.ungraph.gcc_6.3.0_O3.drop_22000M.length_250M.champsimtrace.xz
Heartbeat CPU 3 instructions: 250000000 cycles: 629880880 heartbeat IPC: 0.227478 cumulative IPC: 0.325734 (Simulation time: 1 hr 33 min 10 sec) 
Finished CPU 3 instructions: 200000002 cycles: 613998577 cumulative IPC: 0.325734 (Simulation time: 1 hr 33 min 10 sec) 
*** Reached end of trace for Core: 1 Repeating trace: ./traces/ligra/ligra_BFSCC.com-lj.ungraph.gcc_6.3.0_O3.drop_22000M.length_250M.champsimtrace.xz
Heartbeat CPU 1 instructions: 250000000 cycles: 631328219 heartbeat IPC: 0.224661 cumulative IPC: 0.324957 (Simulation time: 1 hr 33 min 17 sec) 
Finished CPU 1 instructions: 200000000 cycles: 615538212 cumulative IPC: 0.324919 (Simulation time: 1 hr 33 min 18 sec) 
*** Reached end of trace for Core: 2 Repeating trace: ./traces/ligra/ligra_BFSCC.com-lj.ungraph.gcc_6.3.0_O3.drop_22000M.length_250M.champsimtrace.xz
Heartbeat CPU 2 instructions: 250000000 cycles: 631840180 heartbeat IPC: 0.225302 cumulative IPC: 0.324691 (Simulation time: 1 hr 33 min 19 sec) 
Finished CPU 2 instructions: 200000002 cycles: 616031392 cumulative IPC: 0.324659 (Simulation time: 1 hr 33 min 20 sec) 

ChampSim completed all CPUs

Total Simulation Statistics (not including warmup)

CPU 0 cumulative IPC: 0.325999 instructions: 200825476 cycles: 616031392
ITLB TOTAL     ACCESS:   35592433  HIT:   35592423  MISS:         10  HIT %:        100  MISS %: 2.80959e-05   MPKI: 4.97945e-05
ITLB LOAD      ACCESS:          0  HIT:          0  MISS:          0  HIT %:       -nan  MISS %:       -nan   MPKI: 0
ITLB RFO       ACCESS:          0  HIT:          0  MISS:          0  HIT %:       -nan  MISS %:       -nan   MPKI: 0
ITLB PREFETCH  ACCESS:          0  HIT:          0  MISS:          0  HIT %:       -nan  MISS %:       -nan   MPKI: 0
ITLB WRITEBACK ACCESS:          0  HIT:          0  MISS:          0  HIT %:       -nan  MISS %:       -nan   MPKI: 0
DTLB TOTAL     ACCESS:   38906567  HIT:   36968633  MISS:    1937934  HIT %:     95.019  MISS %:    4.98099   MPKI: 9.64984
DTLB LOAD      ACCESS:          0  HIT:          0  MISS:          0  HIT %:       -nan  MISS %:       -nan   MPKI: 0
DTLB RFO       ACCESS:          0  HIT:          0  MISS:          0  HIT %:       -nan  MISS %:       -nan   MPKI: 0
DTLB PREFETCH  ACCESS:          0  HIT:          0  MISS:          0  HIT %:       -nan  MISS %:       -nan   MPKI: 0
DTLB WRITEBACK ACCESS:          0  HIT:          0  MISS:          0  HIT %:       -nan  MISS %:       -nan   MPKI: 0
STLB TOTAL     ACCESS:    5229938  HIT:    5142010  MISS:      87928  HIT %:    98.3188  MISS %:    1.68124   MPKI: 0.437833
STLB LOAD      ACCESS:          0  HIT:          0  MISS:          0  HIT %:       -nan  MISS %:       -nan   MPKI: 0
STLB RFO       ACCESS:          0  HIT:          0  MISS:          0  HIT %:       -nan  MISS %:       -nan   MPKI: 0
STLB PREFETCH  ACCESS:          0  HIT:          0  MISS:          0  HIT %:       -nan  MISS %:       -nan   MPKI: 0
STLB WRITEBACK ACCESS:          0  HIT:          0  MISS:          0  HIT %:       -nan  MISS %:       -nan   MPKI: 0
L1D TOTAL     ACCESS:   45248913  HIT:   34453290  MISS:   10795623  HIT %:    76.1417  MISS %:    23.8583   MPKI: 53.7562
L1D LOAD      ACCESS:   31471663  HIT:   27637964  MISS:    3833699  HIT %:    87.8186  MISS %:    12.1814   MPKI: 19.0897
L1D RFO       ACCESS:    7177876  HIT:    6815152  MISS:     362724  HIT %:    94.9466  MISS %:    5.05336   MPKI: 1.80617
L1D PREFETCH  ACCESS:    6599374  HIT:        174  MISS:    6599200  HIT %: 0.00263661  MISS %:    99.9974   MPKI: 32.8604
L1D WRITEBACK ACCESS:          0  HIT:          0  MISS:          0  HIT %:       -nan  MISS %:       -nan   MPKI: 0
L1I TOTAL     ACCESS:   40120595  HIT:   40120449  MISS:        146  HIT %:    99.9996  MISS %: 0.000363903   MPKI: 0.000726999
L1I LOAD      ACCESS:   40120595  HIT:   40120449  MISS:        146  HIT %:    99.9996  MISS %: 0.000363903   MPKI: 0.000726999
L1I RFO       ACCESS:          0  HIT:          0  MISS:          0  HIT %:       -nan  MISS %:       -nan   MPKI: 0
L1I PREFETCH  ACCESS:          0  HIT:          0  MISS:          0  HIT %:       -nan  MISS %:       -nan   MPKI: 0
L1I WRITEBACK ACCESS:          0  HIT:          0  MISS:          0  HIT %:       -nan  MISS %:       -nan   MPKI: 0
L2C TOTAL     ACCESS:   12633543  HIT:    2613229  MISS:   10020314  HIT %:    20.6848  MISS %:    79.3152   MPKI: 49.8956
L2C LOAD      ACCESS:    3636135  HIT:     925083  MISS:    2711052  HIT %:    25.4414  MISS %:    74.5586   MPKI: 13.4995
L2C RFO       ACCESS:     362724  HIT:         13  MISS:     362711  HIT %: 0.00358399  MISS %:    99.9964   MPKI: 1.8061
L2C PREFETCH  ACCESS:    8003425  HIT:    1096722  MISS:    6906703  HIT %:    13.7032  MISS %:    86.2968   MPKI: 34.3916
L2C WRITEBACK ACCESS:     543234  HIT:     516312  MISS:      26922  HIT %:    95.0441  MISS %:    4.95588   MPKI: 0.134057
PSCL5 TOTAL     ACCESS:      87928  HIT:      87928  MISS:          0  HIT %:        100  MISS %:          0   MPKI: 0
PSCL5 LOAD      ACCESS:          0  HIT:          0  MISS:          0  HIT %:       -nan  MISS %:       -nan   MPKI: 0
PSCL5 RFO       ACCESS:          0  HIT:          0  MISS:          0  HIT %:       -nan  MISS %:       -nan   MPKI: 0
PSCL5 PREFETCH  ACCESS:          0  HIT:          0  MISS:          0  HIT %:       -nan  MISS %:       -nan   MPKI: 0
PSCL5 WRITEBACK ACCESS:          0  HIT:          0  MISS:          0  HIT %:       -nan  MISS %:       -nan   MPKI: 0
PSCL4 TOTAL     ACCESS:      87928  HIT:      87928  MISS:          0  HIT %:        100  MISS %:          0   MPKI: 0
PSCL4 LOAD      ACCESS:          0  HIT:          0  MISS:          0  HIT %:       -nan  MISS %:       -nan   MPKI: 0
PSCL4 RFO       ACCESS:          0  HIT:          0  MISS:          0  HIT %:       -nan  MISS %:       -nan   MPKI: 0
PSCL4 PREFETCH  ACCESS:          0  HIT:          0  MISS:          0  HIT %:       -nan  MISS %:       -nan   MPKI: 0
PSCL4 WRITEBACK ACCESS:          0  HIT:          0  MISS:          0  HIT %:       -nan  MISS %:       -nan   MPKI: 0
PSCL3 TOTAL     ACCESS:      87928  HIT:      87928  MISS:          0  HIT %:        100  MISS %:          0   MPKI: 0
PSCL3 LOAD      ACCESS:          0  HIT:          0  MISS:          0  HIT %:       -nan  MISS %:       -nan   MPKI: 0
PSCL3 RFO       ACCESS:          0  HIT:          0  MISS:          0  HIT %:       -nan  MISS %:       -nan   MPKI: 0
PSCL3 PREFETCH  ACCESS:          0  HIT:          0  MISS:          0  HIT %:       -nan  MISS %:       -nan   MPKI: 0
PSCL3 WRITEBACK ACCESS:          0  HIT:          0  MISS:          0  HIT %:       -nan  MISS %:       -nan   MPKI: 0
PSCL2 TOTAL     ACCESS:      87928  HIT:      87721  MISS:        207  HIT %:    99.7646  MISS %:    0.23542   MPKI: 0.00103075
PSCL2 LOAD      ACCESS:          0  HIT:          0  MISS:          0  HIT %:       -nan  MISS %:       -nan   MPKI: 0
PSCL2 RFO       ACCESS:          0  HIT:          0  MISS:          0  HIT %:       -nan  MISS %:       -nan   MPKI: 0
PSCL2 PREFETCH  ACCESS:          0  HIT:          0  MISS:          0  HIT %:       -nan  MISS %:       -nan   MPKI: 0
PSCL2 WRITEBACK ACCESS:          0  HIT:          0  MISS:          0  HIT %:       -nan  MISS %:       -nan   MPKI: 0
=== CPU 0 L1D Prefetcher Statistics ===
[MLOP] History of tracked zone:
IIIIIIIIIIIIIIIIIIIIIIIIIIIIIIIIIIIIIIIIIIIIIIIIIIIIIIIIIIIIIIII
IIIIIIIIIIIIIIIIIAIIIIIIIIIIIIIIIIIIIIIIIIIIIIIIIIIIIIIIIIIIIIII
IIIIIIIIIIIIIIIIIAIIIIIIIIIIIIIIAIIIIIIIIIIIIIIIIIIIIIIIIIIIIIII
IIIIIIIIIIIIIIIIIAIIIIIIIIIIIIIIAIIIIIIIIIIIIIIIAIIIIIIIIIIIIIII
IIIIIIIIIIIIIAIIIAIIIIIIIIIIIIIIAIIIIIIIIIIIIIIIAIIIIIIIIIIIIIII
IIIIIIIIIIIIIAIIIAIIIIIIIIIIIIIIAIAIIIIIIIIIIIIIAIIIIIIIIIIIIIII
IIIIIIIIIIIIIAIIIAIIAIIIIIIIIIIIAIAIIIIIIIIIIIIIAIIIIIIIIIIIIIII
IIIIIIIIIIIIIAIIIAIIAIIIIIIIIIIIAIAIIIIIIIIIIIIIAIIIIIIIAIIIIIII
IIIIIIIIIIIIIAIIIAIIAIIIIIIIIIIIAIAIIIIIIIIIIIIIAIAIIIIIAIIIIIII
IIIIIIIIIIIIIAIIIAIIAIIIIIIIIIIIAIAIIIA2I22IIIIIAIAIIIIIAIIIIIII
IIIIIIIIIIIIIAIIIAIIA2I22IIIIIIIAIAIIIA2I22IIIIIAIAIIIIIAIIIIIII
IIIIIIIIIIIIIAIIIAIIA2I22IIIIIIIAIAIIAA2222IIIIIAIAIIIIIAIIIIIII
IIIIIA1IIIIIIIIIIIIIIIIIIIIIIIIIIIIIIIIIIIIIIIIIIIIIIIIIIIIIIIII
IIIIIA1IIIIIIIIIIIIIIIIIIIIIIIIIIIIIIIIIIIIIIAIIIIIIIIIIIIIIIIII
IIIIIA1IIIIIIIIIIIIIIIIIIIIIIIIIIIIIIIIIIIIAIAIIIIIIIIIIIIIIIIII
IIIIIIIIIIIIIIIIIIIIIIIIIIIIIIIIIIIIIIIIIIA2222IIIIIIIIIIIIIIIII
IIIIIIIIIIIIIIIIIIIIIIIIIIIIIIIIIIIIIIIIIIA2222IIIIIIIIIIIIA2222
IIIIIIIIIIIIIIIIIIIIIIIIIIIIA1IIIIIIIIIIIIA2222IIIIIIIIIIIIA2222
IIIIIIIIIIIIIIIIIIIIIIIA1I12A1I2IIIIIIIIIIA2222IIIIIIIIIIIIA2222
IIIIIIIIIIIIIIIIIIIIIIIA1I12A1I2IIIIAIIIIIA2222IIIIIIIIIIIIA2222
IIIIIIIIIIIAIIIIIIIIIIIA1I12A1I2IIIIAIIIIIA2222IIIIIIIIIIIIA2222
IIIIIIIIIIIAIIIIIIIIIIIA1I12A1I2IIIIAIIIIIA2222IIIIIIIIAIIIA2222
IIIIIIIIIIIAIIIIIIIIIIIA1IA2A11222IIAIIIIIA2222IIIIIIIIAIIIA2222
IIIIIIIIIIIAIAIIIIIIIIIA1IA2A11222IIAIIIIIA2222IIIIIIIIAIIIA2222
IIIIIIIIIIIAIAIIIIIIIIIA1IA2A11222IIAIIIIIA2222IIIIIIIIAAIIA2222
IIIIIIIIIIIAIAIIIIIIIIIA1IA2A11222IIAIIIIIA2222IIIIIIIAAAIIA2222
IIIIIIIIIIIAIAIIIIIIIIIA1IA2A11222IIAIIIIIA2222IIIIIIIAAA2IA2222
IIIIIAIIIIIAIAIIIIIIIIIA1IA2A11222IIAIIIIIA2222IIIIIIIAAA2IA2222
IIIIIA11222A2AIIIIIIIIIA1IA2A11222IIAIIIIIA2222IIIIIIIAAA2IA2222
IIIIIA11222A2AIIIIIIIIIA1IA2A11222IIAIIIIIA1222IIIIIIIAAA2IA2222
AIIIIA11222A2AIIIIIIIIIA1IA2A11222IIAIIIIIA1222IIIIIIIAAA2IA2222
A1IIIA11222A2AIIIIIIIIIA1IA2A11222IIAIIIIIA1222IIIIIIIAAA2IA2222
A1IIIA11222AAAIIIIIIIIIA1IA2A11222IIAIIIIIA1222IIIIIIIAAA2IA2222
A1IIIA11222AAAIIIIIIIIIA1IA2A11222IIAIIIIIA12A2IIIIIIIAAA2IA2222
IIIIIIIIIIIIIIIIIIIIIIIIIIIIIIIIIIIIIIIIIIIIIIIIIIIIIIIIA1I22I22
IIIIIIIIIIIIIIIIIIIIIIIIIIIIIIIIIIIIIIIIIA11IIIIIIIIIIIIA1I22I22
IIIIIIIIIIIIIIIIIIIIIIIIIIA111IIIIIIIIIIIA11IIIIIIIIIIIIA1I22I22
IIIIIIIIIIIIIIIIIIIIIIIIIIA111IIIIIIIIIIIA11IIIIIIIIIIIAA1I22I22
IIIIIIIIIIIIIIIIIIIIIIIIIIA111IIIIIIIIIIIA11IIIIIIIIIIIAAAI22I22
IIIIIIIIIIA2I2IIIIIIIIIIIIA111IIIIIIIIIIIA11IIIIIIIIIIIAAAI22I22
IIIIIIIIIIA2I2IIIIIIIIIIIIA111IIIIIIIIIIIA11IIIIIA2I2IIAAAI22I22
IIIIIIIIIIA2I2IIIIIIIIIIIIA111IIIIIIIIIIIA11IIIIIA2I2IIAAAI22A22
IIIIIIIIIIA2I2IIIIIIIIA1IIA111IIIIIIIIIIIA11IIIIIA2I2IIAAAI22A22
IIIIIIIIIIA2I2IIIIIIIIA1IIA111IIIIIIIIIIIA11IIIIIA1122IAAAI22A22
IIIIIIIIIIA2I2IIIIIIIIA1IIA111IIIIIIIIIIIA11IIIIIA11222AAAI22A22
IIIIIIIIIIA2I2IIIIIIIIA1IIA111IIIIIIIIIIIA11IIIIIA11A11AAA222A22
IIIIIIIIIIA2I2IIIIIIIIA1IIA111IIIIIIAIIIIA11IIIIIA11A11AAA222A22
IIIIIIIIIIA2I2IIIIIIIIAAIIA111IIIIIIAIIIIA11IIIIIA11A11AAA222A22
IIIIIIIA1IA1122IIIIIIIAAIIA111IIIIIIAIIIIA11IIIIIA11A11AAA222A22
IIIIIIIA1IA1122IIIIIIAAAIIA111IIIIIIAIIIIA11IIIIIA11A11AAA222A22
IIIIIIIA1IA1122IIIIIIAAA1IA111IIIIIIAIIIIA11IIIIIA11A11AAA222A22
IIIIIIIA1IA1122IIIIIIAAA1IA111IIIIIIAIIIIA11IIAIIA11A11AAA222A22
IIIIIIIA1IA1122IIIIIIAAA1IA111IIIIIIAIIIIA11IIAIIA11A11AAA22AA22
IIIIIIIA1IA1122IIAIIIAAA1IA111IIIIIIAIIIIA11IIAIIA11A11AAA22AA22
IIIIIIIA1IA1122IIAIIIAAA1IA111IIIIIIAIIIIAA122A2IA11A11AAA22AA22
IIIIIIIA1IA1122IIAIIIAAAAIA111IIIIIIAIIIIAA122A2IA11A11AAA22AA22
IIIIIIIA1IA1112IIAIIIAAAAIA111IIIIIIAIIIIAA122A2IA11A11AAA22AA22
IIIIIIIIIIIIIIIIIIIIIIIIIIIIIIIIIIIIIIIIIIIIIIIIAI122IIIIIIIIIII
IIIIIIIIIIIIIIIIIIIIIIIIIIIAIIIIIIIIIIIIIIIIIIIIAI122IIIIIIIIIII
IIIIIIIIIIIIIIIIIIIIIIIIIIIAIIIIIIIIIIIIIIIIIIIIAI122IIIIIIIIIAI
IIIIIIIIIIIIIIIIIIIIIIIIIIIAIIIIIIIIIIIIIIIIIIAIAI122IIIIIIIIIAI
IIIIIIIIIIIIIIIIIIIIIIIIIIIAIIIIIIIIIIIIIIIIIIAIAI122IIIIIAIIIAI
IIIIIIIIIIIIIIIIIIIIIIIIAIIAIIIIIIIIIIIIIIIIIIAIAI122IIIIIAIIIAI
IIIIIIIIIIIIIIIA12IIIIIIAIIAIIIIIIIIIIIIIIIIIIAIAI122IIIIIAIIIAI
IIIIIIIIIIIIIIIA12II222IAIIAIIIIIIIIIIIIIIIIIIAIAI122IIIIIAIIIAI
IIIIIIIIIIIIIIIA12II22AIAIIAIIIIIIIIIIIIIIIIIIAIAI122IIIIIAIIIAI
IIIIIIIIIIA11I2A12II22AIAIIAIIIIIIIIIIIIIIIIIIAIAI122IIIIIAIIIAI
IIIIIIIIIIA11I2A12II22AIAIIAIIIIIIIAIIIIIIIIIIAIAI122IIIIIAIIIAI
IIIIIIIIIIA11A1A12II22AIAIIAIIIIIIIAIIIIIIIIIIAIAI122IIIIIAIIIAI
IIIIIIIIIIA11A1A12II22AIAIIAIIAIIIIAIIIIIIIIIIAIAI122IIIIIAIIIAI
IIIIAIIIIIA11A1A12II22AIAIIAIIAIIIIAIIIIIIIIIIAIAI122IIIIIAIIIAI
IIIIAAIIIIA11A1A12II22AIAIIAIIAIIIIAIIIIIIIIIIAIAI122IIIIIAIIIAI
IIIIAAAIIIA11A1A12II22AIAIIAIIAIIIIAIIIIIIIIIIAIAI122IIIIIAIIIAI
IIIIAAAIIIA11AAA12II22AIAIIAIIAIIIIAIIIIIIIIIIAIAI122IIIIIAIIIAI
IIIIAAAIIIA11AAA12II22AIAIIAIIAIIIIAIIIIIIIIIIAIAI1A2IIIIIAIIIAI
IIIIAAAIIIA11AAA12II22AIAIIAIIAIIIIAIIIIIIIIIIAIAI1A2IA22IA2IIAI
IIIIIIIIIIIIIIIIIIIIIIIIIIIIIIIIIIIIIA1I22IIIIIIIIIIIIIIIIIIIIII
IIIIIIIIIIIIIIIIIIIIIIIIIIIAIIIIIIIIIA1I22IIIIIIIIIIIIIIIIIIIIII
IIIIIIIIIIIIIIIIIIIIIIIIIIIAIIIIIIIIIA1I22IIIIIIIIIIIIIIIIAIIIII
IIIIIIIIIIIIIIIIIIIIIIIIIIIAIIIIIIIIIA1I22IIIAIIIIIIIIIIIIAIIIII
IIIIIIIIIIIIIIIIIIIIIIIIIIIAIIIIIIIIIA1I22IIAAI22IIIIIIIIIAIIIII
IIIIIIIIIIIIIIIIIIIIIIIIIIIAA2I22IIIIA1I22IIAAI22IIIIIIIIIAIIIII
IIIIIIIIIIIIIIIIIIIIIIIIIIIIIIIIIIIIIIIIIIIIIIIIIIIIIIIIIIA1IIII
IIIIIIIIIIIIIIIIIIIIIIIIIIIIIIIIIIIIIIIIIIIIIIIIIIIIIIIIIIA12222
IIA112IIIIIIIIIIIIIIIIIIIIIIIIIIIIIIIIIIIIIIIIIIIIIIIIIIIIIIIIII
IIA112IIIIIIIIIIIIIIIIIIIIIIIIIIIIIIIIIIIIIIIIIIIIIIIIIIIIIIIA1I
IIA112IIIIIIIIIIIIIIIIIIIIIIIIIIIIAIIIIIIIIIIIIIIIIIIIIIIIIIIA1I
IIIIIIIIIIIIIIIIIIIIIIIIIIIIIIIIIIA1I112I2222IIIIIIIIIIIIIIIIIII
IIIIIIIIIIIIAIIIIIIIIIIIIIIIIIIIIIA1I112I2222IIIIIIIIIIIIIIIIIII
IIIIIIIIIIIIIIIIIIIIIIIIIIIIIIIIIIIIIIIIIIIIIIIIIIIIIIIIAIIIIIII
IIIIIIIIIIIIIIIIIIIIIIIIIIIIIIIIIIIIIIIIIIIIIIIIIIIIIIIIIA1II122
IIIIIIIIIIA1IIIIIIIIIIIIIIIIIIIIIIIIIIIIIIIIIIIIIIIIIIIIIIIIIIII
IIIIIIIIIIA12II2I2IIIIIIIIIIIIIIIIIIIIIIIIIIIIIIIIIIIIIIIIIIIIII
IIIIIIIIIIA12II2I2IIIIA12II2I2IIIIIIIIIIIIIIIIIIIIIIIIIIIIIIIIII
IIIIIIIIIIA12II2I2IIIIA12II2I2IIIIIIIIIIIIIIIIIIAIIIIIIIIIIIIIII
IIIIIIIIIIIIIIIIIIIIIIIIIIA1122I22IIIIIIIIIIIIIIIIIIIIIIIIIIIIII
IIIIIIIIIIIIIIIIIIIIIIIIIIA1122I22IIIIIIIIIIIIAIIIIIIIIIIIIIIIII
IIIIIIIIIIIIIIIIIIIIIIIIIIA1122I22IIIIIIIIIIIIAIIIIIIIIIIIIIAIII
IIIIIIIIIIIIIIIIIIIIIIIIIIA1122I22A222IIIIIIIIAIIIIIIIIIIIIIAIII
IIIIIIIIIIIIIIIIIIIIIIIIIIA1122I22A22A222IIIIIAIIIIIIIIIIIIIAIII
IIIIIIIIIIIIIIIIIIIIIIIIIIIIIIA1122IIIIIIIIIIIIIIIIIIIIIIIIIIIII
IIIIIIIIIIIIIIIIIIIIIIIIIIIIIIA1122IIIIIIIIIIIIIIIIIIIIIIIIIIAII
IIIIIIIIIIIIIIIIIIIIIIIIIIIIIIA1122IIIIIIIIIIIIIIIIIIIIIAIIIIAII
IIIIIIIIIIIIIIIIIIIIIIIIIIIIIIIIIIIIIIIIIIIIIIIIIIIIIIIIIIIIIIAI
IIIIIIIIIIIIIIIIIIIIIIIIIIAIIIIIIIIIIIIIIIIIIIIIIIIIIIIIIIIIIIAI
IIIIIIIIIIIIIIIIIIIIIIIIIIAIIIIIIIA1I22IIIIIIIIIIIIIIIIIIIIIIIAI
IIIIIIIIIIIIIIIIIIIIIIIIIIAIIIIIIIA1I22IIIIIIIIIIIIIIIIIIA1I2IAI
IIIIIIIIIIIIIIIIIIIIIIIIIIAIIIIIIIA1I22IIIIIIIIIIIIIIIIIIA1I2IA1
IIIIIIIIIIIIIAIIIIIIIIIIIIAIIIIIIIA1I22IIIIIIIIIIIIIIIIIIA1I2IA1
IIIIIIIIIIIIIAIIIIIIIIIIIIAIIIIIIIA1I22IIIA1I12222IIIIIIIA1I2IA1
IIIIIIIIIIIIIIIIAIIIIIIIIIIIIIIIIIIIIIIIIIIIIIIIIIIIIIIIIIIIIIII
IIIIIIIIIIIIIIIIAIIIIIIIIIIIIIIIIIIIIIIIIIIIIIIIIIIIIIIIIAIIIIII
IIIIIIIIIIIIIIIIAIIIIIIIIIIIIIIIIIIIIIIIAIIIIIIIIIIIIIIIIAIIIIII
IIIIIIIIIIIIIIIIAIIIIIIIIIIIIIIIIIIIIIIIAIIIIIIIIIIIIIIIIAIIIIAI
IIIIIIIIIIIIIIIIIIIIIIIIA12I222I2IIIIIIIIIIIIIIIIIIIIIIIIIIIIIII
IIIIIIIIIIIIIIIIIIIIIIIIA12IA22I2IIIIIIIIIIIIIIIIIIIIIIIIIIIIIII
IIIIIIIIIIIIIIIIIIIIIIIIA12IA22I2IIIIIIIIIIIIIIIIIIIIIIIIAII2222
IIIIIIAII2222IIIIIIIIIIIA12IA22I2IIIIIIIIIIIIIIIIIIIIIIIIAII2222
IIIIIIAIIA222222IIIIIIIIA12IA22I2IIIIIIIIIIIIIIIIIIIIIIIIAII2222
IIIIIIAIIA222222IIIIIIA1A122A22I2IIIIIIIIIIIIIIIIIIIIIIIIAII2222
IIIIIIAIIA222222IIIIIIA1A122A22I2IIIIIIIIIIIIIIIIIIIIIIIIA111222
IIIIIIAIIA222222IIIIIIA1A122A22I2IIIIIIIIIIIIIIIIIIAIIIIIA111222
IIIIIIAIIA222222IIIIIIA1A122A22I2IIIIIIIIIIIIIIIIIIAIIIIIAA11222
IIIIIIAIIA222222IIIIIIA1A122AA2I2IIIIIIIIIIIIIIIIIIAIIIIIAA11222
IIIIIIAIIA222222IIIIIIA1A122AA2I2IIIIIIIIIIIIIIIIA1A11I1IAA11222
IIIIIIAIIA222222IIIIIIA1A122AA2I2IIA1IIIIIIIIIIIIA1A11I1IAA11222
IIIIIIAIIA222222IIIIIIA1A122AA2I2IIA1IIA1IIIIIIIIA1A11I1IAA11222
IIIIIIAIIA222222IIIIIIA1A122AA2I2IIA1IIA1IIIIIIIIA1A11I1IAA112A1
IIIIIIAIIA222222IIIIIIA1A122AA2I2IIA1IIA1IIIIIIIIA1A11I1IAA1A2A1
IIIIIIAIIA222222IIIIIIA1A122AA2I2IIA1IIAA1IIIIIIIA1A11I1IAA1A2A1
IIIIIIAIIA222222IIAIIIA1A122AA2I2IIA1IIAA1IIIIIIIA1A11I1IAA1A2A1
IIIIIIAIIA222222IIAIIIAAA122AA2I2IIA1IIAA1IIIIIIIA1A11I1IAA1A2A1
IIIIIIAIIAA22222IIAIIIAAA122AA2I2IIA1IIAA1IIIIIIIA1A11I1IAA1A2A1
IIIIIIAIIAA22222IIAIIIAAA122AA2I2IIA1IIAA1IIIIIIIA1A1111IAA1A2A1
IIIIIIIIIIIIIIIIIIIIIIIIIIIIIIIIIIIIIIIIIIIIIIIIIIIIIIIIIIAIIIII
IIIIIIIIIIIIIIIIIIIIIIIIIIIIIIIIIIIA111I2IIIIIIIIIIIIIIIIIIIIIII
IAIIIIIIIIIIIIIIIIIIIIIIIIIIIIIIIIIA111I2IIIIIIIIIIIIIIIIIIIIIII
IA111I222I2IIIIIIIIIIIIIIIIIIIIIIIIA111I2IIIIIIIIIIIIIIIIIIIIIII
IIIIIIIIIIIIIIIIIIIIIIIIIIIIIIIIIIIIIIIA11I1111IIIIIIIIIIIIIIIII
IIIIIIIIIIIIIIIIIIIIIIIIIIIIIIIIIIIIIIIA11I1111IIIIIIIIIAIIIIIII
IIIIAIIIIIIIIIIIIIIIIIIIIIIIIIIIIIIIIIIIIIIIIIIIIIIIIIIIIIIIIIII
IIIIAIIIAIIIIIIIIIIIIIIIIIIIIIIIIIIIIIIIIIIIIIIIIIIIIIIIIIIIIIII
IIIIA2I2AIIIIIIIIIIIIIIIIIIIIIIIIIIIIIIIIIIIIIIIIIIIIIIIIIIIIIII
IIIIIIIIIIIIIIIIIIIIIIIIIIAIIIIIIIIIIIIIIIIIIIIIIIIIIIIIIIIIIIII
IIIIIIIIIIIIIIIIIIIIIIIIIIAIIIIIIIIIIIIIIIIIIIIIIIIIIIIIIIA2I2II
IIIIIIIIA122II22I2IIIIIIIIIIIIIIIIIIIIIIIIIIIIIIIIIIIIIIIIIIIIII
IIIIIIIIAA122I22222IIIIIIIIIIIIIIIIIIIIIIIIIIIIIIIIIIIIIIIIIIIII
IIIIIIIIIIIIIIIIIA22IIIIIIIIIIIIIIIIIIIIIIIIIIIIIIIIIIIIIIIIIIII
IIIIIIIIIIIIIIIIIA22IIIIIIIIIIIIIIIIIIAIII22222IIIIIIIIIIIIIIIII
IIIIIIIIIIIIIIIIIA22IIIIIIIIIIIIIIIIIIAIII2A11122IIIIIIIIIIIIIII
IIIIIIIIIA1IIIIIIA22IIIIIIIIIIIIIIIIIIAIII2A11122IIIIIIIIIIIIIII
IIIIIIIIIA1IIIIIIA22IIAIIIIIIIIIIIIIIIAIII2A11122IIIIIIIIIIIIIII
IIIIIIIIIA1IIIIIIAA11IAIIIIIIIIIIIIIIIAIII2A11122IIIIIIIIIIIIIII
IIIIIIIIIA1IIIIIIAA11IAIIIIIIIIIIIA111A2II2A11122IIIIIIIIIIIIIII
IIIIIIIIIA1IIIIIIAA111AIIIIIIIIIIIA111A2II2A11122IIIIIIIIIIIIIII
IIIIIIIIIIIIIIIIIIIIIIIIIIIIIIIIA1II222IIIIIIIIIIIIIIIIIIIIIIIII
IIIIIIIIIIIIIIIIIIIIIIIIIIIIIIIIA1II222I2IIIIIIIIIIIIIIIIIIIIIII
IIIIIIIIIIIIIIIIIIIIIIIIIIIIIIIIAA1I222222IIIIIIIIIIIIIIIIIIIIII
IIIIIIIIIIIIIIIIIIIIIIIIIIIIIIIA11II22IIIIIIIIIIIIIIIIIIIIIIIIII
IIIIIIIIIIIIIIIIIIIIIIIIIIIIIIIA11II22I2IIIIIIIIIIIIIIIIIIIIIIII
IIIIIIIIIIIIIIIIIIIIIIIIIIIIIIIA11II22I2IIIIIIIIIIIIIIIIIIIIA11I
IIIIIIIIIIIIIIIIIIIIIIIIAIIIIIIA11II22I2IIIIIIIIIIIIIIIIIIIIA11I
IIIIIIIIIIIIIIIIIIIIIIIIA11II2IA11II22I2IIIIIIIIIIIIIIIIIIIIA11I
IIIIIIIIIIIIIIIIAI22IIIIIIIIIIIIIIIIIIIIIIIIIIIIIIIIIIIIIIIIIIII
IIIIIIIIIIIIIIIIAI22A11II22I2IIIIIIIIIIIIIIIIIIIIIIIIIIIIIIIIIII
IIIIIIIIIIIIIIIIIIIIIIIIIIIIIIIIIIAIIIIIIIIIIIIIIIIIIIIIIIIIIIII
IIIIIIIIIIIIIIIIAIIIIIIIIIIIIIIIIIAIIIIIIIIIIIIIIIIIIIIIIIIIIIII
IIIIIIIIIIIIIIIIAIIIIIIIIIIIIIIIIIAIIIIIIIIIIIIIIIIIIIIAIIIIIIII
IIIIIIIIIIIIIIIIIIIIIIIIIIIIIIIIIIIIIIIIIIIIIIIIIIAIIIIIIIIIIIII
IIIIIIIIIIIIIIIIIIIIIIIIIIIIIIIIIIIIIIIIIIIIIIIIIIA11222I2IIIIII
IIIIIIIIIIIIIA11222I2IIIIIIIIIIIIIIIIIIIIIIIIIIIIIA11222I2IIIIII
IIIIIIIIIAIIIA11222I2IIIIIIIIIIIIIIIIIIIIIIIIIIIIIA11222I2IIIIII
IIIIIIIIIA112A11222I2IIIIIIIIIIIIIIIIIIIIIIIIIIIIIA11222I2IIIIII
IIIIAIIIIIIIIIIIIIIIIIIIIIIIIIIIIIIIIIIIIIIIIIIIIIIIIIIIIIIIIIII
IIIIAIIIIIIIIIIAIIIIIIIIIIIIIIIIIIIIIIIIIIIIIIIIIIIIIIIIIIIIIIII
IIIIAIIIIIIIIIIAIIIIIAIIIIIIIIIIIIIIIIIIIIIIIIIIIIIIIIIIIIIIIIII
IIIIAIIIIIIIIIIAIIIIIAAIIIIIIIIIIIIIIIIIIIIIIIIIIIIIIIIIIIIIIIII
IIIIAIIIIIIIIIIAIA2I2AA22IIIIIIIIIIIIIIIIIIIIIIIIIIIIIIIIIIIIIII
IIIIAIIIIIIIIIIAIA2I2AA22IIIIIIIIIIIIIA2I2I222IIIIIIIIIIIIIIIIII
IIIIAIIIIIIIIIIAIA2I2AA22IIIIIIIIA12I2A222I222IIIIIIIIIIIIIIIIII
IIIIAIIIIIIIIIIAIA2I2AA22IIIIIIIAA1222A222I222IIIIIIIIIIIIIIIIII
IIIIAIIIIIIIIIIAIA2I2AA22IIIIIIIAA1222A222I222IIA12I2I22IIIIIIII
IIIIAIIIIIIIIIIAIA2I2AA22IIIIIIIAA1222A222I222IIAA2I2I22IIIIIIII
IIIIAIIIIIIIIIIAIA2I2AA22IIIIIIIAA1222A2A2I222IIAA2I2I22IIIIIIII
IIIIIIIIIIIIIIIIIIIIIIIIIIIIIIIIIIIIIIIIIIIIAIIIIIIIIIIIIIIIIIII
IIIIIIIIIIIIIIIIIIIIIIIIIIIIIIIIIIIIIIIIIIIIA12IIIIIIIIIIIIIIIII
IIIIIIIIIIIIIIIIIIIIAIIIIIIIIIIIIIIIIIIIIIIIIIIIIIIIIIIIIIIIIIII
IIIIIIIIIIIIIIIIIIIIAIIIIIIIIIIIIIIIIIIIIIIIIIIIIIIIIIIIIIIIIIA1
IIIA12II2IIIIIIIIIIIAIIIIIIIIIIIIIIIIIIIIIIIIIIIIIIIIIIIIIIIIIA1
IIIA12II2IIIIIIIIIIIA12II2IIIIIIIIIIIIIIIIIIIIIIIIIIIIIIIIIIIIA1
IIIA12II2IIIIIIIIIIIA12II2IIIIIIIIIIIIIIIIIIIIIIAIIIIIIIIIIIIIA1
IIIA12II2IIIIIIIIIIIA12II2IIIIIIIIIIIIIIIIIIIIIIAIIIIIIIIIIIIAA1
IIIA12II2IIIIIIIIIIIA12II2IIIIIIIIIIIIIIIIIIIA2IAI2IIIIIIIIIIAA1
IIIIIIIIIIIIIIIIIIIIIIIIIIIIIIIIIIIIIIIIIIIIIA1I2222IIIIIIIIIIII
IIIIIIIIIIIIIIIIIIIIIIIIIIIIIIIIIIIIIIIIIIIIIAAI2222IIIIIIIIIIII
IIIIIIIIIIIIIIIIIIIIIA1IIIIIIIIIIIIIIIIIIIIIIAAI2222IIIIIIIIIIII
IIIIIIIIIIIIIIIIIIIIIA1IIIIIIIIIIIIIIIIIIIIIIAAI2222IIIIIIIIIIIA
IIIIIIIIIIIIIIIIIIIIIA1IIIIIA11111I1IIIIIIIIIAAI2222IIIIIIIIIIIA
IIIIIIIIIIIIIIIIIIIIIA1IIIIIA11111I1IIIIIIIAIAAI2222IIIIIIIIIIIA
IIIIIIIIIIIIIIIIIIIIIIIIIIIIIIIIIIIIAIIIIIIIIIIIIIIIIIIIIIIIIIII
IIIIIIIIIIIIIIIIIIIIIIIIIIIIIIIIIIIIA22IIIIIIIIIIIIIIIIIIIIIIIII
IIIIIIIIIIIIIIIIIIIIIIIIIIIIIIIIIIIIA22A1222222IIIIIIIIIIIIIIIII
AIIIIIIIIIIIIIIIIIIIIIIIIIIIIIIIIIIIA22A1222222IIIIIIIIIIIIIIIII
AIIIIIIIIIIIIIIIIIIIIA1222222IIIIIIIA22A1222222IIIIIIIIIIIIIIIII
AIIIIIIIIIIIIIIIIIIIIA1222222IIIIIIIA22A1222222IIIIIIIIIIIIIIIIA
AIIIIIIIIIIIIIIIIIIIIA1222222IIIIIIIA22A1222222AI22I22IIIIIIIIIA
AIIIIIIIIIIIIIIIIIIIIA1222222IIIIIIIA22A1222A22A222222IIIIIIIIIA
AIIIIIIIIIIIIIIIIIIIIA1222222IIIIIIIA2AA1222A22A222222IIIIIIIIIA
AIIIIIIIIIIIIIIIIIIIIA1222222IIIIIIIA2AA1222A22A222222IAI2II2IIA
AIIIIIIIIIIIIIIIIIIIIAA1222222IIIIIIA2AA1222A22A222222IAI2II2IIA
AIIIIIIIIIIIIIIIIIIIIAA1222222IIIIIIAAAA1222A22A222222IAI2II2IIA
AI1IIIIIIIIIIIIIIIIIIAA1222222IIIIIIAAAA1222A22A222222IAI2II2IIA
AI11IIIIIIIIIIIIIIIIIAA1222222IIIIIIAAAA1222A22A222222IAI2II2IIA
IIIIIIIIIIIIIIIIIIIIIIIIIIIIIIIIIIIIIIIIIIIIIIIIIIIIIIIA1IIIIIII
IIIIIIIIIIIIIIIIIIIIIIIIIIIIIIIIIIIIIIIIIIIIIIIIIIIIIIIA11I2I2II
IIIIIIIIIIIIIIIIIIIIIIIIIAIIIIIIIIIIIIIIIIIIIIIIIIIIIIIA11I2I2II
IIIIIIIIIIIIIIIIIIIIIIIIIAIIIIIIIIAIIIIIIIIIIIIIIIIIIIIA11I2I2II
IIIIIIIIIIIIIIIIIIIIIIIIIIIIIIIIIIA1222222IIIIIIIIIIIIIIIIIIIIII
IIIIIIIIIIIIIIIAIIIIIIIIIIIIIIIIIIA1222222IIIIIIIIIIIIIIIIIIIIII
IIIIIIIIIIIIIIIAIIIIIIIIIIIIIIIIIIA1222222IIIIIIIIIIIIIIIIIIIA2I
IIIIIIIIIIIIIIIAIIIIIIIIIIIIIIIIIIA1222222IIIA122222IIIIIIIIIA2I
IIIIIIIIIIIIIIIIIIIIIIIIIIIIIIIIIIAIIIIIIIIIIIIIIIIIIIIIIIIIIIII
IIIIIIIIIIIIIIIIIIIIIIIIIIIIIIAIIIAIIIIIIIIIIIIIIIIIIIIIIIIIIIII
IIIIIIIIIIIIIIIIIIIIIIIIIIIIIIAIIIAIIIIIIIIIIIIIAI22222IIIIIIIII
IIIIIIIAI22IIIIIIIIIIIIIIIIIIIAIIIAIIIIIIIIIIIIIAI22222IIIIIIIII
IIIIIIIAI22IIIIIIIIIIIIIIIIIIIAIIIAIIIAI22222IIIAI22222IIIIIIIII
IIIIIIIAI22IIIIIIIIIIIIIIIIIIIAIIIAIIIAI22222IIIAI2A222222IIIIII
IIIIIIIAI22IIIIIIIIIIIIIIIIIIIAIIIAIIIAI22222IIIAI2A222222IIAIII
IIIIIIIAI22IIIIIIIIIIIIIIIIIIIAIIIAIIIAA22222IIIAI2A222222IIAIII
IIIIIIIAI22IIIIIIIIIIIIIIIIAIIAIIIAIIIAA22222IIIAI2A222222IIAIII
IIIIIIIAI22IIIIIIIIIIIIIIIIAIIAIIIAIIIAA22222IIIAI2A222222AIAIII
IIIIIIIIIIIIIIIIIIIIIIIIIIIIIIIIIIIIIAIIIIIIIIIIIIIIIIIIIIIIIIII
IIIIIIIIIIIIIIIIIIIIIIIIIIIIIIIIIIIIIAAIIIIIIIIIIIIIIIIIIIIIIIII
IIIIIIIIIIIIIA2IIIIIIIIIIIIIIIIIIIIIIAAIIIIIIIIIIIIIIIIIIIIIIIII
IIIIIIIIIIIIIA2IIIIIIIIIIIIIIIA1I2222AAIIIIIIIIIIIIIIIIIIIIIIIII
IIIIIIIIIIIIIIIIIIIIIIIIIIIIIIIIIIIIIIIIIIIIIIIIAIIIIIIIIIIIIIII
IIIIIIIIIIIIIIIIIIIIIIIIIIIIIIIIIIIIIIIIIIIIIIIIA11I2I2IIIIIIIII
IIIIIIIIIIIIIIIIIIIIIIIIIIIIIIIIIIIIIIIIIIIIIIIIA11I2I2I2IIIIIII
IIIIIIIIIIIIIIIIIIIIIIIIIIIIIIAIIIIIIIIIIIIIIIIIIIIIIIIIIIIIIIII
IIIIIIIIIIIIIIIIIIIIIIIIIIIIIIAIIIIIIIIIIIIIIIIIIIIIIIIIIIIIAIII
IIIIIIIIIIIIIIIIIA1222222IIIIIIIIIIIIIIIIIIIIIIIIIIIIIIIIIIIIIII
IIIIIIIA1222222IIA1222222IIIIIIIIIIIIIIIIIIIIIIIIIIIIIIIIIIIIIII
IIIIIIAIIIIIIIIIIIIIIIIIIIIIIIIIIIIIIIIIIIIIIIIIIIIIIIIIIIIIIIII
IIIIIIA1111111IIIIIIIIIIIIIIIIIIIIIIIIIIIIIIIIIIIIIIIIIIIIIIIIII
IIIIIIA1111111IIIIIIIIIIIIIIIIIIIIIIA11IIIIIIIIIIIIIIIIIIIIIIIII
IIIIIIA1111111IIIIIIIIIIIIIIIIIIIIIIA1AIIIIIIIIIIIIIIIIIIIIIIIII
IIIAIIA1111111IIIIIIIIIIIIIIIIIIIIIIA1AIIIIIIIIIIIIIIIIIIIIIIIII
IIIAIIA1111111IIIIIIIIIIIIIIIIIIIIIIA1AIIIIIIA1112222IIIIIIIIIII
IIIAIIA1111111IIIIIIIIIIIIIAIIIIIIIIA1AIIIIIIA1112222IIIIIIIIIII
IIIAIIA1111111IIIIIIIIIIIIIAIIAIIIIIA1AIIIIIIA1112222IIIIIIIIIII
IIIAIIA1111111IIIIIIIIIIIIIAIIAIIIIIA1AIIIIIIA11122A12IIIIIIIIII
IIIIIIIIIIIIIIIIIIIIIIIIIIIIIIIIIIIIAIIIIIIIIIIIIIIIIIIIIIIIIIII
IIIIIIIIIIIIIIIIIIIIIIIIIIIIIIIIIIIIIIIIIIIIIIIAIIIIIIIIIIIIIIII
IIIIIIIIIIIIIIIIIIIIIIIIIIIIIIIIIIIIIIIA112I2IIAIIIIIIIIIIIIIIII
IIIIIIIIIIIIIIIIIIIIIIIIIIIIIIIA112IIIIA112I2IIAIIIIIIIIIIIIIIII
IIIIIIIIIIIIIIIIIA1IIIIIIIIIIIIA112IIIIA112I2IIAIIIIIIIIIIIIIIII
IIIIIAIIIIIIIIIIIA1IIIIIIIIIIIIA112IIIIA112I2IIAIIIIIIIIIIIIIIII
IIIIIAAIIIIIIIIIIA1IIIIIIIIIIIIA112IIIIA112I2IIAIIIIIIIIIIIIIIII
IIIIIAAIIIIIIIIIIA1IIIA2IIIIIIIA112IIIIA112I2IIAIIIIIIIIIIIIIIII
IIIIIAAIIIIIIIIIIA1IIIA2IIIIIIIA112IIIIA112I2IIAIIIAIIIIIIIIIIII
IIIIIAAIIIIIIIIIIAA122A2IIIIIIIA112IIIIA112I2IIAIIIAIIIIIIIIIIII
IIIIIAAIIIIIIIIIIAA122A2IIIIIIIA112IIIIA112I2IIAIIIAIIIIIIIIIIA1
IIIIIAAIIIIIIIIIIAA122A2IIIIIIIA112IIIIA112I2IAAIIIAIIIIIIIIIIA1
IIIIIAAIIIIIIIIIIAA122A2IIIIIIIA112IIIIA112I2IAA122A222IIIIIIIA1
IIIIIIIIIIIIIIIIIIIIIIIIIIIIIIIIIIIIIIIIIIIIIIIIIIIIIIIIIA1IIIII
IIIIIIIIIIIIIIIIIIIIIIIIIIIIIIIIIIIIIIIIIIIIIIIIIIIIIIIIIA1IIIIA
IIIIIIIIIIIIIIIIIIIAIIIIIIIIIIIIIIIIIIIIIIIIIIIIIIIIIIIIIA1IIIIA
IIIIIIIIIIIIIIIIIIIAAIIIIIIIIIIIIIIIIIIIIIIIIIIIIIIIIIIIIA1IIIIA
IIIIIIIIIIIIIIIIIIIAAIIIIIIIIIA2I22IIIIIIIIIIIIIIIIIIIIIIA1IIIIA
IIIIIIIIIIIIIIIIIIIAAIIIA12I22A2I22IIIIIIIIIIIIIIIIIIIIIIA1IIIIA
IIIIIIIIIIIIIIIIIIIAAIIIA12I22A2I22IIIIAIIIIIIIIIIIIIIIIIA1IIIIA
IIIIIIIIIIIIIIIIIIIAAIIIA12I22A2I22IIIIAIIIIIIIIIIIIIIIAIA1IIIIA
IIIIIIIIIIIIIIIIIIIIIIIIIIIIIIIIA1III222IIIIIIIIIIIIIIIIIIIIIIII
IIIIIIIIIIAIIIIIIIIIIIIIIIIIIIIIA1III222IIIIIIIIIIIIIIIIIIIIIIII
IIIIIIIIIIAIIIIIIIIIIIAIIIIIIIIIA1III222IIIIIIIIIIIIIIIIIIIIIIII
IIIIIIIIIIAIIIIIIIIIIIAIIIIIIIIIA1III222IIIIA22I22IIIIIIIIIIIIII
IIIIIIIIIIIIIIIIIIIIIIIIIIIIIIIIIIIIIIIIIIIIAIIIIIIIIIIIIIIIIIII
IIIIIIIIIIIIIIIIIIIIIIIIIIIIIIIIIIIIIIIIIIIIA111IIIIIIIIIIIIIIII
IIIIIIIIIIIIIIIIIIIIIIIIIAIIIIIIIIIIIIIIIIIIA111IIIIIIIIIIIIIIII
IIIIIIIIIIIIIIIIIAIIIIIIIAIIIIIIIIIIIIIIIIIIA111IIIIIIIIIIIIIIII
IIIIIIIIIIIIIIIIIA1I12222AIIIIIIIIIIIIIIIIIIA111IIIIIIIIIIIIIIII
IIIIIIIIIIIIIIIIIA1I12222AIIIIIIIIIIIIIIIIIIA111IIIIIIIIIIAIIIII
IIIIIIIIIIIIIIIIIA1I12222AIIIIIIIIIIIIIIIIIIA111IIA1I12222AIIIII
IIIIIIIIIIIIIIIIIA1I12222AIIIIIIIIAIIIIIIIIIA111IIA1I12222AIIIII
IIIIIIIIIIIIIIIIIA1I12222AIIIIIIIIAIIIAIIIIIA111IIA1I12222AIIIII
IIIIIIIIIIIIIIIIIA1I12222AIAI22I22AIIIAIIIIIA111IIA1I12222AIIIII
IIIIIIIIIIIIIIIIIA1I12222AIAI22I22AIIIAAI22IA111IIA1I12222AIIIII
IIIIIIIIIIIIIIIIIA1I12222AIAI22I22AIIIAAI22IA1A122A1212222AIIIII
IIIIIIIIIIIIIIIIIA1I12222AIAI22I22AIIIAAI22IA1A122A1212222AIIIIA
IIIIIIIIIIIIIIIIIIIIIIIIIIIIIIIIIIIIIIIIIIIIIIIIIIIIIIIIIIIIIIAI
IIIIIIIIIIIIIIIIIIIIIIIIIIIIIA1IIIIIIIIIIIIIIIIIIIIIIIIIIIIIIIII
IIIIIIIIIIIIIIIIIIIIIIIIIIIIIA1IIIIA1I22222IIIIIIIIIIIIIIIIIIIII
IIIIIIIIIIIIIIIIIIIIIIIAIIIIIA1IIIIA1I22222IIIIIIIIIIIIIIIIIIIII
IIIIIIIIIIIIIIIIIIIIIIIAIIIIIA1IIIIA1I22222IIIIIAIIIIIIIIIIIIIII
IIIIIIIIIIIIIIIIIIIIIIIIIIIIIIIIIIIIIIA1I2IIIIIIIIIIIIIIIIIIIIII
IIIIIIIIIIIIIIIIIIIIIIIIIIA1I2I22I22IIA1I2IIIIIIIIIIIIIIIIIIIIII
IIIIIIIIIIIIIIIIIIIIIIIIIIA1I2I22I22IIA1I2IIIIIIIIIIIIIIIA1IIIII
IIIIIIIIIIIIIIIIIIIIIIIIIIA1I2I22I22IIA1I2IIIIIIIIIAIIIIIA1IIIII
IIIIIIIIIIIIIIIIIIIIIIIIIIA1I2I22I22IIA1I2IIIIIIIIIAIIIIIA111111
IIIIA1111111IIIIIIIIIIIIIIA1I2I22I22IIA1I2IIIIIIIIIAIIIIIA111111
IIIIA1111111IIIIIIIIIIIIIIA1I2I22I22IIA1I2IIIIIIIIAA11IIIA111111
IIIIA111111AIIIIIIIIIIIIIIA1I2I22I22IIA1I2IIIIIIIIAA11IIIA111111
IAIIA111111AIIIIIIIIIIIIIIA1I2I22I22IIA1I2IIIIIIIIAA11IIIA111111
IAIIA111111AIIIIIIAIIIIIIIA1I2I22I22IIA1I2IIIIIIIIAA11IIIA111111
IAIIA111111AIIIIIIAIIIIIIIAA12122222IIA1I2IIIIIIIIAA11IIIA111111
IAIIA111111AIIIIIIAIIIIIIIAA12122222IIA1I2IIIIIIIIAA11122A111111
IAIIA111111AIIIIIIAIIIIIIIAA12122222IIA1I2IIIIIIIIAA11122A1A1111
IIIIIIIIIIIIIIIIIIIIIIIIIIIIIIIIIIIIIIIIIIIIIAIIIIIIIIIIIIIIIIII
IIIIIIIIIIIIIIIIIIIIIIIIIIIIIIIIIIIIIIIIIIIIIAIIIIIIIIIIIAIIIIII
IIIIIIIIIIIIIIIIIIIIIIIIIIIIIIIIIIIIIIIIIIIIIAIIIIIIIIIIAAIIIIII
IIIIIIIIIIIIIIIIIIIIIIIIIIIIIIIIIIIIIIIIIIIIIAIIIIIIIIIIAA22IIII
IIIIIIIIIIIIIIIIIIIIIA1IIIIIIIIIIIIIIIIIIIIIIIIIIIIIIIIIIIIIIIII
AIIIIIIIIIIIIIIIIIIIIA1IIIIIIIIIIIIIIIIIIIIIIIIIIIIIIIIIIIIIIIII
AIIIIIIIIIIIIIIIIIIIIA1IIIIAIIIIIIIIIIIIIIIIIIIIIIIIIIIIIIIIIIII
AIIIIIIIIIIIIIIIIIIIIA1IIIIAIIIIIIIIIIIIIIIIIIIIIIA22I22I22IIIII
AIIIIIIIIIIIIIIIIIIIIA1IIIIAIIIIIIIIIIIIIIIIIIIIIIA22I22I22IIAII
AIIIIIIIIIIIIA2I22IIIA1IIIIAIIIIIIIIIIIIIIIIIIIIIIA22I22I22IIAII
AIIIIIIIIIIIIA2I22IIIA1IIIIAIIIIIIIIIIIIIA2I22IIIIA22I22I22IIAII
A2I22IIIIIIIIA2I22IIIA1IIIIAIIIIIIIIIIIIIA2I22IIIIA22I22I22IIAII
A2I22IIIIIIIIA2I22IIIA1A122A222IIIIIIIIIIA2I22IIIIA22I22I22IIAII
A2I22IIIIIIIIA2I22IIIA1A122A222IIIIIAIIIIA2I22IIIIA22I22I22IIAII
A2I22IIIIIIIIA2I22IIIA1A122A222IIIIIAAIIIA2I22IIIIA22I22I22IIAII
A2I22IIIIIIA1A2I222IIA1A122A222IIIIIAAIIIA2I22IIIIA22I22I22IIAII
IIIIIIIIIIIIIIIIIIIIIIIIIIIIIIIIIIIIIIIIIIIIIIIIIIIIIIIAIIIIIIII
IIIIIIIIIIIIIIIIIIIIIIIIIIIIIIIIIIIIIIIIIIIIIIIIIIIIIIIAIAIIIIII
IIIIIIIIIIIIIIIIIIIIIIAIIIIIIIIIIIIIIIIIIIIIIIIIIIIIIIIIIIIIIIII
IIIIIIIIIIIIIIIIIIIIIIAIIIIIIIIIIIIIIIIIIIIIIIIA1IIIIIIIIIIIIIII
IIIIIIIIIIIIIIIIIIIIIIIIIIA11IIIIIIIIIIIIIIIIIIIIIIIIIIIIIIIIIII
IIIIIIIIIIIIIIIIIIIIIIIIIAA11I222IIIIIIIIIIIIIIIIIIIIIIIIIIIIIII
IIIIIIIIIIIIIIIIIIIIIIIIAAA112222IIIIIIIIIIIIIIIIIIIIIIIIIIIIIII
IIIIIIIIIAIIIIIIIIIIIIIIAAA112222IIIIIIIIIIIIIIIIIIIIIIIIIIIIIII
IIIIIIIIAAIIIIIIIIIIIIIIAAA112222IIIIIIIIIIIIIIIIIIIIIIIIIIIIIII
IIIIIIIIAAAIIIIIIIIIIIIIAAA112222IIIIIIIIIIIIIIIIIIIIIIIIIIIIIII
IIIIIIIIAAAAIIIIIIIIIIIIAAA112222IIIIIIIIIIIIIIIIIIIIIIIIIIIIIII
IIIIIIIIAAAAIIIIIIIIIIIIAAA112222IIIIIIIIIIIIIIIIIIIIIIIIIIIIAII
IIIIIIIIIIIIIIIIIIIIIIIIIIIA1111IIIIIIIIIIIIIIIIIIIIIIIIIIIIIIII
IIIIIIIIIIIIIIIIIIIIIIIIIIIA1111111IIIIIIIIIIIIIIIIIIIIIIIIIIIII
IIIIIIIIIIIIIIIIIIIIIIIIIIAA1111111IIIIIIIIIIIIIIIIIIIIIIIIIIIII
IIIIIIIIIIIIIIIIIIIIIIIIIIAA1111111IIIIIAIIIIIIIIIIIIIIIIIIIIIII
IIIIIIIIIIIIIIIAIIIIIIIIIIAA1111111IIIIIAIIIIIIIIIIIIIIIIIIIIIII
IIIIIIIIIIIIIIIAIIIIIIIIIIAA1111111IIIIIAIIIIIIIIA1I222I2IIIIIII
IIIIIIIIIIIIIIIAIIIIIIIIIIAA1111111IIIIIAIIIIIIIIA1I222I2IIIA1II
IIIIIIIIIIIIIIIIIIIIIIIIIIIIAIIIIIIIIIIIIIIIIIIIIIIIIIIIIIIIIIII
IIIIIIIIIIIIIIIIIIIIIIIAI222AIIIIIIIIIIIIIIIIIIIIIIIIIIIIIIIIIII
IIIIIIIIIIIIIIIIIIIIIIIAI222AIIIIIIIIIIIIIIIIAI222IIIIIIIIIIIIII
IIIIIIIIIIIIIIIIIIIIIIIAI222AIIIIIIIIIIIIIA12A2222IIIIIIIIIIIIII
IIIIIIIIIIIIIIIIIIIIIIIAI222AIIIA12IIIIIIIA12A2222IIIIIIIIIIIIII
IIIIIIIIIIIIIIIIIIIIIIIAI222AIIIA12IIIAIIIA12A2222IIIIIIIIIIIIII
IIIIIIIIIIIIIIIIIIIIIIIAI222AIIIA12IIIAIIIA12A2222IIIIIIIIIIAI2I
IIIIIIIIIIIIIIIIIIIIIIIAI222AIIIA12IIIAIIIA12A2222IIIIIIAI22A22I
IIIIIIIIIIIIIA2II2IIIIIAI222AIIIA12IIIAIIIA12A2222IIIIIIAI22A22I
IIIIIIIIIIIIIIIIIIIIIIIIIIIIIIIIIIIIIAIIIIIIIIIIIIIIIIIIIIIIIIII
IIIIIIIIIIIIIIIIIIIIIIIIIIIIIIIIIIIIIAIIIIIIIIIIIIIIIIIIIIIIA11I
IIA122II22IIIIIIIIIIIIIIIIIIIIIIIIIIIIIIIIIIIIIIIIIIIIIIIIIIIIII
IIA122II22IIIIIA122II22IIIIIIIIIIIIIIIIIIIIIIIIIIIIIIIIIIIIIIIII
IIIIIIIIIIIIIIIIIIIIIIIIIIIIIIIIIAIIIIIIIIIIIIIIIIIIIIIIIIIIIIII
IIIIIIIIIA1IIIIIIIIIIIIIIIIIIIIIIAIIIIIIIIIIIIIIIIIIIIIIIIIIIIII
IIIIIIIIIA1IIIIIIIIIIIIIIIIIIIIIIAIIIIA12222I2IIIIIIIIIIIIIIIIII
IIIIIIIIIA1IIIIIIIIIIIIIIIIIIIIIIAIIIIA12222A2IIIIIIIIIIIIIIIIII
IIIIIIIIIA1IIIIA1111III2IIIIIIIIIAIIIIA12222A2IIIIIIIIIIIIIIIIII
IIIIIIIIIA1IIIIA1111IIIA11IIIIIIIAIIIIA12222A2IIIIIIIIIIIIIIIIII
IIIIIIIIIA1IIIIA1111IIIA1111III2IAIIIIA12222A2IIIIIIIIIIIIIIIIII
IIIIIIIAIA1IIIIA1111IIIA1111III2IAIIIIA12222A2IIIIIIIIIIIIIIIIII
IIIIIIIIIIIIIIIIIIIIIIIIAIIIIIIIIIIIIIIIIIIIIIIIIIIIIIIIIIIIIIII
IIIIIIIIIIIIIIIIIIIIIIIIA2II2I22IIIIIIIIIIIIIIIIIIIIIIIIIIIIIIII
IIIIIIIIIIIIIIIIIIIIIIIIIIIIIIIIIA11I11II22IIIIIIIIIIIIIIIIIIIII
IIIIIIIIIIIIIIIIIIIIIIIIIIIIIIIIIA11I11II22IAIIIIIIIIIIIIIIIIIII
IIIIIIIIIIIIIIIIIIIIIIIIIIIIIIIIIIIIIIIIIIIIIIIIIIIIIIIIIIIIIIAI
IIIIIIIIIIIIIIIIIIAIIIIIIIIIIIIIIIIIIIIIIIIIIIIIIIIIIIIIIIIIIIAI
IIIIIIIIIIIIIIIIIIIIIIIIIIIIAI222IIIIIIIIIIIIIIIIIIIIIIIIIIIIIII
IIIIIIIIIIIIIIIIIIIIIIIIIIIIAI222IIIIIIIIIIIIIIIIIIIIIIIIIIIAI22
IIIIIIIIIIIIIIIIIIIIIIIIIIIIAI222IIAI222IIIIIIIIIIIIIIIIIIIIAI22
IIIIIIIIIIIAIIIIIIIIIIIIIIIIAI222IIAI222IIIIIIIIIIIIIIIIIIIIAI22
IIIIIIIIIIIAIIIIIA1IIIIIIIIIAI222IIAI222IIIIIIIIIIIIIIIIIIIIAI22
IIIIIIIIIIIAIIIIIA1I2IIIIIIIAI222IIAI222IIIIIIIIIIIIIIIIIIIIAI22
IIIIIIIIIIIAIIIIIA1I2222I2IIAI222IIAI222IIIIIIIIIIIIIIIIIIIIAI22
IIIA1IIIIIIAIIIIIA1I2222I2IIAI222IIAI222IIIIIIIIIIIIIIIIIIIIAI22
IIIA1IIIIIIAIIIIAA1I2222I2IIAI222IIAI222IIIIIIIIIIIIIIIIIIIIAI22
IIIA1IIIIIIAIIIIAA1A2222I2IIAI222IIAI222IIIIIIIIIIIIIIIIIIIIAI22
IIIA1IIIIIIAIIIIAA1A2222I2IIAI222IIAI222IIIIIIIIIIIIIIAIIIIIAI22
IIIIIIIIIIIIIIIIIIIIIIIIIIIIIIIIIIIIIIIIIIIIIIIIIIIIIIIIIIIAIIII
IIIIIIIIIIIIIIIIIIIIIIIIIIIA1111IIIIIIIIIIIIIIIIIIIIIIIIIIIAIIII
IIIIIIIIIIIIIIIIIIIIIIIIIIIA1111IIIIIIIIIIIIIIIIIIIIIIIIIIIA1111
IIIIIIIIIIIIIIIIIIIIIIIIIIIA1111IIIIIIIIIIIIIIIIIIIIIIIA111A1111
IIIIIIIIIIIAIIIIIIIIIIIIIIIA1111IIIIIIIIIIIIIIIIIIIIIIIA111A1111
IIIIIIIIIIIAIIIIIIIIIIIIIIIA1111IIIIIIIIIIIIIIIIIIIIIIIAA11A1111
IIIIIIIIIIIAIIIIIIIIIIIIIIIA1111IIIIIIIIIIA122IIIIIIIIIAA11A1111
IIIIIIIIIIIAIIIIIIIIIIIIIIIA1111IIIIIIIIIIA122I222IIIIIAA11A1111
IIIIIIIIIIIAIIIIIIIIIIIIIIIA1111IIIIIIIIIIA122I222IIIIIAA1AA1111
IIIIIIIIIIIAIIIIIIIIIIIIAIIA1111IIIIIIIIIIA122I222IIIIIAA1AA1111
IIIIIIIIIIIAIIIIIIIIIIIIAIIA1111IIIIIIIIIIA122I222IIIIIAAAAA1111
IIIIIIIIIIIAIIIIIIIIIIIIAIIA1111IIIIIIIIIIA122I222IA222AAAAA1111
IIIIIIIIIIIAIIIIIIIIIA1IAIIA1111IIIIIIIIIIA122I222IA222AAAAA1111
IIIIIIIIIIIIIIIIIIIIIIIIIIIIIIIIIIIIIIIIIIIIIIIIIIIIIIIIIIIIIIA1
IIIIIIIIIIIIIIIIIIIIIIIIIIIIIIIIIIIIA1I12222IIIIIIIIIIIIIIIIIIA1
IIIIIIIIIIIIIIIIIIIIIIIIIIIIIIIIIIIIA1I12222IIIIIIIA1IIIIIIIIIA1
IIIIIIIIIIIIIIIIIIIIIIIIIIIIIIIIIIIIIIIIIIIIIIA11I222IIIIIIIIIII
IIIIIIIIIIIIIIIIIIIIIIIIIIIIIIIAIIIIIIIIIIIIIIA11I222IIIIIIIIIII
IIIIIIIIIIIIIIIIIIIIIIIIIIIIIIIAIIIIIIIIIIIIAIA11I222IIIIIIIIIII
IIIIIIIIIIIIIIIIIIIIIIIIIIIIIIIAIIIIIIIIIIIIAIA11I222IIIIA122222
IIIIIIIIIIIIIIIIIIIIA122IIIIIIIAIIIIIIIIIIIIAIA11I222IIIIA122222
IIIIIIIIIIIIIIIIIIIIIIIIIIIIIIIA12I222IIIIIIIIIIIIIIIIIIIIIIIIII
IIIIIIIIIIIIIIIIIIIIIIIIIIIIIAIA12I222IIIIIIIIIIIIIIIIIIIIIIIIII
IIIIIIIIIIIIIIIIIIIIIIIIIIIIIAIA12I222IIIIIIIIIIIAIIIIIIIIIIIIII
IAIIIIIIIIIIIIIIIIIIIIIIIIIIIIIIIIIIIIIIIIIIIIIIIIIIIIIIIIIIIIII
IAIIIIIIIIIIIIIIIIIIIIIIIIIIIIIAI2222I2IIIIIIIIIIIIIIIIIIIIIIIII
IAIIIIIIIIIIIIIIIIIIIIIIIIIIIIIAI2222I2IIIIIIAI2IIIIIIIIIIIIIIII
IIIIIIIIIIIIIIIIIIIIIIIIIIIIIIIAIIIIIIIIIIIIIIIIIIIIIIIIIIIIIIII
IIIIIIIAIIIIIIIIIIIIIIIIIIIIIIIAIIIIIIIIIIIIIIIIIIIIIIIIIIIIIIII
IIIIIIIAIIIIIIIAIIIIIIIIIIIIIIIAIIIIIIIIIIIIIIIIIIIIIIIIIIIIIIII
IIIIIIIAIIIIIIIAIIIIIIIIIIIIIIIAIIAII2222IIIIIIIIIIIIIIIIIIIIIII
IIIA2I2A22IIIIIAIIIIIIIIIIIIIIIAIIAII2222IIIIIIIIIIIIIIIIIIIIIII
IIIA2I2A22IIIIIAIIIIIIIIIIIIIIIAIIAII2222IIAIIIIIIIIIIIIIIIIIIII
IIIIIIIIIA1222IIIIIIIIIIIIIIIIIIIIIIIIIIIIIIIIIIIIIIIIIIIIIIIIII
IIIIIIIIIA1222IIIIIIIIIIIIIIIIIIIIIIIIIIIIIIIIIIIIIIIIIIIIIIA122
IIIIIIIIIIIIIIIIIIIIIIIIIIIIIIIIIIIIIIA1IIIIIIIIIIIIIIIIIIIIIIII
IIIIIIIIIIIIIIIIIIIIIIIIIIIIIIIIIIIIIIA1IIIIIIIAIIIIIIIIIIIIIIII
IIIIIIIIIIIIIIIIIIIIIIIIIIIIIIIIIIIIIIA1IIAIIIIAIIIIIIIIIIIIIIII
IIIIIIIIIIIIIIIIIIIIIIIIIIIIIIIIIIIIIIA1IIAIIIIAIIIIIIIIIIIIAIII
IIIIIIIIIAIIIIIIIIIIIIIIIIIIIIIIIIIIIIA1IIAIIIIAIIIIIIIIIIIIAIII
IIIIIA2IIA22IIIIIIIIIIIIIIIIIIIIIIIIIIA1IIAIIIIAIIIIIIIIIIIIAIII
IIIIIA2IIA22IIIIIIIIIIIIA1I22I2IIIIIIIA1IIAIIIIAIIIIIIIIIIIIAIII
IIIIIA2IIA22IIIIIIIIIIIIA1I22I2IIIIIIIA1A1AIIIIAIIIIIIIIIIIIAIII
IIIIIA2IIA22IIIIIIIIIIIIA1I22I2IIIIIIIA1A1A22I2AIIIIIIIIIIIIAIII
A1I22A2IIA22IIIIIIIIIIIIA1I22I2IIIIIIIA1A1A22I2AIIIIIIIIIIIIAIII
A1I22A2IIA22IIIIIIIIIIIIA1A1222I2IIIIIA1A1A22I2AIIIIIIIIIIIIAIII
A1I22A2IIA22IIIIIIIIIIA1A1A1222I2IIIIIA1A1A22I2AIIIIIIIIIIIIAIII
A1I22A2IIA22IIIIIIIIIIA1A1A1222I2IIIIIA1A1A22I2AIIIIIIIIIIIIAA11
A1I22A2IIA22IIIIIIIIIIA1A1A1222I2IIIIIA1A1A22IAA122222IIIIIIAA11
A1I22A2IIA22IIIIIIIIIIA1A1A1222I2IIIIIA1A1A22IAAA1122222IIIIAA11
IIIIIIIIIIIIIIIIIIIIIIIIIIIIIIIIIIIIIIIIIIIIIIIIIIIIIIIIIIIIA222
IIIIIIIIIIIIIIIIIIIIIIIIIIIIIIIIIIIIIIIIIIIIIIIIIIIIIIIIIIIIAA22
IIIIIIIIIIIIIIIIIIIIIIIIIIIIIIIIIIIAIIIIIIIIIIIIIIIIIIIIIIIIAA22
IIIIIIIIA222I2IIIIIIIIIIIIIIIIIIIIIAIIIIIIIIIIIIIIIIIIIIIIIIAA22
IIIIIIIIA222I2IIIIIIIIIA122222IIIIIAIIIIIIIIIIIIIIIIIIIIIIIIAA22
IIIIIIIIA122222IIIIIIIIA122222IIIIIAIIIIIIIIIIIIIIIIIIIIIIIIAA22
IIIIIIIIA122222IIIIIIIIA1222A2IIIIIAIIIIIIIIIIIIIIIIIIIIIIIIAA22
IIIIIIIIIIIIIIIIIIIIIIIIIIIIIIIIIIIIIIIIIIIIIIIIIIIIIIA1IIIIIIII
IIIIIIIIIIIIIIIIIIIIIIIIIIIIIIIIIIIIIIAIIIIIIIIIIIIIIIA1IIIIIIII
IIIIIIIIIIIIIIIIIIIIIIIAIIIIIIIIIIIIIIAIIIIIIIIIIIIIIIA1IIIIIIII
IIIIIIIIIIIIIIIIIIIIIIIIIIIIIIIIIIIIIIIIIIIIIIIIIIIIIIIIIIAIIIII
IIIIIIIIAIIIIIIIIIIIIIIIIIIIIIIIIIIIIIIIIIIIIIIIIIIIIIIIIIAIIIII
IIIIIIIIAIIIIIIIIIIIIIIIIIIIIIIIIIIIIIIIIIIIIIIIIIIIIIIIIIAIIIA1
IIIIIIIIIIIIIA22222IIIIIIIIIIIIIIIIIIIIIIIIIIIIIIIIIIIIIIIIIIIII
IIIIIIIIIIIIIA22222IIIIIA12I2222IIIIIIIIIIIIIIIIIIIIIIIIIIIIIIII
IIIIIIIIIIIIIA22222IIIIAA1222222IIIIIIIIIIIIIIIIIIIIIIIIIIIIIIII
IIIIIIIIIIIIIA22222IIIIAAA1222222IIIIIIIIIIIIIIIIIIIIIIIIIIIIIII
IIIIIIIIIIIA1A22222IIIIAAA1222222IIIIIIIIIIIIIIIIIIIIIIIIIIIIIII
IIIIIIIIIIIA1A22222IIIIAAA1222222IIIIIIIIIAIIIIIIIIIIIIIIIIIIIII
IIIIIIIIIIIA1A22222IIIIAAA1222222IIIIIIIIIAIIIIIIIIIIIIIIAIIIIII
IIIIIIIIIIIA1A22222IIIIAAA1222222IIIIIIIIIAIIIIIIIIIIIIIIA12I222
IIIIIIIIIIIA1A22222IIIIAAA1222222IIIIIIIIIAIIIIIIIIIAIIIIA12I222
IIIIIIIIIIIA1A22222IIIIAAA1222222IIIIIIIIIAIIIIIIIIIAA122A12I222
IIIIIIIIIIIIIIIIIIIIIIIIIIIIIIIIIIIIIIIIIIIIIIA1I222I22IIIIIIIII
IIIIIIIIIIIIIIIIIIIIIIIIIIIIIIIIIIIIIIIIIIIIIIIIIIIIAIIIIIIIIIII
IIIIIIIIIIIIIIIIIIIIIIIIIIIIIIIIIIIIIIIIIIIIIIIIAIIIAIIIIIIIIIII
IIIIIAIIIIIIIIIIIIIIIIIIIIIIIIIIIIIIIIIIIIIIIIIIAIIIAIIIIIIIIIII
IIIIIIIIIIIIIIIIIIIIIIIIIIIIIIIIIIIIIIIIIIIIIIA1I2I2III2IIIIIIII
IIIIIIIIIIIIIIIIIIIIIIIIIIAIIIIIIIIIIIIIIIIIIIA1I2I2III2IIIIIIII
IIIIIIIIIIIIIIIIIIIIIIIIIIAIIIIIIIIIAIIIIIIIIIA1I2I2III2IIIIIIII
IIIIIIIIIIIIIIIIIAIIIIIIIIAIIIIIIIIIAIIIIIIIIIA1I2I2III2IIIIIIII
IIIIIIIIIIIIIIIIIAIIIIIIIIAIIIIIIIIIA122IIIIIIA1I2I2III2IIIIIIII
IIIIIIIIIIIIIIIIIAIIIIIIIIAIIIIIIIIIA122222I2IA1I2I2III2IIIIIIII
IIIIIIIIIIIIIIIIIAIIIIIA12A222IIIIIIA122222I2IA1I2I2III2IIIIIIII
IIIAIIIIIIIIIIIIIIIIIIIIIIIIIIIIIIIIIIIIIIIIIIIIIIIIIIIIIIIIIIII
IIIIIIIIIIAI12IIIIIIIIIIIIIIIIIIIIIIIIIIIIIIIIIIIIIIIIIIIIIIIIII
IIIIAIIIIIAI12IIIIIIIIIIIIIIIIIIIIIIIIIIIIIIIIIIIIIIIIIIIIIIIIII
IIIIAIIIIIAI12IIIIIIIIIIIA122I2IIIIIIIIIIIIIIIIIIIIIIIIIIIIIIIII
IIIIAIIIIIAI12IIIIIIIIIIIA122I2IIIIIIIIIIIIIIIIIIIIIIIIIIIIIIA12
IIIIIIIIIIIIIIIIIIIIIIIIIIIIIIIIIIIIIIIA1IIIIIIIIIIIIIIIIIIIIIII
IIIIIIIIIIIIIIIIIIIIIIIIIIIIIIIIIIIA2I22IIIIIIIIIIIIIIIIIIIIIIII
IIIIIIIIIIIIIIIIIIIIIIIIIIIIIIIIIIIAA222222IIIIIIIIIIIIIIIIIIIII
IIIIIIIIIIIIIIIIIIIIIIIIIIIIIIIIIIIAA2222222IIIIIIIIIIIIIIIIIIII
IIIIIIIIIIIIIIIIIIIIIIIIIIIIIIIIIIIAA2222222IIIIIIIIIIIIAI222I22
IIIIIIIIIIIIIIIIIIIIIIIIIIIIIIIIIIIAA2222222IIIIIIIIIIIIAI222IA1
IIIIIIIIIIIIIAI11111IIIIIIIIIIIIIIIAA2222222IIIIIIIIIIIIAI222IA1
A1I1111IIIIIIIIIIIIIIIIIIIIIIIIIIIIIIIIIIIIIIIIIIIIIIIIIIIIIIIII
A1I1111IIIIIIIIIIIIIIIIIIIIIIIIIIIIIIIA22222IIIIIIIIIIIIIIIIIIII
IIIIIIIIIIIIIIIIIIIIIIIIIIIIIIIIIIIIIIIIIIIIIIIIIIIA1IIIIIIIIIII
IIIIIIIIIIIIIIIIIIIIIIIIIIIA1222I2IIIIIIIIIIIIIIIIIA1IIIIIIIIIII
IIIIIIIIIIIIIIIIIIIIIIIIIIIIIIIIIIIIIIIIIIIIIIIIIA12I22I2IIIIIII
IIIIIIIIIIIIIIIIIAIIIIIIIIIIIIIIIIIIIIIIIIIIIIIIIIIIIIIIIIIIIIII
IIIIIIIIIIIIIIIIIAIIIIIIIIIIIIIIIIIIIIIIIIIIIIIIIIIIIIIIIIA2I2I2
IIIIIIIIIIIIIIIIIAIIIIIIIIIIIIIIIIIIIIIIIIIIIIA2I2I2IIIIIIA2I2I2
IIIIIIIIIIIIIIIIIAIIIIIIIIIIIIIIIIIIIIIIIIIIIIA2I2I2IAIIIIA2I2I2
IIIIIIIIA122222I2IIIIIIIIIIIIIIIIIIIIIIIIIIIIIIIIIIIIIIIIIIIIIII
IIIIIIIIA12222222IIIIIIIIIIIIIIIIIIIIIIIIIIIIIIIIIIIIIIIIIIIIIII
IIIIIIIIA12222222IIIIIIIIIIIIIIIIIIIIIIIIIIIIIA122IIIIIIIIIIIIII
IIIIIIIIA12222222IIIIIIIIIIIIIIIIIIIIIIIIIIA12A12222IIIIIIIIIIII
IIIIIIIIA12222222IIIIIIIIIIIIIIIIIIIIIIIIIIA12A12222IIIIIIIIIA12
IIIIIIIIIIIIIIIIIIIIIIIIIIA11IIIIIIIIIIIIIIIIIIIIIIIIIIIIIIIIIII
IIIIIIIIIIIIIIIIIIIAIIIIIIA11IIIIIIIIIIIIIIIIIIIIIIIIIIIIIIIIIII
IIIIIIIIIIIIIIIIIIIAIIIIIIA11AIIIIIIIIIIIIIIIIIIIIIIIIIIIIIIIIII
IIIIIIIIIIIIIIIIIIIAIIIIIIA11AIIIIIIIIIIIIIIIIIIIIIIIIIIIIIIIAII
IIIIIIIIIIIIIIIIIIIAIIIIIIA11AIIIIIIIIIIIIIIIIIIIIIIIIA2IIIIIAII
IIIA1IIIIIIIIIIIIIIAIIIIIIA11AIIIIIIIIIIIIIIIIIIIIIIIIA2IIIIIAII
IIIA1I111IIIIIIIIIIAIIIIIIA11AIIIIIIIIIIIIIIIIIIIIIIIIA2IIIIIAII
IIIAA111111IIIIIIIIAIIIIIIA11AIIIIIIIIIIIIIIIIIIIIIIIIA2IIIIIAII
IIIAA111111IIIIIIIIAIIIAIIA11AIIIIIIIIIIIIIIIIIIIIIIIIA2IIIIIAII
IIIAA111111IIIIIIIIAIIIAIIA11AIIIIIIIIIIIIIIIIIIIIIIIIA2IA222AII
IIIAA1A1111IIIIIIIIAIIIAIIA11AIIIIIIIIIIIIIIIIIIIIIIIIA2IA222AII
IIIAA1A1111IIIIIIIIAIA2A22A11AIIIIIIIIIIIIIIIIIIIIIIIIA2IA222AII
IIIAA1A1111IIIA2222AIA2A22A11AIIIIIIIIIIIIIIIIIIIIIIIIA2IA222AII
IIIAA1A1111IIIA2222AIA2A22A11AIIIIIIIIIIIIIIIIIIIIIIIIA2AA111A12
A11AA1A1111IIIA2222AIA2A22A11AIIIIIIIIIIIIIIIIIIIIIIIIA2AA111A12
A11AA1A1111IIIA2222AIA2AA1A11A12I2IIIIIIIIIIIIIIIIIIIIA2AA111A12
A11AA1A1111IIIA2222AIA2AA1A11A12I2IIIIIIIIIIIIIIIIIIIIA2AA111A11
A11AA1A111AIIIA2222AIA2AA1A11A12I2IIIIIIIIIIIIIIIIIIIIA2AA111A11
A11AA1A111AIIIAA222AIA2AA1A11A12I2IIIIIIIIIIIIIIIIIIIIA2AA111A11
A11AA1A11AAIIIAA222AIA2AA1A11A12I2IIIIIIIIIIIIIIIIIIIIA2AA111A11
A11AA1A11AAIIIAA22AAIA2AA1A11A12I2IIIIIIIIIIIIIIIIIIIIA2AA111A11
A11AA1A11AAIIIAA22AAIA2AA1A11A12I2IA1I2222IIIIIIIIIIIIA2AA111A11
IIIIIIIIIIIIIIIIIIIIIIIAIIIIIIIIIIIIIIIIIIIIIIIIIIIIIIIIIIIIIIII
IIIIIIIIIIIIIIIIIIIIIIIAIIIIIIIIIIIIIIIIIIIIIA1II1I11111IIIIIIII
IIIIIIIIIIIIIIIIIIIIIIIAIIIIIIIIIIIIIIIIIIIIIA1II1I1A11122IIIIII
IIIIIIIIIIIA2II22IIIIIIAIIIIIIIIIIIIIIIIIIIIIA1II1I1A11122IIIIII
IIIIIIIIIIIA2II22IIIIA2A22IIIIIIIIIIIIIIIIIIIA1II1I1A11122IIIIII
IIIIIIIIIIIA2II22IIIIA2A22IIIIIA2222IIIIIIIIIA1II1I1A11122IIIIII
IIIIIIIIIIIIIIIIIIIIIIIIIIIIIIIIIIIIIIIIIIIIIIIIIIIIIIIA11IIIIII
IIIIIIIIIIIIIIIIIIIIIIIIIIIIIIIIIIIIIIIIIIIIIIIIIIIIIIIA112I22II
IIIIIIIIIIIIIIIIIIIIIIIIIIIIIIIIIIIIIIIIIIIIIIIA112I22IA112I22II
IIIIIIIIIIIIIIIIIIIIIIIIIIIIIIIIIIAIIIIIIIIIIIIA112I22IA112I22II
IIIIIIIIIIIIIIIIIIIIIIIIIIIIIIIIIAAIIIIIIIIIIIIA112I22IA112I22II
IIIIIIIIIIIIIIIIIIIIIIIIIIIIIIIIIAAIIIIIIIIIIIIA11A122IA112I22II
IIIIIIIIIIIIIIIIIIIIIIIIIIIIIIIIIAAIIIIIIIIAIIIA11A122IA112I22II
IIIIIIIIIIIIIIIIIIIIIIIIIIIIIIIIIAAIIIIIIIIA1IIA11A122IA112I22II
IIIIIIIIIIIIIIIIIIIIIIIIIIIIIIIIIAAIIIIIIIIA1IIA1AA122IA112I22II
IIIIIIIIIIIIIIIIIIIIIIIIIIIIIIIIIAAIIIIIIIIA1IIA1AA1222A112I22II
IIIIIIIIIIIIIIIIIIIIIIIIIIIIIIIIIAAIIIIIIIIA11IA1AA1222A112I22II
IIIIIIIIIIAIIIIIIIIIIIIIIIIIIIIIIAAIIIIIIIIA11IA1AA1222A112I22II
IIIIIIIIIIIIIIIIIIIIIIIIIIIIIIIIIIIIIIIA1IIIIIIIIIIIIIIIIIIIIIII
IIIIIIIIIIIIIIIIIIIIIIIIIIIIIIIIIIIIIIIA122IIIIIIIIIIIIIIIIIIIII
IIIIIIIIIIIIIIIIIIIIIIIIIIAIIIIIIIIIIIIA122IIIIIIIIIIIIIIIIIIIII
IIIIIIIIIIIIIIIIIIIIIIIIIIAIIIIIIIIIIIIA122IIIIIIIAIIIIIIIIIIIII
IIIIIIIIIIIIIIIIIIIAIIIIIIAIIIIIIIIIIIIA122IIIIIIIAIIIIIIIIIIIII
IIIIIIIIIIIIIIIIIIIAIIIIIIAIIIIIIIIIIIIA122IIIIIIIAIIIIIIAI22I22
IIIIIIIIIIIIIIIIIIIAIIIIIIAIIIIIIIIIIIIA122IIIIIIIAIIIIIAA222222
IIIIIIIIIIIIIIIIIIIAIIIIIAA2IIIIIIIIIIIA122IIIIIIIAIIIIIAA222222
IIIIIIIIIIIIIIIIIIIAIIIIIAA2IIIIIIIIIIIA122IIIIIIIAIIIIIAA122222
IIIIIAIIIIIIIIIIIIIAIIIIIAA2IIIIIIIIIIIA122IIIIIIIAIIIIIAA122222
IIIIIAIIIAIIIIIIIIIAIIIIIAA2IIIIIIIIIIIA122IIIIIIIAIIIIIAA122222
IIIIIAIIIAIIIIIIIIIAIIIIIAA2IIIIIIIIIIIA122IIIIIIIAIIIIIAA1A1222
IIIIIIIIIIIIIIIIIIIIIIIIIIA2I22IIIIIIIIIIIIIIIIIIIIIIIIIIIIIIIII
IIIIIIIIIIIIIIIIIIIIIIIIIIA2I22A2I22IIIIIIIIIIIIIIIIIIIIIIIIIIII
IIIIIIIIIIIIIIIIIIIIIIIIA2A2222A2I22IIIIIIIIIIIIIIIIIIIIIIIIIIII
IIIIIIIIIIIIIIIIIIIIIIIIA2A2222A2I22IIIIIIIIIAIIIIIIIIIIIIIIIIII
IIIIIIIIIIIIIIIIIIIIIIIIA2A2222A2I22IIIIIIIIIA1IIIIIIIIIIIIIIIII
IIIIIIIIIIIIIIIIIIIIIIIIAAA2222A2I22IIIIIIIIIA1IIIIIIIIIIIIIIIII
IIIIIIIIIIIIIIIIIIIIIIIIAAA2222A2I22IIIIIIIIIA1IIIIIIIIIA1122222
IIIIIIIIIIIIIIIIIIIIIIIIAAA2222A2I22IIIA11222A12IIIIIIIIA1122222
IIIIIIIIIIIIIIIIIIIIIIIIAAA2222A2I22IIIAA1122A122IIIIIIIA1122222
IIIIIIIIIIIIIIIIIIIIIA1IAAA2222A2I22IIIAA1122A122IIIIIIIA1122222
IIIIIIIIIIIIIIIIIIIIIA1IAAA2222A2I22IIIAA1A22A122IIIIIIIA1122222
IIIIIIIIIIIIIIIIIIIIIA1AAAA2222A2I22IIIAA1A22A122IIIIIIIA1122222
IIIIIIIIIIIIIIIIIIIIIA1AAAA2222A2I22IIIAA1A22A1222IIIIIIA1122222
IIIIIIIIIIIIIIIIIIIIIA1AAAA2222A2I22IIIAA1A22A122A12IIIIA1122222
IIIIIIIIIIIIIIIIIA122A1AAAA2222A2I22IIIAA1A22A122A12IIIIA1122222
IIIIIIIIIIIIIIIIIIIIIIIIIIA1I12222IIIIIIIIIIIIIIIIIIIIIIIIIIIIII
IIIIIIAIIIIIIIIIIIIIIIIIIIA1I12222IIIIIIIIIIIIIIIIIIIIIIIIIIIIII
IIIIIIAIIIIIIIIIIIAIIIIIIIA1I12222IIIIIIIIIIIIIIIIIIIIIIIIIIIIII
IIIIIIIIIIIIIIA1IIIIIIIIIIIIIIIIIIIIIIIIIIIIIIIIIIIIIIIIIIIIIIII
IIIIIIIIIIIIIIA1IIIIIIIIIIIIIIIIIIIIIIIIIIIIIIIIIIA1111I11IIIIII
IIIIIIAIIIIIIIA1IIIIIIIIIIIIIIIIIIIIIIIIIIIIIIIIIIA1111I11IIIIII
IIIIIIAIIIIIIIA1IIIIIIIIIIIIIIIIIIIIIIIIAIIIIIIIIIA1111I11IIIIII
IIIIIIAIIIIIIIA1IIIIIIIIIIAIIIIIIIIIIIIIAIIIIIIIIIA1111I11IIIIII
IIIIIIAIIIIIIIA1IIIIIIIIIIAIIIIAIIIIIIIIAIIIIIIIIIA1111I11IIIIII
IIIIIIAIIIIIIIA1IIIIIIIIAIAIIIIAIIIIIIIIAIIIIIIIIIA1111I11IIIIII
IIIIIIAIIIIIIIA1IIIIIIIIAIAIAIIAIIIIIIIIAIIIIIIIIIA1111I11IIIIII
IIIIIIAIIIIIIIA1IIIIIIIIAIAIAIIAIIIIAIIIAIIIIIIIIIA1111I11IIIIII
IIIIIIAIIIIIIIA1IIIIIIIIAIA2A22A2IIIAIIIAIIIIIIIIIA1111I11IIIIII
IIIIIIAIIIIIIIA1IIIIIIIIAIA2A22A2IIIAIIIAIIIIIIIIIA1111I11IIA222
IIIIIIAIIIIIIIA1IIIIIIIIAIA2A22A2IIIAIIIAIIIIIIIA2A1111I11IIA222
IIIIIIAIIIIIIIA1IIIIA222A2A2A22A2IIIAIIIAIIIIIIIA2A1111I11IIA222
A22222AIIIIIIIA1IIIIA222A2A2A22A2IIIAIIIAIIIIIIIA2A1111I11IIA222
A22222AIIIIIIIA1IIIIA222A2A2A22A2IIIAIIIAIIIIIIIAAA1111I11IIA222
A22222AIIIIIIIA1IIIIA222A2A2A22A2IIIAIIIAIIIIIIIAAA1111I1AIIA222
A22222AIIIIIIIA1IIIIA222A2A2A22A2IIIAIIIAIIIIIIIAAA1111IAAIIA222
A22222AIIIIIIIA1IIIIA222A2A2A22A2IIIAIIIAIIIIAIIAAA1111IAAIIA222
A22222AIIIIIIIA1IIIIA222A2A2A22A2IIIAIAIAIIIIAIIAAA1111IAAIIA222
A22222AIIIIIIIA1IIIIA222A2A2A22A2IIAA1A1AI1IIAIIAAA1111IAAIIA222
IIIIIIIIIA1I1222I2IIIIIIIIIIIIIIIIIIIIIIIIIIIIIIIIIIIIIIIIIIIIII
IIIIIIIIIA1I1222IA1I1222I2IIIIIIIIIIIIIIIIIIIIIIIIIIIIIIIIIIIIII
IIIIIIIIIIIIIIIIAIIIIIIIIIIIIIIIIIIIIIIIIIIIIIIIIIIIIIIIIIIIIIII
IIIIIIIIIIIIIIIIAIAIIIIIIIIIIIIIIIIIIIIIIIIIIIIIIIIIIIIIIIIIIIII
IIIIIIIIIIIIIIIIIIIIIIA222IIIIIIIIIIIIIIIIIIIIIIIIIIIIIIIIIIIIII
IIIIIIIIIIIIIIIIIIIIIIA222IIIIIIIIIIIIIIIIIIIIIIIIIIIIIIIIIIIA1I
IIIIIIIIIIIIIIIIIIIIIIA22AIIIIIIIIIIIIIIIIIIIIIIIIIIIIIIIIIIIA1I
IIIIIIIIIIIIIIIIIIIIIAA22AIIIIIIIIIIIIIIIIIIIIIIIIIIIIIIIIIIIA1I
IIIIIIIIIIIIIIIIIIIIIAA22AIIIIIIIIIIIIIIIIIIIIIIIIIIIIIIIA1IIA1I
IIIIIIIIIIIIIIIIIIIIIAA22AIIIIIIIIIIIIIIIIIIIIIIIIIIIIIIIA1IIA1A
IIIIIIIIIIIIIIIIIIIIIAA12A2222IIIIIIIIIIIIIIIIIIIIIIIIIIIA1IIA1A
IIIIIIIIIIIIIIIIIIIIIIIIIIAIIIIIIIIIIIIIIIIIIIIIIIIIIIIIIIIIIIII
IIIIIIIIIIIIIIIIIIIIIIIIIIAIIIIIIIIIIIIIIIIIIIAIIIIIIIIIIIIIIIII
IIIIIIIIIIIIIIIIIIIIIIIIIIAIIIIIIIIIIIIIIIIIAIAIIIIIIIIIIIIIIIII
IIIIIIIIIIIIIIIIIIIIIIIIIIIIIIIIIIIIIIIIIIIIIAIIIIIIIIIIIIIIIIII
IIIIIIIIIIIIIIIIIIIIIIIIIIIIIIIIIIIIIIIIIIIIIAIIIIIA1IIIIIIIIIII
IIIIIIIIIIIIIIIIIIIIIIIIIIIIIIIIIIIIIIIIIIIIIIIIIIIIIIIA122IIIII
IIIIIIIIIIIIIIIIIIIIIIIIIIIIIIIIIIIIIIIIIIIIIIIIIIIIIIIA122A1222
IIIIIIIIIIIIIIIIIIIIIIIIIIIIIIIAIIIIIIIIIIIIIIIIIIIIIIIA122A1222
IIIIIIIIIIIIIIIIIIIIIIIIIIIIIIIAIIIIIIIIIIIIIIIIIIIIIIIA122A1111
IIIIIIIIIIIIIIIIIIIIIIIIIIIAI11A222IIIIIIIIIIIIIIIIIIIIA122A1111
IIIIIIIIIIIIIIIIIIIIIIIIIIIAI1AA111222IIIIIIIIIIIIIIIIIA122A1111
IIIIIIIIIIIIIIIIIIIIIIIIIIIAI1AA1A1222IIIIIIIIIIIIIIIIIA122A1111
IIIIIIIIIIIIIIIIIIIIIIIIIIIAI1AA1A1222IIIAIIIIIIIIIIIIIA122A1111
IIIIIIIIIIIIIIIIIIIIIIIIIIIAI1AA1A1222IIIAIIIIIIIIIIIIIA12AA1111
IIIIIIIIIA1I22222IIIIIIIIIIAI1AA1A1222IIIAIIIIIIIIIIIIIA12AA1111
IIIIIIIIIA1I22222IIIIIA1IIIAI1AA1A1222IIIAIIIIIIIIIIIIIA12AA1111
IIIIIIIIIA1I22222IIIIIA1IIIAI1AA1A1222IIAAIIIIIIIIIIIIIA12AA1111
IIIIIIIIIA1I22222IIIIIA1IIIAI1AA1A122AIIAAIIIIIIIIIIIIIA12AA1111
IIIIIIIIIA1I22222IIIIIA1IIIAI1AA1A122AA1AAIIIIIIIIIIIIIA12AA1111
IIIIIIIIIA1I22222IIIIIA1IIIAI1AA1A122AA1AA22IIIIIIIIIIIA12AA1111
IIIIIIIIIA1I22222IIIIIA1IIIAI1AA1A122AA1AA22IIIIIIA1IIIA12AA1111
IIIIIIIIIA1I2A1222222IA1IIIAI1AA1A122AA1AA22IIIIIIA1IIIA12AA1111
IIIIIIIIIA1I2A1222222IA1IIIAI1AA1A122AA1AA22AIIIIIA1IIIA12AA1111
IIIIIIIIIIIIIIIIIIIIIIIIIIIIIIIIIIIIIIIIIIIIIIIIIIIAIIIIIIIIIIII
IIIIIIIIIIIIIIIIIIIIIIIIIIIIIIIIIIIIIIIIIIIIIIIIAIIAIIIIIIIIIIII
IIIIIIIIIIIIIIIIIIIIIIIIIIIIIIIIIIIIIIIIIIIIIIIIIIIIIIIAIIIIIIII
IIIIIIIIIIIIIIIIIIIIIIIIIIIIIIIIIIIIIIIIAIIIIIIIIIIIIIIAIIIIIIII
IIIIIIIIIIIIIIIIIIIIIIIIIIIIIIIIIIIIIIAIIIIIIIIIIIIIIIIIIIIIIIII
IIIIIIIIIIIIIIIIIIIIIIIIIIA1IIIIIIIIIIIIIIIIIIIIIIIIIIIIIIIIIIII
IIIIIIIIIIIIIIIIIIIIIIIIIIA1IIIIIIIIIIIIIIIIIIIIA1I1IIIIIIIIIIII
IIIIIIIIIIIIIIIIIIIIIIIIIIA1IIIIIIIIIIIIIIIIIIIIA1I1IIIAIIIIIIII
IIIIIIIIIIIIIIIIIIIIIIIIIIIIIIIIIIIIAIIIIIIIIIIIIIIIIIIIIIIIIIII
IIIIIIIIIIIIIIIIIIIIIIIIIIIIIIIIIIIIA22IIIIIIIIIIIIIIIIIIIIIIIII
IIIIIIIIIIIIIIIIIIIIIIIIIIIIIIIIIIIIA22IIIIIIIIIIIIIIIIIIIIIIA22
IIIIIIIIIIIIIIIIIIIIIIIIIIIIIIIIIIIIA2A22IIIIIIIIIIIIIIIIIIIIA22
IIIIIIIIIIIIIIIIIIIIIIIIIIIIIIIIIIIAA2A22IIIIIIIIIIIIIIIIIIIIA22
IIIIIIIIIIIIIIIIIAIIIIIIIIIIIIIIIIIAA2A22IIIIIIIIIIIIIIIIIIIIA22
IIIIIIIIIIIIIIIIIAIIIIIIIIIIIIIIIIIAA2A22IIIIIIIIIAIIIIIIIIIIA22
IIIIIIIIIIIIIIIIIAIIIIAIIIIIIIIIIIIAA2A22IIIIIIIIIAIIIIIIIIIIA22
IIA22222IIIIIIIIIAIIIIAIIIIIIIIIIIIAA2A22IIIIIIIIIAIIIIIIIIIIA22
IIIIIIIIIIIIIIIIIIIIIIIIIIIIIIIIIIIIIIIIIIIIIIA1I222I2IIIIIIIIII
IIIIIIIIIIIIIIIIIIIIIIIIIIIIIIIIIIIIIIA11II22IA1I222I2IIIIIIIIII
IIIIIA11II22I2IIIIIIIIIIIIIIIIIIIIIIIIA11II22IA1I222I2IIIIIIIIII
IIIIIIIIIIIIIIIIIIIIIIIIIIIIA222II2IIIIIIIIIIIIIIIIIIIIIIIIIIIII
IIIIIIIIA22IIIIIIIIIIIIIIIIIA222II2IIIIIIIIIIIIIIIIIIIIIIIIIIIII
IIIIIIIIA22IIIIIIIIIIIIIIIIIA222II2IIIIIIIIIIIIIIIIIIIIIIA22II2I
IIIIIIIIIIIIIIIIIIIIIIIIIIIIIIIIIIIIIIIIIIIIIA1112222IIIIIIIIIII
IIIIIIIIIIIIIIIIIIIIIIIIIAIIIIIIIIIIIIIIIIIIIA1112222IIIIIIIIIII
IIIIIIIIIAIIIIIIIIIIIIIIIAIIIIIIIIIIIIIIIIIIIA1112222IIIIIIIIIII
IIIIIIIIIAA1IIIIIIIIIIIIIAIIIIIIIIIIIIIIIIIIIA1112222IIIIIIIIIII
IIIIIIIIIAA1IIIIIIIIIIIIIAIIIIIIIAIIIIIIIIIIIA1112222IIIIIIIIIII
IIIIIIIIIAA1IIIIIIIIIIIIIAIIIIIIIAIIIIIIIIIIIA111A222IIIIIIIIIII
IIIIIIIIIIIIIIIIIIIIIIIIIIIIIIIIIIIIIIIIIIIIIIIIIIIIIIIIIIIIIA22
IIIIIIIIIIIIIIIIIIIIIIIIIIIIIIIIIIIIIIIIIIIIIIIIIIIIIIIIIIIA2A22
IIIIIIIIIIIIIIIIIIIIIIIIIIIIIIIA2IIIIIIIIIIIIIIIIIIIIIIIIIIA2A22
IIIIIIIIIIIIIIIIIIIIIIIIIIIIIIIA2IAIIIIIIIIIIIIIIIIIIIIIIIIA2A22
IIIIIIIIIIIIIIIIIIIIIIIIIIIIIIIA2IAIIIIIIIIIIIAIIIIIIIIIIIIA2A22
IIIIIIIIIIIIIIIIIIIIIIIIIIIIIIIA2IAIIIIIIIIIIIAIIIIIIIIIIIIA2AA2
IIIIIIIIIIIIIIIIIAIIIIIIIIIIIIIA2IAIIIIIIIIIIIAIIIIIIIIIIIIA2AA2
IIIIIIIIIIIIIIIIIAIIIIIIIIIIIIIA2IAIAIIIIIIIIIAIIIIIIIIIIIIA2AA2
IIIIIIIIIIIIIIIIIAIIIIAIIIIIIIIA2IAIAIIIIIIIIIAIIIIIIIIIIIIA2AA2
IIIIIIIIIIIIIIIIIA12IIAIIIIIIIIA2IAIAIIIIIIIIIAIIIIIIIIIIIIA2AA2
IIIIIIIIIIIIIIIIIA12IIA22IIIIIIA2IAIAIIIIIIIIIAIIIIIIIIIIIIA2AA2
IIIIIIIIA2222IIIIIIIIIIIIIIIIIIIIIIIIIIIIIIIIIIIIIIIIIIIIIIIIIII
IIIIIIIIIIIIIIIIIIIIIIIIIIIIIIIIIIIIIIIIIIIIIIA111II1IIIIIIIIIII
IIIIIIIIIIIIIIIIIIIIIIIIIIIIIIIIIIIIIIIIIIIIIIA111IIAIIIIIIIIIII
IIIIIIIIIIIIIIIIIIIIIIIIIIIIIIIIIIIIIIIIIIIIIIIIIA22I22IIIIIIIII
IA22I22IIIIIIIIIIIIIIIIIIIIIIIIIIIIIIIIIIIIIIIIIIA22I22IIIIIIIII
IA12222222IIIIIIIIIIIIIIIIIIIIIIIIIIIIIIIIIIIIIIIA22I22IIIIIIIII
IA122222A1I22222IIIIIIIIIIIIIIIIIIIIIIIIIIIIIIIIIA22I22IIIIIIIII
IA122222AAI22222IIIIIIIIIIIIIIIIIIIIIIIIIIIIIIIIIA22I22IIIIIIIII
IAA12222AAI22222IIIIIIIIIIIIIIIIIIIIIIIIIIIIIIIIIA22I22IIIIIIIII
IAA12222AAI22222IIIIIIIIIIIIIIIIIIIIIIIIIIIIIIIIIA22I22IIIIIIIIA
IAA12222AAI22222IIIIIA1II2222IIIIIIIIIIIIIIIIIIIIA22I22IIIIIIIIA
IAA12222AAI22222IIIIIA1II2222IIIIIIIIIIIIIIIIIIIIAA2I22IIIIIIIIA
IAA12222AAIA2222IIIIIA1II2222IIIIIIIIIIIIIIIIIIIIAA2I22IIIIIIIIA
IAA12222AAIA2222IIIIIA1A1222222IIIIIIIIIIIIIIIIIIAA2I22IIIIIIIIA
IAA12222AAIA2222IIIIIA1A1222222IIIIIIIIIIIIIIIIIIAAAI22IIIIIIIIA
IAA12222AAIA2222IIIIIA1A1222222IIIIIIIIIIIIIIIIIIAAA22222IIIIIIA
IIIIIIIIIIIIIIIIIIIIIIIIIIIIIIIIIIIIIIIIA1I2IIIIIIIIIIIIIIIIIIII
IIIIIIIIIIIIIIIIIIIIIIIIIIIIIIIIIIAIIIIIA1I2IIIIIIIIIIIIIIIIIIII
IIIIIIIIIIIIIIIIIIIIIIIIIIIIIIIIIIIIIIIIIIIIIIA11IIIIIIIIIIIIIII
IIIIIIIIIIIIIIIIIIIAIIIIIIIIIIIIIIIIIIIIIIIIIIA11IIIIIIIIIIIIIII
IIIIIIIIIIIIIIIIIIIAIIIIIAIIIIIIIIIIIIIIIIIIIIA11IIIIIIIIIIIIIII
IIIIIIIIIIIIIIIIIIIAIIIIIAIIIIIIIIIIIIIIIIIIIIA11IIIIIIIIAIIIIII
IIIIIIIIIIIIIIIIIIIAAIIIIAIIIIIIIIIIIIIIIIIIIIA11IIIIIIIIAIIIIII
IIIIIIIIAIIIIIIIIIIAAIIIIAIIIIIIIIIIIIIIIIIIIIA11IIIIIIIIAIIIIII
IIIIIIIIAIIIIIIIIIIAAIIIIAIIIIIIIIIIIIIIIIIIIIA11IIIIIIIIAA2I22I
IIIIIIIIAIIIIIIIIIIAAIIIIAIIIIA1112222IIIIIIIIA11IIIIIIIIAA2I22I
IIIIIIIIAIIIIIIIIIIAAIIIIAIIIIA1112222IIIIIIIIA11IIIIIIAIAA2I22I
IIIIIIIIIIIIIIIIIIIIIIIIIIIIIIIIIIIIIIIIIIIIIIIIIIIIIIIIIIIAIIII
IIIIIIA12222I2IIIIIIIIIIIIIIIIIIIIIIIIIIIIIIIIIIIIIIIIIIIIIAIIII
IIIIIIIIIIIIIIIIIIIIIIIA1I2I222IIIIIIIIIIIIIIIIIIIIIIIIIIIIIIIII
IIIIIIIIIIIIIIIIIIIIIIIIIIIIIIIIIIIIIIIIIIIIIIIIIIIIIIIIIIAIIIII
IIIIIIIIIIIIIIIIIIIIIIIIIIIIIIIIIIIIIIIIIIIIIIIIIIIIIIIAIIIIIIII
IIIIIIIIIIIIIIIIIIIIIIIIIIIIIIIIIIIIIA12I2I22IIIIIIIIIIIIIIIIIII
IIIIIIIIIIIIIIIIIIIIIIIIIIIIIIIIIIIIIAA1I2I22IIIIIIIIIIIIIIIIIII
IIIIIA1IIIIIIIIIIIIIIIIIIIIIIIIIIIIIIAA1I2I22IIIIIIIIIIIIIIIIIII
IIIIIA12I2I22IIIIIIIIIIIIIIIIIIIIIIIIAA1I2I22IIIIIIIIIIIIIIIIIII
IIIIIA12I2I22IIIIIIIIIIIIIIIIIAIIIIIIAA1I2I22IIIIIIIIIIIIIIIIIII
IIIIIA12I2I22IIIIIIIIIIIIIIIIIAIIIIIIAA1I2I22IIIIIAIIIIIIIIIIIII
IIIIIA12I2I22IIIIIIIIIA2II2I2IAIIIIIIAA1I2I22IIIIIAIIIIIIIIIIIII
IIIIIIIIIIIIIIIIIAIIIIIIIIIIIIIIIIIIIIIIIIIIIIIIIIIIIIIIIIIIIIII
A222IIIIIIIIIIIIIAIIIIIIIIIIIIIIIIIIIIIIIIIIIIIIIIIIIIIIIIIIIIII
A222IIA1I2222IIIIAIIIIIIIIIIIIIIIIIIIIIIIIIIIIIIIIIIIIIIIIIIIIII
A222IIA1I2222IIIIAIIIIIIIIIIIIIIIIIIIIIIIIIIIIIIIIIIIIIIIIIIIIAI
A222IIA1I2222A122A22I2IIIIIIIIIIIIIIIIIIIIIIIIIIIIIIIIIIIIIIIIAI
A222A1A122222A122A22I2IIIIIIIIIIIIIIIIIIIIIIIIIIIIIIIIIIIIIIIIAI
AIIIIIIIIIIIIIIIIIIIIIIIIIIIIIIIIIIIIIIIIIIIIIIIIIIIIIIIIIIIIIII
AIIIIIIIIIIIIIIIIIIIIIIIA22I2222IIIIIIIIIIIIIIIIIIIIIIIIIIIIIIII
AIIIIIIIIIIIIIIIIIA12222A22I2222IIIIIIIIIIIIIIIIIIIIIIIIIIIIIIII
AIIAIIIIIIIIIIIIIIA12222A22I2222IIIIIIIIIIIIIIIIIIIIIIIIIIIIIIII
IIIIIIIIIIIIIIIIIIIIIIIIIIIIIIIIIIA1111222IIIIIIIIIIIIIIIIIIIIII
IIIIIIIIIIIIIIIIIIIIIIIIIIIIIIIIIIAA111122IIIIIIIIIIIIIIIIIIIIII
IIIIIIIIIIIIIIIIIIIIIIIIIIIIIIIIIIIIIIIA2I22I2IIIIIIIIIIIIIIIIII
IIIIIIIIIIIIIIIIIA2IIIIIIIIIIIIIIIIIIIIA2I22I2IIIIIIIIIIIIIIIIII
IIIIIIIIIIIIIIIIIA2IIIIIIIIIIIIIIIIIIA2A2I22I2IIIIIIIIIIIIIIIIII
IIA1IIIIIIIIIIIIIA2IIIIIIIIIIIIIIIIIIA2A2I22I2IIIIIIIIIIIIIIIIII
IIA1IIIIIIIIIIIIIA2IIIIIIIIIIIIIIIIIIA2A2I22I2IIIIIAIIIIIIIIIIII
IIA1IIIIIIIIIIIIIA2IIIIIIIIIIIIIA11I2A2A2I22I2IIIIIAIIIIIIIIIIII
IIA1IIIIIIIIIIIIIA2IIIIIIIIIIIIIA11I2A2A2I22I2IIIIIA2IIIIIIIIIII
IIA1IIIIIIIIIIIIIA2IIIIIIIIIIIIIA11I2A2A2I22I2IIIIIA2IIIIA222III
IIA1IIIIIIIIIIIIIA222IIIIIIIIIIIA11I2A2A2I22I2IIIIIA2IIIIA222III
IIIIIIIIIIIIIIIIIIIIIIIIA22222IIIIIIIIIIIIIIIIIIIIIIIIIIIIIIIIII
IIIIIIIIIIIIIIIIIIIIIIIIA2222A1I22222IIIIIIIIIIIIIIIIIIIIIIIIIII
IIIIIIIIIIIIIIIIIIIIIIIIA2222A1I2A12222IIIIIIIIIIIIIIIIIIIIIIIII
IIIIIIIIIIIIIIIIIIIIIIIIA2222A1I2A12222IIIIAIIIIIIIIIIIIIIIIIIII
IIIIIIIIIIIIIIIIIIIIIIIIA2222A1A2A12222IIIIAIIIIIIIIIIIIIIIIIIII
IIIIIIIIIIIIIIIIIIIIIIIIA2222A1A2A12222IIIIAIIIIIIIIIIA1IIIIIIII
IIIIIIIIIIIIIIIIIIA12IIIA2222A1A2A12222IIIIAIIIIIIIIIIA1IIIIIIII
IIA12II22I2IIIIIIIA12IIIA2222A1A2A12222IIIIAIIIIIIIIIIA1IIIIIIII
IIA12II22I2IIIIIIIA12IIIA2222A1A2A12222IIIIAIIIA12II22A1IIIIIIII
IIIIIIIIIIIIIIIIIIIIIA112IIIIIIIIIIIIIIIIIIIIIIIIIIIIIIIIIIIIIII
IIIIIIIIIIIIIIIIIIIIIA112IIIIIIIIIIIIIIIIIA1IIIIIIIIIIIIIIIIIIII
IIIIIIIIIIIIIIIIIIIIIA112IIIIIIIIIIIIIIIIIA1IIIIIIAIIIIIIIIIIIII
IIIAIIIIIIIIIIIIIIIIIA112IIIIIIIIIIIIIIIIIA1IIIIIIAIIIIIIIIIIIII
IIIAA1222IIIIIIIIIIIIA112IIIIIIIIIIIIIIIIIA1IIIIIIAIIIIIIIIIIIII
IIIAA12222IIIIIIIIIIIA112IIIIIIIIIIIIIIIIIA1IIIIIIAIIIIIIIIIIIII
IIIAA12222IA12222IIIIA112IIIIIIIIIIIIIIIIIA1IIIIIIAIIIIIIIIIIIII
IIIAA12222IA12222IIIIA112IIIIIIIIIIIIIIIAIA1IIIIIIAIIIIIIIIIIIII
IIIAA12222IA12222IIIIA112IIIIIIIIIIIIIIIAIA1122IIIAIIIIIIIIIIIII
IIIAA12222IA12222IIIIA112IIIIIIIIIA1122IA2A1122IIIAIIIIIIIIIIIII
IIIAA12222IA12222IIIIA112IIIIIIIIIA1122IA2A1122IIIAIIA112IIIIIII
IIIAA12222IA12222IIIIA112IIIIIIIA1A11222A2A1122IIIAIIA112IIIIIII
IIIIIIIIIIIIIIIIIIIIIIIIIIIIIIIIIIIIIIIIA22IIIIIIIIIIIIIIIIIIIII
IIIIIIIIIIIIIIIIIIIIIIIIIIIIIIIIIIIA2222A22IIIIIIIIIIIIIIIIIIIII
IIIIIIIIIIIIIIIIIIIIIIIIIIIIIIIIIIIA2222A22IIIIIIIIIIIIIIIAIIIII
IIIIIIIIIIIIIIIIIIIIIIIIIIIIIIIIIIIA2222A22IIIIIIIIIIIIIIIA12III
IIIIIIIIIIIIIIIIIIIIIIIIIIIIIIIIIIIA2222A22IIIIIIIIIIIIIIIA122II
IIIIIIIIIIIIIIIIIIIIIIIIIIIIIIIIIIIA2222A22IIIIIIIIIIIIIIIA12222
IIIIIIIIIIIIIIIIIIIIIIIIIIIIIIIA12IA2222A22IIIIIIIIIIIIIIIA12222
IIIIIIIIIIIIIIIIIIIIIIIIIIIIIIIIIIIIIIIIIIIIIIIIIIIIIIIIIIIIA122
IIIIIIIIIIIIIIIIIIIIIIIIIIIIIIIIIIIIIIAIIIIIIIIIIIIIIIIIIIIIA122
IIIIIIIIIIIIIIIIIIIIIIIIIIIIIIIIIIIIIIIIIIIIIIIIIIIIIIIIIIIIIA12
IIIIIIIIIIIIIIIIIIIIIA122IIIIIIIIIIIIIIIIIIIIIIIIIIIIIIIIIIIIA12
IIIIIIIIIIIIIIIIIIIIIA122IIIIIIIIIIAIIIIIIIIIIIIIIIIIIIIIIIIIA12
IIIIIIIIIIIIIIIIIIIIIIIIIIIIIIIIIIIIIIIIIIIIIIIIIIIIIIA11IIIIIII
IIIIIIIIIIIIIIIIIIIIIIIIIIIIIIIIIIIIIIIIIIIIIIIIIIIIIIA11IIIIAII
IIIIIIIIIIIIIIIIIIIIIIIIIIA2I2IIIIIIIIIIIIIIIIIIIIIIIIA11IIIIAII
IIIIIIIIIIIIIIIIIIIIIIIIIIA2I2IIIIIIIIIIIIIIIIA2I2IIIIA11IIIIAII
IIIIIIIIIIIIIIIIIIIIIIIIIIA222IIIIIIIIIIIIIIIIA2I2IIIIA11IIIIAII
IIIIIIIIIIIIIIIIIIA222IIIIA222IIIIIIIIIIIIIIIIA2I2IIIIA11IIIIAII
IIIIIIIIIIIIIIIA2IA222IIIIA222IIIIIIIIIIIIIIIIA2I2IIIIA11IIIIAII
IIIIIIIIIIIIIIIA2IA222IIIIA222A2III2IIIIIIIIIIA2I2IIIIA11IIIIAII
IIIIIIIIIIIIIIIA2IA222IIIIA222A2III2IIIIIIIIIIA2I2IIIIA11AI2IAII
IIIIIIIIIIIIIIIA2IA222IIIIA222A2III2IIIIIIIIIIA2I2IIIIA11AA22AII
IIIIIIIIIIIIIIIIIIIIIIIIIIIIIIIIIIIIIIIIIIIIIIIIIIIIIIIIIAIIIIII
IIIIIIIIIIIIIIIIIIIIIIIIIIIIIIIIIIIIIIIIIIIIIIIIIIIAIIIIIAIIIIII
IIIIIIIIIIIIIIIIIIIIIIIIIIIIIIIIIIIIIIIIIIIIIIIIIIIAIIIA1A22IIII
IIIIIIIIIIIIIA22I22IIIIIIIIIIIIIIIIIIIIIIIIIIIIIIIIAIIIA1A22IIII
IIIIIIIIIIIIIA22I22IIIIIIIIIIIIIIIIIIA1IIIIIIIIIIIIAIIIA1A22IIII
IIIIIIIIIIIIIA22I22IIIIIIIIIIIIIIIA12A12222IIIIIIIIAIIIA1A22IIII
IIIIIIIIIIIIIA22I22IIIIA12222222IIA12A12222IIIIIIIIAIIIA1A22IIII
IIIIIIIIIIIAIA22I22IIIIA12222222IIA12A12222IIIIIIIIAIIIA1A22IIII
IIIIIIIIIIIAIA22IA2IIIIA12222222IIA12A12222IIIIIIIIAIIIA1A22IIII
IIIIIIIIIIIAIA22IA2IIIIA12222222IIA12A12222IIIIIIIIAIIIA1A22A12I
IIIIIIIIIIIAIA22IA2IIIIA122222A12IA12A12222IIIIIIIIAIIIA1A22A12I
IIIIIIIIIIIAIA22IAAIIIIA122222A12IA12A12222IIIIIIIIAIIIA1A22A12I
IIIIIIIAIIIAIA22IAAIIIIA122222A12IA12A12222IIIIIIIIAIIIA1A22A12I
IA1I2I2A2IIAIA22IAAIIIIA122222A12IA12A12222IIIIIIIIAIIIA1A22A12I
IA1I2I2A2IIAIA22IAAIIIIA122222A12IA12A1A222IIIIIIIIAIIIA1A22A12I
IA1I2I2A2IIAIA22IAAIIIIA122222A12IA12A1A222IIIIIIIIAIIIA1A22A1AI
IA1I2I2A2IIAIA22IAAIIIIA122222A12IA12A1A222IIIIIIIIAIIIA1A22A1AA
IA1I2I2A2IIAIA22IAAIIIIA1A2222A12IA12A1A222IIIIIIIIAIIIA1A22A1AA
IIIIIIIIIIIIIIIIIIIIIIIAIIIIIIIIIIIIIIIIIIIIIIIIIIIIIIIIIIIIIIII
IIIIIIIIIIIIIIIIIIIIIIIAIIIIIIIIIIIIIIIIIIIIIIIIIIIIIIIIIIIIAIII
IIIIIIIIIIIIIAIIIIIIIIIAIIIIIIIIIIIIIIIIIIIIIIIIIIIIIIIIIIIIAIII
IIIIAIIIIIIIIIIIIIIIIIIIIIIIIIIIIIIIIIIIIIIIIIIIIIIIIIIIIIIIIIII
IIAIAIIIIIIIIIIIIIIIIIIIIIIIIIIIIIIIIIIIIIIIIIIIIIIIIIIIIIIIIIII
IIAIAIIIIIIIIIIIIIIIIIIIIIIIIIIIIIIIIIIIIIIIIIIIIIIIIIIIIAIIIIII
IIIIIIIIIIIIIIIIIIIIIIA122222IIIIIIIIIIIIIIIIIIIIIIIIIIIIIIIIIII
IIIIIIIIIIIIIIA1IIIIIIA122222IIIIIIIIIIIIIIIIIIIIIIIIIIIIIIIIIII
IIIIIIIIIIIIIIA1IIIIIIA122222IIIIIIIIIIIIIIIAIIIIIIIIIIIIIIIIIII
IIIIIIIIIIIIIIA1IIIIIIA122222IIIIIIIIIA12222AIIIIIIIIIIIIIIIIIII
IIIIIIIIIIIIIIA1IIIIIAA122222IIIIIIIIIA12222AIIIIIIIIIIIIIIIIIII
IIIIIIIIIIIIIIA1A1222AA122222IIIIIIIIIA12222AIIIIIIIIIIIIIIIIIII
IIIIIIIIIIIIIIA1A122AAA122222IIIIIIIIIA12222AIIIIIIIIIIIIIIIIIII
IIIIIIIIIIIIIIA1A122AAA122222IIIIIIIIIA12222AIIIIIIIIIIIAIIIIIII
IIIIIIIIIIIIIIIAI122222IIIIIIIIIIIIIIIIIIIIIIIIIIIIIIIIIIIIIIIII
IIIIIIIIIIIIIAIA2122222IIIIIIIIIIIIIIIIIIIIIIIIIIIIIIIIIIIIIIIII
IIIIIIIIIIIAIA2A2122222IIIIIIIIIIIIIIIIIIIIIIIIIIIIIIIIIIIIIIIII
IIIIIIIIIIAA1A2A2122222IIIIIIIIIIIIIIIIIIIIIIIIIIIIIIIIIIIIIIIII
IIIIIIIIIIAA1A2A2122222IIIIAI122IIIIIIIIIIIIIIIIIIIIIIIIIIIIIIII
IIIIIIIIIIIIIIIIIIIIIIIIIIIIIIIIIIIIIIIIIIA11II2II2IIIIIIIIIIIII
IIIIIIIA11II2IIIIIIIIIIIIIIIIIIIIIIIIIIIIIA11II2II2IIIIIIIIIIIII
IIIIIIIIIIIIIIIIIIIIIIIIIIIIIIIIIIIIIIAIIIIIIIIIIIIIIIIIIIIIIIII
IIIIIIIIIIIIIIIIIIIIIIIIIIIIIIIIIIIIIIAIIIIIIIIIIIA1I2222IIIIIII
IIIIIIIIIIIIIIIIIIIIIIIIIIIIIIIIIIIIIIIIIIIIIIIIIIIIIIIIIIIIIIAI
IIIIIIIIIAI22IIIIIIIIIIIIIIIIIIIIIIIIIIIIIIIIIIIIIIIIIIIIIIIIIAI
IIIIIIIIIAI22IIIIIIIIIIIIIIIIA1222222IIIIIIIIIIIIIIIIIIIIIIIIIAI
IIIIIIIIIIIIIIIIIIIIIA122I222IIIIIIIIIIIIIIIIIIIIIIIIIIIIIIIIIII
IIIIIIIIIIIIIIIIIIIIIA122I222IIIIIIIIIIIIIIIIIIIIIIAIIIIIIIIIIII
IIIIIIIIIIIIIIIIIIIIIA122I222IIIIIIIIIIIIIIIIIIIIIIAIIIIIAIIIIII
IIIIIIIIIIIIA11111IIIIIIIIIIIIIIIIIIIIIIIIIIIIIIIIIIIIIIIIIIIIII
IIIIIIIIIIIIA11111AIIIIIIIIIIIIIIIIIIIIIIIIIIIIIIIIIIIIIIIIIIIII
IIIIIIIIIIIAA11111A2IIIIIIIIIIIIIIIIIIIIIIIIIIIIIIIIIIIIIIIIIIII
IIIIIIIIIIIAAA1111A22IIIIIIIIIIIIIIIIIIIIIIIIIIIIIIIIIIIIIIIIIII
IIIIIIIIIA1AAA1111A22IIIIIIIIIIIIIIIIIIIIIIIIIIIIIIIIIIIIIIIIIII
IIIIIIIIIA1AAA1111A22IIIIIIIIIIIIIIIIIIIIIIIIIIIIIIIIIIIIIIIIIA1
IIIIIIIIIA1AAA1111A22IIA1IIIIIIIIIIIIIIIIIIIIIIIIIIIIIIIIIIIIIA1
IIIIIIIIIA1AAA1111A22IIA1IIIIIIIIIIIIIIIIA1122IIIIIIIIIIIIIIIIA1
IIIIIIIAIA1AAA1111A22IIA1IIIIIIIIIIIIIIIIA1122IIIIIIIIIIIIIIIIA1
IIIIIIIAIA1AAA1A11A22IIA1IIIIIIIIIIIIIIIIA1122IIIIIIIIIIIIIIIIA1
IIIIIIIIIIIIIIIIIIIIIIIIIIIIIIIIIIIIIIIIIIIIAIIIIIIIIIIIIIIIIIII
IIIIIIIIIIIIIIIIIIA1IIIIIIIIIIIIIIIIIIIIIIIIAIIIIIIIIIIIIIIIIIII
IIIIIIIIIIIIIIIIIIA12222IIIIIIIIIIIIIIIIIIIIAIIIIIIIIIIIIIIIIIII
A11IIIIIIIIIIIIIIIIIIIIIIIIIIIIIIIIIIIIIIIIIIIIIIIIIIIIIIIIIIIII
IIIIIIIIIIIAIIIIIIIIIIIIIIIIIIIIIIIIIIIIIIIIIIIIIIIIIIIIIIIIIIII
IIIIIIIIIIIAIIIIIIIIIIIAIIIIIIIIIIIIIIIIIIIIIIIIIIIIIIIIIIIIIIII
IIIIIIIIIIIAIIIIIIIIIIIAIIIIIIIIIIIIIIA111112IIIIIIIIIIIIIIIIIII
IIIIIIIIIIIAIIIIIIIIIIIAIIIIIIIIIIIIIIA1111A111112IIIIIIIIIIIIII
IIIIIIIIIIIAIIIIIIIIIIIAIIA111IIIIIIIIA1111A111112IIIIIIIIIIIIII
IIIIIIIIIIIAIIIIIIIIIIIAIIA111112IIIIIA1111A111112IIIIIIIIIIIIII
IIIIIIIIIIIAIIIIIIIIIIIAIIA111112IIIIIA1111A111112IIIIIIIIIIIIAI
IIIIIIIIIIIAIIIIIIIIAIIAIIA111112IIIIIA1111A111112IIIIIIIIIIIIAI
IIIIIIIIIIIAIIIIIIIIAIIAIIA111112IIIIIA1111A111112IIIA122222IIAI
IIIIIIIIIIIAIIIIIIIIA12A22A111112IIIIIA1111A111112IIIA122222IIAI
IIIIIIIIIIIIIIIIIIIIIIIIIIIIIIIIIIIIIIIAIIIIIIIIIIIIIIIIIIIIIIII
IIIIIIIIIIIIIIIIIIIIIIIIIIIIIIIIIIIIIIIIIIIIIIIIIIIIIIIAIIIIIIII
IIIIIAIIIIIIIIIIIIIIIIIIIIIIIIIIIIIIIIIIIIIIIIIIIIIIIIIAIIIIIIII
IIIIIAIIIIIIIIIIIIIIIIIIIIIIIIIIIIIIIIIIIIIA1I22222IIIIAIIIIIIII
IIIIIAIIIIA1IIIIIIIIIIIIIIIIIIIIIIIIIIIIIIIA1I22222IIIIAIIIIIIII
IIIIIIIIIIIIIIIIIIIIIIIIIIIIIIIIIIIIIIIIIIIIIIIIIIIIIAIIIIIIIIII
IIIIIIIIIIIIIIIIIIIIIIIIIIIIIIIIIIIIIIIIIIIIIIIIIIIIIAIIIIIIIA1I
IIIIIIIIIIIIIIIIIIIIIIIIIIIIIIIIIIIIIIIIIIIIA1IIIIIIIAIIIIIIIA1I
IIIIIIIIA1112222IIIIIIIIIIIIIIIIIIIIIIIIIIIIA1IIIIIIIAIIIIIIIA1I
IIIIIIIIA1112222IIIIIIIIIIIIIIIIIIIIIIAIIIIIA1IIIIIIIAIIIIIIIA1I
IIIIIIIIA1112222IIIIIIIIIIIAIIIIIIIIIIAIIIIIA1IIIIIIIAIIIIIIIA1I
IIIIIIIIA1112A22IIIIIIIIIIIAIIIIIIIIIIAIIIIIA1IIIIIIIAIIIIIIIA1I
IIIIIIIIA1112A12IIIIIIIIIIIAIIIIIIIIIIAIIIIIA1IIIIIIIAIIIIIIIA1I
IIIIIIIIA1112A1222222IIIIIIAIIIIIIIIIIAIIIIIA1IIIIIIIAIIIIIIIA1I
IIIIIIIIA1112A1222222AIIIIIAIIIIIIIIIIAIIIIIA1IIIIIIIAIIIIIIIA1I
A22IIIIIIIIIIIIIIIIIIIIIIIIIIIIIIIIIIIIIIIIIIIIIIIIIIIIIIIIIIIII
A22IIIIIIIIIIIIIIIIIIIIIIIIIIIIIIIIIIIA22IIIIIIIIIIIIIIIIIIIIIII
A22IIIIIIIIIIIIIIIIA1I11IIIIIIIIIIIIIIA22IIIIIIIIIIIIIIIIIIIIIII
A22IIIIIIIIIIIIIIIIA1I11111IIIIIIIIIIIA22IIIIIIIIIIIIIIIIIIIIIII
A22IIIIIAIIIIIIIIIIA1I11111IIIIIIIIIIIA22IIIIIIIIIIIIIIIIIIIIIII
IIIIIIIIIIA111111IIIIIIIIIIIIIIIIIIIIIIIIIIIIIIIIIIIIIIIIIIIIIII
IIIIIIIIIIA111111IIIIIIIIIIAIIIIIIIIIIIIIIIIIIIIIIIIIIIIIIIIIIII
IIIIIIIIIIA11A1111111IIIIIIAIIIIIIIIIIIIIIIIIIIIIIIIIIIIIIIIIIII
IIIIIIIIIIA11A1111111IIIIIIAIIIIIIIIIIIIIIA11111IIIIIIIIIIIIIIII
IIIIIIIIIIA11A1111111IIIIIIAIIIIIIIIIIIIIIA11111IIIAIIIIIIIIIIII
IIIIIIIA12A11A1111111IIIIIIAIIIIIIIIIIIIIIA11111IIIAIIIIIIIIIIII
IAIIIIIA12A11A1111111IIIIIIAIIIIIIIIIIIIIIA11111IIIAIIIIIIIIIIII
IAIIIIIA12A11A1111111IIIIIIAIIIIIIIIIIIIIIA11111IIIAIIIIIIIIIAI1
IAIIIIIA12A11A1111111IIIIAIA222IIIIIIIIIIIA11111IIIAIIIIIIIIIAI1
IIIIIIIIIIIIIAI222IIIIIIIIIIIIIIIIIIIIIIIIIIIIIIIIIIIIIIIIIIIIII
IIIIIIIIIIIIIAI222IIIIIIIIIIIIIIIIIIIIIIIIIA11I1111IIIIIIIIIIIII
IIIIIIIIIIIIIA1121111IIIIIIIIIIIIIIIIIIIIIIA11I1111IIIIIIIIIIIII
IIIIIIIIIIIIIIIIIIIIIIIIIIIIIIIIIIIIIIAI2IIIIIIIIIIIIIIIIIIIIIII
IIIIIIIIIIIIIIA11222IIIIIIIIIIIIIIIIIIAI2IIIIIIIIIIIIIIIIIIIIIII
IIIIIIIIIIA11IA11222IIIIIIIIIIIIIIIIIIAI2IIIIIIIIIIIIIIIIIIIIIII
IIIIIIIIIIAA11A11222IIIIIIIIIIIIIIIIIIAI2IIIIIIIIIIIIIIIIIIIIIII
[...]
IIIIAIIIIIIIIIIIIIIIIIIIIIIIIIIIIIIIIIIIIIA1111111IIIIIIIIIIIIII
IIIIAIIIIIIIIIIIIIIIIIIIIIIIIIIIIIIIIIIIIIA1111111IIIAIIIIIIIIII
IIIIAIIIIIIIIIIIIIIIIIIIIIIIIIIIIIIIIIIIIIA1111111IIIA1111111III
IIIIIIIIIIIIIIIIIIIIIIIIIIIIIIIIIA1111111IIIIIIIIIIIIIIIIIIIIIII
IIIIIIIIIIIIIIIIIIIIIIIIIIIIIIIIIIIIIIIA11111111IIIIIIIIIIIIIIII
IIIIIAIIIIIIIIIIIIIIIIIIIIIIIIIIIIIIIIIIIIIIIIIIIIIIIIIIIIIIIIII
IIIIIAIIIIIAIIIIIIIIIIIIIIIIIIIIIIIIIIIIIIIIIIIIIIIIIIIIIIIIIIII
IIIIIAIIIIIAIIIIIIIIIIIIIIIIIIIIIIIIIIIIIIIIIIIIIIIAIIIIIIIIIIII
IIIIIIIIIIIIIIIIIIIIIIIIIIIIIIIIIIIIIIIIIAIIIIIIIIIIIIIIIIIIIIII
IIIIIIIAIIIIIIIIIIIIIIIIIIIIIIIIIIIIIIIIIAIIIIIIIIIIIIIIIIIIIIII
A1111IIAIIIIIIIIIIIIIIIIIIIIIIIIIIIIIIIIIAIIIIIIIIIIIIIIIIIIIIII
A111111AIIIIIIIIIIIIIIIIIIIIIIIIIIIIIIIIIAIIIIIIIIIIIIIIIIIIIIII
IIIIIIIIIIIIIIIIIIIIIIIIIIIIIIIIAIIIIIIIIIIIIIIIIIIIIIIIIIIIIIII
IIIIIIIIIIIIIIIIIIIIIIIIIIIIIIIIAAIIIIIIIIIIIIIIIIIIIIIIIIIIIIII
IIIIIIIIIIIIIIIIIIIIIIIIIIIIIIIIIIIIIIIIIIIIIIIIIIIIIIIIIIIIA1II
IIIIIIIIIIIIIIIIIIIIIIIAIIIIIIIIIIIIIIIIIIIIIIIIIIIIIIIIIIIIIIII
IIIIIIAIIIIIIIIIIIIIIIIIIIIIIIIIIIIIIIIIIIIIIIIIIIIIIIIIIIIIIIII
AIIIIIIIIIIIIIIIIIIIIIIIIIIIIIIIIIIIIIIIIIIIIIIIIIIIIIIIIIIIIIII
AIIIIIIIIIIIIAIIIIIIIIIIIIIIIIIIIIIIIIIIIIIIIIIIIIIIIIIIIIIIIIII
AIIIIIIIIIIIIAIIIIIIIIIIIIIIIIIIIIAIIIIIIIIIIIIIIIIIIIIIIIIIIIII
IA1111IIIIIIIIIIIIIIIIIIIIIIIIIIIIIIIIIIIIIIIIIIIIIIIIIIIIIIIIII
IIIIIIIIIIIIIIIIIIIIIIIIIIIIIA1111111IIIIIIIIIIIIIIIIIIIIIIIIIII
IIIIIIIIIIIIIIIIIIIIIIIIIIIIIIIIIIIIIIIIIIIIIIIIIIIIIIIA1111111I
IIIIIIAIIIIIIIIIIIIIIIIIIIIIIIIIIIIIIIIIIIIIIIIIIIIIIIIIIIIIIIII
IIIIIIIIIIIIIIIIIIIIA11111111IIIIIIIIIIIIIIIIIIIIIIIIIIIIIIIIIII
IIIIIIIIIIIIIIIIIIIIA11111111IIIIIA11111111IIIIIIIIIIIIIIIIIIIII
IIIIIIIA11111111IIIIA11111111IIIIIA11111111IIIIIIIIIIIIIIIIIIIII
IIIIA1IA11111111IIIIA11111111IIIIIA11111111IIIIIIIIIIIIIIIIIIIII
IIIIIIIIIIIIIIIIIIIIIIIIIIIIIIIIIIIIIIIIIIIIIIIIIIIIIIIA11111111
IIIIIIIIIIIIIIIIIIIIIIIIIIIIIIIIIIIIIIIIIIIIA1I11111IIIIIIIIIIII
IIIIIIIIIIIIIIIIIIIIIIIIIIIIIIIIIIIIIIIIIIIIIIIIIIIIIIIIIIIAIIII
IIIIIIIIIIIIIIIIIIIIIIIIIIIIIIIIIIIIIIIIIIIIIIIIIIIIIIIIIIIA1111
IIIIIIIIIIIIIIIIIIIIIIIIIIIA11111111IIIIIIIIIIIIIIIIIIIIIIIIIIII
IIIIIIIIIIIIIIIIIIIIIIIIIIIIIIIAIIIIIIIIIIIIIIIIIIIIIIIIIIIIIIII
IIIIIIIIIIIIIIIIIIIIA111111111IIIIIIIIIIIIIIIIIIIIIIIIIIIIIIIIII
IIIIIIIIA111111111IIA111111111IIIIIIIIIIIIIIIIIIIIIIIIIIIIIIIIII
IIIIIIIIIIIIIIIIIIIIIIIIIIIIIIIIIIIIIA1111IIIIIIIIIIIIIIIIIIIIII
IIIIIIIIIIIIIIIIIIIIIIIIIIIIIIA11111111IIIIIIIIIIIIIIIIIIIIIIIII
IIIAIIIIIIIIIIIIIIIIIIIIIIIIIIIIIIIIIIIIIIIIIIIIIIIIIIIIIIIIIIII
IIIIIIIIIIIIIIIIIIIIIIIIIIIIIIIIIIIIIIIIIIIIIIIIIIIIIIIIIIAIIIII
IIIIIAIIIIIIIIIIIIIIIIIIIIIIIIIIIIIIIIIIIIIIIIIIIIIIIIIIIIAIIIII
IIIIIAIIIIIIIIIIIIIIIIIIA1I1IIIIIIIIIIIIIIIIIIIIIIIIIIIIIIAIIIII
IIIIIIIIIIIIIIIIIIIIIIIIIIIIIIIIIIIIIIIIIA11111111IIIIIIIIIIIIII
IIIIIIIIIIIIIIIIIIIIIIIIIIIIIIIIIIA111111A11111111IIIIIIIIIIIIII
IIIIIIIIIIIIIIIIIIIIIIIIIIIIIIIIIIA111111A1111111AIIIIIIIIIIIIII
IIIIIIIIIIIIIIIIIIA11111111IIIIIIIIIIIIIIIIIIIIIIIIIIIIIIIIIIIII
IIIIIIIIIIIIIIIIIIA11111111IIIIIIIIIIIIIIIIIIIIIIIIIIIIA1IIIIIII
IIIIIIIIIIIIIIIIIIA11111111IIIIIIIIIIIIIAIIIIIIIIIIIIIIA1IIIIIII
IIIIIIIIAIIIIIIIIIA11111111IIIIIIIIIIIIIAIIIIIIIIIIIIIIA1IIIIIII
IIIIIIIIIIIIIIIIIIIIIIIIIIIIIIIIIIIIIIIIIIIIIIIIIIIIIIIIIIIIIAII
IIIIIIIAIIIIIIIIIIIIIIIIIIIIIIIIIIIIIIIIIIIIIIIIIIIIIIIIIIIIIAII
IIIIIIIIIIIIIIIIIIIIIIIIIIIIIIIIIIIIIIIIIIIIIIIIIIIIIIIIIIIIIA11
IIIIIIIIIIIIIIIIIAIIIIIIIIIIIIIIIIIIIIIIIIIIIIIIIIIIIIIIIIIIIIII
IIIIIIIIIIIIIIIIIIIA1111111IIIIIIIIIIIIIIIIIIIIIIIIIIIIIIIIIIIII
IIIIIIIIIIIIIIIIIIIIIIIIIIIIA1I11111IIIIIIIIIIIIIIIIIIIIIIIIIIII
IIIIIIIIIIIIIIIIIIIIIIIIIIIIIIIIIIIIIIIIIIIIIIIIIIIA1111111IIIII
IIIIIIIIIIIIIIIIIIIIIIIIIIIIIIIIIIIIIIIIIIIIIIIIIIIIA1111111IIII
IIIIIIIIIIIIIIIIIIIIIIIIIIIIIIIIIIIIIIIIIIIIIIIIIIIIIIAIIIIIIIII
IIIIIIIIIIIIIIIAIIIIIIIIIIIIIIIIIIIIIIIIIIIIIIIIIIIIIIIIIIIIIIII
IIIIIIIIIIIIIIIIIIIIIIIIIIIIIIIIIIIIA1111111IIIIIIIIIIIIIIIIIIII
IIIIIIIIIIIIIIIIIIIIIIIIIIIIIIIIAIIIA1111111IIIIIIIIIIIIIIIIIIII
IIIIIIIIIIIIIIIIIIIIIIIIIIIIIIIIIA11111IIIIIIIIIIIIIIIIIIIIIIIII
IIIIIIIIIIIIIIIIIIIIIIIIIIIIIIIIIAA11111111IIIIIIIIIIIIIIIIIIIII
IIIIIIIIIIIIIIIIIIIIIIIIIIIIIIIIIAA11111111IIIIIA11111111IIIIIII
IIIIIIIIA11111IIIIIIIIIIIIIIIIIIIAA11111111IIIIIA11111111IIIIIII
IIIIIIIIA11111IIIIIIIIIIIIIIIIAIIAA11111111IIIIIA11111111IIIIIII
IIIIIIIIA11A11IIIIIIIIIIIIIIIIAIIAA11111111IIIIIA11111111IIIIIII
IIIIIIIIA11A11IIIIIIIIIIIIA111A11AA11111111IIIIIA11111111IIIIIII
IIIIIIIIA11A11IIIIIIIIIIIIA111A11AA11111111IIIIIA11111111IIA1111
IIIIAIIIA11A11IIIIIIIIIIIIA111A11AA11111111IIIIIA11111111IIA1111
IIIIAIIIA11A11IIIIIIIIIIIIA111AA1AA11111111IIIIIA11111111IIA1111
IIIIAIIIA11A11AIIIIIIIIIIIA111AA1AA11111111IIIIIA11111111IIA1111
IA11A111A11A11AIIIIIIIIIIIA111AA1AA11111111IIIIIA11111111IIA1111
IIIIIIIIIIIIIIIIIIIIIIIIIIIIIIIIIIIIIIIIIIIIIIIIIIIIIIIIIIA111II
IIIIIIIIIIIIIIIIIIIIIIIIIIIIIIIIIIIIIIIIIIIIIAIIIIIIIIIIIIIIIIII
IIIIIIIIIIIIIIIIIIIIIIIIIIIIIIA1111111IIIIIIIAIIIIIIIIIIIIIIIIII
IIIIIIIIIIIIAIIIIIIIIIIIIIIIIIIIIIIIIIIIIIIIIIIIIIIIIIIIIIIIIIII
IIIIIIIIIIIIIIIIIIIIIIIIIIIIIIIIIIIAIIIIIIIIIIIIIIIIIIIIIIIIIIII
IIIIIIIIIIIIIIIIIIIIIIIIIIIIIIIIIIIIIIIIIIIIIIIIIIIIIIIIAIIIIIII
IIIIIIIIIIIIIAIIIIIIIIIIIIIIIIIIIIIIIIIIIIIIIIIIIIIIIIIIIIIIIIII
IIIIIIAI11111A1IIIIIIIIIIIIIIIIIIIIIIIIIIIIIIIIIIIIIIIIIIIIIIIII
IIIIIIAI11111A1IIIIIIIIIIIIIIA1111111IIIIIIIIIIIIIIIIIIIIIIIIIII
IIIIIIAI11111A1IIIIIIIIIIIIIIA1111111IIIA11IIIIIIIIIIIIIIIIIIIII
IIIIIIAI11A11A111IIIIIIIIIIIIA1111111IIIA11IIIIIIIIIIIIIIIIIIIII
IIIIIIAI11A11A111IA1111111IIIA1111111IIIA11IIIIIIIIIIIIIIIIIIIII
IIIIIIAA11A11A111IA1111111IIIA1111111IIIA11IIIIIIIIIIIIIIIIIIIII
IIIIIIAA11A11A111IA1111111IIIA11111A1111A11IIIIIIIIIIIIIIIIIIIII
IIIIIIAA11A11A111IA1111111IIIA11111A1A11A1111IIIIIIIIIIIIIIIIIII
IIIIIIAA11A11A11AIA1111111IIIA11111A1A11A1111IIIIIIIIIIIIIIIIIII
IIIIIIIIIIIIIIIIIIIIIIIIIIIIIIIIIIA1111111IIIIIIIIIIIIIIIIIIIIII
IIIIIIIIIIIIIIIIIIIIIIIAIIIIIIIIIIA1111111IIIIIIIIIIIIIIIIIIIIII
IIIAIIIIIIIIIIIIIIIIIIIIIIIIIIIIIIIIIIIIIIIIIIIIIIIIIIIIIIIIIIII
IIIIIIIIIIIAIIIIIIIIIIIIIIIIIIIIIIIIIIIIIIIIIIIIIIIIIIIIIIIIIIII
IIIIIIIIIIIIIIIIIIIIIIIIIIIIIIIIIIIIIIIIIIIIIIIIIIIIIIIA1I1IIIII
IIIIIIIIIIIIIIAIIIIIIIIIIIIIIIIIIIIIIIIIIIIIIIIIIIIIIIIIIIIIIIII
IIIIIIIIIIIIIIAIIIIIIIIIIIIIIIIIIIIIIIIIIIIIIIIIIIIIIIIIIIA11111
IIIIIIIIIIIIIIAIIIIIIIIIIIIIIIIIIIIIIIIIIIIIIIAIIIIIIIIIIIA11111
IIIIIIIIIIIIIIAIIIIIIIIIIIIIIIIIIIIIIIIIIIIIIIAIIIIIIIIIA1A11111
IIIIIIIIIIIIIIAIIAIIIIIIIIIIIIIIIIIIIIIIIIIIIIAIIIIIIIIIA1A11111
IIIIIIIIIIIIIIIIIIIA1IIIIIIIIIIIIIIIIIIIIIIIIIIIIIIIIIIIIIIIIIII
IIIIIIIIIIIIIIIIIIIA1111I111IIIIIIIIIIIIIIIIIIIIIIIIIIIIIIIIIIII
IIIIIIIIIIIIIIIIIIA1I11IIIIIIIIIIIIIIIIIIIIIIIIIIIIIIIIIIIIIIIII
IIIIIIIIIIIIIIIIIIIIA1111111IIIIIIIIIIIIIIIIIIIIIIIIIIIIIIIIIIII
IIIIIIIIIIIIIIIIA111A1111111IIIIIIIIIIIIIIIIIIIIIIIIIIIIIIIIIIII
IIIIIIIIIIIIIIIIIIIIIIIIIIIIIIIIIIIIIIIIIIIIIIAIIIIIIIIIIIIIIIII
IIIIIIIIIIIIIIIIIIIIIIIIIIIIA11111111IIIIIIIIIIIIIIIIIIIIIIIIIII
IIIIIIIIIIIIIIIIIIIIIIIIIIIIA11111111IIIIIIIIIIIIIIIIIIIIIIIIIAI
IIIIIIIIIIIIIIIIIIIIIIIIIIIIA11111111IIIIIIIIIIIIIIIIIIIA11111A1
IIIA1111111IIIIIIIIIIIIIIIIIIIIIIIIIIIIIIIIIIIIIIIIIIIIIIIIIIIII
IIIA1111111IIIIIIIIIIIIIIIIIIIAIIIIIIIIIIIIIIIIIIIIIIIIIIIIIIIII
IIIIIIIIIIIIIIIIIIIIIIIIIIIIIIIIA111IIIIIIIIIIIIIIIIIIIIIIIIIIII
IIIIIIIIIIIIIIIIIIAIIIIIIIIIIIIIIIIIIIIIIIIIIIIIIIIIIIIIIIIIIIII
IIIIIIIIIIIIIIIIIIIIIIIIIIIIIIIIIIIIIIIIIIIIIIIIIIIIA1111111IIII
IIIIIIIIIIIIIIIIIIIIIIIIIIIIIIIIIIIIIIIIAIIIIIIIIIIIA1111111IIII
IIIIIIIIIIIIIIIIIIIIIIIIIIIIIIIIIA1I111111111IIIIIIIIIIIIIIIIIII
IIIIIIIIIIIIIIIIIAI111IIIIIIIIIIIIIIIIIIIIIIIIIIIIIIIIIIIIIIIIII
IIIIIIIIIIIIIIIIIAI111IIIIIIIIIAIIIIIIIIIIIIIIIIIIIIIIIIIIIIIIII
IIIIIIIIIIIIIIIIIIAIIIIIIIIIIIIIIIIIIIIIIIIIIIIIIIIIIIIIIIIIIIII
IIIIIIIIIIIIIIIIIIAII1III111I1IIIIIIIIIIIIIIIIIIIIIIIIIIIIIIIIII
IIIIIIIIIIIIIIIIIIAII1III111I1IIIIIIIIIIIIIIIIIAII1III111I1IIIII
IIIIIIIIIIIIIIIIIIAII1III111I1IIIIIIIIIIIIIIIIIAII1III1A11111I11
IIIIIIIIIIIIIIIIIIIIIIIIIIIIIIIIIIIIIIA1111I1I1IIIIIIIIIIIIIIIII
IIIIIIIIIIIIIIIIIIIIIIIIIIIIIIIIIAIIIIIIIIIIIIIIIIIIIIIIIIIIIIII
IIIIIIIIIIIIIIIA111111IIIIIIIIIIIAIIIIIIIIIIIIIIIIIIIIIIIIIIIIII
IIIIIIIIIIIIIIIA111111IIIIIIIIIIIAIIIIIIIIIIIIIIIIIIIIIIIIIIIAII
IIIIIIIIIIIIIIIA1111111IIIIIIIIIIIIIIIIIIIIIIIIIIIIIIIIIIIIIIIII
IIIIIIIIIIIIIIIA1111111IIIIIIIIIIIIIIIIIIIIIIIIIIIIIIIIIIIA1111I
IIIIIIIIIIIIIIIA111A111IIIIIIIIIIIIIIIIIIIIIIIIIIIIIIIIIIIA1111I
IIIIIIIIIIIIIIIIIAIIIIIIIIIIIIIIIIIIIIIIIIIIIIIIIIIIIIIIIIIIIIII
IIIIIIIIIIIIIIIIIIIIIIIIIIIIIIIIIIIIAIIIIIIIIIIIIIIIIIIIIIIIIIII
IIIIIIIIIIIIIIIIIIIIIIIIIIIA1I11111IIIIIIIIIIIIIIIIIIIIIIIIIIIII
IIIIIIIIIIIIIIIIIIIIIIIIIIIIIIIIIIA1111IIIIIIIIIIIIIIIIIIIIIIIII
IIIIIIIIIIIIIIIIIIIIIIIIIIIIIIIIIIIIIIIIIIIIIIIIIIIIIIIIIIIIIIIA
IIIIIIIIIIIIIIIIA1I111IIIIIIIIIIIIIIIIIIIIIIIIIIIIIIIIIIIIIIIIII
IIIIIIAIIIIIIIIIA1I111IIIIIIIIIIIIIIIIIIIIIIIIIIIIIIIIIIIIIIIIII
IIIIIIAIIIIIIIIAA1I111IIIIIIIIIIIIIIIIIIIIIIIIIIIIIIIIIIIIIIIIII
AIIIIIIIIIIIIIIIIIIIIIIIIIIIIIIIIIIIIIIIIIIIIIIIIIIIIIIIIIIIIIII
AIIIIIIIIIIIIIIIIIIIIIIIIIIIIIIIIIIIIIIIIIIIIIIIIIIIIIIAIIIIIIII
IIIIIIIIIIIIIIIIIIIIIIIIIIIIIIIIIIIIIIAIIIIIIIIIIIIIIIIIIIIIIIII
IIIIIIIIIIIIIIIIIIIIIIIIIIIIIIIIIIIIIIAA11I1IIIIIIIIIIIIIIIIIIII
IIIIIIIIIIIIIIIIIIIIIIIIIIIIIIIIAIIIIIAA11I1IIIIIIIIIIIIIIIIIIII
IIIIIIIIIIIIIIIIIIIIIIIIIIA11I11A1IIIIAA11I1IIIIIIIIIIIIIIIIIIII
IIIIIIIIIIIIIIIIIIA11I1111A11I11A1IIIIAA11I1IIIIIIIIIIIIIIIIIIII
IIIIIIIIIIIIIA11I1A11I1111A11I11A1IIIIAA11I1IIIIIIIIIIIIIIIIIIII
IIIIIIIIIIIIAA1111A11I1111A11I11A1IIIIAA11I1IIIIIIIIIIIIIIIIIIII
A1I1IIIIIIIII22IIIIIIIIIIIIIIIIIIIIIIIIIIIIIIIIIIIIIIIIIIIIIIIII
A1I1IIIIIIIII222IIIIIIIIIIIIIIIIIIIIIIIIIIIIIIIIIIIIIIIIIIIIIIII
AA111IIIIIIII2222IIIIIIIIIIIIIIIIIIIIIIIIIIIIIIIIIIIIIIIIIIIIIII
AAA111IIIIIII22222IIIIIIIIIIIIIIIIIIIIIIIIIIIIIIIIIIIIIIIIIIIIII
AAAA11IIIIIII22222IIIIIIIIIIIIIIIIIIIIIIIIIIIIIIIIIIIIIIIIIIIIII
AAAA111IIIIII222222IIIIIIIIIIIIIIIIIIIIIIIIIIIIIIIIIIIIIIIIIIIII
AAAAA111IIIII2222222IIIIIIIIIIIIIIIIIIIIIIIIIIIIIIIIIIIIIIIIIIII
AAAAAA111IIII2222222IIIIIIIIIIIIIIIIIIIIIIIIIIIIIIIIIIIIIIIIIIII
AAAAAA111IIII22222222IIIIIIIIIIIIIIIIIIIIIIIIIIIIIIIIIIIIIIIIIII
AAAAAAA111III222222222IIIIIIIIIIIIIIIIIIIIIIIIIIIIIIIIIIIIIIIIII
AAAAAAAA111II2222222222IIIIIIIIIIIIIIIIIIIIIIIIIIIIIIIIIIIIIIIII
AAAAAAAAA11II2222222222IIIIIIIIIIIIIIIIIIIIIIIIIIIIIIIIIIIIIIIII
AAAAAAAAA111I22222222222IIIIIIIIIIIIIIIIIIIIIIIIIIIIIIIIIIIIIIII
AAAAAAAAAA111222222222222IIIIIIIIIIIIIIIIIIIIIIIIIIIIIIIIIIIIIII
AAAAAAAAAAA11122222222222IIIIIIIIIIIIIIIIIIIIIIIIIIIIIIIIIIIIIII
AAAAAAAAAAA111222222222222IIIIIIIIIIIIIIIIIIIIIIIIIIIIIIIIIIIIII
AAAAAAAAAAAA111222222222222IIIIIIIIIIIIIIIIIIIIIIIIIIIIIIIIIIIII
AAAAAAAAAAAAA111222222222222IIIIIIIIIIIIIIIIIIIIIIIIIIIIIIIIIIII
AAAAAAAAAAAAAA111222222222222IIIIIIIIIIIIIIIIIIIIIIIIIIIIIIIIIII
AAAAAAAAAAAAAAA11222222222222IIIIIIIIIIIIIIIIIIIIIIIIIIIIIIIIIII
AAAAAAAAAAAAAAA111222222222222IIIIIIIIIIIIIIIIIIIIIIIIIIIIIIIIII
AAAAAAAAAAAAAAAA11222222222222IIIIIIIIIIIIIIIIIIIIIIIIIIIIIIIIII
AAAAAAAAAAAAAAAA11122222222222IIIIIIIIIIIIIIIIIIIIIIIIIIIIIIIIII
AAAAAAAAAAAAAAAA111222222222222IIIIIIIIIIIIIIIIIIIIIIIIIIIIIIIII
AAAAAAAAAAAAAAAAA111222222222222IIIIIIIIIIIIIIIIIIIIIIIIIIIIIIII
AAAAAAAAAAAAAAAAAA11222222222222IIIIIIIIIIIIIIIIIIIIIIIIIIIIIIII
AAAAAAAAAAAAAAAAAA111222222222222IIIIIIIIIIIIIIIIIIIIIIIIIIIIIII
AAAAAAAAAAAAAAAAAAA111222222222222IIIIIIIIIIIIIIIIIIIIIIIIIIIIII
AAAAAAAAAAAAAAAAAAAA11122222222222IIIIIIIIIIIIIIIIIIIIIIIIIIIIII
AAAAAAAAAAAAAAAAAAAA111222222222222IIIIIIIIIIIIIIIIIIIIIIIIIIIII
AAAAAAAAAAAAAAAAAAAAA11222222222222IIIIIIIIIIIIIIIIIIIIIIIIIIIII
AAAAAAAAAAAAAAAAAAAAA111222222222222IIIIIIIIIIIIIIIIIIIIIIIIIIII
AAAAAAAAAAAAAAAAAAAAAA111222222222222IIIIIIIIIIIIIIIIIIIIIIIIIII
AAAAAAAAAAAAAAAAAAAAAAA11222222222222IIIIIIIIIIIIIIIIIIIIIIIIIII
AAAAAAAAAAAAAAAAAAAAAAA11122222222222IIIIIIIIIIIIIIIIIIIIIIIIIII
AAAAAAAAAAAAAAAAAAAAAAA111222222222222IIIIIIIIIIIIIIIIIIIIIIIIII
AAAAAAAAAAAAAAAAAAAAAAAA11222222222222IIIIIIIIIIIIIIIIIIIIIIIIII
AAAAAAAAAAAAAAAAAAAAAAAA111222222222222IIIIIIIIIIIIIIIIIIIIIIIII
AAAAAAAAAAAAAAAAAAAAAAAAA111222222222222IIIIIIIIIIIIIIIIIIIIIIII
AAAAAAAAAAAAAAAAAAAAAAAAAA111222222222222IIIIIIIIIIIIIIIIIIIIIII
AAAAAAAAAAAAAAAAAAAAAAAAAAA11222222222222IIIIIIIIIIIIIIIIIIIIIII
AAAAAAAAAAAAAAAAAAAAAAAAAAA11122222222222IIIIIIIIIIIIIIIIIIIIIII
AAAAAAAAAAAAAAAAAAAAAAAAAAA111222222222222IIIIIIIIIIIIIIIIIIIIII
AAAAAAAAAAAAAAAAAAAAAAAAAAAA11222222222222IIIIIIIIIIIIIIIIIIIIII
AAAAAAAAAAAAAAAAAAAAAAAAAAAA111222222222222IIIIIIIIIIIIIIIIIIIII
AAAAAAAAAAAAAAAAAAAAAAAAAAAAA111222222222222IIIIIIIIIIIIIIIIIIII
AAAAAAAAAAAAAAAAAAAAAAAAAAAAAA111222222222222IIIIIIIIIIIIIIIIIII
AAAAAAAAAAAAAAAAAAAAAAAAAAAAAAA11222222222222IIIIIIIIIIIIIIIIIII
AAAAAAAAAAAAAAAAAAAAAAAAAAAAAAA111222222222222IIIIIIIIIIIIIIIIII
AAAAAAAAAAAAAAAAAAAAAAAAAAAAAAAA111222222222222IIIIIIIIIIIIIIIII
AAAAAAAAAAAAAAAAAAAAAAAAAAAAAAAAA11222222222222IIIIIIIIIIIIIIIII
AAAAAAAAAAAAAAAAAAAAAAAAAAAAAAAAA111222222222222IIIIIIIIIIIIIIII
AAAAAAAAAAAAAAAAAAAAAAAAAAAAAAAAAA111222222222222IIIIIIIIIIIIIII
AAAAAAAAAAAAAAAAAAAAAAAAAAAAAAAAAAA111222222222222IIIIIIIIIIIIII
AAAAAAAAAAAAAAAAAAAAAAAAAAAAAAAAAAAA11222222222222IIIIIIIIIIIIII
AAAAAAAAAAAAAAAAAAAAAAAAAAAAAAAAAAAA111222222222222IIIIIIIIIIIII
AAAAAAAAAAAAAAAAAAAAAAAAAAAAAAAAAAAAA111222222222222IIIIIIIIIIII
AAAAAAAAAAAAAAAAAAAAAAAAAAAAAAAAAAAAAA111222222222222IIIIIIIIIII
AAAAAAAAAAAAAAAAAAAAAAAAAAAAAAAAAAAAAAA11222222222222IIIIIIIIIII
AAAAAAAAAAAAAAAAAAAAAAAAAAAAAAAAAAAAAAA111222222222222IIIIIIIIII
AAAAAAAAAAAAAAAAAAAAAAAAAAAAAAAAAAAAAAAA11222222222222IIIIIIIIII
AAAAAAAAAAAAAAAAAAAAAAAAAAAAAAAAAAAAAAAA111222222222222IIIIIIIII
AAAAAAAAAAAAAAAAAAAAAAAAAAAAAAAAAAAAAAAAA111222222222222IIIIIIII
AAAAAAAAAAAAAAAAAAAAAAAAAAAAAAAAAAAAAAAAAA111222222222222IIIIIII
AAAAAAAAAAAAAAAAAAAAAAAAAAAAAAAAAAAAAAAAAAA11222222222222IIIIIII
AAAAAAAAAAAAAAAAAAAAAAAAAAAAAAAAAAAAAAAAAAA11122222222222IIIIIII
AAAAAAAAAAAAAAAAAAAAAAAAAAAAAAAAAAAAAAAAAAA111222222222222IIIIII
AAAAAAAAAAAAAAAAAAAAAAAAAAAAAAAAAAAAAAAAAAAA111222222222222IIIII
AAAAAAAAAAAAAAAAAAAAAAAAAAAAAAAAAAAAAAAAAAAAA11222222222222IIIII
AAAAAAAAAAAAAAAAAAAAAAAAAAAAAAAAAAAAAAAAAAAAAA1222222222222IIIII
AAAAAAAAAAAAAAAAAAAAAAAAAAAAAAAAAAAAAAAAAAAAAAA222222222222IIIII
AAAAAAAAAAAAAAAAAAAAAAAAAAAAAAAAAAAAAAAAAAAAAAA122222222222IIIII
AAAAAAAAAAAAAAAAAAAAAAAAAAAAAAAAAAAAAAAAAAAAAAAA12222222222IIIII
AAAAAAAAAAAAAAAAAAAAAAAAAAAAAAAAAAAAAAAAAAAAAAAAA1222222222IIIII
AAAAAAAAAAAAAAAAAAAAAAAAAAAAAAAAAAAAAAAAAAAAAAAAAA122222222IIIII
AAAAAAAAAAAAAAAAAAAAAAAAAAAAAAAAAAAAAAAAAAAAAAAAAAA12222222IIIII
AAAAAAAAAAAAAAAAAAAAAAAAAAAAAAAAAAAAAAAAAAAAAAAAAAAA1222222IIIII
AAAAAAAAAAAAAAAAAAAAAAAAAAAAAAAAAAAAAAAAAAAAAAAAAAAAA122222IIIII
AAAAAAAAAAAAAAAAAAAAAAAAAAAAAAAAAAAAAAAAAAAAAAAAAAAAAA12222IIIII
AAAAAAAAAAAAAAAAAAAAAAAAAAAAAAAAAAAAAAAAAAAAAAAAAAAAAAA1222IIIII
AAAAAAAAAAAAAAAAAAAAAAAAAAAAAAAAAAAAAAAAAAAAAAAAAAAAAAAA1222IIII
AAAAAAAAAAAAAAAAAAAAAAAAAAAAAAAAAAAAAAAAAAAAAAAAAAAAAAAAA1222III
AAAAAAAAAAAAAAAAAAAAAAAAAAAAAAAAAAAAAAAAAAAAAAAAAAAAAAAAAA1222II
AAAAAAAAAAAAAAAAAAAAAAAAAAAAAAAAAAAAAAAAAAAAAAAAAAAAAAAAAAA1222I
AAAAAAAAAAAAAAAAAAAAAAAAAAAAAAAAAAAAAAAAAAAAAAAAAAAAAAAAAAAA1222
AAAAAAAAAAAAAAAAAAAAAAAAAAAAAAAAAAAAAAAAAAAAAAAAAAAAAAAAAAAAA122
AAAAAAAAAAAAAAAAAAAAAAAAAAAAAAAAAAAAAAAAAAAAAAAAAAAAAAAAAAAAAA12
AAAAAAAAAAAAAAAAAAAAAAAAAAAAAAAAAAAAAAAAAAAAAAAAAAAAAAAAAAAAAAA1
AAAAAAAAAAAAAAAAAAAAAAAAAAAAAAAAAAAAAAAAAAAAAAAAAAAAAAAAAAAAAAAA
IIIIIIIIIIIIIIIIIA11IIIIIIIIIIIIIIIIIIIIIIIIIIIIIIIIIIIIIIIIIIII
IIIIIIIIIIIIIIIIIA1111111IIIIIIIIIIIIIIIIIIIIIIIIIIIIIIIIIIIIIII
IIIIIIIIIIIIIIIIIA1111111IIIIIIIA1111111IIIIIIIIIIIIIIIIIIIIIIII
IIIIIIIIIIIIIIIIIA1111111IIIIIIIA1111111IIIIIIIIA111111IIIIIIIII
IIIIIIIIIIIIIAIIIA1111111IIIIIIIA1111111IIIIIIIIA111111IIIIIIIII
IIIIIIIIIIIIIAIIIA1111111IIIIIIIA1A111112IIIIIIIA111111IIIIIIIII
IIIIIIIIIIIIIAIIIA11A111122IIIIIA1A111112IIIIIIIA111111IIIIIIIII
IIIIIIIIIIIIIAIIIA11A111122IIIIIA1A111112IIIIIIIA111111IA1I2222I
IIIIIIIIIIIIIAIIIA11A111122IIIIIA1A111112IIIIIIIA1A1111IA1I2222I
IIIIIIIIIIIIIAIIIA11A111122IIIIIA1A111A122IIIIIIA1A1111IA1I2222I
IIIIIIIIIIIIIAIIIA11A111122IIIIIA1A11AA122IIIIIIA1A1111IA1I2222I
IIIIIA111111IIIIIIIIIIIIIIIIIIIIIIIIIIIIIIIIIIIIIIIIIIIIIIIIIIII
IIIIIA111111IIIIIIIIIIIIIIIIIIIIIIIIIIIIIIIIIAIIIIIIIIIIIIIIIIII
IIIIIA111111IIIIIIIIIIIIIIIIIIIIIIIIIIIIIIIAIAIIIIIIIIIIIIIIIIII
IIIIIIIIIIIIIIIIIIIIIIIIIIIIIIIIIIIIIIIIIIAIIIIIIIIIIIIIIIIIIIII
IIIIIIIIIIIIIIIIIIIIIIIIIIIIIIIIIIIIIIIIIIAIIIIIIIIIIIIIIIIAIIII
IIIIIIIIIIIIIIIIIIIIIIIIIIIIAIIIIIIIIIIIIIAIIIIIIIIIIIIIIIIAIIII
IIIIIIIIIIIIIIIIIIIIIIIA1II2AII22IIIIIIIIIAIIIIIIIIIIIIIIIIAIIII
IIIIIIIIIIIIIIIIIIIIIIIA1II2AII22IIIA1II2IAI22IIIIIIIIIIIIIAIIII
IIIIIIIIIIIAIIIIIIIIIIIA1II2AII22IIIA1II2IAI22IIIIIIIIIIIIIAIIII
IIIIIIIIIIIAIIIIIIIIIIIA1II2AII22IIIA1II2IAI22IIIIIIIIIAIIIAIIII
IIIIIIIIIIIAIIIIIIIIIIIA1IA1AI122IIIA1II2IAI22IIIIIIIIIAIIIAIIII
IIIIIIIIIIIAIAIIIIIIIIIA1IA1AI122IIIA1II2IAI22IIIIIIIIIAIIIAIIII
IIIIIIIIIIIAIAIIIIIIIIIA1IA1AI122IIIA1II2IAI22IIIIIIIIIAAIIAIIII
IIIIIIIIIIIAIAIIIIIIIIIA1IA1AI122IIIA1II2IAI22IIIIIIIIAAA22A2III
IIIIIA12222AIAIIIIIIIIIA1IA1AI122IIIA1II2IAI22IIIIIIIIAAA22A2III
IIIIIA12222AIAIIIIIIIIIA1IA1AI122IIIA1II2IA122222IIIIIAAA22A2III
AIIIIA12222AIAIIIIIIIIIA1IA1AI122IIIA1II2IA122222IIIIIAAA22A2III
A1IIIA12222AIAIIIIIIIIIA1IA1AI122IIIA1II2IA122222IIIIIAAA22A2III
A1IIIA12222AAAIII2I2IIIA1IA1AI122IIIA1II2IA122222IIIIIAAA22A2III
A1IIIA12222AAAIII2I2IIIA1IA1AI122IIIA1II2IA12A222IIIIIAAA22A2III
[MLOP] Prefetch Degree Mean: 3.74239
[MLOP] Prefetch Degree SD: 3.36822
[MLOP] Max Score Left Mean (%): 25.4766
[MLOP] Max Score Left SD (%): 18.0351
[MLOP] Max Score Right Mean (%): 39.8845
[MLOP] Max Score Right SD (%): 21.224

DRAM Statistics
 CHANNEL 0
 RQ ROW_BUFFER_HIT:    6824734  ROW_BUFFER_MISS:   18860911
 DBUS_CONGESTED:       1099
 WQ ROW_BUFFER_HIT:     269099  ROW_BUFFER_MISS:    1900316  FULL:          0

 AVG_CONGESTED_CYCLE: 4
 All warmup complete: 5
Channel 0 Bank busy for read cycles: 0
Channel 0 Bank busy for write cycles: 0
Channel 0
Rank 0
0banks busy for read cycles: 5189529
0banks busy for write cycles: 644
1banks busy for read cycles: 20973749
1banks busy for write cycles: 622696
2banks busy for read cycles: 33582906
2banks busy for write cycles: 426738
3banks busy for read cycles: 35641318
3banks busy for write cycles: 343902
4banks busy for read cycles: 46807851
4banks busy for write cycles: 318587
5banks busy for read cycles: 65099290
5banks busy for write cycles: 328874
6banks busy for read cycles: 85155610
6banks busy for write cycles: 844845
7banks busy for read cycles: 110134803
7banks busy for write cycles: 8106928
8banks busy for read cycles: 157130599
8banks busy for write cycles: 45322524

CPU 0 Branch Prediction Accuracy: 93.1303% MPKI: 16.386 Average ROB Occupancy at Mispredict: 29.223
Branch types
NOT_BRANCH: 152921378 76.1464%
BRANCH_DIRECT_JUMP: 1416621 0.705399%
BRANCH_INDIRECT: 0 0%
BRANCH_CONDITIONAL: 46487409 23.1482%
BRANCH_DIRECT_CALL: 40 1.99178e-05%
BRANCH_INDIRECT_CALL: 0 0%
BRANCH_RETURN: 40 1.99178e-05%
BRANCH_OTHER: 0 0%


CPU 1 Branch Prediction Accuracy: 93.1272% MPKI: 16.3804 Average ROB Occupancy at Mispredict: 29.0605
Branch types
NOT_BRANCH: 152371979 76.1656%
BRANCH_DIRECT_JUMP: 1404341 0.701982%
BRANCH_INDIRECT: 0 0%
BRANCH_CONDITIONAL: 46277224 23.1324%
BRANCH_DIRECT_CALL: 40 1.99946e-05%
BRANCH_INDIRECT_CALL: 0 0%
BRANCH_RETURN: 40 1.99946e-05%
BRANCH_OTHER: 0 0%


CPU 2 Branch Prediction Accuracy: 93.1272% MPKI: 16.3798 Average ROB Occupancy at Mispredict: 29.1881
Branch types
NOT_BRANCH: 152333617 76.1668%
BRANCH_DIRECT_JUMP: 1403489 0.701744%
BRANCH_INDIRECT: 0 0%
BRANCH_CONDITIONAL: 46262843 23.1314%
BRANCH_DIRECT_CALL: 40 2e-05%
BRANCH_INDIRECT_CALL: 0 0%
BRANCH_RETURN: 40 2e-05%
BRANCH_OTHER: 0 0%


CPU 3 Branch Prediction Accuracy: 93.1279% MPKI: 16.3831 Average ROB Occupancy at Mispredict: 29.1608
Branch types
NOT_BRANCH: 152539593 76.1599%
BRANCH_DIRECT_JUMP: 1408065 0.703018%
BRANCH_INDIRECT: 0 0%
BRANCH_CONDITIONAL: 46340591 23.1369%
BRANCH_DIRECT_CALL: 40 1.99712e-05%
BRANCH_INDIRECT_CALL: 0 0%
BRANCH_RETURN: 40 1.99712e-05%
BRANCH_OTHER: 0 0%

DRAM PAGES: 1048576
Allocated PAGES: 267408
