
*** ChampSim Multicore Out-of-Order Simulator ***

Warmup Instructions: 50000000
Simulation Instructions: 200000000
Number of CPUs: 4
LLC sets: 8192
LLC ways: 16
Off-chip DRAM Size: 4096 MB Channels: 1 Width: 64-bit Data Rate: 6400 MT/s
CPU 0 runs ./traces/gap/sssp-10.trace.gz
.gz
CPU 1 runs ./traces/gap/sssp-10.trace.gz
.gz
CPU 2 runs ./traces/gap/sssp-10.trace.gz
.gz
CPU 3 runs ./traces/gap/sssp-10.trace.gz
.gz
BTB has LRU replacement policy
ITLB has LRU replacement policy
DTLB has LRU replacement policy
STLB has LRU replacement policy
L1I has LRU replacement policy
L1D has LRU replacement policy
Initialize SRRIP state for L2C
Initialize DRRIP state for LLC
BTB has LRU replacement policy
ITLB has LRU replacement policy
DTLB has LRU replacement policy
STLB has LRU replacement policy
L1I has LRU replacement policy
L1D has LRU replacement policy
Initialize SRRIP state for L2C
Initialize DRRIP state for LLC
BTB has LRU replacement policy
ITLB has LRU replacement policy
DTLB has LRU replacement policy
STLB has LRU replacement policy
L1I has LRU replacement policy
L1D has LRU replacement policy
Initialize SRRIP state for L2C
Initialize DRRIP state for LLC
BTB has LRU replacement policy
ITLB has LRU replacement policy
DTLB has LRU replacement policy
STLB has LRU replacement policy
L1I has LRU replacement policy
L1D has LRU replacement policy
Initialize SRRIP state for L2C
Initialize DRRIP state for LLC
Heartbeat CPU 0 instructions: 10000000 cycles: 3084660 heartbeat IPC: 3.24185 cumulative IPC: 3.24185 (Simulation time: 0 hr 2 min 38 sec) 
Heartbeat CPU 3 instructions: 10000000 cycles: 3084754 heartbeat IPC: 3.24175 cumulative IPC: 3.24175 (Simulation time: 0 hr 2 min 38 sec) 
Heartbeat CPU 1 instructions: 10000000 cycles: 3084901 heartbeat IPC: 3.2416 cumulative IPC: 3.2416 (Simulation time: 0 hr 2 min 38 sec) 
Heartbeat CPU 2 instructions: 10000000 cycles: 3084945 heartbeat IPC: 3.24155 cumulative IPC: 3.24155 (Simulation time: 0 hr 2 min 38 sec) 
Heartbeat CPU 0 instructions: 20000001 cycles: 6152606 heartbeat IPC: 3.25951 cumulative IPC: 3.25066 (Simulation time: 0 hr 5 min 29 sec) 
Heartbeat CPU 3 instructions: 20000003 cycles: 6154247 heartbeat IPC: 3.25787 cumulative IPC: 3.24979 (Simulation time: 0 hr 5 min 29 sec) 
Heartbeat CPU 1 instructions: 20000003 cycles: 6154333 heartbeat IPC: 3.25793 cumulative IPC: 3.24974 (Simulation time: 0 hr 5 min 29 sec) 
Heartbeat CPU 2 instructions: 20000003 cycles: 6154470 heartbeat IPC: 3.25783 cumulative IPC: 3.24967 (Simulation time: 0 hr 5 min 29 sec) 
Heartbeat CPU 0 instructions: 30000001 cycles: 9252346 heartbeat IPC: 3.22608 cumulative IPC: 3.24242 (Simulation time: 0 hr 8 min 26 sec) 
Heartbeat CPU 1 instructions: 30000001 cycles: 9253244 heartbeat IPC: 3.22694 cumulative IPC: 3.24211 (Simulation time: 0 hr 8 min 26 sec) 
Heartbeat CPU 2 instructions: 30000003 cycles: 9253646 heartbeat IPC: 3.22666 cumulative IPC: 3.24197 (Simulation time: 0 hr 8 min 26 sec) 
Heartbeat CPU 3 instructions: 30000001 cycles: 9254092 heartbeat IPC: 3.22597 cumulative IPC: 3.24181 (Simulation time: 0 hr 8 min 26 sec) 
Heartbeat CPU 0 instructions: 40000002 cycles: 12365051 heartbeat IPC: 3.21264 cumulative IPC: 3.23492 (Simulation time: 0 hr 11 min 41 sec) 
Heartbeat CPU 1 instructions: 40000002 cycles: 12365701 heartbeat IPC: 3.2129 cumulative IPC: 3.23475 (Simulation time: 0 hr 11 min 42 sec) 
Heartbeat CPU 2 instructions: 40000002 cycles: 12366191 heartbeat IPC: 3.2128 cumulative IPC: 3.23463 (Simulation time: 0 hr 11 min 42 sec) 
Heartbeat CPU 3 instructions: 40000002 cycles: 12367064 heartbeat IPC: 3.21236 cumulative IPC: 3.2344 (Simulation time: 0 hr 11 min 42 sec) 
Heartbeat CPU 0 instructions: 50000001 cycles: 15477994 heartbeat IPC: 3.21239 cumulative IPC: 3.23039 (Simulation time: 0 hr 14 min 53 sec) 
Heartbeat CPU 1 instructions: 50000001 cycles: 15478209 heartbeat IPC: 3.21284 cumulative IPC: 3.23035 (Simulation time: 0 hr 14 min 53 sec) 
Heartbeat CPU 2 instructions: 50000001 cycles: 15480038 heartbeat IPC: 3.21146 cumulative IPC: 3.22997 (Simulation time: 0 hr 14 min 53 sec) 
Heartbeat CPU 3 instructions: 50000001 cycles: 15481230 heartbeat IPC: 3.21113 cumulative IPC: 3.22972 (Simulation time: 0 hr 14 min 53 sec) 

Warmup complete CPU 0 instructions: 50009348 cycles: 15481230 (Simulation time: 0 hr 14 min 53 sec) 
Warmup complete CPU 1 instructions: 50008739 cycles: 15481230 (Simulation time: 0 hr 14 min 53 sec) 
Warmup complete CPU 2 instructions: 50003441 cycles: 15481230 (Simulation time: 0 hr 14 min 53 sec) 
Warmup complete CPU 3 instructions: 50000001 cycles: 15481230 (Simulation time: 0 hr 14 min 53 sec) 

Heartbeat CPU 0 instructions: 60000000 cycles: 59498608 heartbeat IPC: 0.227166 cumulative IPC: 0.226971 (Simulation time: 0 hr 19 min 10 sec) 
Heartbeat CPU 2 instructions: 60000000 cycles: 59617867 heartbeat IPC: 0.226563 cumulative IPC: 0.226491 (Simulation time: 0 hr 19 min 10 sec) 
Heartbeat CPU 1 instructions: 60000000 cycles: 60013211 heartbeat IPC: 0.224542 cumulative IPC: 0.224361 (Simulation time: 0 hr 19 min 12 sec) 
Heartbeat CPU 3 instructions: 60000000 cycles: 60175231 heartbeat IPC: 0.223744 cumulative IPC: 0.223744 (Simulation time: 0 hr 19 min 13 sec) 
Heartbeat CPU 2 instructions: 70000000 cycles: 101807376 heartbeat IPC: 0.237026 cumulative IPC: 0.23164 (Simulation time: 0 hr 23 min 45 sec) 
Heartbeat CPU 0 instructions: 70000000 cycles: 101874778 heartbeat IPC: 0.235982 cumulative IPC: 0.231391 (Simulation time: 0 hr 23 min 45 sec) 
Heartbeat CPU 1 instructions: 70000000 cycles: 102069063 heartbeat IPC: 0.237779 cumulative IPC: 0.230878 (Simulation time: 0 hr 23 min 46 sec) 
Heartbeat CPU 3 instructions: 70000000 cycles: 102268204 heartbeat IPC: 0.237569 cumulative IPC: 0.230449 (Simulation time: 0 hr 23 min 47 sec) 
Heartbeat CPU 2 instructions: 80000001 cycles: 143513885 heartbeat IPC: 0.239771 cumulative IPC: 0.234288 (Simulation time: 0 hr 28 min 34 sec) 
Heartbeat CPU 0 instructions: 80000001 cycles: 143818968 heartbeat IPC: 0.238412 cumulative IPC: 0.233685 (Simulation time: 0 hr 28 min 36 sec) 
Heartbeat CPU 1 instructions: 80000001 cycles: 143886667 heartbeat IPC: 0.239134 cumulative IPC: 0.233567 (Simulation time: 0 hr 28 min 37 sec) 
Heartbeat CPU 3 instructions: 80000001 cycles: 144132591 heartbeat IPC: 0.238867 cumulative IPC: 0.233188 (Simulation time: 0 hr 28 min 39 sec) 
Heartbeat CPU 2 instructions: 90000000 cycles: 184685321 heartbeat IPC: 0.242887 cumulative IPC: 0.236381 (Simulation time: 0 hr 33 min 8 sec) 
Heartbeat CPU 0 instructions: 90000000 cycles: 184781721 heartbeat IPC: 0.244124 cumulative IPC: 0.236211 (Simulation time: 0 hr 33 min 8 sec) 
Heartbeat CPU 1 instructions: 90000000 cycles: 184936106 heartbeat IPC: 0.243609 cumulative IPC: 0.235999 (Simulation time: 0 hr 33 min 9 sec) 
Heartbeat CPU 3 instructions: 90000000 cycles: 185089416 heartbeat IPC: 0.24416 cumulative IPC: 0.235838 (Simulation time: 0 hr 33 min 10 sec) 
Heartbeat CPU 2 instructions: 100000003 cycles: 224581534 heartbeat IPC: 0.25065 cumulative IPC: 0.239103 (Simulation time: 0 hr 37 min 25 sec) 
Heartbeat CPU 0 instructions: 100000003 cycles: 224776524 heartbeat IPC: 0.250033 cumulative IPC: 0.238852 (Simulation time: 0 hr 37 min 26 sec) 
Heartbeat CPU 1 instructions: 100000003 cycles: 224925070 heartbeat IPC: 0.250069 cumulative IPC: 0.238686 (Simulation time: 0 hr 37 min 27 sec) 
Heartbeat CPU 3 instructions: 100000003 cycles: 225157001 heartbeat IPC: 0.249578 cumulative IPC: 0.238463 (Simulation time: 0 hr 37 min 29 sec) 
Heartbeat CPU 0 instructions: 110000000 cycles: 263604613 heartbeat IPC: 0.257545 cumulative IPC: 0.241778 (Simulation time: 0 hr 41 min 56 sec) 
Heartbeat CPU 2 instructions: 110000000 cycles: 263604700 heartbeat IPC: 0.256258 cumulative IPC: 0.241801 (Simulation time: 0 hr 41 min 56 sec) 
Heartbeat CPU 1 instructions: 110000000 cycles: 263986575 heartbeat IPC: 0.256006 cumulative IPC: 0.241408 (Simulation time: 0 hr 41 min 59 sec) 
Heartbeat CPU 3 instructions: 110000000 cycles: 264234636 heartbeat IPC: 0.255901 cumulative IPC: 0.241203 (Simulation time: 0 hr 42 min 1 sec) 
Heartbeat CPU 2 instructions: 120000003 cycles: 302551687 heartbeat IPC: 0.256759 cumulative IPC: 0.243831 (Simulation time: 0 hr 47 min 1 sec) 
Heartbeat CPU 0 instructions: 120000003 cycles: 302560452 heartbeat IPC: 0.256701 cumulative IPC: 0.243803 (Simulation time: 0 hr 47 min 1 sec) 
Heartbeat CPU 1 instructions: 120000003 cycles: 302965178 heartbeat IPC: 0.256551 cumulative IPC: 0.243461 (Simulation time: 0 hr 47 min 4 sec) 
Heartbeat CPU 3 instructions: 120000003 cycles: 303142106 heartbeat IPC: 0.25702 cumulative IPC: 0.243342 (Simulation time: 0 hr 47 min 5 sec) 
Heartbeat CPU 0 instructions: 130000002 cycles: 340764233 heartbeat IPC: 0.261754 cumulative IPC: 0.245911 (Simulation time: 0 hr 51 min 32 sec) 
Heartbeat CPU 2 instructions: 130000002 cycles: 340799446 heartbeat IPC: 0.261453 cumulative IPC: 0.245902 (Simulation time: 0 hr 51 min 32 sec) 
Heartbeat CPU 1 instructions: 130000002 cycles: 341151393 heartbeat IPC: 0.261875 cumulative IPC: 0.24562 (Simulation time: 0 hr 51 min 35 sec) 
Heartbeat CPU 3 instructions: 130000002 cycles: 341297214 heartbeat IPC: 0.262088 cumulative IPC: 0.245537 (Simulation time: 0 hr 51 min 36 sec) 
Heartbeat CPU 0 instructions: 140000002 cycles: 378206554 heartbeat IPC: 0.267077 cumulative IPC: 0.248096 (Simulation time: 0 hr 56 min 14 sec) 
Heartbeat CPU 2 instructions: 140000002 cycles: 378423823 heartbeat IPC: 0.265785 cumulative IPC: 0.247964 (Simulation time: 0 hr 56 min 16 sec) 
Heartbeat CPU 1 instructions: 140000002 cycles: 378771791 heartbeat IPC: 0.265813 cumulative IPC: 0.247712 (Simulation time: 0 hr 56 min 18 sec) 
Heartbeat CPU 3 instructions: 140000002 cycles: 379027562 heartbeat IPC: 0.265039 cumulative IPC: 0.247561 (Simulation time: 0 hr 56 min 20 sec) 
Heartbeat CPU 0 instructions: 150000000 cycles: 417082087 heartbeat IPC: 0.257231 cumulative IPC: 0.24898 (Simulation time: 1 hr 0 min 53 sec) 
Heartbeat CPU 2 instructions: 150000000 cycles: 417143092 heartbeat IPC: 0.258269 cumulative IPC: 0.248957 (Simulation time: 1 hr 0 min 54 sec) 
Heartbeat CPU 1 instructions: 150000000 cycles: 417150264 heartbeat IPC: 0.260563 cumulative IPC: 0.248939 (Simulation time: 1 hr 0 min 54 sec) 
Heartbeat CPU 3 instructions: 150000000 cycles: 417429983 heartbeat IPC: 0.2604 cumulative IPC: 0.248788 (Simulation time: 1 hr 0 min 56 sec) 
Heartbeat CPU 1 instructions: 160000001 cycles: 454259820 heartbeat IPC: 0.269472 cumulative IPC: 0.250676 (Simulation time: 1 hr 5 min 50 sec) 
Heartbeat CPU 0 instructions: 160000001 cycles: 454288908 heartbeat IPC: 0.268768 cumulative IPC: 0.250658 (Simulation time: 1 hr 5 min 50 sec) 
Heartbeat CPU 2 instructions: 160000001 cycles: 454452968 heartbeat IPC: 0.268026 cumulative IPC: 0.250578 (Simulation time: 1 hr 5 min 52 sec) 
Heartbeat CPU 3 instructions: 160000001 cycles: 454663109 heartbeat IPC: 0.268578 cumulative IPC: 0.250466 (Simulation time: 1 hr 5 min 54 sec) 
Heartbeat CPU 0 instructions: 170000003 cycles: 491576003 heartbeat IPC: 0.268189 cumulative IPC: 0.252031 (Simulation time: 1 hr 10 min 59 sec) 
Heartbeat CPU 1 instructions: 170000003 cycles: 491622445 heartbeat IPC: 0.267647 cumulative IPC: 0.252008 (Simulation time: 1 hr 10 min 59 sec) 
Heartbeat CPU 2 instructions: 170000003 cycles: 491901400 heartbeat IPC: 0.267034 cumulative IPC: 0.251871 (Simulation time: 1 hr 11 min 1 sec) 
Heartbeat CPU 3 instructions: 170000003 cycles: 492128700 heartbeat IPC: 0.266912 cumulative IPC: 0.251758 (Simulation time: 1 hr 11 min 2 sec) 
Heartbeat CPU 1 instructions: 180000001 cycles: 530633640 heartbeat IPC: 0.256337 cumulative IPC: 0.252336 (Simulation time: 1 hr 16 min 4 sec) 
Heartbeat CPU 0 instructions: 180000001 cycles: 530708761 heartbeat IPC: 0.25554 cumulative IPC: 0.252298 (Simulation time: 1 hr 16 min 4 sec) 
Heartbeat CPU 2 instructions: 180000001 cycles: 530821930 heartbeat IPC: 0.256934 cumulative IPC: 0.252254 (Simulation time: 1 hr 16 min 5 sec) 
Heartbeat CPU 3 instructions: 180000001 cycles: 530945643 heartbeat IPC: 0.257619 cumulative IPC: 0.2522 (Simulation time: 1 hr 16 min 6 sec) 
Heartbeat CPU 0 instructions: 190000002 cycles: 568598959 heartbeat IPC: 0.263921 cumulative IPC: 0.253094 (Simulation time: 1 hr 21 min 21 sec) 
Heartbeat CPU 1 instructions: 190000002 cycles: 568600908 heartbeat IPC: 0.263385 cumulative IPC: 0.253094 (Simulation time: 1 hr 21 min 21 sec) 
Heartbeat CPU 3 instructions: 190000002 cycles: 568687281 heartbeat IPC: 0.264959 cumulative IPC: 0.25307 (Simulation time: 1 hr 21 min 22 sec) 
Heartbeat CPU 2 instructions: 190000002 cycles: 568773603 heartbeat IPC: 0.263493 cumulative IPC: 0.253025 (Simulation time: 1 hr 21 min 23 sec) 
Heartbeat CPU 1 instructions: 200000003 cycles: 604104133 heartbeat IPC: 0.281665 cumulative IPC: 0.254817 (Simulation time: 1 hr 26 min 10 sec) 
Heartbeat CPU 0 instructions: 200000003 cycles: 604240492 heartbeat IPC: 0.280572 cumulative IPC: 0.254757 (Simulation time: 1 hr 26 min 12 sec) 
Heartbeat CPU 3 instructions: 200000003 cycles: 604314869 heartbeat IPC: 0.280681 cumulative IPC: 0.254741 (Simulation time: 1 hr 26 min 12 sec) 
Heartbeat CPU 2 instructions: 200000003 cycles: 604420029 heartbeat IPC: 0.280533 cumulative IPC: 0.25469 (Simulation time: 1 hr 26 min 13 sec) 
Heartbeat CPU 1 instructions: 210000003 cycles: 640475600 heartbeat IPC: 0.274941 cumulative IPC: 0.255988 (Simulation time: 1 hr 31 min 21 sec) 
Heartbeat CPU 2 instructions: 210000003 cycles: 640610724 heartbeat IPC: 0.276314 cumulative IPC: 0.255941 (Simulation time: 1 hr 31 min 22 sec) 
Heartbeat CPU 0 instructions: 210000003 cycles: 640639732 heartbeat IPC: 0.274731 cumulative IPC: 0.25592 (Simulation time: 1 hr 31 min 22 sec) 
Heartbeat CPU 3 instructions: 210000003 cycles: 640731111 heartbeat IPC: 0.274603 cumulative IPC: 0.255898 (Simulation time: 1 hr 31 min 23 sec) 
Heartbeat CPU 1 instructions: 220000000 cycles: 677080442 heartbeat IPC: 0.273188 cumulative IPC: 0.25694 (Simulation time: 1 hr 36 min 1 sec) 
Heartbeat CPU 2 instructions: 220000000 cycles: 677380850 heartbeat IPC: 0.27196 cumulative IPC: 0.256831 (Simulation time: 1 hr 36 min 3 sec) 
Heartbeat CPU 3 instructions: 220000000 cycles: 677434408 heartbeat IPC: 0.272455 cumulative IPC: 0.256816 (Simulation time: 1 hr 36 min 3 sec) 
Heartbeat CPU 0 instructions: 220000000 cycles: 677450076 heartbeat IPC: 0.271663 cumulative IPC: 0.256796 (Simulation time: 1 hr 36 min 3 sec) 
Heartbeat CPU 1 instructions: 230000002 cycles: 712569212 heartbeat IPC: 0.281779 cumulative IPC: 0.258205 (Simulation time: 1 hr 40 min 55 sec) 
Heartbeat CPU 2 instructions: 230000002 cycles: 712814014 heartbeat IPC: 0.282222 cumulative IPC: 0.258121 (Simulation time: 1 hr 40 min 57 sec) 
Heartbeat CPU 0 instructions: 230000002 cycles: 712860814 heartbeat IPC: 0.2824 cumulative IPC: 0.258096 (Simulation time: 1 hr 40 min 58 sec) 
Heartbeat CPU 3 instructions: 230000001 cycles: 712872367 heartbeat IPC: 0.282183 cumulative IPC: 0.258105 (Simulation time: 1 hr 40 min 58 sec) 
Heartbeat CPU 2 instructions: 240000001 cycles: 748094867 heartbeat IPC: 0.28344 cumulative IPC: 0.259341 (Simulation time: 1 hr 46 min 5 sec) 
Heartbeat CPU 1 instructions: 240000001 cycles: 748137741 heartbeat IPC: 0.281147 cumulative IPC: 0.259318 (Simulation time: 1 hr 46 min 6 sec) 
Heartbeat CPU 0 instructions: 240000001 cycles: 748469770 heartbeat IPC: 0.280828 cumulative IPC: 0.2592 (Simulation time: 1 hr 46 min 8 sec) 
Heartbeat CPU 3 instructions: 240000001 cycles: 748639463 heartbeat IPC: 0.279587 cumulative IPC: 0.259153 (Simulation time: 1 hr 46 min 9 sec) 
Heartbeat CPU 2 instructions: 250000000 cycles: 783936536 heartbeat IPC: 0.279005 cumulative IPC: 0.260258 (Simulation time: 1 hr 51 min 29 sec) 
Heartbeat CPU 1 instructions: 250000000 cycles: 783949599 heartbeat IPC: 0.279237 cumulative IPC: 0.260247 (Simulation time: 1 hr 51 min 29 sec) 
Finished CPU 2 instructions: 200000002 cycles: 768468465 cumulative IPC: 0.260258 (Simulation time: 1 hr 51 min 29 sec) 
Finished CPU 1 instructions: 200000001 cycles: 768501879 cumulative IPC: 0.260247 (Simulation time: 1 hr 51 min 29 sec) 
Heartbeat CPU 0 instructions: 250000000 cycles: 784032202 heartbeat IPC: 0.281196 cumulative IPC: 0.260218 (Simulation time: 1 hr 51 min 30 sec) 
Finished CPU 0 instructions: 200000000 cycles: 768583332 cumulative IPC: 0.260219 (Simulation time: 1 hr 51 min 30 sec) 
Heartbeat CPU 3 instructions: 250000000 cycles: 784378142 heartbeat IPC: 0.279809 cumulative IPC: 0.260113 (Simulation time: 1 hr 51 min 33 sec) 
Finished CPU 3 instructions: 200000001 cycles: 768896913 cumulative IPC: 0.260113 (Simulation time: 1 hr 51 min 33 sec) 

ChampSim completed all CPUs

Total Simulation Statistics (not including warmup)

CPU 0 cumulative IPC: 0.260226 instructions: 200086804 cycles: 768896913
ITLB TOTAL     ACCESS:   25091721  HIT:   25091721  MISS:          0  HIT %:        100  MISS %:          0   MPKI: 0
ITLB LOAD      ACCESS:          0  HIT:          0  MISS:          0  HIT %:       -nan  MISS %:       -nan   MPKI: 0
ITLB RFO       ACCESS:          0  HIT:          0  MISS:          0  HIT %:       -nan  MISS %:       -nan   MPKI: 0
ITLB PREFETCH  ACCESS:          0  HIT:          0  MISS:          0  HIT %:       -nan  MISS %:       -nan   MPKI: 0
ITLB WRITEBACK ACCESS:          0  HIT:          0  MISS:          0  HIT %:       -nan  MISS %:       -nan   MPKI: 0
DTLB TOTAL     ACCESS:   41406044  HIT:   36729048  MISS:    4676996  HIT %:    88.7046  MISS %:    11.2954   MPKI: 23.3748
DTLB LOAD      ACCESS:          0  HIT:          0  MISS:          0  HIT %:       -nan  MISS %:       -nan   MPKI: 0
DTLB RFO       ACCESS:          0  HIT:          0  MISS:          0  HIT %:       -nan  MISS %:       -nan   MPKI: 0
DTLB PREFETCH  ACCESS:          0  HIT:          0  MISS:          0  HIT %:       -nan  MISS %:       -nan   MPKI: 0
DTLB WRITEBACK ACCESS:          0  HIT:          0  MISS:          0  HIT %:       -nan  MISS %:       -nan   MPKI: 0
STLB TOTAL     ACCESS:    5362357  HIT:    5301773  MISS:      60584  HIT %:    98.8702  MISS %:     1.1298   MPKI: 0.302789
STLB LOAD      ACCESS:          0  HIT:          0  MISS:          0  HIT %:       -nan  MISS %:       -nan   MPKI: 0
STLB RFO       ACCESS:          0  HIT:          0  MISS:          0  HIT %:       -nan  MISS %:       -nan   MPKI: 0
STLB PREFETCH  ACCESS:          0  HIT:          0  MISS:          0  HIT %:       -nan  MISS %:       -nan   MPKI: 0
STLB WRITEBACK ACCESS:          0  HIT:          0  MISS:          0  HIT %:       -nan  MISS %:       -nan   MPKI: 0
L1D TOTAL     ACCESS:   42005780  HIT:   30900032  MISS:   11105748  HIT %:    73.5614  MISS %:    26.4386   MPKI: 55.5046
L1D LOAD      ACCESS:   39647660  HIT:   29335139  MISS:   10312521  HIT %:    73.9896  MISS %:    26.0104   MPKI: 51.5402
L1D RFO       ACCESS:    2036633  HIT:    1563693  MISS:     472940  HIT %:    76.7783  MISS %:    23.2217   MPKI: 2.36367
L1D PREFETCH  ACCESS:     321487  HIT:       1200  MISS:     320287  HIT %:   0.373265  MISS %:    99.6267   MPKI: 1.60074
L1D WRITEBACK ACCESS:          0  HIT:          0  MISS:          0  HIT %:       -nan  MISS %:       -nan   MPKI: 0
L1I TOTAL     ACCESS:   25753280  HIT:   25753280  MISS:          0  HIT %:        100  MISS %:          0   MPKI: 0
L1I LOAD      ACCESS:   25753280  HIT:   25753280  MISS:          0  HIT %:        100  MISS %:          0   MPKI: 0
L1I RFO       ACCESS:          0  HIT:          0  MISS:          0  HIT %:       -nan  MISS %:       -nan   MPKI: 0
L1I PREFETCH  ACCESS:          0  HIT:          0  MISS:          0  HIT %:       -nan  MISS %:       -nan   MPKI: 0
L1I WRITEBACK ACCESS:          0  HIT:          0  MISS:          0  HIT %:       -nan  MISS %:       -nan   MPKI: 0
L2C TOTAL     ACCESS:   13466401  HIT:    4043028  MISS:    9423373  HIT %:    30.0231  MISS %:    69.9769   MPKI: 47.0964
L2C LOAD      ACCESS:   10289114  HIT:    2271022  MISS:    8018092  HIT %:    22.0721  MISS %:    77.9279   MPKI: 40.0731
L2C RFO       ACCESS:     472938  HIT:     304589  MISS:     168349  HIT %:    64.4036  MISS %:    35.5964   MPKI: 0.84138
L2C PREFETCH  ACCESS:    1281181  HIT:     134796  MISS:    1146385  HIT %:    10.5212  MISS %:    89.4788   MPKI: 5.72944
L2C WRITEBACK ACCESS:    1350185  HIT:    1304654  MISS:      45531  HIT %:    96.6278  MISS %:     3.3722   MPKI: 0.227556
PSCL5 TOTAL     ACCESS:      60584  HIT:      60584  MISS:          0  HIT %:        100  MISS %:          0   MPKI: 0
PSCL5 LOAD      ACCESS:          0  HIT:          0  MISS:          0  HIT %:       -nan  MISS %:       -nan   MPKI: 0
PSCL5 RFO       ACCESS:          0  HIT:          0  MISS:          0  HIT %:       -nan  MISS %:       -nan   MPKI: 0
PSCL5 PREFETCH  ACCESS:          0  HIT:          0  MISS:          0  HIT %:       -nan  MISS %:       -nan   MPKI: 0
PSCL5 WRITEBACK ACCESS:          0  HIT:          0  MISS:          0  HIT %:       -nan  MISS %:       -nan   MPKI: 0
PSCL4 TOTAL     ACCESS:      60584  HIT:      60584  MISS:          0  HIT %:        100  MISS %:          0   MPKI: 0
PSCL4 LOAD      ACCESS:          0  HIT:          0  MISS:          0  HIT %:       -nan  MISS %:       -nan   MPKI: 0
PSCL4 RFO       ACCESS:          0  HIT:          0  MISS:          0  HIT %:       -nan  MISS %:       -nan   MPKI: 0
PSCL4 PREFETCH  ACCESS:          0  HIT:          0  MISS:          0  HIT %:       -nan  MISS %:       -nan   MPKI: 0
PSCL4 WRITEBACK ACCESS:          0  HIT:          0  MISS:          0  HIT %:       -nan  MISS %:       -nan   MPKI: 0
PSCL3 TOTAL     ACCESS:      60584  HIT:      60584  MISS:          0  HIT %:        100  MISS %:          0   MPKI: 0
PSCL3 LOAD      ACCESS:          0  HIT:          0  MISS:          0  HIT %:       -nan  MISS %:       -nan   MPKI: 0
PSCL3 RFO       ACCESS:          0  HIT:          0  MISS:          0  HIT %:       -nan  MISS %:       -nan   MPKI: 0
PSCL3 PREFETCH  ACCESS:          0  HIT:          0  MISS:          0  HIT %:       -nan  MISS %:       -nan   MPKI: 0
PSCL3 WRITEBACK ACCESS:          0  HIT:          0  MISS:          0  HIT %:       -nan  MISS %:       -nan   MPKI: 0
PSCL2 TOTAL     ACCESS:      60584  HIT:      48181  MISS:      12403  HIT %:    79.5276  MISS %:    20.4724   MPKI: 0.0619881
PSCL2 LOAD      ACCESS:          0  HIT:          0  MISS:          0  HIT %:       -nan  MISS %:       -nan   MPKI: 0
PSCL2 RFO       ACCESS:          0  HIT:          0  MISS:          0  HIT %:       -nan  MISS %:       -nan   MPKI: 0
PSCL2 PREFETCH  ACCESS:          0  HIT:          0  MISS:          0  HIT %:       -nan  MISS %:       -nan   MPKI: 0
PSCL2 WRITEBACK ACCESS:          0  HIT:          0  MISS:          0  HIT %:       -nan  MISS %:       -nan   MPKI: 0
=== CPU 0 L1D Prefetcher Statistics ===
[MLOP] History of tracked zone:
IIIIIIIIIIIIIIIIIIIIIIIIIIIIIIIIIIIIIIIIIIIIIIIIIIIIIIIIIIIIIIII
IIIIIIIIIIIIIIIAIIIIIIIIIIIIIIIIIIIIIIIIIIIIIIIIIIIIIIIIIIIIIIII
IIIIIIIIIIIIIIIAIIAIIIIIIIIIIIIIIIIIIIIIIIIIIIIIIIIIIIIIIIIIIIII
IIIIIIIIIIIIIIIAIIAIIIIAIIIIIIIIIIIIIIIIIIIIIIIIIIIIIIIIIIIIIIII
IIIIIIIIIIIIIIIAIIAIIIIAIIIAIIIIIIIIIIIIIIIIIIIIIIIIIIIIIIIIIIII
IIIIIIIIIIIIIIIAIIAIIIIAIIIAIIIIIIIIIIIIIAIIIIIIIIIIIIIIIIIIIIII
IIIIIIIIIIIIIIIAIIAIIIIAIIIAIIIIIIIIIIIIIAIIIIIIIAIIIIIIIIIIIIII
IIIIIIIIIIIIIIIAIIAIIIIAIIIAIIIIIIIIIIIIIAIIIIIIIAIIIIIIIIIIIAII
IIIIIIIIIIIIIIIAIIAIIIIAIIIAIIIIIIIIIIIIIAIIIIIIIAIIIIIIIIIIIAAI
IIIIIIIIIA2IIIIIIIIIIIIIIIIIIIIIIIIIIIIIIIIIIIIIIIIIIIIIIIIIIIII
IIIIIIIIIA2IIIIIIIIIIIIIIIIIIA2IIIIIIIIIIIIIIIIIIIIIIIIIIIIIIIII
IIIIIIIIIA2IIIIIIIIIIIIIIIIIIA2IIIA2IIIIIIIIIIIIIIIIIIIIIIIIIIII
IIIIIIIIIA2IIIIIIIIIIIIIIIIIIA2IIIA2IIIIIIIIIIIIIA2IIIIIIIIIIIII
IIIIIIIIIIIIIIIIIIAIIIIIIIIIIIIIIIIIIIIIIIIIIIIIIIIIIIIIIIIIIIII
IIIIIIIIIIIIIIIIIIAIIIIIIIIIIIIIIIIIIIIIIIIIIIIIIIIIIIIIIIIIIAII
IIIIIIIIIIIIIIIIIIIIIIIIIIIIIIIIIIIIIIIIIIA12IIIIIIIIIIIIIIIIIII
IIIIIIIIIIIIIIIIIIIIIIIIIIIIIIIIIIIIIIIA12IIIIIIIIIIIIIIIIIIIIII
IIIIIIIIIIIIIIIIIIAIIIIIIIIIIIIIIIIIIIIIIIIIIIIIIIIIIIIIIIIIIIII
AIIIIIIIIIIIIIIIIIIIIIIIIIIIIIIIIIIIIIIIIIIIIIIIIIIIIIIIIIIIIIII
AIIIIIIIIIIIIIIIIIIAIIIIIIIIIIIIIIIIIIIIIIIIIIIIIIIIIIIIIIIIIIII
AIIIIIIIIIIIIIIIIIIAIIIIIIIIIIIIIIIIAIIIIIIIIIIIIIIIIIIIIIIIIIII
IIIIIIIIIAIIIIIIIIIIIIIIIIIIIIIIIIIIIIIIIIIIIIIIIIIIIIIIIIIIIIII
IIIIIIIIIAIIIIIAIIIIIIIIIIIIIIIIIIIIIIIIIIIIIIIIIIIIIIIIIIIIIIII
IIIIIIIIIAIIIIIAIIIAIIIIIIIIIIIIIIIIIIIIIIIIIIIIIIIIIIIIIIIIIIII
IIIIIIIIIAIIIIIAIIIAIIIIIIAIIIIIIIIIIIIIIIIIIIIIIIIIIIIIIIIIIIII
IIIIIIIIIAIIIIIAIIIAIIIIIIAAIIIIIIIIIIIIIIIIIIIIIIIIIIIIIIIIIIII
IIIIIIIIIAIIIIIAIIIAIIIIIIAAIIIIIIIIAIIIIIIIIIIIIIIIIIIIIIIIIIII
IIIIIIIIIAIIIIIAIIIAIIIIIIAAIIIIIIIIAIAIIIIIIIIIIIIIIIIIIIIIIIII
IIIIIIIIIAIIIIIAIIIAIIIIIIAAIIIIIIIIAIAIIIAIIIIIIIIIIIIIIIIIIIII
IIIIIIIIIAIIIIIAIIIAIIIIIIAAIIIIIIIIAIAIIIAIIIIIAIIIIIIIIIIIIIII
IIIIIIIIIAIIIIIAIIIAIIIIIIAAIIIIIIIIAIAIIIAIIIIIAIIIIIIIIIIIIIAI
IIIIIIIIIIIIIIIIIIIAIIIIIIIIIIIIIIIIIIIIIIIIIIIIIIIIIIIIIIIIIIII
AI2IIIIIIIIIIIIIIIIIIIIIIIIIIIIIIIIIIIIIIIIIIIIIIIIIIIIIIIIIIIII
AI2IIIIIIIIIIIIIIIAI2IIIIIIIIIIIIIIIIIIIIIIIIIIIIIIIIIIIIIIIIIII
AI2IIIIIIIIIIIIIIIAA22IIIIIIIIIIIIIIIIIIIIIIIIIIIIIIIIIIIIIIIIII
IIIIIIIIIIIIIIIIIIAIIIIIIIIIIIIIIIIIIIIIIIIIIIIIIIIIIIIIIIIIIIII
IIIIIIIIIIIIIIIIIIIIIIIIIIIIIIIIIIIIIIIIIIAIIIIIIIIIIIIIIIIIIIII
IIIIIIIIIIIIIIIIIIIIIIIIIIIIIIIIIIIIIIIIIIAIIIIIIIIIIIIIAIIIIIII
IIIIIIIIIIIIIIIIIIIIIIIIIIIIIIIIIIIIAIIIIIIIIIIIIIIIIIIIIIIIIIII
IIIIIIIIAIIIIIIIIIIIIIIIIIIIIIIIIIIIIIIIIIIIIIIIIIIIIIIIIIIIIIII
IIIIIIIIAAIIIIIIIIIIIIIIIIIIIIIIIIIIIIIIIIIIIIIIIIIIIIIIIIIIIIII
IIIIIIIIAAIIIIIIIIIAIIIIIIIIIIIIIIIIIIIIIIIIIIIIIIIIIIIIIIIIIIII
IIIIIIIIAAIIIIIIIIIAIIIIIIIIIIIIAIIIIIIIIIIIIIIIIIIIIIIIIIIIIIII
IIIIIIIIAAIIIIIIIIIAIIIIIIIIIIIIAIIIIIIIIIIIIIIIIIIIIIIIIIIIIAII
IIIIIIIIIAIIIIIIIIIIIIIIIIIIIIIIIIIIIIIIIIIIIIIIIIIIIIIIIIIIIIII
IIIIIIIIIIIIIIIIIIIIIIIIIIIIIIIIIIIIIIIIIIIA2IIIIIIIIIIIIIIIIIII
IIIIIIIIIIIIIIIIIIIIIIIIIIIIIIIIIIIIIIIIIIIIIIIIIIIIIIIIAIIIIIII
IIIIIIIIIIIIIAIIIIIIIIIIIIIIIIIIIIIIIIIIIIIIIIIIIIIIIIIIIIIIIIII
IIIIIIIIIIIIIAIIIAIIIIIIIIIIIIIIIIIIIIIIIIIIIIIIIIIIIIIIIIIIIIII
IIIIIIIIIIIIIAIIIAIIIIIIAIIIIIIIIIIIIIIIIIIIIIIIIIIIIIIIIIIIIIII
IIIIIIIIIIIIIAIIIAIIIIIIAIIIIIIIIIIIIIIIIIAIIIIIIIIIIIIIIIIIIIII
IIIIIIIIIIIIIIIIIIIIIIIIIIIIIIIIIIIIIIAIIIIIIIIIIIIIIIIIIIIIIIII
A2IIIIIIIIIIIIIIIIIIIIIIIIIIIIIIIIIIIIIIIIIIIIIIIIIIIIIIIIIIIIII
A2IIA2IIIIIIIIIIIIIIIIIIIIIIIIIIIIIIIIIIIIIIIIIIIIIIIIIIIIIIIIII
A2IIA2IIA2IIIIIIIIIIIIIIIIIIIIIIIIIIIIIIIIIIIIIIIIIIIIIIIIIIIIII
A2IIA2IIA2IIIIIIIIA2IIIIIIIIIIIIIIIIIIIIIIIIIIIIIIIIIIIIIIIIIIII
A2IIA2IIA2IIIIIIIIAA2IIIIIIIIIIIIIIIIIIIIIIIIIIIIIIIIIIIIIIIIIII
A2IIA2IIA2IIIIIIIIAAA2IIIIIIIIIIIIIIIIIIIIIIIIIIIIIIIIIIIIIIIIII
A2IIA2IIA2IIIIIIIIAAA2IIIIIA2IIIIIIIIIIIIIIIIIIIIIIIIIIIIIIIIIII
A2IIA2IIA2IIIIIIIIAAA2IIIIIAA2IIIIIIIIIIIIIIIIIIIIIIIIIIIIIIIIII
A2IIA2IIA2IIIIIIIIAAA2IIIIIAA2IIA2IIIIIIIIIIIIIIIIIIIIIIIIIIIIII
A2IIA2IIA2IIIIIIIIAAA2IIIIIAA2IIA2IIA2IIIIIIIIIIIIIIIIIIIIIIIIII
A2IIA2IIA2IIIIIIIIAAA2IIIIIAA2IIA2IIA2IIIIIIIIIIIIIIIIIIA2IIIIII
IIIIAIIIIIIIIIIIIIIIIIIIIIIIIIIIIIIIIIIIIIIIIIIIIIIIIIIIIIIIIIII
IIIIAIIIIIIIIIIIIIIIIIIIIIIIIIIIIIIIAIIIIIIIIIIIIIIIIIIIIIIIIIII
IIIIAIIIIIIIIIIIIIIIIIIIIIIIIIIIIIIIAIIIIIIIIIIIIIIAIIIIIIIIIIII
IIIIIIIIIIIIIIIIIIIIIIIIIIIIIIIIIIIIIIAIIIIIIIIIIIIIIIIIIIIIIIII
IIIIIIIIIIIIIIIIIIIIIIIIIIIIIIIIIIIIIIAIIIIIIIIAIIIIIIIIIIIIIIII
IIIIIIIIIIIIIIIIIIIIIIIIIIIIIIIIIIIIIIAIIIIIIIIAIIIIIIIIIAIIIIII
IIIIIIIIIIIIIIIIIIIIIIIIIIIIIIIIIIIIIIIIIIIIIIIIAIIIIIIIIIIIIIII
IIIIIIIIIIIIIIIIIIIIIIIIIIIIIA22IIIIIIIIIIIIIIIIIIIIIIIIIIIIIIII
IIIIIIIIIIIIIIIIIIIIIIIIIIIIIIIIIIIIA2IIIIIIIIIIIIIIIIIIIIIIIIII
IIIIIIIIIAIIIIIIIIIIIIIIIIIIIIIIIIIIIIIIIIIIIIIIIIIIIIIIIIIIIIII
IIIIIIIIIAIIIIIIIIIIIIIIIIIIIIIIIIIIIIAIIIIIIIIIIIIIIIIIIIIIIIII
IIIIIIIIIIIIIIIIIIIIIIIIIIIIIIIIIIIIIIIIIIIIIIIIIIIIIIIIIIIIIIAI
IIIIIIIIIIIIIIIAIIIIIIIIIIIIIIIIIIIIIIIIIIIIIIIIIIIIIIIIIIIIIIII
IIIIIIIIIIIIIIIAIIIIIIIIIIIIIIIIIIIIIAIIIIIIIIIIIIIIIIIIIIIIIIII
IIIIIIIIIIIIIIIIIIIIIIIIIIIIIIIIIIIIAIIIIIIIIIIIIIIIIIIIIIIIIIII
IIIIIIIIIIIIIIIIIIIIIIIIIIIIIIIIIIIIAIIIIIIIIIIIIIIIIIIIAIIIIIII
IIIIIIIIIIIIIIIIIIIIIIIIIIIIIIIIIIIIAIIIIIIIIIIIIIIIIIIIAIIIIAII
IIIIIIIIIAIIIIIIIIIIIIIIIIIIIIIIIIIIIIIIIIIIIIIIIIIIIIIIIIIIIIII
IIIIIIIIIAIIIIIIIIIIIIIIIIIAIIIIIIIIIIIIIIIIIIIIIIIIIIIIIIIIIIII
IIIIIIIIIAIIIIIIIIIIIIIIIIIAIIIIIIIIIIIIIIIIIIIIIIIIIIIIAIIIIIII
IIIIIIIIIAIIIIIIIIIIIIIIIIIAIIIIIIIIIIIIIIIIIIIIIIIIIIIIAIIIIIAI
IIIIIIIIIAIIIIIIIIIIIIIIIIIIIIIIIIIIIIIIIIIIIIIIIIIIIIIIIIIIIIII
IIIIIIIIIIIIIIIIIIIIIIIIIIIIIIIIIIIIIIIIIIIIIIIIIIIIIIIIIIIIAIII
IIIIIIAIIIIIIIIIIIIIIIIIIIIIIIIIIIIIIIIIIIIIIIIIIIIIIIIIIIIIAIII
IIIIIIAIIIIIIAIIIIIIIIIIIIIIIIIIIIIIIIIIIIIIIIIIIIIIIIIIIIIIAIII
IIIIIIAIIIIIIAIIIIAIIIIIIIIIIIIIIIIIIIIIIIIIIIIIIIIIIIIIIIIIAIII
IIIIIIAIIIIIIAIIIIAAIIIIIIIIIIIIIIIIIIIIIIIIIIIIIIIIIIIIIIIIAIII
IIIIIIAIIIIIIAIIIIAAAIIIIIIIIIIIIIIIIIIIIIIIIIIIIIIIIIIIIIIIAIII
IIIIIIAIIIIIIAIIIIAAAIIIAIIIIIIIIIIIIIIIIIIIIIIIIIIIIIIIIIIIAIII
IIIIIIAIIIIIIAIIIIAAAIIIAIIIIIIIIIIAIIIIIIIIIIIIIIIIIIIIIIIIAIII
IIIIIIAIIIIIIAIIIIAAAIIIAIIIIIIIIIIAAIIIIIIIIIIIIIIIIIIIIIIIAIII
IIIIIIAIIIIIIAIIIIAAAIIIAIIIIIIIIIIAAAIIIIIIIIIIIIIIIIIIIIIIAIII
IIIIIIAIIIIIIAIIIIAAAIIIAIIIIIIIIIIAAAIIIIAIIIIIIIIIIIIIIIIIAIII
IIIIIIAIIIIIIAIIIIAAAIIIAIIIIIIIIIIAAAIIIIAIIIIIIIIIIIIIIAIIAIII
IIIIIIAIIIIIIAIIIIAAAIIIAIIIIIIIIIIAAAIIIIAIIIIIIIIIIIIIIAIIAAII
IIIIIIAIIIIIIAIIIIAAAIIIAIIIIIIIIIIAAAIIIIAIIIIIIIIIIIIIIAIIAAAI
IIIIIIAIIIIIIAIIIIAAAIIIAIIIIIIIIIIAAAIIIIAIIIIIIIIIIIIIIAIIAAAA
IIIIIIAIIIIIIIIIIIIIIIIIIIIIIIIIIIIIIIIIIIIIIIIIIIIIIIIIIIIIIIII
IIIIIIAIIIIAIIIIIIIIIIIIIIIIIIIIIIIIIIIIIIIIIIIIIIIIIIIIIIIIIIII
IIIIIIAIIIIAIIIIIIIIIIIIIIIIIIAIIIIIIIIIIIIIIIIIIIIIIIIIIIIIIIII
IIIIAIIIIIIIIIIIIIIIIIIIIIIIIIIIIIIIIIIIIIIIIIIIIIIIIIIIIIIIIIII
IIIIIIIIIIIIIIIIIIIIIIIIIIIIIIIIIIIIIIIIIIIA2IIIIIIIIIIIIIIIIIII
IIIIIIIIIIIIIIIIIIIIIIIIIIIIIIIIIIIIIIIIIIIIIIIIIIIIIIIIIIIIIIAI
IIIIIIIIIIIIIIIIIIIIIIIIIIIIIIIIIIIIIAIIIIIIIIIIIIIIIIIIIIIIIIII
IIIIAIIIIIIIIIIIIIIIIIIIIIIIIIIIIIIIIIIIIIIIIIIIIIIIIIIIIIIIIIII
IIIIAIIIIAIIIIIIIIIIIIIIIIIIIIIIIIIIIIIIIIIIIIIIIIIIIIIIIIIIIIII
IIIIAIIIIAIIIIAIIIIIIIIIIIIIIIIIIIIIIIIIIIIIIIIIIIIIIIIIIIIIIIII
IIIIAIIIIAIIIIAIIIIIIIIIIIIIIIIIIIIIIIIIIIIIIIIIAIIIIIIIIIIIIIII
IIIIIIIIIIIIIIIIIIIIIIIIIIIIAIIIIIIIIIIIIIIIIIIIIIIIIIIIIIIIIIII
IIIIIIIIIIIIIIIIIIIIIIIIIIIIIIIIAIIIIIIIIIIIIIIIIIIIIIIIIIIIIIII
IIIIIIIIIIIIIIIIIIIIIIIIIIIIIIIIIIIIIIIIIIIIIIIIIIIIIIIIIAIIIIII
IIIIIIIIIIIIIIIIIIIIIIIIIIIIIIIIIIIIIIIIIIIIIIIIIIIIIIIIIAIIIIAI
IIIIIIIIIIIAIIIIIIIIIIIIIIIIIIIIIIIIIIIIIIIIIIIIIIIIIIIIIIIIIIII
IIIIIIIIIIIAIIIIIIIIIIIIIIIIIIIIIIIIAIIIIIIIIIIIIIIIIIIIIIIIIIII
IIIIIIIIIIIAIIIIIIIIIIIIIIIIIIIIIIIIAIIIIIIAIIIIIIIIIIIIIIIIIIII
IIIIIIIIIIIIIIIIIIIIIIIIIIIIIIIIIIIIIIIIIIIIIIIIIIIIIIIIAIIIIIII
IIIIIIIIIIIIIIIIIIIIIIIIIIIIIIIIIIIIIIIIIIIIIIIIIIIIIIIIAIIIIAII
IIIIIIIIIIIIIIIIIIIIIIIIIIIIIIIIIIIIIIIIIIIIIIIIIIIIIIIIAIIIIAAI
IIIIIIIIIIIIIIIIIIIIIIIIIIIIIIIIIIIAIIIIIIIIIIIIIIIIIIIIIIIIIIII
IIIIIIAIIIIIIIIIIIIIIIIIIIIIIIIIIIIIIIIIIIIIIIIIIIIIIIIIIIIIIIII
IIIIIIAIIIIIIIIIIIIIIIIIIIIIIIIAIIIIIIIIIIIIIIIIIIIIIIIIIIIIIIII
IIIIIIAIIIIIIIIIIIIIIIIIIIIIIIIAIIIIIIIIIIIIIIIIIIAIIIIIIIIIIIII
IIIIIIAIIIIIIIIIIIIIIIIIIIIIIIIAIIIIIIIIIIIIIIIIIIAIIIIIIIIIIIAI
IIIIIIIIIIIIIIIIIIIIIIAIIIIIIIIIIIIIIIIIIIIIIIIIIIIIIIIIIIIIIIII
IIIIIIIIIIIIIIIIIIIIIIAIIIIIIIIIIIIIIIIIIIAIIIIIIIIIIIIIIIIIIIII
IIIIIIIIIIIIIIIIIIIIIIAIIIIIIIIIIIIIIIIIIIAAIIIIIIIIIIIIIIIIIIII
IIIIIIIIIIIIIIIIIIIIIIAIIIIIIIIIIIIIIIIIIIAAIIAIIIIIIIIIIIIIIIII
IIIIIIIIIIIIIIIIIIIIIIAIIIIIIIIIIIIIIIIIIIAAIIAIIIIAIIIIIIIIIIII
IIIIIIIIIIIIIIIIIIIIIIAIIIIIIIIIIIIIIIIIIIAAIIAIIIIAIIIIIIIIAIII
IIIIIIIIIIIIIIIIIIIIIIIIIIIIIIIIIIIIIIIIIIIIIIIIIIIIIIIIAIIIIIII
IIIIAIIIIIIIIIIIIIIIIIIIIIIIIIIIIIIIIIIIIIIIIIIIIIIIIIIIIIIIIIII
IIIIAIIAIIIIIIIIIIIIIIIIIIIIIIIIIIIIIIIIIIIIIIIIIIIIIIIIIIIIIIII
IIIIAIIAIIIIIIIIIIIIIIIIIIIIIAIIIIIIIIIIIIIIIIIIIIIIIIIIIIIIIIII
IIIIAIIAIIIIIIIIIIIIIIIIIIIIIAIIAIIIIIIIIIIIIIIIIIIIIIIIIIIIIIII
IIIIAIIAIIIIIIIIIIIIIIIIIIIIIAIIAIIIAIIIIIIIIIIIIIIIIIIIIIIIIIII
IIIIAIIAIIIIIIIIIIIIIIIIIIIIIAIIAIIIAIIIIAIIIIIIIIIIIIIIIIIIIIII
IIIIAIIAIIIIIIIIIIIIIIIIIIIIIAIIAIIIAIIIIAIIIIIIIIIIIIIIIIIIIIIA
IIIIIIIIIIIIIIIIIIIIIIIIIIIIIIIIIIIIAIIIIIIIIIIIIIIIIIIIIIIIIIII
IIIIIIIIIIIIIIIIIIIIIIIIIIIIIIIIAIIIIIIIIIIIIIIIIIIIIIIIIIIIIIII
IIIIIIIIAIIIIIIIIIIIIIIIIIIIIIIIIIIIIIIIIIIIIIIIIIIIIIIIIIIIIIII
IIIIIIIIAIIIIIIIIIIIIIIIIIIAIIIIIIIIIIIIIIIIIIIIIIIIIIIIIIIIIIII
IIIIIIIIAIIIIIIIIIIIIIIIIIIAIAIIIIIIIIIIIIIIIIIIIIIIIIIIIIIIIIII
IIIIIIIIAIIIIIIIIIIIIIIIIIIAIAIIIIIIIIAIIIIIIIIIIIIIIIIIIIIIIIII
IIIIIIIIAIIIIIIIIIIIIIIIIIIAIAIIIIIIIIAIIIIIIIIIIIIIIIIIAIIIIIII
IIIIIIIIAIIIIIIIIIIIIIIIIIIAIAIIIIIIIIAIIIIIIIIIIIIIIIIIAAIIIIII
IIIIIIIIAIIIIIIIIIIIIIIIIIIAIAIIIIIIIIAIIIIIIIIIIIIIIIIIAAIIIAII
IIIIIIIIAIIIIIIIIIIIIIIIIIIAIAIIIIIIIIAIIIIIIIIIIIIIIIIIAAIIIAAI
IIIIIIIIIIIIIIIIIIAIIIIIIIIIIIIIIIIIIIIIIIIIIIIIIIIIIIIIIIIIIIII
IIIIIIIIIIIIIIIIIIAIIIIIIIIIIIIIIIIIIIIIIIIIIIIIIIIIIIIIAIIIIIII
IIIIIIIIIIIIIIIIIA22IIIIIIIIIIIIIIIIIIIIIIIIIIIIIIIIIIIIIIIIIIII
IIIIIIIIIIIIIIIIIIIIIAIIIIIIIIIIIIIIIIIIIIIIIIIIIIIIIIIIIIIIIIII
IIIIIIIIIIIIIIIIIIIIIAIIIIIIIIIIIIIIIAIIIIIIIIIIIIIIIIIIIIIIIIII
IIIIIIIIIIIIIIIIIIIIIAIIIIIIIIIIIIIIIAIIIIAIIIIIIIIIIIIIIIIIIIII
IIIIIIIIIIIIIIIIIIIIIAIIIIIIIIIIIIIIIAIIIIAIIIIIIIIIIIAIIIIIIIII
IIIIIIIIIIIIIIIIIIIIIAIIIIIIIIIIIIIIIAIIIIAIIIIIIIIIIIAIIIIIIIAI
IIIIIIIIIIIIIIIIIIIIIIIIIIIIIIIIIIIIIIIIIIIIIIIIIIIIIIIIIIIIIIAI
IIIIIIIIIIIIIIIIIIIIIIIIIIIIIIIIIIIIAIIIIIIIIIIIIIIIIIIIIIIIIIII
IIIIIIIIIIIIIIIIIIIIAIIIIIIIIIIIIIIIIIIIIIIIIIIIIIIIIIIIIIIIIIII
IIIIIIIIIIIIIIIIIIIIAIIIIIIIIIIIIIIIIAIIIIIIIIIIIIIIIIIIIIIIIIII
IIIIIIIIIIIIIIIIIIIIAIIIIIIIIIIIIIIIIAAIIIIIIIIIIIIIIIIIIIIIIIII
IIIIIIIIIIIIIIIIIIIIAIIIIIIIIIIIIIIIIAAIIIIIIIIAIIIIIIIIIIIIIIII
IIIIIIIIIIIIIIIIIIIIAIIIIIIIIIIIIIIIIAAIIIIIIIIAIIIIIIIIAIIIIIII
AIIIIIIIIIIIIIIIIIIIIIIIIIIIIIIIIIIIIIIIIIIIIIIIIIIIIIIIIIIIIIII
AIIIIIIIIAIIIIIIIIIIIIIIIIIIIIIIIIIIIIIIIIIIIIIIIIIIIIIIIIIIIIII
AIIIIIIIIAIIIIIIIIIIIAIIIIIIIIIIIIIIIIIIIIIIIIIIIIIIIIIIIIIIIIII
AIIIIIIIIAIIIIIIIIIIIAIIIIIIIIIIIIIIIIIIIIIIIIIIIIIIIIAIIIIIIIII
AIIIIIIIIAIIIIIIIIIIIAIIIIIIIIIIIIIIIIIIIIIIIIIIIIIIIIAIIIIIIAII
AIIIIIIIIAIIIIIIIIIIIAIIIIIIIIIIIIIIIIIIIIIIIIIIIIIIIIAIIIIIIAAI
AIIIIIIIIAIIIIIIIIIIIAIIIIIIIIIIIIIIIIIIIIIIIIIIIIIIIIAIIIIIIAAA
IIIIIIIIIIIIIIIIIIIIIIIIIIIIIIIIIIIIIIIIIIIIIIIIIIIIIIIIIIIAIIII
IIIIIIIIIIIIIIIIIIIIIIIIIIIIIIIIIIIIIIIIIIIIIIIIIIIIIIAIIIIIIIII
IIIIAIIIIIIIIIIIIIIIIIIIIIIIIIIIIIIIIIIIIIIIIIIIIIIIIIIIIIIIIIII
IIIIAIIIIIIIIIIIIIIAIIIIIIIIIIIIIIIIIIIIIIIIIIIIIIIIIIIIIIIIIIII
IIIIAIIIIIIIIIIIIIIAIIIIIIIIIIIIIIIIAIIIIIIIIIIIIIIIIIIIIIIIIIII
IIIIAIIIIIIIIIIIIIIAIIIIIIIIIIIIIIIIAIIIIAIIIIIIIIIIIIIIIIIIIIII
IIIIAIIIIIIIIIIIIIIAIIIIIIIIIIIIIIIIAIIIIAAIIIIIIIIIIIIIIIIIIIII
IIIIAIIIIIIIIIIIIIIAIIIIIIIIIIIIIIIIAIIIIAAIIIIAIIIIIIIIIIIIIIII
IIIIAIIIIIIIIIIIIIIAIIIIIIIIIIIIIIIIAIIIIAAIIIIAIIIAIIIIIIIIIIII
IIIIAIIIIIIIIIIIIIIAIIIIIIIIIIIIIIIIAIIIIAAIIIIAIIIAIIIIIIIIIIAI
IIIIAIIIIIIIIIIIIIIAIIIIIIIIIIIIIIIIAIIIIAAIIIIAIIIAIIIIIIIIIIAA
IIIIIIIIIIIIIIIIIIA2IIIIIIIIIIIIIIIIIIIIIIIIIIIIIIIIIIIIIIIIIIII
IIIIIIIIIIIIIIIIIIA2IIIIIIIIIIIIIIIIIIIIIA2IIIIIIIIIIIIIIIIIIIII
IIIIIIIIIIIIIIIIIIIIIIIIIIIIIIIIIIIIIIIIIIIIIIIIIIIIIIIIIIIIIAII
IIIIIIIIIIIIIIIIIIIIIIIIIIIIIIIIIIIIIIIIIIIIIIIIIIIIIIIIIIIIIAAI
AIIIIIIIIIIIIIIIIIIIIIIIIIIIIIIIIIIIIIIIIIIIIIIIIIIIIIIIIIIIIIII
AIIIIIAIIIIIIIIIIIIIIIIIIIIIIIIIIIIIIIIIIIIIIIIIIIIIIIIIIIIIIIII
AIIIIIAAIIIIIIIIIIIIIIIIIIIIIIIIIIIIIIIIIIIIIIIIIIIIIIIIIIIIIIII
AIIIIIAAIIIIIIIIAIIIIIIIIIIIIIIIIIIIIIIIIIIIIIIIIIIIIIIIIIIIIIII
AIIIIIAAIAIIIIIIAIIIIIIIIIIIIIIIIIIIIIIIIIIIIIIIIIIIIIIIIIIIIIII
AIIIIIAAIAIIIIIIAIAIIIIIIIIIIIIIIIIIIIIIIIIIIIIIIIIIIIIIIIIIIIII
AIIIIIAAIAIIIIIIAIAAIIIIIIIIIIIIIIIIIIIIIIIIIIIIIIIIIIIIIIIIIIII
AIIIIIAAIAIIIIIIAIAAIAIIIIIIIIIIIIIIIIIIIIIIIIIIIIIIIIIIIIIIIIII
AIIIIIAAIAIIIIIIAIAAIAIIAIIIIIIIIIIIIIIIIIIIIIIIIIIIIIIIIIIIIIII
AIIIIIAAIAIIIIIIAIAAIAIIAIIAIIIIIIIIIIIIIIIIIIIIIIIIIIIIIIIIIIII
AIIIIIAAIAIIIIIIAIAAIAIIAIIAIAIIIIIIIIIIIIIIIIIIIIIIIIIIIIIIIIII
AIIIIIAAIAIIIIIIAIAAIAIIAIIAIAIIIIIIAIIIIIIIIIIIIIIIIIIIIIIIIIII
AIIIIIAAIAIIIIIIAIAAIAIIAIIAIAIAIIIIAIIIIIIIIIIIIIIIIIIIIIIIIIII
AIIIIIAAIAIIIIIIAIAAIAIIAIIAIAIAIIIIAIAIIIIIIIIIIIIIIIIIIIIIIIII
AIIIIIAAIAIIIIIIAIAAIAIIAIIAIAIAIIIIAIAIIIAIIIIIIIIIIIIIIIIIIIII
AIIIIIAAIAIIIIIIAIAAIAIIAIIAIAIAIIIIAIAIIIAIIAIIIIIIIIIIIIIIIIII
AIIIIIAAIAIIIIIIAIAAIAIIAIIAIAIAIIIIAIAIIIAIIAAIIIIIIIIIIIIIIIII
AIIIIIAAIAIIIIIIAIAAIAIIAIIAIAIAIIIIAIAIIIAIIAAIIIIIIIAIIIIIIIII
AIIIIIAAIAIIIIIIAIAAIAIIAIIAIAIAIIIIAIAIIIAIIAAIIIIIIIAIAIIIIIII
AIIIIIAAIAIIIIIIAIAAIAIIAIIAIAIAIIIIAIAIIIAIIAAIIIIIIIAIAAIIIIII
AIIIIIAAIAIIIIIIAIAAIAIIAIIAIAIAIIIIAIAIIIAIIAAIIIIIIIAIAAAIIIII
AIIIIIAAIAIIIIIIAIAAIAIIAIIAIAIAIIIIAIAIIIAIIAAIIIIIIIAIAAAIAIII
AIIIIIAAIAIIIIIIAIAAIAIIAIIAIAIAIIIIAIAIIIAIIAAIIIIIIIAIAAAIAAII
AIIIIIAAIAIIIIIIAIAAIAIIAIIAIAIAIIIIAIAIIIAIIAAIIIIIIIAIAAAIAAAI
IIIIIIIIIIIAII2IIIIII2IIIIIIIIIIIIIIIIIIIIIIIIIIIIIIIIIIIIIIIIII
IIIIIIIIIIIIIIIIIIAIIIIIIIIIIIIIIIIIIIIIIIIIIIIIIIIIIIIIIIIIIIII
IIIIIIIIIIIIIIIIIIAIAIIIIIIIIIIIIIIIIIIIIIIIIIIIIIIIIIIIIIIIIIII
IIIIIIIIIIIIIIIIIIAIAAIIIIIIIIIIIIIIIIIIIIIIIIIIIIIIIIIIIIIIIIII
IIIIIIIIIIIIIIIIIIAIAAIIIIIIIIIIIIIIAIIIIIIIIIIIIIIIIIIIIIIIIIII
IIIIIIIIIIIIIIIIIIAIAAIIIIIIIIIIIIIIAIIIIIIIIIIIIIIIIIIIAIIIIIII
IIIIIIIIIIIIIIIIIIAIAAIIIIIIIIIIIIIIAIIIIIIIIIIIIIIIIIIIAIIIIAII
IIIIIIIIIAIIIIIIIIIIIIIIIIIIIIIIIIIIIIIIIIIIIIIIIIIIIIIIIIIIIIII
IIIIIIIIIAIIIIIIIIIIIIIAIIIIIIIIIIIIIIIIIIIIIIIIIIIIIIIIIIIIIIII
IIIIIIIIIAIIIIIIIIIIIIIAIIIIIIIIIIIIIIIIIIIIIIIIIIIIIIIIIIIIIAII
IIIIIIIIIAIIIIIIIIIIIIIAIIIIIIIIIIIIIIIIIIIIIIIIIIIIIIIIIIIIIAAI
IIIIIIIIIAIIIIIIIIIIIIIIIIIIIIIIIIIIIIIIIIIIIIIIIIIIIIIIIIIIIIII
IIIIIIIIIAIIIIIIIIAIIIIIIIIIIIIIIIIIIIIIIIIIIIIIIIIIIIIIIIIIIIII
IIIIIIIIIAIIIIIIIIAIAIIIIIIIIIIIIIIIIIIIIIIIIIIIIIIIIIIIIIIIIIII
IIIIIIIIIAIIIIIIIIAIAIIIIIIIIIIIIIIIAIIIIIIIIIIIIIIIIIIIIIIIIIII
IIIIIIIIIAIIIIIIIIAIAIIIIIIIIIIIIIIIAIIIIIIAIIIIIIIIIIIIIIIIIIII
IIIIIIIIIAIIIIIIIIAIAIIIIIIIIIIIIIIIAIIIIIIAIIIIIIIIIIIIIIIIIAII
IIIIIIA2IIIIIIIIIIIIIIIIIIIIIIIIIIIIIIIIIIIIIIIIIIIIIIIIIIIIIIII
IIIIIIAA2IIIIIIIIIIIIIIIIIIIIIIIIIIIIIIIIIIIIIIIIIIIIIIIIIIIIIII
IIIIIIAA2IIIIA2IIIIIIIIIIIIIIIIIIIIIIIIIIIIIIIIIIIIIIIIIIIIIIIII
IIIIIIAA2IIIIA2IIIA2IIIIIIIIIIIIIIIIIIIIIIIIIIIIIIIIIIIIIIIIIIII
IIIIIIAA2IIIIA2IIIA2IIIIIIIIIIIIIIIIA2IIIIIIIIIIIIIIIIIIIIIIIIII
IIIIIIAA2IIIIA2IIIA2IIIIIIIIIIIIIIIIA2IIIIIIIIIIIIIIIIIIA2IIIIII
IIIIIIAA2IIIIA2IIIA2IIIIIIIIIIIIIIIIA2IIIIIIIIIIIIIIIIIIAA2IIIII
IIIIIIAA2IIIIA2IIIA2IIIIIIIIIIIIIIIIA2IIIIIIIIIIIIIIIIIIAA2IIA2I
IIIIIIIIIIIIIIIIIIIIIIIIIIIIIIIIIIIIIIIIIIIIIIIIIIIIIIIIIIIIIAII
IIIIIIIIIIIIIIIIIIIIIIIIIIIAIIIIIIIIIIIIIIIIIIIIIIIIIIIIIIIIIIII
IIIIIIIIIIIIIIIIIIIIIIIIIIIAIIIIIIIIIIIIIIIIIIIIIIIIIIIIIIIAIIII
IIIIIIIIIA2IIIIII2IIIIIIIIIIIIIIIIIIIIIIIIIIIIIIIIIIIIIIIIIIIIII
IIIIIIIIIAA2IIIII22IIIIIIIIIIIIIIIIIIIIIIIIIIIIIIIIIIIIIIIIIIIII
IIIIIIIIIAAA2IIII222IIIIIIIIIIIIIIIIIIIIIIIIIIIIIIIIIIIIIIIIIIII
IIIIIIIIIAAA2IIA2222III2IIIIIIIIIIIIIIIIIIIIIIIIIIIIIIIIIIIIIIII
IIIIIIIIIAAA2IIA22A2III2II2IIIIIIIIIIIIIIIIIIIIIIIIIIIIIIIIIIIII
IIIIIIIIIAAA2IIA22AA2II2II22IIIIIIIIIIIIIIIIIIIIIIIIIIIIIIIIIIII
IIIIIIIIIAAA2IIA22AA2II2A222IIII2IIIIIIIIIIIIIIIIIIIIIIIIIIIIIII
IIIIIIIIIAAA2IIA22AA2II2A222IA2I2IIII2IIIIIIIIIIIIIIIIIIIIIIIIII
IIIIIIIIIAAA2IIA22AA2II2A222IA2IA2III2II2IIIIIIIIIIIIIIIIIIIIIII
IIIIIIIIIAAA2IIA22AA2II2A222IA2IA2IIA2II2III2IIIIIIIIIIIIIIIIIII
IIIIIIIIIAAA2IIA22AA2II2A222IA2IA2IIAA2I2III22IIIIIIIIIIIIIIIIII
IIIIIIIIIAAA2IIA22AA2II2A222IA2IA2IIAA2I2III22IA2IIIIII2IIIIIIII
IIIIIIIIIAAA2IIA22AA2II2A222IA2IA2IIAA2I2III22IA2A2IIII2I2IIIIII
IIIIIIIIIAAA2IIA22AA2II2A222IA2IA2IIAA2I2III22IA2AA2III2I22IIIII
IIIIIIIIIAAA2IIA22AA2II2A222IA2IA2IIAA2I2III22IA2AA2III2A22IIIII
IIIIIIIIIAAA2IIA22AA2II2A222IA2IA2IIAA2I2III22IA2AA2III2A2A2IIII
IIIIIIIIIAAA2IIA22AA2II2A222IA2IA2IIAA2I2III22IA2AA2III2A2A2A2II
IIIIIIIIIAAA2IIA22AA2II2A222IA2IA2IIAA2I2III22IA2AA2III2A2A2A2A2
IIIIIIIIIAAA2IIA22AA2II2A222IA2IA2IIAA2I2III22IA2AA2III2A2A2A2AA
IIIIIIIIIIIIIIIIIIIIIA1III1III2III22IIIII2IIIIIIIIIIIIIIIIIIIIII
IIIIIIIIIIIIIIIIIIIIIA1IA11II12II222IIIII2IIIIIIIIIIIIIIIIIIIIII
IIIIIIIIIIIIIIIIIIIIIA1IA11IA12II222IIIII2IIIIIIIIIIIIIIIIIIIIII
IIIIIIIIIIIIIIIIIIIIIA1IA11IA12II222IIIII2IIIIIIIIIIIIA1III1III2
IIIIIIIIIIIIIIIIIIIIIA1IA11IA12II222IIIII2IIIIIIIIIIIIAA1II11II2
IIIIIIIIIIIIIIIIIIIIIA1IA11IA12II222IIIII2IIIIIIIIIIIIAA1II11A12
IIIIIIIIIIIIIIIIIIIIIA1IA11IA12II222IIIII2IIIIIIIIIIIIAA1II11AA1
IIIIAIIIIIIIIIIIIIIIIIIIIIIIIIIIIIIIIIIIIIIIIIIIIIIIIIIIIIIIIIII
IIIIAIIIIIIIIIIIIIIIIIIIIIIIIIIIIIIIIIIIIIIIIIIIIIIIIIIIIIIIIIAI
IIIIIIIIAIIIIIIIIIIIIIIIIIIIIIIIIIIIIIIIIIIIIIIIIIIIIIIIIIIIIIII
IIIIIIIIAIIIIIIIIIAIIIIIIIIIIIIIIIIIIIIIIIIIIIIIIIIIIIIIIIIIIIII
IIIIIIIIIIIIIIIIIIIIIIIIIIIIIIIIIIIIIIAIIIIIIIIIIIIIIIIIIIIIIIII
IIIIIIIIIIIIIIIIIIIIIIIIIIIIIIIIIIIIIIIIIIIIIIIIIIIIIIIIIIIIIAII
AIIIIIIIIIIIIIIIIIIIIIIIIIIIIIIIIIIIIIIIIIIIIIIIIIIIIIIIIIIIIIII
AIAIIIIIIIIIIIIIIIIIIIIIIIIIIIIIIIIIIIIIIIIIIIIIIIIIIIIIIIIIIIII
AIAIAIIIIIIIIIIIIIIIIIIIIIIIIIIIIIIIIIIIIIIIIIIIIIIIIIIIIIIIIIII
AIAIAIIIIIAIIIIIIIIIIIIIIIIIIIIIIIIIIIIIIIIIIIIIIIIIIIIIIIIIIIII
AIAIAIIIIIAIIIIIIIAIIIIIIIIIIIIIIIIIIIIIIIIIIIIIIIIIIIIIIIIIIIII
AIAIAIIIIIAIIIIIIIAAIIIIIIIIIIIIIIIIIIIIIIIIIIIIIIIIIIIIIIIIIIII
AIAIAIIIIIAIIIIIIIAAIIAIIIIIIIIIIIIIIIIIIIIIIIIIIIIIIIIIIIIIIIII
AIAIAIIIIIAIIIIIIIAAIIAIIAIIIIIIIIIIIIIIIIIIIIIIIIIIIIIIIIIIIIII
AIAIAIIIIIAIIIIIIIAAIIAIIAIIIAIIIIIIIIIIIIIIIIIIIIIIIIIIIIIIIIII
AIAIAIIIIIAIIIIIIIAAIIAIIAIIIAAIIIIIIIIIIIIIIIIIIIIIIIIIIIIIIIII
AIAIAIIIIIAIIIIIIIAAIIAIIAIIIAAIA22II22I2IIIIIIIIIIIIIIIIIIIIIII
AIAIAIIIIIAIIIIIIIAAIIAIIAIIIAAIA22IA22I222I2IIIIIIIIIIIIIIIIIII
AIAIAIIIIIAIIIIIIIAAIIAIIAIIIAAIA22IA2A222222I2IIIIIIIIIIIIIIIII
AIAIAIIIIIAIIIIIIIAAIIAIIAIIIAAIA22IA2A222A22I22IIIIIIIIIIIIIIII
AIAIAIIIIIAIIIIIIIAAIIAIIAIIIAAIA22IA2A222A2A222IIIIIIIIIIIIIIII
AIAIAIIIIIAIIIIIIIAAIIAIIAIIIAAIA22IA2A222A2A22A22II22I2IIIIIIII
AIAIAIIIIIAIIIIIIIAAIIAIIAIIIAAIA22IA2A222A2A22A22II22A22II22I2I
AIAIAIIIIIAIIIIIIIAAIIAIIAIIIAAIA22IA2A222A2A22A22II22A2A222222I
AIAIAIIIIIAIIIIIIIAAIIAIIAIIIAAIA22IA2A222A2A22A22II22A2AA222222
AIAIAIIIIIAIIIIIIIAAIIAIIAIIIAAIA22IA2A222A2A22A22II22A2AA22A222
AIAIAIIIIIAIIIIIIIAAIIAIIAIIIAAIA22IA2A222A2A22A22II22A2AA22AA22
AIAIAIIIIIAIIIIIIIAAIIAIIAIIIAAIA22IA2A222A2A22A22II22A2AA22AAA2
AIAIAIIIIIAIIIIIIIAAIIAIIAIIIAAIA22IA2A222A2A22A22II22A2AA22AAAA
IIIIIIIIIIIIIIIIIIAII1IIIII222IIIIII2IIIIIIIIIIIIIIIIIIIIIIIIIII
IIIIIIIIIIIIIIIIIIAII1IIIII222IIIIII2IIIIIIIIIIIIIIAII1IIIII222I
IIIIIIIIIIIIIIIIIIAII1IIIII222IIIIIIAII1IIIII22IIIIAII1IIIII222I
IIIIIIIIIIIIIIIIIIAII1IIIII222IIIIIIAII1IIIII22IIIIAII1IAII1222I
IIIIIIIIIIIIIIIIIIAII1IIIII222IIIIIIAII1IIIII22IIIIAII1IAII1222A
IIIIIIIIIIIIIAIIIIIIIIIIIIIIIIIIIIIIIIIIIIIIIIIIIIIIIIIIIIIIIIII
IIIIIIIIIIIIIAIIIIIAIIIIIIIIIIIIIIIIIIIIIIIIIIIIIIIIIIIIIIIIIIII
IIIIIIIIIIIIIAIIIIIAIIIIIIIAIIIIIIIIIIIIIIIIIIIIIIIIIIIIIIIIIIII
IIIIIIIIIIIIIAIIIIIAIIIIIIIAIIIIIIIIIIIIAIIIIIIIIIIIIIIIIIIIIIII
IIIIIIIIIIIIIAIIIIIAIIIIIIIAIIIIIIIIIIIIAIIIIIIIAIIIIIIIIIIIIIII
IIIIIIIIIIIIIAIIIIIAIIIIIIIAIIIIIIIIIIIIAIIIIIIIAIIIIIIIIAIIIIII
IIIIIIIIIIIIIAIIIIIAIIIIIIIAIIIIIIIIIIIIAIIIIIIIAIIIIIIIIAIIIAII
IIIIIIIIIIIIIAIIIIIAIIIIIIIAIIIIIIIIIIIIAIIIIIIIAIIIIIIIIAIIIAAI
IIIIIIIIIAIIIIIIIIIIIIIIIIIIIIIIIIIIIIIIIIIIIIIIIIIIIIIIIIIIIIII
IIIIIIIIIAIIIIIIIIIIIIAIIIIIIIIIIIIIIIIIIIIIIIIIIIIIIIIIIIIIIIII
IIIIIIIIIAIIIIIIIIIIIIAIIIIIIIIIIIIIIIIIIIIIIIIIIIIIIIIIIIIIIIAI
IIIIIIIIIIIIIIIIIIAIIIIIIIIIIIIIIIIIIIIIIIIIIIIIIIIIIIIIIIIIIIII
IIIIIIIIIIIIIIIIIIAIIIIIIIIIIIIIIIIIIIIIIIIIIIIIIIIIIIIIAIIIIIII
IIIIIIIIIIIIIIIIIIAIIIIIIIIIIIIIIIIIIIIIIIIIIIIIIIIIIIIIAIAIIIII
IIIIIIIIIIAIIIIIIIIIIIIIIIIIIIIIIIIIIIIIIIIIIIIIIIIIIIIIIIIIIIII
IIIIIIIIIIIIIIIIIIIIIIIIIIIIIIIIIIIIA2IIIIIIIIIIIIIIIIIIIIIIIIII
IIIIIIIIAIIIIIIIIIIIIIIIIIIIIIIIIIIIIIIIIIIIIIIIIIIIIIIIIIIIIIII
IIIIIIIIAIIIIIIIIIIIIIIIIIIIIIIIIIIIIIIAIIIIIIIIIIIIIIIIIIIIIIII
IIIIIIIIIIIIIIIIIIIIIIIIIIIIIIIIAIIIIIIIIIIIIIIIIIIIIIIIIIIIIIII
IIIIIIIIIIIIIIIIIIIIIIIIIIIIIIIIIIAIIIIIIIIIIIIIIIIIIIIIIIIIIIII
IIIIIIIIIIIIIIIIIIIIIIIIIIIIIIIIIIAIAIIIIIIIIIIIIIIIIIIIIIIIIIII
IIIIIIIIIIIIIIIIIIIIIIIIIIIIIIIIIIIIIIIIIIIIIIIIAIIIIIIIIIIIIIII
IIIIIIAIIIIIIIIIIIIIIIIIIIIIIIIIIIIIIIIIIIIIIIIIIIIIIIIIIIIIIIII
IIIIIIAIIIIIIIIIIIIIIIIIIIIIIIIIIIAIIIIIIIIIIIIIIIIIIIIIIIIIIIII
IIIIIIAIIIIIIIIIIIIIIIIIIIIIIIIIIIAIAIIIIIIIIIIIIIIIIIIIIIIIIIII
IIIIIIAIIIIIIIIIIIIIIIIIIIIIIIIIIIAIAAIIIIIIIIIIIIIIIIIIIIIIIIII
IIIIIIAIIIIIIIIIIIIIIIIIIIIIIIIIIIAIAAIIIIAIIIIIIIIIIIIIIIIIIIII
IIIIIIAIIIIIIIIIIIIIIIIIIIIIIIIIIIAIAAIIIIAIIIIIIIIIIIIIIIIIIIAI
IIIIIIIIIIIIIIIIIIIIIIIIIIIIIIIIIIIIIIIIIIIIIIIIIIIIIIIIIIIIIIIA
IIIIIIIIIIIIIIIIIIIIIIIIIIIIIIIIIIIIIIIIIIIIIIIIIIAIIIIIIIIIIIII
IIIIIIIIIAIIIIIIIIIIIIIIIIIIIIIIIIIIIIIIIIIIIIIIIIIIIIIIIIIIIIII
IIIIIIIIIAIIIIIIIIIIIAIIIIIIIIIIIIIIIIIIIIIIIIIIIIIIIIIIIIIIIIII
IIIIIIIIIIIIIIIIIIIIIIIIIIIIIIIIIIIIIIIIIIIIIIIIIIIIIIIIIIIIAIII
IIIIIIIIIIIIIIIIIIIIIIIIIIIIIIIIIIIIAIIIIIIIIIIIIIIIIIIIIIIIAIII
IIIIIIIIIIIIIIIIIIIIIIIIIIIIIIIIIIIIAIIIIIIIIIIIIIIIIIAIIIIIAIII
IIIIIIIIIAIIIIIIIIIIIIIIIIIIIIIIIIIIIIIIIIIIIIIIIIIIIIIIIIIIIIII
IIIIIIAIIAIIIIIIIIIIIIIIIIIIIIIIIIIIIIIIIIIIIIIIIIIIIIIIIIIIIIII
IIIIIIIIIIIIIIIIIIIIIIIIIIIIIIIIIIIIIIIIIIIIIIIIIIIIIIIIIAIIIIII
IIIIIIIIIIIIIIIIIIIIIIIIIIIIIIIIIIIIIIIIIIIIIIIIIIIIIIIIIAAIIIII
IIIIIIAIIIIIIIIIIIIIIIIIIIIIIIIIIIIIIIIIIIIIIIIIIIIIIIIIIIIIIIII
IIIIIIAIIIIIIIIIIIAIIIIIIIIIIIIIIIIIIIIIIIIIIIIIIIIIIIIIIIIIIIII
IIIIIIAIIIIIIIIIIIAIAIIIIIIIIIIIIIIIIIIIIIIIIIIIIIIIIIIIIIIIIIII
IIIIIIAIIIIIIIIIIIAIAIIIIIIIIIIIIIIIAIIIIIIIIIIIIIIIIIIIIIIIIIII
IIIIIIAIIIIIIIIIIIAIAIIIIIIIIIIIIIIIAIIIIIIIIIIIIIIIIIIAIIIIIIII
IIIIIIIIIIIAIIIIIIIIIIIIIIIIIIIIIIIIIIIIIIIIIIIIIIIIIIIIIIIIIIII
IIIIIIIIIIIAIIIIIIAIIIIIIIIIIIIIIIIIIIIIIIIIIIIIIIIIIIIIIIIIIIII
IIIIIIIIIIIAIIIIIIAIIIIIIIIIIIIIIIIIIIIIIIIIIIIIIIIIIIIIIIIIIAII
IIIIIIIIIIIIIIIIIIIIIIIIIIIIIIIIIIIIIIIIIIIIIIIIIIIIIIIAIIIIIIII
IIIIIIIIIIIIIIIIIIIIIIIIAIIIIIIIIIIIIIIIIIIIIIIIIIIIIIIIIIIIIIII
IIIIIIIIIIIIIIIIIIIIIIIIAIIIIIIIIIIIIIIIIIIIIIIIIIIIIIIIIIIIIIAI
IIIIIIIIIIIIIIIAIIIIIIIIIIIIIIIIIIIIIIIIIIIIIIIIIIIIIIIIIIIIIIII
IIIIIIIIIIIIIIIAIIAIIIIIIIIIIIIIIIIIIIIIIIIIIIIIIIIIIIIIIIIIIIII
IIIIIIIIIIIIIIIAIIAIIIIIIIIIIIIIIIIIIIIIIAIIIIIIIIIIIIIIIIIIIIII
IIIIIIIIIIIIIIIAIIAIIIIIIIIIIIIIIIIIIIIIIAIIIIIIIIIIIIIIIAIIIIII
IIIIIIIIIIIIIIIIIIIIIIIIIIIIIIIIIIIIIIIIIIIIIIIIIIIAIIIIIIIIIIII
IIIIIIIIIIIIIIIIIIIIIIIIIIIIIIIIIIIIAIIIIIIIIIIIIIIIIIIIIIIIIIII
IIIIIIIIIIIIIIIIIIIAIIIIIIIIIIIIIIIIAIIIIIIIIIIIIIIIIIIIIIIIIIII
IIIIIIIIIIIIIIIIIIIAIIIIIIIIIIIIIIIIAIIIIIIIIIIIIIIIAIIIIIIIIIII
IIIIIIIIIIIIIIIIIIIAIIIIIIIIIIIIIIIIAIIIIIIIIIIIIIIIAIIIIIIIIIIA
IIIIIIIIIIIIIIIIIIIIIIIIIIIIIIIIIIIIIIIIIIIIIIIIIIIAIIIIIIIIIIII
IIIIIIAIIIIIIIIIIIIIIIIIIIIIIIIIIIIIIIIIIIIIIIIIIIIAIIIIIIIIIIII
IIIIIIIIIIIIIIIIIAIIIIIIIIIIIIIIIIIIIIIIIIIIIIIIIIIIIIIIIIIIIIII
IIIIIIIIIIIIIIIIIIIIIIIIIIIIIIAIIIIIIIIIIIIIIIIIIIIIIIIIIIIIIIII
IIIIIIIIIIIIIIIIIIIIIIIIIIIIIIIIIIIIIIIIIIAIIIIIIIIIIIIIIIIIIIII
IIIIIIIIIIIIIIIIIIIIIIIIIIIIIIIIIIIIIIIIIIAIIIIIIIIIIIIIIIIIIAII
IIIIIIIIIIIIIIIIIIAIIIIIIIIIIIIIIIIIIIIIIIIIIIIIIIIIIIIIIIIIIIII
IIIIIIIIIIIIIIIIIIIIAIIIIIIIIIIIIIIIIIIIIIIIIIIIIIIIIIIIIIIIIIII
IIIIIIIIIIIIIIIIIIIIIIIIIIIIIIIIIIIIA2IIIIIIIIIIIIIIIIIIIIIIIIII
IIIIIIIIIIIIIIIIAIIIIIIIIIIIIIIIIIIIIIIIIIIIIIIIIIIIIIIIIIIIIIII
IIIIIIIIIIIIIIIIAIIIIIIIIAIIIIIIIIIIIIIIIIIIIIIIIIIIIIIIIIIIIIII
IIIIIIIIIIIIIIIIIIIIIIIIIIIIAIIIIIIIIIIIIIIIIIIIIIIIIIIIIIIIIIII
IIIIIIIIAIIIIIIIIIIIIIIIIIIIIIIIIIIIIIIIIIIIIIIIIIIIIIIIIIIIIIII
IIIIIIIIAIIIIIIIIIIIIIIIIIIIIIIIAIIIIIIIIIIIIIIIIIIIIIIIIIIIIIII
IIIIIIIIAIIIIIIIIIIIIIIIIIIIIIIIAIIIIAIIIIIIIIIIIIIIIIIIIIIIIIII
IIIIIIIIAIIIIIIIIIIIIIIIIIIIIIIIAIIIIAIIIIIIIIIIIIIIIIAIIIIIIIII
IIIIIIIIIIIIIIIIIAIIIIIIIIIIIIIIIIIIIIIIIIIIIIIIIIIIIIIIIIIIIIII
IIIIIIIIIIIIIIIIIAIAIIIIIIIIIIIIIIIIIIIIIIIIIIIIIIIIIIIIIIIIIIII
IIIIIAIIIIIIIIIIIIIIIIIIIIIIIIIIIIIIIIIIIIIIIIIIIIIIIIIIIIIIIIII
IIIIIAIIIIIIIIIIIAIIIIIIIIIIIIIIIIIIIIIIIIIIIIIIIIIIIIIIIIIIIIII
IIIIIAIIIIIIIIIIIAIIIIIIIIIIIIIIAIIIIIIIIIIIIIIIIIIIIIIIIIIIIIII
IIIIIAIIIIIIIIIIIAIIIIIIIIIIIIIIAIIIIIIIIIIIIIIIIIIIIIIIIIIIAIII
IIIIIAIIIIIIIIIIIAIIIIIIIIIIIIIIAIIIIIIIIIIIIIIIIIIIIIIIIIIIAIAI
IIIIIIIIIIIIIIIIIIIIIIIIIIIIIIIIIIIIIIIIIIIIIIIIIIIIIIIIIIIIIIAI
IIIIIIIIIIIIIIIIIIAIIIIIIIIIIIIIIIIIIIIIIIIIIIIIIIIIIIIIIIIIIIII
IIIIIIIIIIIIIIIIIIAIAIIIIIIIIIIIIIIIIIIIIIIIIIIIIIIIIIIIIIIIIIII
IIIIIIIIIIIIIIIIIIAIAIIIIIIIIAIIIIIIIIIIIIIIIIIIIIIIIIIIIIIIIIII
IIIIIIIIIIIIIIIIIIAIAIIIIIIIIAIIAIIIIIIIIIIIIIIIIIIIIIIIIIIIIIII
IIIIIIIIIIIIIIIIIIAIAIIIIIIIIAIIAIIIAIIIIIIIIIIIIIIIIIIIIIIIIIII
IIIIIIIIIIIIIIIIIIAIAIIIIIIIIAIIAIIIAIIIIAIIIIIIIIIIIIIIIIIIIIII
IIIIIIIIIIIIIIIIIIAIAIIIIIIIIAIIAIIIAIIIIAAIIIIIIIIIIIIIIIIIIIII
IIIIIIIIIIIIIIIIIIAIAIIIIIIIIAIIAIIIAIIIIAAIIIIIIAIIIIIIIIIIIIII
IIIIIIIIIIIIIIIIIIAIAIIIIIIIIAIIAIIIAIIIIAAIIIIIIAIIIIAIIIIIIIII
IIIIIIIIIIIIIIIIIIAIAIIIIIIIIAIIAIIIAIIIIAAIIIIIIAIIIIAIIIIIIAII
IIIIIIIIIIIIIIIIIIAIAIIIIIIIIAIIAIIIAIIIIAAIIIIIIAIIIIAIIIIIIAAI
IIIIIIIIIIIIIIIIIIAIAIIIIIIIIAIIAIIIAIIIIAAIIIIIIAIIIIAIIIIIIAAA
IIIIIIIIIIIIIIIIIIIIIIIIIIIIIIIIIIIIAIIIIIIIIIIIIIIIIIIIIIIIIIII
IIIIIIIIIIIIIIIIIIIIIIIIIIAIIIIIIIIIAIIIIIIIIIIIIIIIIIIIIIIIIIII
IIIIAIIIIIIIIIIIIIIIIIIIIIAIIIIIIIIIAIIIIIIIIIIIIIIIIIIIIIIIIIII
IIIIAAIIIIIIIIIIIIIIIIIIIIAIIIIIIIIIAIIIIIIIIIIIIIIIIIIIIIIIIIII
IIIIAAIIIIIIIIIIIIIAIIIIIIAIIIIIIIIIAIIIIIIIIIIIIIIIIIIIIIIIIIII
IIIIAAIIIIIIIIIIIIIAIIIIIIAIIIIIIIIIAIAIIIIIIIIIIIIIIIIIIIIIIIII
IIIIAAIIIIIIIIIIIIIAIIIIIIAIIIIIIIIIAIAIIIIIIIIIIIIIIIIAIIIIIIII
IIIIAAIIIIIIIIIIIIIAIIIIIIAIIIIIIIIIAIAIIIIIIIIIIIIIIIIAAIIIIIII
IIIIAAIIIIIIIIIIIIIAIIIIIIAIIIIIIIIIAIAIIIIIIIIIIIIIIIIAAIIIIIIA
IIIIIIIIIIIIIIIIIIIIIIIIIIIIIIIIIIIIAIIIIIIIIIIIIIIIIIIIIIIIIIII
IIIIIIIIIIIIIIIIIIIIIIIIIIIIIIIIIIIIAIIIIIIIIIIIIIIIIIIIIIIAIIII
IIIIIIIIIIIIIIIIIIIIIIIIIIIIIIIIIIIIAIIIIIIIIIIIIIIIIIIIIIIAIAII
AIIIIIIIIIIIIIIIIIIIIIIIIIIIIIIIIIIIIIIIIIIIIIIIIIIIIIIIIIIIIIII
IIIIIIIIIIIIIIIIIIAIIIIIIIIIIIIIIIIIIIIIIIIIIIIIIIIIIIIIIIIIIIII
IIIIIIIIIIIIIIIIIIAIAIIIIIIIIIIIIIIIIIIIIIIIIIIIIIIIIIIIIIIIIIII
IIIIAIIIIIIIIIIIIIIIIIIIIIIIIIIIIIIIIIIIIIIIIIIIIIIIIIIIIIIIIIII
IIIIAIIIIIIIIIIIIIIIIIIIIIIIIIIIIIIIIIIIIIIIIIIIIIIIIIIIIIIIIIAI
IIIIIIIIIIAIIIIIIIIIIIIIIIIIIIIIIIIIIIIIIIIIIIIIIIIIIIIIIIIIIIII
IIIIIIIIIIAIIIIIIIIIIIIIIIIIIIIIIIIIIIIIIIIIIIIIIIIIIIIIIIIIIIAI
IIIIIIIIIAIIIIIIIIIIIIIIIIIIIIIIIIIIIIIIIIIIIIIIIIIIIIIIIIIIIIII
IIIIIIIIIIIIIIIIAIIIIIIIIIIIIIIIIIIIIIIIIIIIIIIIIIIIIIIIIIIIIIII
IIIIIIIIIIIIIIIIAIIIIIIIIIIAIIIIIIIIIIIIIIIIIIIIIIIIIIIIIIIIIIII
IIIIIIIIIIIIIIIIAIIIIIIIIIIAIAIIIIIIIIIIIIIIIIIIIIIIIIIIIIIIIIII
IIIIIIIIIIIIIIIIAIIIIIIIIIIAIAIIAIIIIIIIIIIIIIIIIIIIIIIIIIIIIIII
IIIIIIIIIIIIIIIIAIIIIIIIIIIAIAIIAIIIIIIIIAIIIIIIIIIIIIIIIIIIIIII
IIIIIIIIIIIIIIIIAIIIIIIIIIIAIAIIAIIIIIIIIAAIIIIIIIIIIIIIIIIIIIII
IIIIIIIIIIIIIIIIAIIIIIIIIIIAIAIIAIIIIIIIIAAIIIIIAIIIIIIIIIIIIIII
IIIIIIIIIIIIIIIIAIIIIIIIIIIAIAIIAIIIIIIIIAAIIIIIAIIIIIIIAIIIIIII
IIIIIIIIIA2IIIIIIIIIIIIIIIIIIIIIIIIIIIIIIIIIIIIIIIIIIIIIIIIIIIII
IIIIIIIIIA2IIIIIA2IIIIIIIIIIIIIIIIIIIIIIIIIIIIIIIIIIIIIIIIIIIIII
IIIIIIIIIA2IIIIIA2A2IIIIIIIIIIIIIIIIIIIIIIIIIIIIIIIIIIIIIIIIIIII
IIIIIIIIIA2IIIIIA2A2IA2IIIIIIIIIIIIIIIIIIIIIIIIIIIIIIIIIIIIIIIII
IIIIIIIIIA2IIIIIA2A2IAA2IIIIIIIIIIIIIIIIIIIIIIIIIIIIIIIIIIIIIIII
IIIIIIIIIA2IIIIIA2A2IAA2IIIIIIIIIIIIA2IIIIIIIIIIIIIIIIIIIIIIIIII
IIIIIIIIIA2IIIIIA2A2IAA2IIIIIIIIIIIIA2IIIIIIIIIIIIIA2IIIIIIIIIII
IIIIIIIIIA2IIIIIA2A2IAA2IIIIIIIIIIIIA2IIIIIIIIIIIIIA2IIIIIIA2III
IIIIIIIIIAIIIIIIIIIIIIIIIIIIIIIIIIIIIIIIIIIIIIIIIIIIIIIIIIIIIIII
IIIIIIIIIAIIIIIIIIIIIIIIIIIIIIIIIIIIAIIIIIIIIIIIIIIIIIIIIIIIIIII
IIIIIIIIIAIIIIIIIIIIIIIIIIIIIIIIIIIIAIIIIIIIIIIIIIIIIIIIIIIIIIIA
IIIIIIIIIIIIIIIIIIIIIIIIIIIIIIIIIIIIIIIIIIIIIIIIIIIIIIIIIIIIIAII
IIIIIIIIIIIIIIIIIIAIIIIIIIIIIIIIIIIIIIIIIIIIIIIIIIIIIIIIIIIIIIII
IIIIIIIIIIIIIIIIIIIIIAIIIIIIIIIIIIIIIIIIIIIIIIIIIIIIIIIIIIIIIIII
IIIIIIIIIIIIIIIIIIIIIAIIIIIIIIIIIIIIIIAIIIIIIIIIIIIIIIIIIIIIIIII
IIIIIIIIIIIIIIIIIIIIIAIIIIIIIIIIIIIIIIAIIIIIIIIIIIIAIIIIIIIIIIII
IIIIIIIIIIIIIIIIIIIIIIIIIIIIIIIIIIIIAIIIIIIIIIIIIIIIIIIIIIIIIIII
IIIIIIIIIIIIIIIIIIIIIIIIIIIIIIIIIIIIAIAIIIIIIIIIIIIIIIIIIIIIIIII
IIIIIIIIIIIIIIIIIIIIIIIIIIIIIIIIIIIIAIAIIIIIIIIIIIIIIIIIAIIIIIII
IIIIIIIAIIIIIIIIIIIIIIIIIIIIIIIIIIIIIIIIIIIIIIIIIIIIIIIIIIIIIIII
IIIIIIIAIIIIIIIIIIIIIIIIIIIIIIIIAIIIIIIIIIIIIIIIIIIIIIIIIIIIIIII
IIIIIIIAIIIIIIIIIIIIIIIIIIIIIIIIAIIIAIIIIIIIIIIIIIIIIIIIIIIIIIII
IIIIAIIIIIIIIIIIIIIIIIIIIIIIIIIIIIIIIIIIIIIIIIIIIIIIIIIIIIIIIIII
IIIIIIIIIIIIIIA22IIIIIIIIIIIIIIIIIIIIIIIIIIIIIIIIIIIIIIIIIIIIIII
IIIIIIIIIIIIIIA22IIIA22IIIIIIIIIIIIIIIIIIIIIIIIIIIIIIIIIIIIIIIII
IIIIIIIIIIIIIIA22IIIA22IIIA22IIIIIIIIIIIIIIIIIIIIIIIIIIIIIIIIIII
IIIIIIIIIIIIIIA22IIIA22IIIA22IIIIIIIIIIIIIIIIIIA22IIIIIIIIIIIIII
IIIIIIIIIIIIIIA22IIIA22IIIA22IIIIIIIIIIIIIIIIIIA22IIIIIIIIIIIA22
IIIIIIIIIIIIIIIIIIIAIIIIIIIIIIIIIIIIIIIIIIIIIIIIIIIIIIIIIIIIIIII
IIIIIIIIIIIIIIIIIIIAIIIIIIIIIIIIAIIIIIIIIIIIIIIIIIIIIIIIIIIIIIII
IIIIIIIIIIIIIIIIIIIAIIIIIIIIIIIIAIIIAIIIIIIIIIIIIIIIIIIIIIIIIIII
IIIIIIIIIIIIIIIIIIIAIIIIIIIIIIIIAIIIAIIIIIIAIIIIIIIIIIIIIIIIIIII
IIIIIIIIIIIIIIIIIIIAIIIIIIIIIIIIAIIIAIIIIIIAIIIIIIIIIIIIIIIIIIAI
IIIIIIAII2IIIIIIIIIIIIIIIIIIIIIIIIIIIIIIIIIIIIIIIIIIIIIIIIIIIIII
IIIIIIAII2IIIIIIIIAII2IIIIIIIIIIIIIIIIIIIIIIIIIIIIIIIIIIIIIIIIII
IIIIIIAII2IIIIIIIIAII2IIIIIAII2IIIIIIIIIIIIIIIIIIIIIIIIIIIIIIIII
IIIIIIAII2IIIIIIIIAII2IIIIIAII2IIIIIAII2IIIIIIIIIIIIIIIIIIIIIIII
IIIIIIAII2IIIIIIIIAII2IIIIIAII2IIIIIAII2IIIIIIIIIIIIIIAII2IIIIII
IIIIIIAII2IIIIIIIIAII2IIIIIAII2IIIIIAII2IIIIIIIIIIIIIIAII2IIIIAI
IIIIIIIIIIIIIIIIIIIAIIIIIIIIIIIIIIIIIIIIIIIIIIIIIIIIIIIIIIIIIIII
AIIIIIIIIIIIIIIIIIIIIIIIIIIIIIIIIIIIIIIIIIIIIIIIIIIIIIIIIIIIIIII
IIIIIIIIIIIIIIIIIIIIIIIIIIIIIIIIIIIIIIIIIIIIIIIIAIIIIIIIIIIIIIII
IIIIIIIIIAIIIIIIIIIIIIIIIIIIIIIIIIIIIIIIIIIIIIIIIIIIIIIIIIIIIIII
IIIIIIIIIAAIIIIIIIIIIIIIIIIIIIIIIIIIIIIIIIIIIIIIIIIIIIIIIIIIIIII
IIIIIIIIIAAIIIIIIIAIIIIIIIIIIIIIIIIIIIIIIIIIIIIIIIIIIIIIIIIIIIII
IIIIIIIIIAAIIIIIIIAAIIIIIIIIIIIIIIIIIIIIIIIIIIIIIIIIIIIIIIIIIIII
IIIIIIIIIAAIIIIIIIAAIIIIIIIIIIIIIIIIAIIIIIIIIIIIIIIIIIIIIIIIIIII
IIIIIIIIIAAIIIIIIIAAIIIIIIIIIIIIIIIIAIIIIIIIIIIIIAIIIIIIIIIIIIII
IIIIIIIIIAAIIIIIIIAAIIIIIIIIIIIIIIIIAIIIIIIIIIIIIAIIIIIIIIIIIAII
IIIIIIIIIAAIIIIIIIAAIIIIIIIIIIIIIIIIAIIIIIIIIIIIIAIIIIIIIIIIIAAI
IIIIIIAIIIIIIIIIIIIIIIIIIIIIIIIIIIIIIIIIIIIIIIIIIIIIIIIIIIIIIIII
IIIIIIAIIIIIIIIIIIIIIIIIIIIIIIIIIIIIIIIIIIIIIIIIIIAIIIIIIIIIIIII
IIIIIIAIIIIIIIIIIIIIIIIIIIIIIIIIIIIIIIIIIIIIIIIIIIAIIIIIIIIIAIII
AIIIIIIIIIIIIIIIIIIIIIIIIIIIIIIIIIIIIIIIIIIIIIIIIIIIIIIIIIIIIIII
AIIIIIIIIIIIIIIIIIIIIIIIIIIIIIIIIIIIIIAIIIIIIIIIIIIIIIIIIIIIIIII
IIIIIIIIIIIIIIIIIIIIIIIIIIIIIIIIIIIIIIAIIIIIIIIIIIIIIIIIIIIIIIII
IIIIIIIIIIIAIIIIIIIIIIIIIIIIIIIIIIIIIIAIIIIIIIIIIIIIIIIIIIIIIIII
IIIIIIIIIIIAIIIIIIIIIIIIIIIIIIIIIIIIIIAIIIIIIIIIIIIIIIIIIIIIAIII
IIIIIIIIIIIIIIIIIIIIIIIIIIIIIIIIIIIIIIIIIIIIIIIIIIIIIIIIIIIIIIAI
IIIIIIIIIIIIIAIIIIIIIIIIIIIIIIIIIIIIIIIIIIIIIIIIIIIIIIIIIIIIIIII
IIIIIIIIIIIIIIIIIIIIIIIIIIIIIIIIIIIIAIIIIIIIIIIIIIIIIIIIIIIIIIII
IIIIIAIIIIIIIIIIIIIIIIIIIIIIIIIIIIIIIIIIIIIIIIIIIIIIIIIIIIIIIIII
IIIIIAIIIIIIIIIIIIIIIIIIIIIIIIIIIIIIAIIIIIIIIIIIIIIIIIIIIIIIIIII
IIIII222111111111AIIIIIIIIIIIIIIIIIIIIIIIIIIIIIIIIIIIIIIIIIIIIII
IIIII222111111111AIIIIIIIIIIII11111111AIIIIIIIIIIIIIIIIIIIIIIIII
IIIII222111111111AIIIIIIIIIIII11111111AIIIIIIIIIIIIIIIIIIIIIIAII
IIIIIIIIIIIIIIIIIIIAIIIIIIIIIIIIIIIIIIIIIIIIIIIIIIIIIIIIIIIIIIII
IIIIIIIIIIIIIIIIIIIAIIIIIIIIIIIIIIIIIIIIIIIIIA2IIIIIIIIIIIIIIIII
IIIIIIIIIIIIIIIIIIIIIIIIIIIIIIIIIIIIIIIIIIAIIIIIIIIIIIIIIIIIIIII
IIIIIIIIIIIIIIIIIIAIIIIIIIIIIIIIIIIIIIIIIIIIIIIIIIIIIIIIIIIIIIII
IIIIIIIIIIIIIIIIIIAAIIIIIIIIIIIIIIIIIIIIIIIIIIIIIIIIIIIIIIIIIIII
IIIIIIIIIIIIIIIIIIAAAIIIIIIIIIIIIIIIIIIIIIIIIIIIIIIIIIIIIIIIIIII
IIIIIIIIIIIIIIIIIIAAAIIIIIIIIIIIIIIIIIIIIIIIIIIIIIIIIIIIIIIIIIIA
IIIIIIIIIIIIIIIIIIIIAIIIIIIIIIIIIIIIIIIIIIIIIIIIIIIIIIIIIIIIIIII
IIIIIIIIIIIIIIIIIIIIAIIIIIIIIIIIIIIIAIIIIIIIIIIIIIIIIIIIIIIIIIII
IIIIIIIIIIIIIIIIIIIIIIIIIIIIIIIIIIIIIIIIIIIIIIIIIIIIIIIIIAIIIIII
IIIIIIIIIIIIIIIIIIIIIIIIIIIIIIIIIIIIAIIIIIIIIIIIIIIIIIIIIIIIIIII
IIIIIIIIIIIIIIIIIIIIIIAIIIIIIIIIIIIIAIIIIIIIIIIIIIIIIIIIIIIIIIII
IIIIIIIAIIIIIIIIIIIIIIAIIIIIIIIIIIIIAIIIIIIIIIIIIIIIIIIIIIIIIIII
IIIIIIIAIIIIIIIAIIIIIIAIIIIIIIIIIIIIAIIIIIIIIIIIIIIIIIIIIIIIIIII
IIIIIIIAIIIIIIIAIIIIIIAIIIIIIIIIIIIIAIIIIIIIIIIIIIIIIIIIIIIIIIAI
IIIIIIIIIIIIIIIIIIIIIIIIIIIIIIIIIIIIIIIIIIIIIIIIAIIIIIIIIIIIIIII
IIIIIIIIIIIIIIIIIIIIIIIIIIIIIIIIIIIIIIIIIIIIIIIIAIIIIIIIIIIIIAII
IIIIIIIIIIIIIIIIIIIIIIIIIIIIIIIIIIIIIIIIIIIIIIIIIIIIIIIIIIIIIIAI
IIIIIIAIIIIIIIIIIIIIIIIIIIIIIIIIIIIIIIIIIIIIIIIIIIIIIIIIIIIIIIII
IIIIIII22221111111111AIIIIIIIIIIIIIIIIIIIIIIIIIIIIIIIIIIIIIIIIII
IIIIIII22221111111111AIIIIIIIIIIIIIIIIIIIIAIIIIIIIIIIIIIIIIIIIII
IIIIIIIIIIIIIIIIAIIIIIIIIIIIIIIIIIIIIIIIIIIIIIIIIIIIIIIIIIIIIIII
IIIIIIIIIIIIIIIIAIIIIIIIIIIIIIIIIIIIAIIIIIIIIIIIIIIIIIIIIIIIIIII
IIIIIIIIIIIIIIIIIIIAIIIIIIIIIIIIIIIIIIIIIIIIIIIIIIIIIIIIIIIIIIII
IIIIIIIIIIIIIIIIIIIAIIIIIIIIIIIIIIIIIIIIIIAIIIIIIIIIIIIIIIIIIIII
IIIIIIIIIIIIIIIIIIIIIIIIIIIIIIIIAIIIIIIIIIIIIIIIIIIIIIIIIIIIIIII
IIIIIIIIIIIIIIIIIIIIIIIIIIIIIIIIIIIIIIIIIIIIIIIIIIIIIIIIIIIIIIAI
A22IIIIIIIIIIIIIIIIIIIIIIIIIIIIIIIIIIIIIIIIIIIIIIIIIIIIIIIIIIIII
A22IIIIIIIIIIIIIIIIIIIIIIIIIIIIIIIIIA22IIIIIIIIIIIIIIIIIIIIIIIII
A22IIIIIIIIIIIIIIIIIIIIIIIIIIIIIIIIIA22IIIIIIIA22IIIIIIIIIIIIIII
A22IIIIIIIIIIIIIIIIIIIIIIIIIIIIIIIIIA22IIIIIIIA22IIIIIIIIA22IIII
A22IIIIIIIIIIIIIIIIIIIIIIIIIIIIIIIIIA22IIIIIIIA22IIIIIIIIA22IA22
A22IIIIIIIIIIIIIIIIIIIIIIIIIIIIIIIIIA22IIIIIIIA22IIIIIIIIA22IAA2
AIIIIIIIIIIIIIIIIIIIIIIIIIIIIIIIIIIIIIIIIIIIIIIIIIIIIIIIIIIIIIII
AIIIIIIIIIIIIIIIIIIAIIIIIIIIIIIIIIIIIIIIIIIIIIIIIIIIIIIIIIIIIIII
IIIIIIIIIIIIIIIIIIIIIIIIIIIIIIIIIIIIIIIIIIIIIIIIIIIIIIIAIIIIIIII
IIIIIIIIIIIIIIIIIIIIIIIIAIIIIIIIIIIIIIIIIIIIIIIIIIIIIIIAIIIIIIII
IIIIIIIIIIIIIIIIIIIIIIIIIIIIIIIIIIIIIIIIIIIIIIIIIIIIIIIIAIIIIIII
IIIIAIIIIIIIIIIIIIIIIIIIIIIIIIIIIIIIIIIIIIIIIIIIIIIIIIIIIIIIIIII
IIIIIIAIIIIIIIIIIIIIIIIIIIIIIIIIIIIIIIIIIIIIIIIIIIIIIIIIIIIIIIII
IIIIIIAIIIIAIIIIIIIIIIIIIIIIIIIIIIIIIIIIIIIIIIIIIIIIIIIIIIIIIIII
IIIIIIAIIIIAIIIIIIAIIIIIIIIIIIIIIIIIIIIIIIIIIIIIIIIIIIIIIIIIIIII
IIIIIIAIIIIAIIIIIIAIIIIIIIIIAIIIIIIIIIIIIIIIIIIIIIIIIIIIIIIIIIII
IIIIIIAIIIIAIIIIIIAIIIIIIIIIAAIIIIIIIIIIIIIIIIIIIIIIIIIIIIIIIIII
IIIIIIAIIIIAIIIIIIAIIIIIIIIIAAIIIIIIAIIIIIIIIIIIIIIIIIIIIIIIIIII
IIIIIIAIIIIAIIIIIIAIIIIIIIIIAAIIIIIIAIAIIIIIIIIIIIIIIIIIIIIIIIII
IIIIIIAIIIIAIIIIIIAIIIIIIIIIAAIIIIIIAIAIIIAIIIIIIIIIIIIIIIIIIIII
IIIIIIAIIIIAIIIIIIAIIIIIIIIIAAIIIIIIAIAIIIAIIIAIIIIIIIIIIIIIIIII
IIIIIIAIIIIAIIIIIIAIIIIIIIIIAAIIIIIIAIAIIIAIIIAIIIIAIIIIIIIIIIII
IIIIIIAIIIIAIIIIIIAIIIIIIIIIAAIIIIIIAIAIIIAIIIAIIIIAIIIAIIIIIIII
IIIIIIAIIIIAIIIIIIAIIIIIIIIIAAIIIIIIAIAIIIAIIIAIIIIAIIIAIIAIIIII
IIIIIIAIIIIAIIIIIIAIIIIIIIIIAAIIIIIIAIAIIIAIIIAIIIIAIIIAIIAIIIAI
IIIIAIIIIIIIIIIIIIIIIIIIIIIIIIIIIIIIIIIIIIIIIIIIIIIIIIIIIIIIIIII
IIIIAIIIIIIIIAIIIIIIIIIIIIIIIIIIIIIIIIIIIIIIIIIIIIIIIIIIIIIIIIII
IIIIAIIIIIIIIAIAIIIIIIIIIIIIIIIIIIIIIIIIIIIIIIIIIIIIIIIIIIIIIIII
IIIIAIIIIIIIIAIAIAIIIIIIIIIIIIIIIIIIIIIIIIIIIIIIIIIIIIIIIIIIIIII
IIIIAIIIIIIIIAIAIAAIIIIIIIIIIIIIIIIIIIIIIIIIIIIIIIIIIIIIIIIIIIII
IIIIAIIIIIIIIAIAIAAAIIIIIIIIIIIIIIIIIIIIIIIIIIIIIIIIIIIIIIIIIIII
IIIIAIIIIIIIIAIAIAAAIIIIIIIIIIIIIIIIAIIIIIIIIIIIIIIIIIIIIIIIIIII
IIIIAIIIIIIIIAIAIAAAIIIIIIIIIIIIIIIIAIIIIIAIIIIIIIIIIIIIIIIIIIII
IIIIAIIIIIIIIAIAIAAAIIIIIIIIIIIIIIIIAIIIIIAIIIAIIIIIIIIIIIIIIIII
IIIIAIIIIIIIIAIAIAAAIIIIIIIIIIIIIIIIAIIIIIAIIIAIIIIIIIIIIIIIIAII
IIIIIIIIIIIIIIIIIIIIIIIIIIIIIIIIIIIIIIIIIIIIIAIIIIIIIIIIIIIIIIII
AIIIIIIIIIIIIIIIIIIIIIIIIIIIIIIIIIIIIIIIIIIIIIIIIIIIIIIIIIIIIIII
IIIIIIIIIIIIIIIIIIIAIIIIIIIIIIIIIIIIIIIIIIIIIIIIIIIIIIIIIIIIIIII
IIIIIIIIIIIIIIIIIIIAIIIIIIIIIIIIIIIIAIIIIIIIIIIIIIIIIIIIIIIIIIII
IIIAIIIIIIIIIIIIIIIIIIIIIIIIIIIIIIIIIIIIIIIIIIIIIIIIIIIIIIIIIIII
IIIAIIIIIIIIIIIIIIIIIIIIIIIIIIIIIIIIIIIIIIAIIIIIIIIIIIIIIIIIIIII
IIIIIIIIIIIIIIIIIIAIIIIIIIIIIIIIIIIIIIIIIIIIIIIIIIIIIIIIIIIIIIII
IIIIIIIIIIIIIIIIIIAIIIIIIIIIIIAIIIIIIIIIIIIIIIIIIIIIIIIIIIIIIIII
IIIIIIIIIIIIIIIIIIAIIIIIIIIIIIAIIIIIIIIIIIIIIIIIIIIIAIIIIIIIIIII
IIIIIIIIIIIIIIIIIIAIIIIIIIIIIIAIIIIIIIIIIIIIIIIIIIIIAIIIAIIIIIII
IIIIIIIIIIIIIIIIIAIIIIIIIIIIIIIIIIIIIIIIIIIIIIIIIIIIIIIIIIIIIIII
IIIIIIIIIIIIIIIIIAIIIIIIIIIIIIIIIIIIAIIIIIIIIIIIIIIIIIIIIIIIIIII
IIIIIIIIIIIIIIIIIAIIIIIIIIIIIIIIIIIIAIIAIIIIIIIIIIIIIIIIIIIIIIII
IIIIIIIIIIIIIIIIIIIIIIIIIIIIIIIIIIIIAIIIIIIIIIIIIIIIIIIIIIIIIIII
IIIIIIIIIIIIIIIIIIIIIIIIIIIIIIIIIIIIAIIIIIIIIIIIIIIIIIIIIIIIIIAI
IIIIIIIIIIIIIIIIIIIIIIIIIIIIIIIIIIIIIIIIIIIIIIIIIIIIIIIIIIIIIAII
IIIIIIIIA2IIIIIIIIIIIIIIIIIIIIIIIIIIIIIIIIIIIIIIIIIIIIIIIIIIIIII
IIIIIIIIA2IIIIIIIIIIIIIIIIIIIIIIIIIIIIA2IIIIIIIIIIIIIIIIIIIIIIII
IIIIIIIIA2IIIIIIIIIIIIIIIIIIIIIIIIIIIIA2IIA2IIIIIIIIIIIIIIIIIIII
IIIIIIIIA2IIIIIIIIIIIIIIIIIIIIIIIIIIIIA2IIA2IIIIIIIIIIA2IIIIIIII
IIIIIIIIA2IIIIIIIIIIIIIIIIIIIIIIIIIIIIA2IIA2IIIIIIIIIIA2A2IIIIII
IIIIIIIIA2IIIIIIIIIIIIIIIIIIIIIIIIIIIIA2IIA2IIIIIIIIIIA2A2IIIA2I
IIIIIIIIIIIIIIIIIIIIIIIIIIIIIIIIIIIIIIIIIIIIIIIIIIIIIIIIIIIIAIII
IIIIAIIIIIIIIIIIIIIIIIIIIIIIIIIIIIIIIIIIIIIIIIIIIIIIIIIIIIIIAIII
IIIAAIIIIIIIIIIIIIIIIIIIIIIIIIIIIIIIIIIIIIIIIIIIIIIIIIIIIIIIAIII
IIIAAIIIIIIIIIIIIIA2IIIIIIIIIIIIIIIIIIIIIIIIIIIIIIIIIIIIIIIIAIII
IIIAAIIIIIIIIIIIIIA2IIIIIIIIIA2IIIIIIIIIIIIIIIIIIIIIIIIIIIIIAIII
IIIAAIIIIIIIIIIIIIA2IIIIIIIIIA2IIIIIIIIIIIIIIIIIIIIIIIIIIIIIAA2I
IIIIIIIIIIIIIIIIIIIIIIAIIIIIIIIIIIIIIIIIIIIIIIIIIIIIIIIIIIIIIIII
IIIIIIIIIAIIIIIIIIIIIIAIIIIIIIIIIIIIIIIIIIIIIIIIIIIIIIIIIIIIIIII
IIIIIIIIIAIIIIIIIIIIIIAIIIAIIIIIIIIIIIIIIIIIIIIIIIIIIIIIIIIIIIII
IIIIIIIIIAIIIIIIIIIIIIAIIIAIIIIIIIIIAIIIIIIIIIIIIIIIIIIIIIIIIIII
IIIIIIIIIAIIIIIIIIIIIIAIIIAIIIIIIIIIAIIIIIIIIIIIIIIIIIAIIIIIIIII
IIIIIIIIIAIIIIIIIIIIIIAIIIAIIIIIIIIIAIIIIIIIIIIIIIIIIIAIIIIIIIAI
IIIIIIIIIIIIIIIIIIIIIIIIIIIIIII11111111111AIIIIIIIIIIIIIIIIIIIII
IIIIIIIIIIIIIIIIIIIIIIIIIIIIIIIIII11111111AIIIIIIIIIIIIIIIIIIIII
IIIIIIIIIIIIIIIIIIIIIIIIIIIIIIIIIIIIA2IIIIIIIIIIIIIIIIIIIIIIIIII
IIIIIIIIIIIIIAIIIIIIIIIIIIIIIIIIIIIIIIIIIIIIIIIIIIIIIIIIIIIIIIII
IIIIIIIIIIIIIAIAIIIIIIIIIIIIIIIIIIIIIIIIIIIIIIIIIIIIIIIIIIIIIIII
IIIIIIIIIIIIIAIAIIIIIIIIAIIIIIIIIIIIIIIIIIIIIIIIIIIIIIIIIIIIIIII
IIIIAIIIIIIIIIIIIIIIIIIIIIIIIIIIIIIIIIIIIIIIIIIIIIIIIIIIIIIIIIII
IIIIIIIIIIAIIIIIIIIIIIIIIIIIIIIIIIIIIIIIIIIIIIIIIIIIIIIIIIIIIIII
IIIIIIIIIIIIIIIIIIIIIIIIIIIIIIIIIIIIAIIIIIIIIIIIIIIIIIIIIIIIIIII
IIIIIIIIIIIIIIIIIIIIIIIIIIIIIIIIIIIIAIIIIIIIIIIIIIIIIIAIIIIIIIII
IIIAIIIIIIIIIIIIIIIIIIIIIIIIIIIIIIIIIIIIIIIIIIIIIIIIIIIIIIIIIIII
IIIAIIIIIAIIIIIIIIIIIIIIIIIIIIIIIIIIIIIIIIIIIIIIIIIIIIIIIIIIIIII
IIIAIIIIIAIIIIIAIIIIIIIIIIIIIIIIIIIIIIIIIIIIIIIIIIIIIIIIIIIIIIII
IIIAIIIIIAIIIIIAIIAIIIIIIIIIIIIIIIIIIIIIIIIIIIIIIIIIIIIIIIIIIIII
IIIAIIIIIAIIIIIAIIAIIIIIIIAIIIIIIIIIIIIIIIIIIIIIIIIIIIIIIIIIIIII
IIIAIIIIIAIIIIIAIIAIIIIIIIAIAIIIIIIIIIIIIIIIIIIIIIIIIIIIIIIIIIII
IIIAIIIIIAIIIIIAIIAIIIIIIIAIAAIIIIIIIIIIIIIIIIIIIIIIIIIIIIIIIIII
IIIAIIIIIAIIIIIAIIAIIIIIIIAIAAIIAIIIIIIIIIIIIIIIIIIIIIIIIIIIIIII
IIIAIIIIIAIIIIIAIIAIIIIIIIAIAAIIAIIIIAIIIIIIIIIIIIIIIIIIIIIIIIII
IIIAIIIIIAIIIIIAIIAIIIIIIIAIAAIIAIIIIAIIIIAIIIIIIIIIIIIIIIIIIIII
IIIAIIIIIAIIIIIAIIAIIIIIIIAIAAIIAIIIIAIIIIAIIIIIIAIIIIIIIIIIIIII
IIIAIIIIIAIIIIIAIIAIIIIIIIAIAAIIAIIIIAIIIIAIIIIIIAIIIIAIIIIIIIII
IIIAIIIIIAIIIIIAIIAIIIIIIIAIAAIIAIIIIAIIIIAIIIIIIAIIIIAAIIIIIIII
IIIAIIIIIAIIIIIAIIAIIIIIIIAIAAIIAIIIIAIIIIAIIIIIIAIIIIAAIAIIIIII
IIIAIIIIIAIIIIIAIIAIIIIIIIAIAAIIAIIIIAIIIIAIIIIIIAIIIIAAIAIIAIII
IIIAIIIIIAIIIIIAIIAIIIIIIIAIAAIIAIIIIAIIIIAIIIIIIAIIIIAAIAIIAAII
IIIAIIIIIAIIIIIAIIAIIIIIIIAIAAIIAIIIIAIIIIAIIIIIIAIIIIAAIAIIAAAI
IIIIIIIIIIIIIIIIIIIIIIIIA1IIIII1IIIII22IIII2I22IIIIIIIIIIIIIIIII
IIIIIIAIIIIIIIIIIIIIIIIIIIIIIIIIIIIIIIIIIIIIIIIIIIIIIIIIIIIIIIII
IIIIIIAIAIIIIIIIIIIIIIIIIIIIIIIIIIIIIIIIIIIIIIIIIIIIIIIIIIIIIIII
IIIIIIAIAIIIIIIIIIIIIIIIIIIIIIIIIIIIAIIIIIIIIIIIIIIIIIIIIIIIIIII
IIIIIIIIIIIIIIIIIIIIIIAIIIIIIIIIIIIIIIIIIIIIIIIIIIIIIIIIIIIIIIII
IIIIIIIIIIIIIIIIIIIIIIAAIIIIIIIIIIIIIIIIIIIIIIIIIIIIIIIIIIIIIIII
IIIIIIIIIIIIIIIIIIIIIIAAIIIIIIIIIIIIAIIIIIIIIIIIIIIIIIIIIIIIIIII
IIIIIIIIIIIIIIIIIIIIIIAAIIIIIIIIIIIIAIAIIIIIIIIIIIIIIIIIIIIIIIII
IIIIIIIIIIIIIIIIIIIIIIAAIIIIIIIIIIIIAIAIIIIIIIIIIIIIIIIIAIIIIIII
IIIIIIIIIIIIIIIIIIIIIIAAIIIIIIIIIIIIAIAIIIIIIIIIIIIIIIIIAIIIIIAI
IIIIIIIIIIIIIIIIIIIIIIAAIIIIIIIIIIIIAIAIIIIIIIIIIIIIIIIIAIIIIIAA
IIIIIIIIIIIIIIIIIIIIIIIIIIIIIIIIIIIIAIIIIIIIIIIIIIIIIIIIIIIIIIII
IIIIIIIIIIIIIIIIIIIIIIIIIIIIIIIIIIIIIIIIIIIIIIIIIIIIIIIIIIIIIIAI
IIIIIIIIIIIIIIIIIIIAIIIIIIIIIIIIIIIIIIIIIIIIIIIIIIIIIIIIIIIIIIII
IIIIIIIIIIIIIIIIIIIAIIIIIIIIIAIIIIIIIIIIIIIIIIIIIIIIIIIIIIIIIIII
IIIIIIIIIIIIIIIIIIIAIIIIIIIIIAIIIIIIIIIIIIIIIIIIIIIIIIIIAIIIIIII
IIIIIIIIIIIIIIIIIIIAIIIIIIIIIAIIIIIIIIIIIIIIIIIIIIIIIIIIAIIIIAII
IIIIIIIIIIIIIIIIIIIAIIIIIIIIIAIIIIIIIIIIIIIIIIIIIIIIIIIIAIIIIAAI
IIIIIIIIIIIIIIIIIIAIIIIIIIIIIIIIIIIIIIIIIIIIIIIIIIIIIIIIIIIIIIII
IIIIIIIIIIIIIIIIIIAIAIIIIIIIIIIIIIIIIIIIIIIIIIIIIIIIIIIIIIIIIIII
IIIIIIIIIIIIIIIIIIIIIIIIIIIIIIIIIIIIIIIIIIIIIIIIIAIIIIIIIIIIIIII
IIIIIIA2IIIIIIIIIIIIIIIIIIIIIIIIIIIIIIIIIIIIIIIIIIIIIIIIIIIIIIII
IIIIIIA2IIIIIIIIIIIIIIIA2IIIIIIIIIIIIIIIIIIIIIIIIIIIIIIIIIIIIIII
IIIIIIA2IIIIIIIIIIIIIIIA2IIIIIIIIIIIIIIIIIA2IIIIIIIIIIIIIIIIIIII
IIIIIIA2IIIIIIIIIIIIIIIA2IIIIIIIIIIIIIIIIIA2IIIIIIIIIIIIIIIIIA2I
IIIIIIA2IIIIIIIIIIIIIIIA2IIIIIIIIIIIIIIIIIA2IIIIIIIIIIIIIIIIIAA2
IIIIIIIIIIIIIIIIIIIIIIIIAI2IIIIIIIIIIIIIIIIIIIIIIIIIIIIIIIIIIIII
IIIIIIIIIIIIIIIIIIIIIIIIAI2IIAI2IIIIIIIIIIIIIIIIIIIIIIIIIIIIIIII
IIIIIIIIIIIIIIIIIIIIIIIIAI2IIAI2IIIIIIIIIIIIIAI2IIIIIIIIIIIIIIII
IIIIIIIIIIIIIIIIIIIIIIIIAI2IIAI2IIIIIIIIIIIIIAI2IIIIIIIIIAI2IIII
IIIIIIIIIIIIIIIIIIIIIIIIAI2IIAI2IIIIIIIIIIIIIAI2IIIIIIIIIAI2IIAI
IIIIIIIIIAIIIIIIIIIIIIIIIIIIIIIIIIIIIIIIIIIIIIIIIIIIIIIIIIIIIIII
IIIIIIIIIAIIIIIIIIIIIIIIIIIIIIIIIIIIAIIIIIIIIIIIIIIIIIIIIIIIIIII
IIIIIIIIIAIIIIIIIIIIIIIIIIIIIIIIIIIIIIIIIIIIIIIIIIIIIIIIIIIIIIII
IIIIIIIIIAIIIIIIIIIIIIIAIIIIIIIIIIIIIIIIIIIIIIIIIIIIIIIIIIIIIIII
IIIIIIIIIAIIIIIIIIIIIIIAIIIIIIIIIIAIIIIIIIIIIIIIIIIIIIIIIIIIIIII
IIIIIIIIIAIIIIIIIIIIIIIAIIIIIIIIIIAIIIAIIIIIIIIIIIIIIIIIIIIIIIII
IIIIIIIIIAIIIIIIIIIIIIIAIIIIIIIIIIAIIIAIIIAIIIIIIIIIIIIIIIIIIIII
IIIIIIIIIAIIIIIIIIIIIIIAIIIIIIIIIIAIIIAIIIAIIIIIIAIIIIIIIIIIIIII
IIIIIIIIIAIIIIIIIIIIIIIAIIIIIIIIIIAIIIAIIIAIIIIIIAIIIIIIIAIIIIII
IIAIIIIIIIIIIIIIIIIIIIIIIIIIIIIIIIIIIIIIIIIIIIIIIIIIIIIIIIIIIIII
IIIIIIIIIIIA2IIIIIIIIIIIIIIIIIIIIIIIIIIIIIIIIIIIIIIIIIIIIIIIIIII
IIIIIIIIIIIA2IIIIIIIIIIIIIIIIIIIIIIIA2IIIIIIIIIIIIIIIIIIIIIIIIII
IIIIIIIIIIIIAIIIIIIIIIIIIIIIIIIIIIIIIIIIIIIIIIIIIIIIIIIIIIIIIIII
IIIIIIIIIIIIAIIIIIIIIIIAIIIIIIIIIIIIIIIIIIIIIIIIIIIIIIIIIIIIIIII
IIIIIIAIIIIIIIIIIIIIIIIIIIIIIIIIIIIIIIIIIIIIIIIIIIIIIIIIIIIIIIII
IIIIIIAIIIIIIIIIIIIIIIIIIIIIIIIIIIIIAIIIIIIIIIIIIIIIIIIIIIIIIIII
IIIIIIAIIIIIIIIIIIIIIIIIIIIIIIIIIIIIAIIIIIIIIIIIAIIIIIIIIIIIIIII
IIIIIIIIIIIIIIIIIIIIIIIIIIIIIIIIIIIIIIIIIIIIIIIIIIIIIIIIIIIIIIAI
IIIIIIIIIIIIIIIIIIIIIIIIIIIIIIIIIIIIIIIIIIIIIIIIIIIIIIIIAIIIIIAI
IIIIIIIIIIIIIIIIIIIAIIIIIIIIIIIIIIIIIIIIIIIIIIIIIIIIIIIIAIIIIIAI
IIIIIIIIIIIIIIIIIIIAIIIIIIIIIIIIIIIIIIAIIIIIIIIIIIIIIIIIAIIIIIAI
IIIIIIIIIIIIIIIIIIIAIIIIIIIIIIIIIIIIIIAIIIAIIIIIIIIIIIIIAIIIIIAI
IIIIIIIIIIIIIIIIIIIAIIIIIIIIIIIIIIIIIIAIIIAIIIIIIIIIAIIIAIIIIIAI
IIIIIIIIIIIIIIIIIIIIIIIIIIIIIIIIIIIIAIIIIIIIIIIIIIIIIIIIIIIIIIII
IIIIIIIIIIIIIIIIIIIIIIIIIIIIIIIIIIIIIIIIIIIIIIAIIIIIIIIIIIIIIIII
AIIIIIIIIIIIIIIIIIIIIIIIIIIIIIIIIIIIIIIIIIIIIIIIIIIIIIIIIIIIIIII
AIIIIIIIIIIIIIIIIIIIIIIIIIIIIIIIIIIIIIIIIIIIIIIIIIIIIIIIIIIIIAII
IIIIIIIIIIIIIIIIIIIIIIIIIIIIIIIIIIIIIIIIIIAIIIIIIIIIIIIIIIIIIIII
IIIIIIIIIIIIIIIIIIIIIIIIIIIIIIIIIIIIIIIIIIAIIIIIIIIIIIIIIIIIIIAI
IIIIIIAIIIIIIIIIIIIIIIIIIIIIIIIIIIIIIIIIIIIIIIIIIIIIIIIIIIIIIIII
AIIIIIIIIIIIIIIIIIIIIIIIIIIIIIIIIIIIIIIIIIIIIIIIIIIIIIIIIIIIIIII
AIIIIAIIIIIIIIIIIIIIIIIIIIIIIIIIIIIIIIIIIIIIIIIIIIIIIIIIIIIIIIII
AIIIIAAIIIIIIIIIIIIIIIIIIIIIIIIIIIIIIIIIIIIIIIIIIIIIIIIIIIIIIIII
AIIIIAAIAIIIIIIIIIIIIIIIIIIIIIIIIIIIIIIIIIIIIIIIIIIIIIIIIIIIIIII
AIIIIAAIAIIIIIIAIIIIIIIIIIIIIIIIIIIIIIIIIIIIIIIIIIIIIIIIIIIIIIII
AIIIIAAIAIIIIIIAIIIIIIIIIIAIIIIIIIIIIIIIIIIIIIIIIIIIIIIIIIIIIIII
AIIIIAAIAIIIIIIAIIIAIIIIIIAIIIIIIIIIIIIIIIIIIIIIIIIIIIIIIIIIIIII
AIIIIAAIAIIIIIIAIIIAIIIIIIAIIIIIAIIIIIIIIIIIIIIIIIIIIIIIIIIIIIII
AIIIIAAIAIIIIIIAIIIAIIIIIIAIIIIIAIIIAIIIIIIIIIIIIIIIIIIIIIIIIIII
AIIIIAAIAIIIIIIAIIIAIIIIIIAIIIIIAIIIAIAIIIIIIIIIIIIIIIIIIIIIIIII
AIIIIAAIAIIIIIIAIIIAIIIIIIAIIIIIAIIIAIAIAIIIIIIIIIIIIIIIIIIIIIII
AIIIIAAIAIIIIIIAIIIAIIIIIIAIIIIIAIIIAIAIAAIIIIIIIIIIIIIIIIIIIIII
AIIIIAAIAIIIIIIAIIIAIIIIIIAIIIIIAIIIAIAIAAIIIIIAIIIIIIIIIIIIIIII
AIIIIAAIAIIIIIIAIIIAIIIIIIAIIIIIAIIIAIAIAAIIIIIAIIIIIIAIIIIIIIII
AIIIIAAIAIIIIIIAIIIAIIIIIIAIIIIIAIIIAIAIAAIIIIIAIIIIIIAAIIIIIIII
AIIIIAAIAIIIIIIAIIIAIIIIIIAIIIIIAIIIAIAIAAIIIIIAIIIIIIAAIIAIIIII
AIIIIAAIAIIIIIIAIIIAIIIIIIAIIIIIAIIIAIAIAAIIIIIAIIIIIIAAIIAAIIII
AIIIIAAIAIIIIIIAIIIAIIIIIIAIIIIIAIIIAIAIAAIIIIIAIIIIIIAAIIAAIAII
AIIIIAAIAIIIIIIAIIIAIIIIIIAIIIIIAIIIAIAIAAIIIIIAIIIIIIAAIIAAIAAI
IIIIIIIIIIIIIIIIIIIIIIIIIIIIIIIIIIIIIIIIIIIIIIIIIAIIIIIIIIIIIIII
IIIIIIIIIIIIIIIIIIIIIIIIIIIIIIIIAIIIIIIIIIIIIIIIIIIIIIIIIIIIIIII
IIIIIIIIIIIIIIIIIIIIIIIIIIIIIIIIAIIIIIIIIIIIIIIIIIIIIIIIIIIIIAII
IIIIIIIIIIIIIIIIIIIIIIIIIIIIIIIIAIIIIIIIIIIIIIIIIIIIIIIIIIIIIAIA
IIIIAIIIIIIIIIIIIIIIIIIIIIIIIIIIIIIIIIIIIIIIIIIIIIIIIIIIIIIIIIII
IIIIAIIIIIIIIIIIIAIIIIIIIIIIIIIIIIIIIIIIIIIIIIIIIIIIIIIIIIIIIIII
IIIIIIIIIIIIIIIIIIIIIIIIIIIIIIIIIIIIIIIIIIIIIIIIIIIIIIIIAIIIIIII
IIIIIIIIIIIIIIIIIIIIIIIIIIIIIIIIIIIIIIIIIIIIIIIIIIIAIIIIIIIIIIII
IIIIIAIIIIIIIIIIIIIIIIIIIIIIIIIIIIIIIIIIIIIIIIIIIIIIIIIIIIIIIIII
IIIIIAIIIIIIAIIIIIIIIIIIIIIIIIIIIIIIIIIIIIIIIIIIIIIIIIIIIIIIIIII
IIIIIAIIIIIIAIIIIIIAIIIIIIIIIIIIIIIIIIIIIIIIIIIIIIIIIIIIIIIIIIII
IIIIIAIIIIIIAIIIIIIAIIIIIIAIIIIIIIIIIIIIIIIIIIIIIIIIIIIIIIIIIIII
IIIIIAIIIIIIAIIIIIIAIIIIIIAIIIIIIIAIIIIIIIIIIIIIIIIIIIIIIIIIIIII
IIIIIAIIIIIIAIIIIIIAIIIIIIAIIIIIIIAIIIAIIIIIIIIIIIIIIIIIIIIIIIII
IIIIIAIIIIIIAIIIIIIAIIIIIIAIIIIIIIAIIIAIIIIIIIAIIIIIIIIIIIIIIIII
IIIIIIIIIAIIIIIIIIIIIIIIIIIIIIIIIIIIIIIIIIIIIIIIIIIIIIIIIIIIIIII
IIIIIIIIIAIAIIIIIIIIIIIIIIIIIIIIIIIIIIIIIIIIIIIIIIIIIIIIIIIIIIII
IIIIIIIIIAIAIIIIAIIIIIIIIIIIIIIIIIIIIIIIIIIIIIIIIIIIIIIIIIIIIIII
IIIIIIIIIAIAIIIIAIIIIIIIIIIIIIIIIIIIIIIIIIIIIIIIIIIIIIAIIIIIIIII
IIIIIIIIIAIAIIIIAIIIIIIIIIIIIIIIIIIIIIIIIIIIIIIIIIIIIIAIIIIIIAII
IIIIIIAIIIIIIIIIIIIIIIIIIIIIIIIIIIIIIIIIIIIIIIIIIIIIIIIIIIIIIIII
IIIIIIAIIIIIIIIIIIIIIAIIIIIIIIIIIIIIIIIIIIIIIIIIIIIIIIIIIIIIIIII
IIIIIIAIIIIIIIIIIIIIIAIIIIIIIAIIIIIIIIIIIIIIIIIIIIIIIIIIIIIIIIII
IIIIIIAIIIIIIIIIIIIIIAIIIIIIIAIIIIIIAIIIIIIIIIIIIIIIIIIIIIIIIIII
IIIIIIAIIIIIIIIIIIIIIAIIIIIIIAIIIIIIAIIIIIIIIAIIIIIIIIIIIIIIIIII
IIIIIIAIIIIIIIIIIIIIIAIIIIIIIAIIIIIIAIIIIIIIIAAIIIIIIIIIIIIIIIII
IIIIIIAIIIIIIIIIIIIIIAIIIIIIIAIIIIIIAIIIIIIIIAAIIIIIIIIIIIIIIAII
IIIIIIIIIIIIIIIIIIIIIIIIIIIIIIIIIIIIIIIIIIIIIIIIIIIIIIIIIA1I1112
IIIIIIIIIIIIIIIIIIIIIIIIIIIIIIIIIIIIIIIIIIIIIIAIIIIIIIIIIIIIIIII
IIIIIIIIIIIIIIIAIIIIIIIIIIIIIIIIIIIIIIIIIIIIIIAIIIIIIIIIIIIIIIII
IIIIIIIIIIIIIIIAIIIIIIIIIIIIIIIIIIIIAIIIIIIIIIAIIIIIIIIIIIIIIIII
IIIIIIIIIIIIIIIAIIIIIIIIIIIIIIIIIIIIAIAIIIIIIIAIIIIIIIIIIIIIIIII
IIIIIIIIIIIIIIIIIIIIIIIIIIIIIIIIIIIIIIIIIIAIIIIIIIIIIIIIIIIIIIII
IIIIIIIIIIIIIIIIIIIIIIIIIIIIIIIIIIIIIIIIIIAIIIIIIIIIIIIIIIIIIAII
IIIIIIIIIIIIIIIIIIIIIIIIIIIIIAIIIIIIIIIIIIIIIIIIIIIIIIIIIIIIIIII
IIIIIIIIIIIIIIIIIIIIAIIIIIIIIIIIIIIIIIIIIIIIIIIIIIIIIIIIIIIIIIII
IIIIIIIIIIIIIIIIIIIIAIIIIIIIIIIIIIIIIIIIIIIIIAIIIIIIIIIIIIIIIIII
IIIIIIIIIIIIIIIIIIIIIIIIIIIIIIIIIIIIIIIAIIIIIIIIIIIIIIIIIIIIIIII
IIIIIIIIIAIIIIIIIIIIIIIIIIIIIIIIIIIIIIIIIIIIIIIIIIIIIIIIIIIIIIII
IIIIIIIIIAIIIIIIAIIIIIIIIIIIIIIIIIIIIIIIIIIIIIIIIIIIIIIIIIIIIIII
IIIIIIIIIAIIIIIIAIIAIIIIIIIIIIIIIIIIIIIIIIIIIIIIIIIIIIIIIIIIIIII
IIIIIIIIIAIIIIIIAIIAIIIIIIIIIIIIIIIIAIIIIIIIIIIIIIIIIIIIIIIIIIII
IIIIIIIIIAIIIIIIAIIAIIIIIIIIIIIIIIIIAIAIIIIIIIIIIIIIIIIIIIIIIIII
IIIIIIIIIAIIIIIIAIIAIIIIIIIIIIIIIIIIAIAIIIIIIAIIIIIIIIIIIIIIIIII
IIIIIIIIIAIIIIIIAIIAIIIIIIIIIIIIIIIIAIAIIIIIIAIIIIIIAIIIIIIIIIII
IIIIAIIIIIIIIIIIIIIIIIIIIIIIIIIIIIIIIIIIIIIIIIIIIIIIIIIIIIIIIIII
IIIIAIIIAIIIIIIIIIIIIIIIIIIIIIIIIIIIIIIIIIIIIIIIIIIIIIIIIIIIIIII
IIIIAIIIAIIAIIIIIIIIIIIIIIIIIIIIIIIIIIIIIIIIIIIIIIIIIIIIIIIIIIII
IIIIAIIIAIIAIIIIIIIIIIIIIIIIIIIIIIIIAIIIIIIIIIIIIIIIIIIIIIIIIIII
IIIAIIIIIIIIIIIIIIIIIIIIIIIIIIIIIIIIIIIIIIIIIIIIIIIIIIIIIIIIIIII
IIIAIIIIIIIIIIIIIIIIIIIIIIIIIIIIIIIIIIIIIIIIIIIIIIIIIIAIIIIIIIII
IIIAIIIIIIIIIIIIIIIIIIIIIIIIIIIIIIIIIIIIIIIIIIIIIIIIIIAIIAIIIIII
IIIIAIIIIIIIIIIIIIIIIIIIIIIIIIIIIIIIIIIIIIIIIIIIIIIIIIIIIIIIIIII
IIIIAIIIIIIIIIIIIAIIIIIIIIIIIIIIIIIIIIIIIIIIIIIIIIIIIIIIIIIIIIII
IIIIAIIIIIIIIIIIIAIIIIIIIIIIIIIIIIIIAIIIIIIIIIIIIIIIIIIIIIIIIIII
IIIIAIIIIIIIIIIIIAIIIIIIIIIIIIIIIIIIAIIIIIIIIIIIIIIIIIIIIIAIIIII
IIIIAIIIIIIIIIIIIAIIIIIIIIIIIIIIIIIIAIIIIIIIIIIIIIIIIIIIIIAIIIAI
IIIIIIIIIIIIIIIIIIIIIIIIIIIIIIIIIIIIIIIIIIIIIIIIIIIIIIIAIIIIIIII
IAIIIIIIIIIIIIIIIIIIIIIIIIIIIIIIIIIIIIIIIIIIIIIIIIIIIIIAIIIIIIII
IAIIIIIIIIIIIIIIIIIAIIIIIIIIIIIIIIIIIIIIIIIIIIIIIIIIIIIAIIIIIIII
IAIIIIIIIIIIIIIIIIIAIIIAIIIIIIIIIIIIIIIIIIIIIIIIIIIIIIIAIIIIIIII
IAIIIIIIIIIIIIIIIIIAIIIAIAIIIIIIIIIIIIIIIIIIIIIIIIIIIIIAIIIIIIII
IAIIIIIIIIIIIIIIIIIAIIIAIAIIIIIIIAIIIIIIIIIIIIIIIIIIIIIAIIIIIIII
IAIIIIIIIIIIIIIIIIIAIIIAIAIIIIIIIAIIIIIIIIIIIIIIIIIIIIIAIIIIIAII
IIIIIIIIIIIIIIIIIIIIIIIIIIIIIIIIIIIIIIIIIIIIIIIIIIIIIIIIIIIIIAII
AIIIIIIIIIIIIIIIIIIIIIIIIIIIIIIIIIIIIIIIIIIIIIIIIIIIIIIIIIIIIIII
AIIIIIIIIAIIIIIIIIIIIIIIIIIIIIIIIIIIIIIIIIIIIIIIIIIIIIIIIIIIIIII
AIIIIIIIIAIIIIIIIIIIAIIIIIIIIIIIIIIIIIIIIIIIIIIIIIIIIIIIIIIIIIII
AIIIIIIIIAIIIIIIIIIIAIIIIIIIIIIIIIIIAIIIIIIIIIIIIIIIIIIIIIIIIIII
AIIIIIIIIAIIIIIIIIIIAIIIIIIIIIIIIIIIAIIIIIIIIIIIIIIIAIIIIIIIIIII
IIIIIIAIIIIIIIIIIIIIIIIIIIIIIIIIIIIIIIIIIIIIIIIIIIIIIIIIIIIIIIII
IIIIIIAIIIIIIIIIIIIIIIIIIIIIIIIIIIIIIIIIIIIIIIIIIIIIAIIIIIIIIIII
IIIIIIAIIIIIIIIIIIIIIIIIIIIIIIIIIIIIIIIIIIIIIIIIIIIIAIIIIAIIIIII
IIIIIIIIIIIIIIIIIIIIIIIIIIIIIIIIIIIIAIIIIIIIIIIIIIIIIIIIIIIIIIII
IIIIIIIIIIIIIIIIIIIIIIIIIIIIIIIIIIIIIIAIIIIIIIIIIIIIIIIIIIIIIIII
IIIIIIIIIIIAIIIIIIIIIIIIIIIIIIIIIIIIIIIIIIIIIIIIIIIIIIIIIIIIIIII
IIIIIIIIIIIAIIIIIIIIIIIIIIIIIIIIIIIIIIIIIIIIIIIIIIIIIIIAIIIIIIII
IIIIIIIIAIIIIIIIIIIIIIIIIIIIIIIIIIIIIIIIIIIIIIIIIIIIIIIIIIIIIIII
IIIIIIIIAIIIIIIIIIIIIIIIIAIIIIIIIIIIIIIIIIIIIIIIIIIIIIIIIIIIIIII
IIIIIIIIAIIIIIIIIIIIIIIIIAIIIIIIIIIIIIIIIIIIIIIIIIIIIIIIIIIIIIAI
IIIIIIIIIIIIIIIIAIIIIIIIIIIIIIIIIIIIIIIIIIIIIIIIIIIIIIIIIIIIIIII
IIIIIIIIIIIIIIIIAIIIIIIIIIIIIIIIIIIIIIAIIIIIIIIIIIIIIIIIIIIIIIII
IIIIIIIIIIIIIIIIIIIAIIIIIIIIIIIIIIIIIIIIIIIIIIIIIIIIIIIIIIIIIIII
IIIIIIIIIIIIIIIIIIIAIIIIIIIIIIIIIIIIIIIIIIIIIAIIIIIIIIIIIIIIIIII
IIIIIIIIIIIIIIIIAIIIIIIIIIIIIIIIIIIIIIIIIIIIIIIIIIIIIIIIIIIIIIII
IIIIIIIIIIIIIIIIAIIAIIIIIIIIIIIIIIIIIIIIIIIIIIIIIIIIIIIIIIIIIIII
IIIIIIIIIIIIIIIIAIIAIIIIIIIIIIIIIIIIAIIIIIIIIIIIIIIIIIIIIIIIIIII
IIIIIIIIIIIIIIIIAIIAIIIIIIIIIIIIIIIIAIIIIIIIIIIIIIIIIIIIIIIIIIAI
IIIIIIIIIIIIIIIIIIIIIIIIIIIIIAIIIIIIIIIIIIIIIIIIIIIIIIIIIIIIIIII
IIIAIIIIIIIIIIIIIIIIIIIIIIIIIAIIIIIIIIIIIIIIIIIIIIIIIIIIIIIIIIII
IIIAIIAIIIIIIIIIIIIIIIIIIIIIIAIIIIIIIIIIIIIIIIIIIIIIIIIIIIIIIIII
IIIAIIAIIIIIIIIIIIIIIIIIIIIIIAIIIIIIIIIIIIIIIIIIIIIIIIIIAIIIIIII
IIIIIIAIIIIIIIIIIIIIIIIIIIIIIIIIIIIIIIIIIIIIIIIIIIIIIIIIIIIIIIII
IIIIIIAIIIIIIIIIIIIIIIIIIIIAIIIIIIIIIIIIIIIIIIIIIIIIIIIIIIIIIIII
IIIIIIAIIIIIIIIIIIIIIIIIIIIAIIIIIIIIAIIIIIIIIIIIIIIIIIIIIIIIIIII
IIIIIIIIIIIIIIIIIIIIIIIIIIIIIIIIIIIIIIIIIIIIIIIIAIIIIIIIIIIIIIII
IIIIIIIIIIIIIIIIIIIIIIIIIIIIIIIIIIIIAIIIIIIIIIIIIIIIIIIIIIIIIIII
IIIIIIIIIIIIIIIIIIIAIIIIIIIIIIIIIIIIIIIIIIIIIIIIIIIIIIIIIIIIIIII
IIIIIIIIIIIIIIIIIIIIIIIIIIIIIIIIIIIIIIIIIIIIIIIIIIIIIIIIIIIIIIIA
IIIIIIIIIIIIIA2IIIIIIIIIIIIIIIIIIIIIIIIIIIIIIIIIIIIIIIIIIIIIIIII
IIIIIIIIIIIIIA2IIIIIIIIIIIIIIIIIIIA2IIIIIIIIIIIIIIIIIIIIIIIIIIII
IIIIIIIIIIIIIA2IIIIIIIIIIIIIIIIIIIA2A2IIIIIIIIIIIIIIIIIIIIIIIIII
IIIIIIIIIIIIIA2IIIIIIIIIIIIIIIIIIIA2A2IIIIIIIIIIIIIIIIIIA2IIIIII
IIIIIIIIIIIIIIIIIIIIIIIIIIIIIIIIIIIIIIIIIIIIIIIIIAIIIIIIIIIIIIII
IIIIIIIIIIIIIIIIIIIIIIIIIIIIIIIIIIIIIIIIIIIIIIIIIAIIIIIIIIAIIIII
IIIIAIIIIIIIIIIIIIIIIIIIIIIIIIIIIIIIIIIIIIIIIIIIIIIIIIIIIIIIIIII
IIIIAAIIIIIIIIIIIIIIIIIIIIIIIIIIIIIIIIIIIIIIIIIIIIIIIIIIIIIIIIII
IIIIAAIIIIIIIIIIIIIAIIIIIIIIIIIIIIIIIIIIIIIIIIIIIIIIIIIIIIIIIIII
IIIIAAIIIIIIIIIIIIIAIIIIIIIIIAIIIIIIIIIIIIIIIIIIIIIIIIIIIIIIIIII
IIIIAAIIIIIIIIIIIIIAIIIIIIIIIAIIIIIIIIIIIIIIIIIIIIIIIIIIAIIIIIII
AIIIIIIIIIIIIIIIIIIIIIIIIIIIIIIIIIIIIIIIIIIIIIIIIIIIIIIIIIIIIIII
AIIIIIIIIIIIIIIIIIIIIIIIIIIIIIIIIIIIIIIIIIIIIIIIIIIIIIIIIIIIIIAI
AIIIIIIIIIIIIIIIIIIIIIIIIIIIIIIIIIIIIIIIIIIIIIIIIIIIIIIIIIIIIIAA
IIIIIIIIIAIIIIIIIIIIIIIIIIIIIIIIIIIIIIIIIIIIIIIIIIIIIIIIIIIIIIII
IIIIIIIIIAIIIIIIIIAIIIIIIIIIIIIIIIIIIIIIIIIIIIIIIIIIIIIIIIIIIIII
IIIIIIIIIAIIIIIIIIAAIIIIIIIIIIIIIIIIIIIIIIIIIIIIIIIIIIIIIIIIIIII
IIIIIIIIIAIIIIIIIIAAIIIIIIIIAIIIIIIIIIIIIIIIIIIIIIIIIIIIIIIIIIII
IIIIIIIIIAIIIIIIIIAAIIIIIIIIAIAIIIIIIIIIIIIIIIIIIIIIIIIIIIIIIIII
IIIIIIIIIAIIIIIIIIAAIIIIIIIIAIAIIIAIIIIIIIIIIIIIIIIIIIIIIIIIIIII
IIIIIIIIIAIIIIIIIIAAIIIIIIIIAIAIIIAIAIIIIIIIIIIIIIIIIIIIIIIIIIII
IIIIIIIIIAIIIIIIIIAAIIIIIIIIAIAIIIAIAIIIIIIIIIAIIIIIIIIIIIIIIIII
IIIIIIIIIAIIIIIIIIAAIIIIIIIIAIAIIIAIAIIIIIIIIIAIIIIIIIAIIIIIIIII
IIIIIIIIIAIIIIIIIIAAIIIIIIIIAIAIIIAIAIIIIIIIIIAIIIIIIIAAIIIIIIII
IIIIIIIIIIIIIIIIIIIIIIIIIIIIIIIIIIIIIIIIIIIIIIIIIIIIIIIIIIIIIAII
IIIIIIIIIIIIIIIIIIIIIIIIIIIIIIIIIIIIAIIIIIIIIIIIIIIIIIIIIIIIIIII
IIIIIIIIIIIIIIIIIIIIIIIIIIIIIIIIIIIIAIIIIIAIIIIIIIIIIIIIIIIIIIII
IIIIIIIIIIIIIIIIIIIIIIIIIIIIIIIIIIIIAIIIIIAIIIIIIIIIIIIIAIIIIIII
IIIIIIIIIIIIIIIIIIIAIIIIIIIIIIIIIIIIIIIIIIIIIIIIIIIIIIIIIIIIIIII
IIIIIIIIIIIIIIIIIIIAIIIIIIIIIIIIIIIIAIIIIIIIIIIIIIIIIIIIIIIIIIII
IIIIIIIIIIIIIIIIIIIIIIIIIIIIIIIIIIIIAIIIIIIIIIIIIIIIIIIIIIIIIIII
IIIIIIIIIIIIIIIIIIIIIIIIIIIIIIIIIIIIAIIIIIIIIIIIIIIIIIAIIIIIIIII
IIIIIIIIIIIIIIIIIIIIIIIIIIIIIIIIIIIIAIIIIIIIIIIIIIIIIIAIAIIIIIII
IIIIIIIIIAIIIIIIIIIIIIIIIIIIIIIIIIIIIIIIIIIIIIIIIIIIIIIIIIIIIIII
IIIIIIIIIAIIIIIIIIIIIIIIIIIIIIIIIIIIIIIIIIIIIIIIIIIIAIIIIIIIIIII
IIIIIIIIIAIIIIIIIIIIIIIIIIIIIIIIIIIIIIIIIIIIIIIIIIIIAIIIIIIIIIAI
IIIIIIIIIIIIIIIIIIIIIIIIIIIIIIIIIIIIIIIAIIIIIIIIIIIIIIIIIIIIIIII
IIIIIIIIIIIIIIIIIIIIIIIIIIIIIIIIIIIIAIIIIIIIIIIIIIIIIIIIIIIIIIII
IIIIIIIIIIIIIIIIIIIIIIIIIIIIIIIIIIIIAIIIIIIIIIIIIIIIIIIIIIIIIAII
IIIIIIIIIIIIIIIIIIIIIIIIIIIIIIIIIIIIIIIIIIIIIIIIIIAIIIIIIIIIIIII
IIIIIIIIIIIIIIIIIIIIIIIIIIIIIIIIIIIIIIIIIIIIIIIIIIIIIIAIIIIIIIII
IIIIIIIIIIIIIIIIIIIIIIIIIIIIIIIIIIIIIIIIIIIIIIIIIIIIIIAIIIAIIIII
IIIIIIIIIIIIIIIIIIIIIIIIIIIIIIIIIIIIIIIIIIIIIIIIIIIIIIIIAIIIIIII
IIIIIIIIIIIIIIIIIIIIAIIIIIIIIIIIIIIIIIIIIIIIIIIIIIIIIIIIIIIIIIII
IIIIIIIIIIIIIIIIIIIIAIIIIIIIIIIIIAIIIIIIIIIIIIIIIIIIIIIIIIIIIIII
IIIIIIIIIIIIIIIIIIIIAIIIIIIIIIIIIAIIIIIIIIIIIIIIIIIAIIIIIIIIIIII
IIIIIIIIIIIIIIIIIIIIAIIIIIIIIIIIIAIIIIIIIIIIIIIIIIIAIIIIIAIIIIII
IIIAIIIIIIIIIIIIIIIIIIIIIIIIIIIIIIIIIIIIIIIIIIIIIIIIIIIIIIIIIIII
IIIAIIIIIAIIIIIIIIIIIIIIIIIIIIIIIIIIIIIIIIIIIIIIIIIIIIIIIIIIIIII
IIIAIIIIIAIIIIIIIIAIIIIIIIIIIIIIIIIIIIIIIIIIIIIIIIIIIIIIIIIIIIII
IIIAIIIIIAIIIIIIIIAAIIIIIIIIIIIIIIIIIIIIIIIIIIIIIIIIIIIIIIIIIIII
IIIAIIIIIAIIIIIIIIAAIIIIAIIIIIIIIIIIIIIIIIIIIIIIIIIIIIIIIIIIIIII
IIIAIIIIIAIIIIIIIIAAIIIIAIIIIAIIIIIIIIIIIIIIIIIIIIIIIIIIIIIIIIII
IIIAIIIIIAIIIIIIIIAAIIIIAIIIIAIIIIIIIIAIIIIIIIIIIIIIIIIIIIIIIIII
IIIAIIIIIAIIIIIIIIAAIIIIAIIIIAIIIIIIIIAIIIIIIIIIIIIIIIAIIIIIIIII
IIIAIIIIIAIIIIIIIIAAIIIIAIIIIAIIIIIIIIAIIIIIIIIIIIIIIIAIIIIIIIIA
IIIIIAIIIIIIIIIIIIIIIIIIIIIIIIIIIIIIIIIIIIIIIIIIIIIIIIIIIIIIIIII
IIIIIAIIIIIIAIIIIIIIIIIIIIIIIIIIIIIIIIIIIIIIIIIIIIIIIIIIIIIIIIII
IIIIIAIIIIIIAIIIIIIIIIIIIIIIIIIIIIIIIAIIIIIIIIIIIIIIIIIIIIIIIIII
IIIIIAIIIIIIAIIIIIIIIIIIIIIIIIIIIIIIIAIIIIIIAIIIIIIIIIIIIIIIIIII
IIIIIAIIIIIIAIIIIIIIIIIIIIIIIIIIIIIIIAIIIIIIAIIIAIIIIIIIIIIIIIII
IIIIIIIIIIIIIIIIIIIIIIIIIIIIIIIIIIIIIIIIIIIIIIIIIIIIIIIIIIIIIIA2
IIIAIIIIIIIIIIIIIIIIIIIIIIIIIIIIIIIIIIIIIIIIIIIIIIIIIIIIIIIIIIII
IIIAIIIIIIIIIIIIIIAIIIIIIIIIIIIIIIIIIIIIIIIIIIIIIIIIIIIIIIIIIIII
IIIAIIIIIIIIIIIIIIAIIIIIIIIIIAIIIIIIIIIIIIIIIIIIIIIIIIIIIIIIIIII
IIIAIIIIIIIIIIIIIIAIIIIIIIIIIAIIIIIIAIIIIIIIIIIIIIIIIIIIIIIIIIII
IIIAIIIIIIIIIIIIIIAIIIIIIIIIIAIIIIIIAIIIIIIIIAIIIIIIIIIIIIIIIIII
IIIAIIIIIIIIIIIIIIAIIIIIIIIIIAIIIIIIAIIIIIIIIAIIIIIIIIIIIIIIAIII
IIIAIIIIIIIIIIIIIIAIIIIIIIIIIAIIIIIIAIIIIIIIIAIIIIIIIIIIIIIIAIAI
IIIIIIIIIIIIIIIIIIIIIIIIIIIIIIIIIIIIIIIIIIIIIIIIIIIIIIIIIIIIIAII
A2IIIIIIIIIIIIIIIIIIIIIIIIIIIIIIIIIIIIIIIIIIIIIIIIIIIIIIIIIIIAII
A2IIIIA2IIIIIIIIIIIIIIIIIIIIIIIIIIIIIIIIIIIIIIIIIIIIIIIIIIIIIAII
A2IIIIAA2IIIIIIIIIIIIIIIIIIIIIIIIIIIIIIIIIIIIIIIIIIIIIIIIIIIIAII
A2IIIIAA2A2IIIIIIIIIIIIIIIIIIIIIIIIIIIIIIIIIIIIIIIIIIIIIIIIIIAII
A2IIIIAA2A2A2IIIIIIIIIIIIIIIIIIIIIIIIIIIIIIIIIIIIIIIIIIIIIIIIAII
A2IIIIAA2A2A2A2IIIIIIIIIIIIIIIIIIIIIIIIIIIIIIIIIIIIIIIIIIIIIIAII
A2IIIIAA2A2A2A2A2IIIIIIIIIIIIIIIIIIIIIIIIIIIIIIIIIIIIIIIIIIIIAII
A2IIIIAA2A2A2A2A2IA2IIIIIIIIIIIIIIIIIIIIIIIIIIIIIIIIIIIIIIIIIAII
A2IIIIAA2A2A2A2A2IAA2IIIIIIIIIIIIIIIIIIIIIIIIIIIIIIIIIIIIIIIIAII
A2IIIIAA2A2A2A2A2IAA2A2IIIIIIIIIIIIIIIIIIIIIIIIIIIIIIIIIIIIIIAII
A2IIIIAA2A2A2A2A2IAA2AA2IIIIIIIIIIIIIIIIIIIIIIIIIIIIIIIIIIIIIAII
A2IIIIAA2A2A2A2A2IAA2AA2A2IIIIIIIIIIIIIIIIIIIIIIIIIIIIIIIIIIIAII
A2IIIIAA2A2A2A2A2IAA2AA2A2A2IIIIIIIIIIIIIIIIIIIIIIIIIIIIIIIIIAII
A2IIIIAA2A2A2A2A2IAA2AA2A2A2IA2IIIIIIIIIIIIIIIIIIIIIIIIIIIIIIAII
A2IIIIAA2A2A2A2A2IAA2AA2A2A2IA2IIIA2IIIIIIIIIIIIIIIIIIIIIIIIIAII
A2IIIIAA2A2A2A2A2IAA2AA2A2A2IA2IIIA2A2IIIIIIIIIIIIIIIIIIIIIIIAII
A2IIIIAA2A2A2A2A2IAA2AA2A2A2IA2IIIA2A2A2IIIIIIIIIIIIIIIIIIIIIAII
[...]
IIIIIIIIIAI2IAI2IIIAI2IIIIIIIIIIIIIIIIIIIAI2IIIIIIIIIIIIIIIIIIII
IIIIIIIIIAI2IAI2IIIAI2IIIIIIIIIIIIIIAI2IIAI2IIIIIIIIIIIIIIIIIIII
IIIIIIIIIAI2IAI2IIIAI2IIIIIIIIIIIIIIAI2IIAI2IIIIIIIIIIIIIIAI2III
IIIIIIIIIAI2IAI2IIIAI2IIIIIIIIIIIIIIAI2IIAI2IIIAI2IIIIIIIIAI2III
IIIIIIIIIAI2IAI2IIIAI2IIIIIIIIIIIIIIAI2IIAI2IIIAI2IIIIIIIIAI2AI2
IIIIIIIIIIIAIIIIIIIIIIIIIIIIIIIIIIIIIIIIIIIIIIIIIIIIIIIIIIIIIIII
IIIIIIIIIIIAIIIIIIIIIIIIIIIIIIIIIIIIIIIIIIIIIIIIIIIIIIIIIIIIIIAI
IIIIIIIIIIIIIIIIIIAIIIIIIIIIIIIIIIIIIIIIIIIIIIIIIIIIIIIIIIIIIIII
IIIIIIAIIIIIIIIIIIIIIIIIIIIIIIIIIIIIIIIIIIIIIIIIIIIIIIIIIIIIIIII
IIIIIIIIIIIIIIIIIIIIIIIIIIIIIIIIIIIIIIIIIIIIIIIAIIIIIIIIIIIIIIII
IIIIIIIIIIIIIIIIIIIIIIIIIIIIIIIIIIIIIIIIIIIIIIIIIIIIIIIIIIIIIIAI
IIIIIIIIIIIIIIIIIIIIIIIIIIIIIIIIIIIIIIIIIIIIIIIIIIIIIIIIIIIIIIAA
IIIIIIIIIIIIIIAIIIIIIIIIIIIIIIIIIIIIIIIIIIIIIIIIIIIIIIIIIIIIIIII
IIIIIIIIIIIIIIAIIIIIIIIIIIIIIIIIIIIIIIIIIIIIIIIIIIIIIIIIIIIIIAII
IIIIIIIIIIIIIIAIIIIIIIIIIIIIIIIIIIIIIIIIIIIIIIIIIIIIIIIIIIIIIAIA
IIIIIIIIIIIIIIAIIIIIIIAIIIIIIIIIIIIIIIIIIIIIIIIIIIIIIIIIIIIIIAIA
IIIIIIIIIIIIIIIIIIIIIIIIIIIIIIIIIIIIIIIIAIIIIIIIIIIIIIIIIIIIIIII
IIIIIIIIIIIIIIIIIAIIIIIIIIIIIIIIIIIIIIIIIIIIIIIIIIIIIIIIIIIIIIII
IIIIIIIIIIIIIIIIIIAIIIIIIIIIIIIIIIIIIIIIIIIIIIIIIIIIIIIIIIIIIIII
IIIIIIIIIIIIIIIIIIIIIIIIIIIIIIIIIIIIAIIIIIIIIIIIIIIIIIIIIIIIIIII
IIIIIIIIIIIIAIIIIIIIIIIIIIIIIIIIIIIIIIIIIIIIIIIIIIIIIIIIIIIIIIII
IIIIIIIIIIIIAIIIIIIIIIIIIIIIIIIIIIIIIIIIIIAIIIIIIIIIIIIIIIIIIIII
IIIIIIIIIIIIIIIIIIIIIIIIIIIIIIIIIIIIIIIIIIIIIIIIIIIIIIIIIIIIIAII
IIIIIIIIIIIIIIIIIIAIIIIIIIIIIIIIIIIIIIIIIIIIIIIIIIIIIIIIIIIIIIII
IIIIIIIIIIIIIIIIIIAIIIIIIIIIIIIIIIIIIIAIIIIIIIIIIIIIIIIIIIIIIIII
IIIIIIIIIIIIIIIIIIAIIIIIIIIIIIIIIIIIIIAIIIIIIIIIIIIIIIIIIIIIIIAI
IIIIIIIIIIIIIIIIIIIIIIIIIIIIIIIIIIIIIIIIIIIIIIIIIIAIIIIIIIIIIIII
AIIIIIIIIIIIIIIIIIIIIIIIIIIIIIIIIIIIIIIIIIIIIIIIIIAIIIIIIIIIIIII
AIIIIIIIAIIIIIIIIIIIIIIIIIIIIIIIIIIIIIIIIIIIIIIIIIAIIIIIIIIIIIII
AIIIIIIIAIIIIIIIIIAIIIIIIIIIIIIIIIIIIIIIIIIIIIIIIIAIIIIIIIIIIIII
IIIIIIIIIIIIIIIIIIIIIIIIIIIIIIIIIIIIIIIIIIIIIIIIIIIIIIIIAIIIIIII
IIIIIIIIIIIIIIIIIIIIIIIIIIIIIIIIIIIIIIIIIIIIIIIIIIIIIIIIIIIIIIAI
IIIIIIIIIIIIIIIIIAIIIIIIIIIIIIIIIIIIIIIIIIIIIIIIIIIIIIIIIIIIIIII
IIIIIIIIIIIIIIIIIAIIIIIIIIIIIIIIIIIIIIIIIIIIIIIAIIIIIIIIIIIIIIII
IIIIIIIIIIIIIIIIIAIIIIIIIIIIIIIIIIIIIIIIIIIIIIIAIIIIIIIIAIIIIIII
IIIIIIIIIIIIIIIIIIIAIIIIIIIIIIIIIIIIIIIIIIIIIIIIIIIIIIIIIIIIIIII
IIIIIIIIIIIIIIIIIIIIA2IIIIIIIIIIIIIIIIIIIIIIIIIIIIIIIIIIIIIIIIII
IIIIIIIIIIIIIIIIIIIIA2IIIIIIIIIIIIIIA2IIIIIIIIIIIIIIIIIIIIIIIIII
IIIIIIIIIIIIIIIIIIIIAIIIIIIIIIIIIIIIIIIIIIIIIIIIIIIIIIIIIIIIIIII
IIIIIIIIIIIIIIIIIIIIIIIIIIIIIIIIIIIIIIIIIIIIIIIIIIIIIIIAIIIIIIII
IIIIIIIIIIIIIIIIIIIIIIIIIIIIIIIIIIIIAIIIIIIIIIIIIIIIIIIAIIIIIIII
IIIIIIIIAIIIIIIIIIIIIIIIIIIIIIIIIIIIIIIIIIIIIIIIIIIIIIIIIIIIIIII
IIIIIIIIAIIIIIIIIIIIIIIIIIIIIIIIIIIIIIIIIIIIIIIIIIIIIIIIIIIIIAII
IIIIIIIIIAIIIIIIIIIIIIIIIIIIIIIIIIIIIIIIIIIIIIIIIIIIIIIIIIIIIIII
IIIIIIIIIAIIIIIIIIIIIIIIIAIIIIIIIIIIIIIIIIIIIIIIIIIIIIIIIIIIIIII
IIIIIIIIIAIIIIIIIIIIIIIIIAAIIIIIIIIIIIIIIIIIIIIIIIIIIIIIIIIIIIII
IIIIIIIIIAIIIIIIIIIIIIIIIAAIIIIIIIIIIIIIIIIIAIIIIIIIIIIIIIIIIIII
IIIIIIIIIAIIIIIIIIIIIIIIIAAIIIIIIIIIIIIIIIIIAIIIIIIIIIIIIIIIIIAI
IIIIIIIIIAIIIIIIIIIIIIIIIAAIIIIIIIIIIIIIIIIIAAIIIIIIIIIIIIIIIIAI
IIIIIIIAIIIIIIIIIIIIIIIIIIIIIIIIIIIIIIIIIIIIIIIIIIIIIIIIIIIIIIII
IIIIIIIIIIIIIIIIIIIIIIIIIIIIIIIAIIIIIIIIIIIIIIIIIIIIIIIIIIIIIIII
IIIIIIIIIIIIIIIIIIIIIIIIIIIIIIIIIIIIAIIIIIIIIIIIIIIIIIIIIIIIIIII
IIIIIAIIIIIIIIIIIIIIIIIIIIIIIIIIIIIIAIIIIIIIIIIIIIIIIIIIIIIIIIII
IIIIAAIIIIIIIIIIIIIIIIIIIIIIIIIIIIIIAIIIIIIIIIIIIIIIIIIIIIIIIIII
IIIIIIIIIIIIIIIIIIIIIIIIIIIIIIIIIIIIIIIIIIIIIIIIIIIIIIIIIIIIIIIA
IIIIIIIIIIIIIIIIIIIIIIIIIIIIIIIIIIIIIIIIIIIIIIIIIIIIIIIIIIIIIIAI
IIIIIIIIIIIIIIIIIIIIIIIIIIIIIIIIIIIIIIIIIIIIIIIIIIAIIIIIIIIIIIII
IIIIIIIIIIIIIIIIIIIIIIIIIIIIIIIIIIIIIIIIIIIIIIIIIIAIIIIIAIIIIIII
IIIIIIIIIIIIIIIIIIIIIIIIIIIIIIIIIIIIIIIIIIIIIIIIIIAAIIIIAIIIIIII
IIIIIIIIIAIIIIIIIIIIIIIIIIIIIIIIIIIIIIIIIIIIIIIIIIIIIIIIIIIIIIII
IIIIIIIIIAIIIIIIIIAIIIIIIIIIIIIIIIIIIIIIIIIIIIIIIIIIIIIIIIIIIIII
IIIIIIIIIAIIIIIIIIAIIIIIIAIIIIIIIIIIIIIIIIIIIIIIIIIIIIIIIIIIIIII
IIIIIIIIIAIIIIIIIIAIIIIIIAIIIIIIIIIIAIIIIIIIIIIIIIIIIIIIIIIIIIII
IIIIIIIIIAIIIIIIIIAIIIIIIAIIIIIIIIIIAAIIIIIIIIIIIIIIIIIIIIIIIIII
IIIIIIIIIAIIIIIIIIAIIIIIIAIIIIIIIIIIAAIIIIIIIIIIIIIIIIIIAIIIIIII
IIIIIIIIIAIIIIIIIIAIIIIIIAIIIIIIIIIIAAIIIIIIIIIIIIIIIIIIAAIIIIII
IIIIIIIIIAIIIIIIIIAIIIIIIAIIIIIIIIIIAAIIIIIIIIIIIIIIIIAIAAIIIIII
IIIIIIIIIAIIIIIIIIAIIIIIIAIIIIIIIIIIAAIIIIIIIIIIIIIIIIAIAAIIIAII
IIIIIIIIIIIIIIIIIIIIIIIIIIIIIIIIIIIIIIIIIIIIIIIIAIIIIIIIIIIIIIII
IIIIIIIIIIIIIIIIIIIIIIIIIIIIIIIIIIIIIAIIIIIIIIIIIIIIIIIIIIIIIIII
IIIIIIIIIIIIIIIIIAIIIIIIIIIIIIIIIIIIIIIIIIIIIIIIIIIIIIIIIIIIIIII
IIIIIIIIIIIIIIIIIAIAIIIIIIIIIIIIIIIIIIIIIIIIIIIIIIIIIIIIIIIIIIII
IIIIIIIIIIIA2IIIIIIIIIIIIIIIIIIIIIIIIIIIIIIIIIIIIIIIIIIIIIIIIIII
IIIIIIIIIIIA2IIIIA2IIIIIIIIIIIIIIIIIIIIIIIIIIIIIIIIIIIIIIIIIIIII
IIIIIIIIIIIA2IIIIA2IIIIIIIIIIIIIIIIIIIIIIIIIIIIIIIIIIIIIIIIIIIIA
IIIIIIIIIIIA2IIIIA2IIIIIIIIIIIIIIIIIIIIIIIIIIIIIIIIIIIIIIA2IIIIA
IIIIIIIIIIIIIIIIIIIIIAIIIIIIIIIIIIIIIIIIIIIIIIIIIIIIIIIIIIIIIIII
IIIIIIIIIIIIIIIIIIIIIAIIIIIIIIIIIIIIIIIIIIIIIIAIIIIIIIIIIIIIIIII
IIIIIIIIIIIIIIIIIIIIIIIIIIIIIIIIIIIIIIIIIIIIIIIIIIIIIIIIA2IIIIII
IAIIIIIIIIIIIIIIIIIIIIIIIIIIIIIIIIIIIIIIIIIIIIIIIIIIIIIIIIIIIIII
IIIIIIIIIIIIIIIIIIIIIIIIIIIIIIIIIIIIIIIIIIIIIIIIIIIIIIA2IIIIIIII
IIIIIIIIIIIIIIIIIIIIIIIIIIIIIIIIIIIIIIIIIIIIIIIIIIIIIIIIAIIIIIII
IIIIIIIIIIIIIIIIIIIIIIAIIIIIIIIIIIIIIIIIIIIIIIIIIIIIIIIIIIIIIIII
IIIIIIIIIIIIIIIIIIIIIIAIIIIIIIIIIIIIIIIIIIIIIIIIIIIIIIIIIIIIIIAI
IIIIIIIIIIIIIIIIIIIIIIIIIIIIIIIIIIIIIIAIIIIIIIIIIIIIIIIIIIIIIIII
IIIIIIIIIA2IIIIIIIIIIIIIIIIIIIIIIIIIIIIIIIIIIIIIIIIIIIIIIIIIIIII
IIIIIIIIIA2IIIIIIIIIIIIIIIIIIIIIIIIIIIIIIIIIIIIIIIIIIIIIIIIIIA2I
IIIIIIIIIIIIIIIIIIIIIIIIIIIIIIIIIIIIAIIIIIIIIIIIIIIIIIIIIIIIIIII
IIIIIIIIIIIIAIIIIIIIIIIIIIIIIIIIIIIIIIIIIIIIIIIIIIIIIIIIIIIIIIII
IIIIIIIIIIIIAIIIIIIIIIIIIIIIIIIIIIIIIIIIIIIIIIIIIAIIIIIIIIIIIIII
IIIIIIIIIIIIIIIIIIIIIIIIIIIIIIIIIIIIIIIIIIIIIIIIIIIIIIIIIIIAIIII
IIIIIIIIIAIIIIIIIIIIIIIIIIIIIIIIIIIIIIIIIIIIIIIIIIIIIIIIIIIAIIII
IIIIIIIIIAIIIIIIIIIIIIIIIIIIIIIIIIIIAIIIIIIIIIIIIIIIIIIIIIIAIIII
IIIIIIIIIIIIIIIIIIIIIIIIIIIIIIIIIIIIAIIIIIIIIIIIIIIIIIIIIIIIIIII
IIIIAIIIIIIIIIIIIIIIIIIIIIIIIIIIIIIIAIIIIIIIIIIIIIIIIIIIIIIIIIII
IIIIAIIIIIIIIIIIIIIIIIIIIIIIIIIIIIIIAIIIIIIIIIIIAIIIIIIIIIIIIIII
IIIIIIIIIIIIIIIIIIIIIIIIIIIIIIIIIIIIIIIIIIIIIA2IIIIIIIIIIIIIIIII
IIIIIIIIIIIIIIIIIIIIIIIIIIIIIIIIIIIIIIIIIIIIIIIIIIIIIIIAIIIIIIII
IIIIIIIIIIIIIIIIIIAIIIIIIIIIIIIIIIIIIIIIIIIIIIIIIIIIIIIIIIIIIIII
IIIIIIIIIIIIIIIIIIAIIIIIIIIIIIIIIIIIAIIIIIIIIIIIIIIIIIIIIIIIIIII
IIIIIIIIIIIIIIIIIIIIIIIIIIIIIIIIIIIIIIAIIIIIIIIIIIIIIIIIIIIIIIII
IIIIIIIIIIIIIIIIIIIIIIIIIIIIIIIIIIIIIIIIIIIIIIIIIIIIIIIIIIIIIAII
IIIIIIIIIIIIIIIIIIIIIIIIIIIIIIIIIIIIAIIIIIIIIIIIIIIIIIIIIIIIIIII
IIIIIIIIIIIIIIIIIIIIIIIIIIIIIIIIIIIIAIIIIIIIIIIIIIIIIIIIIAIIIIII
IIIIIIIIIIIIIIIIIIIIIIIIIIIIIIIIIIIIAIIIIIIIIIIIIIIIIIIIIAIIIAII
IIIIIIIIIIIIIIIIIIIAIIIIIIIIIIIIIIIIIIIIIIIIIIIIIIIIIIIIIIIIIIII
IIIIIIIIIIIIIIIIIIIAIIIIIIIIIIIIIIIIIIIIIIIIIIAIIIIIIIIIIIIIIIII
IIIIIIIIIIIIIIIIIIIAIIIIIIIIIIIIIIIIIIIIIIIIIIAIIIIIIIIIIIIIIIAI
IIIIIIIIIIIIIIIIIIIIIIIIIIIIIIIIIIIIIIIIIIIIIIIIIIAIIIIIIIIIIIII
IIIA2IIIIIIIIIIIIIIIIIIIIIIIIIIIIIIIIIIIIIIIIIIIIIIIIIIIIIIIIIII
IIIA2IIIIIIIIIIIIIIIIIIIIIIIIIIIIIIIIIIIIIIIIIIIIIIIIIA2IIIIIIII
IIIA2IIIIIIIIIIIIIIIIIIIIIA2IIIIIIIIIIIIIIIIIIIIIIIIIIA2IIIIIIII
IIIA2IIIIIIIIIIIIIIIIIIIIIA2IIIIIIIIIIIIIIIIIIIIIIIIIIA2IIIIIIA2
IIIIIIIIIAIIIIIIIIIIIIIIIIIIIIIIIIIIIIIIIIIIIIIIIIIIIIIIIIIIIIII
IIIIIIIIIAIIIIIIIIIIIIAIIIIIIIIIIIIIIIIIIIIIIIIIIIIIIIIIIIIIIIII
IIIIIIIIIIIIAIIIIIIIIIIIIIIIIIIIIIIIIIIIIIIIIIIIIIIIIIIIIIIIIIII
IIIIIIIIIIIIAIIIIIIIIIIIIIIIIIIIIIIIAIIIIIIIIIIIIIIIIIIIIIIIIIII
IIIIIIIIIIIIAIIIIIIIIIIIIIIIIIIIIIIIAIIIIIIIIIIIIIIIIAIIIIIIIIII
IIIIIIIIIIIIAIIIIIIIIIIIIIIIIIIIIIIIAIIIIIIIIIIIIIIIIAIIIIIIIAII
IIIIIIIIIIIIIIIIIIIIIIIIIIIIIIIIIIIIIIIAIIIIIIIIIIIIIIIIIIIIIIII
IIIIIIIIIIIIIIIIIIIIIIIIIIIIIIIIIIIIIIIAIIIIIIIIIIIIIIIIIIIIIIAI
IIIIIIIIIIIIIIIIIIIIIIIIIIIIIIIIIIIIIIIIIIIIIIIIIIIIIIIIIIIIIA2I
IIIIIIIIIIIIIIIIIIIIIIIIIIIIIIIIIIIIIIIIIIIIIIA2IIIIIIIIIIIIIA2I
IIIIIIIIIIIIIIIIIIIAIIIIIIIIIIIIIIIIIIIIIIIIIIIIIIIIIIIIIIIIIIII
IIIIIIIIIIIIIIIIIIIIIIIIIIIIIIIIIIIIIIIIIIIIIIIIIIIIIIIIAIIIIIII
IIIIIAIIIIIIIIIIIIIIIIIIIIIIIIIIIIIIIIIIIIIIIIIIIIIIIIIIIIIIIIII
IIIIIAIIIIIIIIIIIIIIIIIIIIIIIIIIIIIIAIIIIIIIIIIIIIIIIIIIIIIIIIII
IIIIIIAIIIIIIIIIIIIIIIIIIIIIIIIIIIIIIIIIIIIIIIIIIIIIIIIIIIIIIIII
IIIIIIIIIIIIIIIIIIIIIAIIIIIIIIIIIIIIIIIIIIIIIIIIIIIIIIIIIIIIIIII
IIIIIIIIIIIIIIIIIIIIIAIIIAIIIIIIIIIIIIIIIIIIIIIIIIIIIIIIIIIIIIII
IIIIIIIIIIIIIIIIIIIIIAIIIAIIIIIIIIIIAIIIIIIIIIIIIIIIIIIIIIIIIIII
IIIIIIIIIIIIIIIIIIIIIAIIIAIIIIIIIIIIAIIIIIAIIIIIIIIIIIIIIIIIIIII
IIIIIIIIIIIIIIIIIIIIIAIIIAIIIIIIIIIIAIIIIIAIIIIIIIAIIIIIIIIIIIII
IIIIIIIIIIIIIIIIIIIIIAIIIAIIIIIIIIIIAIIIIIAIIIIIIIAIIIIIIIIIIAII
IIIIIIIIIIIIIIIIIIIIIAIIIAIIIIIIIIIIAIIIIIAIIIIIIIAIIIAIIIIIIAII
IIIIIIIIIIIIIIIIIIIIIIIIIIIIIIIIIIIIAIIIIIIIIIIIIIIIIIIIIIIIIIII
IIIIIIIIIIIIIIIIIIIIIIIIIIIIIIIIIIIIIIIIIIIIIAIIIIIIIIIIIIIIIIII
IIIIIIIIIIIIIIIIIIIAIIIIIIIIIIIIIIIIIIIIIIIIIIIIIIIIIIIIIIIIIIII
IIIIIIIIIIIIIIIIIIIAIIIIIIIIIIIIIIIIIIIIIIIIIIIIIIIIIIIIIAIIIIII
IIIIIIIIIIIIIIIIIIIIIIIIIIIIIIIIIIIIIIAIIIIIIIIIIIIIIIIIIIIIIIII
IIIIIIIIIIIIIIIIIIIIIIIIIIIIIIIIIIIIIIIIIIIIIIIIIIIIIIIIIIIIIIAI
IIIIIIIIIIIIIIIIIIIIIIIIIIIIIIIIIIIIAIIIIIIIIIIIIIIIIIIIIIIIIIAI
IIIIIIIIIIIIIIIIAIIIIIIIIIIIIIIIIIIIIIIIIIIIIIIIIIIIIIIIIIIIIIII
IIIIIIIIIIIIIIIIIIIIIIIIIIIIIIIIIIIIIIIIIIIIIIIIIIIIIIIIIIIIIIAI
IIIIIIIIIIIIIIIIIIIIIIIIIIIIIIIIIIIIIIIIIIIIIIIIIIIIIIIIAIIIIIII
IIIIIIIIIAIIIIIIIIIIIIIIIIIIIIIIIIIIIIIIIIIIIIIIIIIIIIIIIIIIIIII
IIIIIIIIIIIIIIIIIIIIIIIIIIIIIIIIIIIIIIIIIIIIIIIIIIIIIIIIAIIIIIII
IIIIIIIIIIIIIIIIIIIIIIIIIIIIIIIIIIIIAIIIIIIIIIIIIIIIIIIIIIIIIIII
IIIIIIIIIIIIIIIIIIIIIIIIIIIIIIIIIIIIAIIIIIIIIIIIIIIIIIIIAIIIIIII
IIIIIIIIIIIIIIIIIIIIIIIIIIIIIIIIIIIIIIIIIIIIIIIAIIIIIIIIIIIIIIII
IIIIIIIIIIIIIIIIIIIIIIIIIIIIIIIIIIIIIIIIIIIIIIIAIIAIIIIIIIIIIIII
IIIIIIIIIIIIIIIIIIIIIIIIIIIIIIIIIIIIIIIIIIIIIIIIIIIIIIIIIAIIIIII
IIIIIIIIIIIIIIIIIIAIIIIIIIIIIIIIIIIIIIIIIIIIIIIIIIIIIIIIIIIIIIII
IIIIIIIIIIIIIIIIIIAIIIIIIIIIIIIIIIIIIIIIAIIIIIIIIIIIIIIIIIIIIIII
IIIIIIIIIIIIIIIIIIIIIIIIIIIIIIIIIIIIIIAIIIIIIIIIIIIIIIIIIIIIIIII
IIIIIIIIIIIIIIIIIIIIIIIIIIIIIIIIIIIIIIIIIIIIIIIIIIIIIIIIIIIIIIAI
IIIIIIIIIIIIIIIIIIIIIIIIIIIIIIIIIIIIIIIIIIAIIIIIIIIIIIIIIIIIIIII
IIIIIIIIIIIIIIIIIIIIIIIIIIIIIIIIIIIIIIIIIAAIIIIIIIIIIIIIIIIIIIII
IIIIIIIIIIIIIIIIIIIIIIIIIIIIIIIIIIIIAIIIIIIIIIIIIIIIIIIIIIIIIIII
IIIIIIIIIIIAIIIIIIIIIIIIIIIIIIIIIIIIAIIIIIIIIIIIIIIIIIIIIIIIIIII
IIIIIIIIIIIAIIIIIIIIIIIIIIIIIIIIIIIIAIIIIAIIIIIIIIIIIIIIIIIIIIII
IIIIIIIIIIIAIIIIIIIIIIIIIIIIIIIIIIIIAIIIIAIIIIIIIIIIIIIIIIIIIAII
IIIIIIIIIIIIIIIIIIIIIIIIIIIIIIIIIIIAIIIIIIIIIIIIIIIIIIIIIIIIIIII
IIIIIIIIIIIIIIIIIIIIIIIIIIIIIIIIIIIIIIIIIIIIIIIIIIIAIIIIIIIIIIII
IIIIIIIIIIIIIIIIIIIIIIIIIIIIIIIIIIIIIIIIIIIIIIIIIIIAIIIIIIIIIIAI
IIIIIIIIIIIIIIIIIIIIIIIIIIIIIAIIIIIIIIIIIIIIIIIIIIIIIIIIIIIIIIII
IIIIIIIIIIIAIIIIIIIIIIIIIIIIIIIIIIIIIIIIIIIIIIIIIIIIIIIIIIIIIIII
IIIIIIIIIIIAIIIIIIIIIIIIIIIIIIIIIIIIAIIIIIIIIIIIIIIIIIIIIIIIIIII
AIIIIIIIIIIIIIIIIIIIIIIIIIIIIIIIIIIIIIIIIIIIIIIIIIIIIIIIIIIIIIII
AIIIIIIIIIIIIIIIIIAIIIIIIIIIIIIIIIIIIIIIIIIIIIIIIIIIIIIIIIIIIIII
IIIIIIIIIIIIIIIIIIIIIIIIIIIIIIIIIIIIAIIIIIIIIIIIIIIIIIIIIIIIIIII
IIIIIIIIIIIIIIIIIAIIIIIIIIIIIIIIIIIIIIIIIIIIIIIIIIIIIIIIIIIIIIII
AIIIIIIIIIIIIIIIIIIIIIIIIIIIIIIIIIIIIIIIIIIIIIIIIIIIIIIIIIIIIIII
AIIIIIIIIIIIIIIIIIIAIIIIIIIIIIIIIIIIIIIIIIIIIIIIIIIIIIIIIIIIIIII
AIIIIIIIIIIIIIIIIIIAIIIIIIIIIIIIAIIIIIIIIIIIIIIIIIIIIIIIIIIIIIII
AIIIIIAIIIIIIIIIIIIAIIIIIIIIIIIIAIIIIIIIIIIIIIIIIIIIIIIIIIIIIIII
AIIIIIAIIIIIIIIIIIIAIIIIIIIIIIIIAIIIIIIIIIIIIIIIIIIIIIIIIIIIIAII
IIIIIIIIIIIIIIIIIIIIIIIIIIIIIIIIIIIIIIIIIIAIIIIIIIIIIIIIIIIIIIII
IIIIIIIIIIIIIIIIIIIIIIIIIIIIIIIIIIIIIIIIIIAIIIIIIIIIIIIIIIIIIAII
IIIIIIIIIIIIIIIIIIIIIIIIIIIIIIIIIIIIIIIIIIIIIIIIIIIIIIIIIIIIIIAI
IIIIIIIIIIIIIIIIIIIIIIIIIIIIIIIIIIIIIIIIIIIIIIIIIIIIIIIIIIIIIAII
IIAIIIIIIIIIIIIIIIIIIIIIIIIIIIIIIIIIIIIIIIIIIIIIIIIIIIIIIIIIIIII
IIAIIIIIIAIIIIIIIIIIIIIIIIIIIIIIIIIIIIIIIIIIIIIIIIIIIIIIIIIIIIII
IIAIIIIIIAIIIIIIIIAIIIIIIIIIIIIIIIIIIIIIIIIIIIIIIIIIIIIIIIIIIIII
IIIIIIIIIIIIIIIIIIIIIAIIIIIIIIIIIIIIIIIIIIIIIIIIIIIIIIIIIIIIIIII
IIIIIIIIIIIIIIIIIIIAIIIIIIIIIIIIIIIIIIIIIIIIIIIIIIIIIIIIIIIIIIII
IIIIIIAIIIIIIIIIIIIIIIIIIIIIIIIIIIIIIIIIIIIIIIIIIIIIIIIIIIIIIIII
IIIIIIAIIIIIIIIIIIIIIIIIIIIIIIIIIIIIAIIIIIIIIIIIIIIIIIIIIIIIIIII
IIIIIIAIIIIIIIIIIIIIIIIIIIIIIIIIIIIIAIIIIIIIIIIIIIIIIIIIIIIIAIII
IIIIIIAIIIIIIIIIIIIIIIIIIIIIIIIIIIIIAIIIIIIIIIIIIIIIIIIIAIIIAIII
IIIIIIIIIIIIIIIAIIIIIIIIIIIIIIIIIIIIIIIIIIIIIIIIIIIIIIIIIIIIIIII
IIIIIIIIIIIIIIIAIIIAIIIIIIIIIIIIIIIIIIIIIIIIIIIIIIIIIIIIIIIIIIII
IIIIIIIIIIIIIIIAIIIAIIIIIIIIIIIIIIIIIIIIIIIIIIIIIIIIIIAIIIIIIIII
IIIIAIIIIIIIIIIIIIIIIIIIIIIIIIIIIIIIIIIIIIIIIIIIIIIIIIIIIIIIIIII
IIIIAIIIIIIIIIIIIIAIIIIIIIIIIIIIIIIIIIIIIIIIIIIIIIIIIIIIIIIIIIII
IIIIAIIIIIIIIIIIIIAIIIIIIIIIIIIIIIIIIIIIIIIIIIIIIIIIIIIIIIIIIAII
IIIIIIIIIIIIIIIIIIIIAIIIIIIIIIIIIIIIIIIIIIIIIIIIIIIIIIIIIIIIIIII
IIIIIIIIIIIIIIIIIIIIAIIIIIIIIIIIIIIIIIIIAIIIIIIIIIIIIIIIIIIIIIII
IIIIIIIIIIIIIIIAIIIIAIIIIIIIIIIIIIIIIIIIAIIIIIIIIIIIIIIIIIIIIIII
IIIIIIIIIIIIIIIAIIIIAIIIIIIIIIIIIIIIIIAIAIIIIIIIIIIIIIIIIIIIIIII
IIIIIIIIIIIIIIIAIIIIAIIIIIIIIIIIIIIIIIAIAAIIIIIIIIIIIIIIIIIIIIII
AIIIIIIIIIIIIIIIIIIIIIIIIIIIIIIIIIIIIIIIIIIIIIIIIIIIIIIIIIIIIIII
AIIIIIIIIIIIIIIIIIAIIIIIIIIIIIIIIIIIIIIIIIIIIIIIIIIIIIIIIIIIIIII
AIIIIIIIIIIIIIIIIIAIIIIIIIIIIIIIIIIIIIIIIIIIIIIIIAIIIIIIIIIIIIII
AIIIIIIIIIIIIIIIIIAIIIIIIIIIIIIIIIIIIIIIIIIIIIIIIAIIIIIAIIIIIIII
AIIIIIIIIIIIIIIIIIAIIIIIIIIIIIIIIIIIIIIIIIIIIIIIIAIIIIIAIIIIIIIA
IIIIIIIIIIIIIIIIIIIIIIIIIIIIIIIIIIIIIIIIAIIIIIIIIIIIIIIIIIIIIIII
IIIIIIIIIIIIIIIIIIIAIIIIIIIIIIIIIIIIIIIIIIIIIIIIIIIIIIIIIIIIIIII
IIIIIIIIIAIIIIIIIIIIIIIIIIIIIIIIIIIIIIIIIIIIIIIIIIIIIIIIIIIIIIII
IIIIIIIIIIIIIIIIIIIIIIIIIIIIIIIIIIIIAIIIIIIIIIIIIIIIIIIIIIIIIIII
IIIIIIIIIIIIIIIIIIIAIIIIIIIIIIIIIIIIIIIIIIIIIIIIIIIIIIIIIIIIIIII
IIIIIIIIIIIIIIIIIIIAIIIIIIIIIIIIIIIIA2IIIIIIIIIIIIIIIIIIIIIIIIII
IIIIIIIIIIIIIIIIIIIIIIIIIIIIIIIIIIIIIAIIIIIIIIIIIIIIIIIIIIIIIIII
IIIIIIIIIIIIIIIIIIIIIIIIIIIIIIIIIIIIIIIIIIIIIIIIIIIIIIIIIIIIIIAI
IIIIIIIIIIIIIIIIIIIIIIIIIIIIIIIIIIIIAIIIIIIIIIIIIIIIIIIIIIIIIIAI
IIIIIIIIIAIIIIIIIIIIIIIIIIIIIIIIIIIIIIIIIIIIIIIIIIIIIIIIIIIIIIII
IIIIIIIIIAIIIIIIIIIIIIAIIIIIIIIIIIIIIIIIIIIIIIIIIIIIIIIIIIIIIIII
IIIIIIIIIIIIIIIIIIIIIIIIIIIIIIIIIIIIIIIAIIIIIIIIIIIIIIIIIIIIIIII
IIIIIIIIIIIIIIIIIIIIIIIIIIIIIIIIIIIIIIIIIIIIIIIIIIIIIIIIIIIIIIIA
IIIIIIIIIIIIIIIIIIIIIIIIIIIIIIIIIIIIIIIIIIIIIIIIIIIIIIIIIIIIIAII
IIIIIIIIIIIIIIIIIIIIIIIIIIIIIIIIIIIIAIIIIIIIIIIIIIIIIIIIIIIIIIII
AIIIIIIIIIIIIIIIIIIIIIIIIIIIIIIIIIIIIIIIIIIIIIIIIIIIIIIIIIIIIIII
AIIIIIIIIIIIIIIIIIIIIIAIIIIIIIIIIIIIIIIIIIIIIIIIIIIIIIIIIIIIIIII
AIIIIIIIIIIIIIIIIIIIIIAIIAIIIIIIIIIIIIIIIIIIIIIIIIIIIIIIIIIIIIII
IIIIIAIIIIIIIIIIIIIIIIIIIIIIIIIIIIIIIIIIIIIIIIIIIIIIIIIIIIIIIIII
IIIIIIIIIIIIIIIIIIIIIIIIIIIIIIIIIIIIIIIIIIIIIIIIIIIIIIIIIIIIAIII
IIIIIIIIIIIIIIIIIIIIIIIIIIIIIIIIIIIIIIIIIIIIIIIIIIIIIIIIIIIIIAII
IIIIIIIIIIIIIIIIIIIIIIIIIIIIIIIIIIIIIIIIIIIAIIIIIIIIIIIIIIIIIIII
IIIIIIIIIIIIIIIIIIIIIIIIIIIIIIIIIIIIIIIIIIIIIIIIIIIIIIAIIIIIIIII
IIIIIIIIIIIIIIIIIIIIIIIIIIIIIIIIAIIIIIIIIIIIIIIIIIIIIIAIIIIIIIII
IIIIIAIIIIIIIIIIIIIIIIIIIIIIIIIIAIIIIIIIIIIIIIIIIIIIIIAIIIIIIIII
IIIIIAIIIIIIIIIIIIIIIIIIIIIIIIIIAIIIIIIIIIIIIIIIIIIIIIAIIAIIIIII
IIIIIIIIIIIIIIIIIIIIIIIIIIIIIIIIIIIIIIIIIIIIIIIIIIIIIIIIIIIIIIAI
IIIIIIIIIIIIIIIIIIIAIIIIIIIIIIIIIIIIIIIIIIIIIIIIIIIIIIIIIIIIIIII
IIIIIIIIIIIIIIIIIIIAIIIIIIIIIAIIIIIIIIIIIIIIIIIIIIIIIIIIIIIIIIII
IIIIIIIIIIIIIIIIIIIAIIIIIIIIIAIIIIIIIIIIIIIIIIIIIIIIIIIIAIIIIIII
IIIIIIIIIIIIIIIIIIIAIIIIAIIIIAIIIIIIIIIIIIIIIIIIIIIIIIIIAIIIIIII
IIIIIIIIIIIIIIIIIIIIAIIIIIIIIIIIIIIIIIIIIIIIIIIIIIIIIIIIIIIIIIII
IIIIIIIIIIIIIIIIIIIIAIIIIIIIIIIIIIIIIIIIIIIIIIIIIIIIIIIIAIIIIIII
IIIIIIIIIIIIIIIIIIIIAIIIIIIIIIIIIIIIIIIIIIIIIIIIIIIIIIIIAIIIIAII
IIIIIIIIIIIIIIIIIIIIIIIIIIIIIAIIIIIIIIIIIIIIIIIIIIIIIIIIIIIIIIII
IIIIIIIIIIIIIIIIIIIIIIIIIIIIIIIIIIIIIIIIIIIIIIIIIIIIIIAIIIIIIIII
IIIIIIIIIIIIIIIIIIIIIIIIIIIIIIIIIIIIIIIIIIIIIIIIIIIIIIIAIIIIIIII
IIIIIIIIIIIIIIIIIIIIIIIIIIIIIIIIIIIIIIIIIIIIIIIIIIIIIIIAIIIIIIAI
IIIIIIIIIIIIIIIIIIIIIIIIIAIIIIIIIIIIIIIIIIIIIIIIIIIIIIIIIIIIIIII
IIIIIIIIIIIIIIII1111I1AIIAIIIIIIIIIIIIIIIIIIIIIIIIIIIIIIIIIIIIII
IIIIIIIIIIII1111111111A1IAAIIIIIIIIIIIIIIIIIIIIIIIIIIIIIIIIIIIII
IIIIIIIIIIII1111111111A1IAAIIIIIIIIIIIIIIIIIIIIIII1111I1AIIIIIII
IIIIIIIIIA2IIIIIIIIIIIIIIIIIIIIIIIIIIIIIIIIIIIIIIIIIIIIIIIIIIIII
IIIIIIIIIA2IIIIIIIA2IIIIIIIIIIIIIIIIIIIIIIIIIIIIIIIIIIIIIIIIIIII
IIIIIIIIIA2IIA2IIIA2IIIIIIIIIIIIIIIIIIIIIIIIIIIIIIIIIIIIIIIIIIII
IIIIIIIIIA2IIA2IIIA2IIA2IIIIIIIIIIIIIIIIIIIIIIIIIIIIIIIIIIIIIIII
IIIIIIIIIA2IIA2IIIA2IIA2IIIIIIIIIIIIIIIIA2IIIIIIIIIIIIIIIIIIIIII
IIIIIIIIIA2IIA2IIIA2IIA2IIIIIIIIIIIIIIIIA2IIIIIIIIIIIIIIIIIIIA2I
IIIIIIIIIIIAIIIIIIIIIIIIIIIIIIIIIIIIIIIIIIIIIIIIIIIIIIIIIIIIIIII
IIIIIIIIAIIIIIIIIIIIIIIIIIIIIIIIIIIIIIIIIIIIIIIIIIIIIIIIIIIIIIII
IIIIIIIIIIIIIIIIIIIIIIIIIIIIIIIIIIIIIIIA2IIIIIIIIIIIIIIIIIIIIIII
AIIIIIIIIIIIIIIIIIIIIIIIIIIIIIIIIIIIIIIIIIIIIIIIIIIIIIIIIIIIIIII
AIIIIIIIIIIIIIIIIIIAIIIIIIIIIIIIIIIIIIIIIIIIIIIIIIIIIIIIIIIIIIII
AIIIIIIIIIIIIIIIIIIAIIIIIIIIIIIIIIIIIIIIIIIIIIIIIIIIIIAIIIIIIIII
AIIIIIIIIIIIIIIIIIIAIIIIIIIIIIIIIIIIIIIIIIIIIIIIIIIIIIAIIIIIIAII
AIIIIIIIIIIIIIIIIAIAIIIIIIIIIIIIIIIIIIIIIIIIIIIIIIIIIIAIIIIIIAII
IIIIIIIIIIIIIIIIIIIIIIIIIIIIIIIIIIIIIIIIIIIIAIIIIIIIIIIIIIIIIIII
AIIIIIIIIIIIIIIIIIIIIIIIIIIIIIIIIIIIIIIIIIIIAIIIIIIIIIIIIIIIIIII
IIIIIIIIIIIIIIIIIIIIIIIIIIIIIIIIIIIIIIIIIIIIIIIIIIIIIIIIIIIIIIAI
[MLOP] Prefetch Degree Mean: 0.365653
[MLOP] Prefetch Degree SD: 1.61633
[MLOP] Max Score Left Mean (%): 16.3225
[MLOP] Max Score Left SD (%): 5.3931
[MLOP] Max Score Right Mean (%): 25.7961
[MLOP] Max Score Right SD (%): 6.40681

DRAM Statistics
 CHANNEL 0
 RQ ROW_BUFFER_HIT:    2754948  ROW_BUFFER_MISS:   15493277
 DBUS_CONGESTED:        266
 WQ ROW_BUFFER_HIT:     177864  ROW_BUFFER_MISS:    2547255  FULL:          0

 AVG_CONGESTED_CYCLE: 5
 All warmup complete: 5
Channel 0 Bank busy for read cycles: 0
Channel 0 Bank busy for write cycles: 0
Channel 0
Rank 0
0banks busy for read cycles: 406122
0banks busy for write cycles: 0
1banks busy for read cycles: 51455211
1banks busy for write cycles: 424621
2banks busy for read cycles: 131543403
2banks busy for write cycles: 424039
3banks busy for read cycles: 168733976
3banks busy for write cycles: 423476
4banks busy for read cycles: 141367295
4banks busy for write cycles: 423304
5banks busy for read cycles: 88097334
5banks busy for write cycles: 444172
6banks busy for read cycles: 46742686
6banks busy for write cycles: 1211830
7banks busy for read cycles: 27843092
7banks busy for write cycles: 12303596
8banks busy for read cycles: 26985414
8banks busy for write cycles: 70067343

CPU 0 Branch Prediction Accuracy: 97.7915% MPKI: 3.28496 Average ROB Occupancy at Mispredict: 177.499
Branch types
NOT_BRANCH: 170325110 85.1256%
BRANCH_DIRECT_JUMP: 9229628 4.61281%
BRANCH_INDIRECT: 0 0%
BRANCH_CONDITIONAL: 20529729 10.2604%
BRANCH_DIRECT_CALL: 1314 0.000656715%
BRANCH_INDIRECT_CALL: 0 0%
BRANCH_RETURN: 1314 0.000656715%
BRANCH_OTHER: 0 0%


CPU 1 Branch Prediction Accuracy: 97.7916% MPKI: 3.28482 Average ROB Occupancy at Mispredict: 177.429
Branch types
NOT_BRANCH: 170345618 85.1256%
BRANCH_DIRECT_JUMP: 9230774 4.61283%
BRANCH_INDIRECT: 0 0%
BRANCH_CONDITIONAL: 20532179 10.2604%
BRANCH_DIRECT_CALL: 1314 0.000656636%
BRANCH_INDIRECT_CALL: 0 0%
BRANCH_RETURN: 1314 0.000656636%
BRANCH_OTHER: 0 0%


CPU 2 Branch Prediction Accuracy: 97.7915% MPKI: 3.28492 Average ROB Occupancy at Mispredict: 177.44
Branch types
NOT_BRANCH: 170355415 85.1255%
BRANCH_DIRECT_JUMP: 9231305 4.61283%
BRANCH_INDIRECT: 0 0%
BRANCH_CONDITIONAL: 20533363 10.2604%
BRANCH_DIRECT_CALL: 1314 0.000656598%
BRANCH_INDIRECT_CALL: 0 0%
BRANCH_RETURN: 1314 0.000656598%
BRANCH_OTHER: 0 0%


CPU 3 Branch Prediction Accuracy: 97.7909% MPKI: 3.2859 Average ROB Occupancy at Mispredict: 177.514
Branch types
NOT_BRANCH: 170250761 85.1254%
BRANCH_DIRECT_JUMP: 9225403 4.6127%
BRANCH_INDIRECT: 0 0%
BRANCH_CONDITIONAL: 20520883 10.2604%
BRANCH_DIRECT_CALL: 1314 0.000657%
BRANCH_INDIRECT_CALL: 0 0%
BRANCH_RETURN: 1314 0.000657%
BRANCH_OTHER: 0 0%

DRAM PAGES: 1048576
Allocated PAGES: 148380
